# generated using pymatgen
data_Tm4Co3
_symmetry_space_group_name_H-M   'P 1'
_cell_length_a   11.05048994
_cell_length_b   11.05048994
_cell_length_c   4.01849800
_cell_angle_alpha   90.00000000
_cell_angle_beta   90.00000000
_cell_angle_gamma   119.99999967
_symmetry_Int_Tables_number   1
_chemical_formula_structural   Tm4Co3
_chemical_formula_sum   'Tm12 Co9'
_cell_volume   424.96920173
_cell_formula_units_Z   3
loop_
 _symmetry_equiv_pos_site_id
 _symmetry_equiv_pos_as_xyz
  1  'x, y, z'
loop_
 _atom_site_type_symbol
 _atom_site_label
 _atom_site_symmetry_multiplicity
 _atom_site_fract_x
 _atom_site_fract_y
 _atom_site_fract_z
 _atom_site_occupancy
  Tm  Tm0  1  0.51375700  0.37973500  0.25036700  1
  Tm  Tm1  1  0.86597900  0.48624300  0.25036700  1
  Tm  Tm2  1  0.62026500  0.13402100  0.25036700  1
  Tm  Tm3  1  0.48624300  0.62026500  0.74963300  1
  Tm  Tm4  1  0.13402100  0.51375700  0.74963300  1
  Tm  Tm5  1  0.37973500  0.86597900  0.74963300  1
  Tm  Tm6  1  0.97689400  0.22319700  0.25045100  1
  Tm  Tm7  1  0.24630300  0.02310600  0.25045100  1
  Tm  Tm8  1  0.77680300  0.75369700  0.25045100  1
  Tm  Tm9  1  0.02310600  0.77680300  0.74954900  1
  Tm  Tm10  1  0.75369700  0.97689400  0.74954900  1
  Tm  Tm11  1  0.22319700  0.24630300  0.74954900  1
  Co  Co12  1  0.33333300  0.66666700  0.25027800  1
  Co  Co13  1  0.66666700  0.33333300  0.74972200  1
  Co  Co14  1  0.15424300  0.71749200  0.25118400  1
  Co  Co15  1  0.56324900  0.84575700  0.25118400  1
  Co  Co16  1  0.28250800  0.43675100  0.25118400  1
  Co  Co17  1  0.84575700  0.28250800  0.74881600  1
  Co  Co18  1  0.43675100  0.15424300  0.74881600  1
  Co  Co19  1  0.71749200  0.56324900  0.74881600  1
  Co  Co20  1  0.00000000  0.00000000  0.50000000  1
