# generated using pymatgen
data_Gd2Hf2(MoO4)7
_symmetry_space_group_name_H-M   'P 1'
_cell_length_a   11.69499247
_cell_length_b   11.69499247
_cell_length_c   14.05689837
_cell_angle_alpha   69.15466021
_cell_angle_beta   69.15466021
_cell_angle_gamma   50.54498237
_symmetry_Int_Tables_number   1
_chemical_formula_structural   Gd2Hf2(MoO4)7
_chemical_formula_sum   'Gd4 Hf4 Mo14 O56'
_cell_volume   1364.71849302
_cell_formula_units_Z   2
loop_
 _symmetry_equiv_pos_site_id
 _symmetry_equiv_pos_as_xyz
  1  'x, y, z'
loop_
 _atom_site_type_symbol
 _atom_site_label
 _atom_site_symmetry_multiplicity
 _atom_site_fract_x
 _atom_site_fract_y
 _atom_site_fract_z
 _atom_site_occupancy
  Gd  Gd0  1  0.14933000  0.12457700  0.06273500  1
  Gd  Gd1  1  0.85067000  0.87542300  0.93726500  1
  Gd  Gd2  1  0.87542300  0.85067000  0.43726500  1
  Gd  Gd3  1  0.12457700  0.14933000  0.56273500  1
  Hf  Hf4  1  0.41990100  0.34847500  0.18769200  1
  Hf  Hf5  1  0.58009900  0.65152500  0.81230800  1
  Hf  Hf6  1  0.65152500  0.58009900  0.31230800  1
  Hf  Hf7  1  0.34847500  0.41990100  0.68769200  1
  Mo  Mo8  1  0.49909600  0.98771200  0.17431200  1
  Mo  Mo9  1  0.50090400  0.01228800  0.82568800  1
  Mo  Mo10  1  0.01228800  0.50090400  0.32568800  1
  Mo  Mo11  1  0.98771200  0.49909600  0.67431200  1
  Mo  Mo12  1  0.45573000  0.22862700  0.47685600  1
  Mo  Mo13  1  0.54427000  0.77137300  0.52314400  1
  Mo  Mo14  1  0.77137300  0.54427000  0.02314400  1
  Mo  Mo15  1  0.22862700  0.45573000  0.97685600  1
  Mo  Mo16  1  0.81117400  0.06732100  0.14691500  1
  Mo  Mo17  1  0.18882600  0.93267900  0.85308500  1
  Mo  Mo18  1  0.93267900  0.18882600  0.35308500  1
  Mo  Mo19  1  0.06732100  0.81117400  0.64691500  1
  Mo  Mo20  1  0.29788200  0.70211800  0.25000000  1
  Mo  Mo21  1  0.70211800  0.29788200  0.75000000  1
  O  O22  1  0.48687800  0.12668800  0.21732100  1
  O  O23  1  0.51312200  0.87331200  0.78267900  1
  O  O24  1  0.87331200  0.51312200  0.28267900  1
  O  O25  1  0.12668800  0.48687800  0.71732100  1
  O  O26  1  0.64087800  0.07234000  0.49587000  1
  O  O27  1  0.35912200  0.92766000  0.50413000  1
  O  O28  1  0.92766000  0.35912200  0.00413000  1
  O  O29  1  0.07234000  0.64087800  0.99587000  1
  O  O30  1  0.31710500  0.06001200  0.16644100  1
  O  O31  1  0.68289500  0.93998800  0.83355900  1
  O  O32  1  0.93998800  0.68289500  0.33355900  1
  O  O33  1  0.06001200  0.31710500  0.66644100  1
  O  O34  1  0.93449700  0.02627000  0.39814600  1
  O  O35  1  0.06550300  0.97373000  0.60185400  1
  O  O36  1  0.97373000  0.06550300  0.10185400  1
  O  O37  1  0.02627000  0.93449700  0.89814600  1
  O  O38  1  0.79647800  0.99771200  0.28216400  1
  O  O39  1  0.20352200  0.00228800  0.71783600  1
  O  O40  1  0.00228800  0.20352200  0.21783600  1
  O  O41  1  0.99771200  0.79647800  0.78216400  1
  O  O42  1  0.57713200  0.80484600  0.26073000  1
  O  O43  1  0.42286800  0.19515400  0.73927000  1
  O  O44  1  0.19515400  0.42286800  0.23927000  1
  O  O45  1  0.80484600  0.57713200  0.76073000  1
  O  O46  1  0.66464000  0.82929800  0.47118700  1
  O  O47  1  0.33536000  0.17070200  0.52881300  1
  O  O48  1  0.17070200  0.33536000  0.02881300  1
  O  O49  1  0.82929800  0.66464000  0.97118700  1
  O  O50  1  0.82890300  0.94712800  0.08424600  1
  O  O51  1  0.17109700  0.05287200  0.91575400  1
  O  O52  1  0.05287200  0.17109700  0.41575400  1
  O  O53  1  0.94712800  0.82890300  0.58424600  1
  O  O54  1  0.60960200  0.96087100  0.04964200  1
  O  O55  1  0.39039800  0.03912900  0.95035800  1
  O  O56  1  0.03912900  0.39039800  0.45035800  1
  O  O57  1  0.96087100  0.60960200  0.54964200  1
  O  O58  1  0.37542400  0.39014000  0.04363700  1
  O  O59  1  0.62457600  0.60986000  0.95636300  1
  O  O60  1  0.60986000  0.62457600  0.45636300  1
  O  O61  1  0.39014000  0.37542400  0.54363700  1
  O  O62  1  0.26036900  0.86614400  0.15808400  1
  O  O63  1  0.73963100  0.13385600  0.84191600  1
  O  O64  1  0.13385600  0.73963100  0.34191600  1
  O  O65  1  0.86614400  0.26036900  0.65808400  1
  O  O66  1  0.44103000  0.63845800  0.31885400  1
  O  O67  1  0.55897000  0.36154200  0.68114600  1
  O  O68  1  0.36154200  0.55897000  0.18114600  1
  O  O69  1  0.63845800  0.44103000  0.81885400  1
  O  O70  1  0.64193000  0.26402300  0.12490000  1
  O  O71  1  0.35807000  0.73597700  0.87510000  1
  O  O72  1  0.73597700  0.35807000  0.37510000  1
  O  O73  1  0.26402300  0.64193000  0.62490000  1
  O  O74  1  0.44785000  0.30369700  0.33941000  1
  O  O75  1  0.55215000  0.69630300  0.66059000  1
  O  O76  1  0.69630300  0.55215000  0.16059000  1
  O  O77  1  0.30369700  0.44785000  0.83941000  1
