# generated using pymatgen
data_LiSmS2
_symmetry_space_group_name_H-M   'P 1'
_cell_length_a   6.62755539
_cell_length_b   6.62755539
_cell_length_c   6.62755618
_cell_angle_alpha   35.15153359
_cell_angle_beta   35.15153359
_cell_angle_gamma   35.15153153
_symmetry_Int_Tables_number   1
_chemical_formula_structural   LiSmS2
_chemical_formula_sum   'Li1 Sm1 S2'
_cell_volume   86.18275470
_cell_formula_units_Z   1
loop_
 _symmetry_equiv_pos_site_id
 _symmetry_equiv_pos_as_xyz
  1  'x, y, z'
loop_
 _atom_site_type_symbol
 _atom_site_label
 _atom_site_symmetry_multiplicity
 _atom_site_fract_x
 _atom_site_fract_y
 _atom_site_fract_z
 _atom_site_occupancy
  Li  Li0  1  0.00000000  0.00000000  0.00000000  1
  Sm  Sm1  1  0.50000000  0.50000000  0.50000000  1
  S  S2  1  0.25151300  0.25151300  0.25151300  1
  S  S3  1  0.74848700  0.74848700  0.74848700  1
