# generated using pymatgen
data_CoNiP
_symmetry_space_group_name_H-M   'P 1'
_cell_length_a   5.79885634
_cell_length_b   5.79885634
_cell_length_c   3.33266000
_cell_angle_alpha   90.00000000
_cell_angle_beta   90.00000000
_cell_angle_gamma   120.00000386
_symmetry_Int_Tables_number   1
_chemical_formula_structural   CoNiP
_chemical_formula_sum   'Co3 Ni3 P3'
_cell_volume   97.05240972
_cell_formula_units_Z   3
loop_
 _symmetry_equiv_pos_site_id
 _symmetry_equiv_pos_as_xyz
  1  'x, y, z'
loop_
 _atom_site_type_symbol
 _atom_site_label
 _atom_site_symmetry_multiplicity
 _atom_site_fract_x
 _atom_site_fract_y
 _atom_site_fract_z
 _atom_site_occupancy
  Co  Co0  1  0.00000000  0.73899400  0.00000000  1
  Co  Co1  1  0.26100600  0.26100600  0.00000000  1
  Co  Co2  1  0.73899400  0.00000000  0.00000000  1
  Ni  Ni3  1  0.00000000  0.39632600  0.50000000  1
  Ni  Ni4  1  0.60367400  0.60367400  0.50000000  1
  Ni  Ni5  1  0.39632600  0.00000000  0.50000000  1
  P  P6  1  0.33333300  0.66666700  0.00000000  1
  P  P7  1  0.66666700  0.33333300  0.00000000  1
  P  P8  1  0.00000000  0.00000000  0.50000000  1
