# generated using pymatgen
data_Na(V3S4)2
_symmetry_space_group_name_H-M   'P 1'
_cell_length_a   9.11311467
_cell_length_b   9.11311467
_cell_length_c   3.25861000
_cell_angle_alpha   90.00000000
_cell_angle_beta   90.00000000
_cell_angle_gamma   120.00000483
_symmetry_Int_Tables_number   1
_chemical_formula_structural   Na(V3S4)2
_chemical_formula_sum   'Na1 V6 S8'
_cell_volume   234.36711074
_cell_formula_units_Z   1
loop_
 _symmetry_equiv_pos_site_id
 _symmetry_equiv_pos_as_xyz
  1  'x, y, z'
loop_
 _atom_site_type_symbol
 _atom_site_label
 _atom_site_symmetry_multiplicity
 _atom_site_fract_x
 _atom_site_fract_y
 _atom_site_fract_z
 _atom_site_occupancy
  Na  Na0  1  0.00000000  0.00000000  0.50000000  1
  V  V1  1  0.11470900  0.49076400  0.74931400  1
  V  V2  1  0.50923600  0.62394500  0.74931400  1
  V  V3  1  0.37605500  0.88529100  0.74931400  1
  V  V4  1  0.88529100  0.50923600  0.25068600  1
  V  V5  1  0.49076400  0.37605500  0.25068600  1
  V  V6  1  0.62394500  0.11470900  0.25068600  1
  S  S7  1  0.66666700  0.33333300  0.75027000  1
  S  S8  1  0.33333300  0.66666700  0.24973000  1
  S  S9  1  0.29162300  0.34175800  0.75161200  1
  S  S10  1  0.65824200  0.94986500  0.75161200  1
  S  S11  1  0.05013500  0.70837700  0.75161200  1
  S  S12  1  0.70837700  0.65824200  0.24838800  1
  S  S13  1  0.34175800  0.05013500  0.24838800  1
  S  S14  1  0.94986500  0.29162300  0.24838800  1
