# generated using pymatgen
data_CeTlP2S7
_symmetry_space_group_name_H-M   'P 1'
_cell_length_a   12.50062200
_cell_length_b   9.12993800
_cell_length_c   9.84179996
_cell_angle_alpha   89.61519591
_cell_angle_beta   90.00000000
_cell_angle_gamma   90.00000000
_symmetry_Int_Tables_number   1
_chemical_formula_structural   CeTlP2S7
_chemical_formula_sum   'Ce4 Tl4 P8 S28'
_cell_volume   1123.21835059
_cell_formula_units_Z   4
loop_
 _symmetry_equiv_pos_site_id
 _symmetry_equiv_pos_as_xyz
  1  'x, y, z'
loop_
 _atom_site_type_symbol
 _atom_site_label
 _atom_site_symmetry_multiplicity
 _atom_site_fract_x
 _atom_site_fract_y
 _atom_site_fract_z
 _atom_site_occupancy
  Ce  Ce0  1  0.64270300  0.10926700  0.14397600  1
  Ce  Ce1  1  0.14270300  0.39073300  0.85602400  1
  Ce  Ce2  1  0.35729700  0.89073300  0.85602400  1
  Ce  Ce3  1  0.85729700  0.60926700  0.14397600  1
  Tl  Tl4  1  0.80997200  0.37126200  0.60268500  1
  Tl  Tl5  1  0.30997200  0.12873800  0.39731500  1
  Tl  Tl6  1  0.19002800  0.62873800  0.39731500  1
  Tl  Tl7  1  0.69002800  0.87126200  0.60268500  1
  P  P8  1  0.59842800  0.47842300  0.27639000  1
  P  P9  1  0.09842800  0.02157700  0.72361000  1
  P  P10  1  0.40157200  0.52157700  0.72361000  1
  P  P11  1  0.90157200  0.97842300  0.27639000  1
  P  P12  1  0.03819700  0.30189100  0.18927300  1
  P  P13  1  0.53819700  0.19810900  0.81072700  1
  P  P14  1  0.96180300  0.69810900  0.81072700  1
  P  P15  1  0.46180300  0.80189100  0.18927300  1
  S  S16  1  0.94111100  0.31982100  0.02372700  1
  S  S17  1  0.44111100  0.18017900  0.97627300  1
  S  S18  1  0.05888900  0.68017900  0.97627300  1
  S  S19  1  0.55888900  0.81982100  0.02372700  1
  S  S20  1  0.79557500  0.10999700  0.37362200  1
  S  S21  1  0.29557500  0.39000300  0.62637800  1
  S  S22  1  0.20442500  0.89000300  0.62637800  1
  S  S23  1  0.70442500  0.60999700  0.37362200  1
  S  S24  1  0.55541000  0.29051500  0.37013100  1
  S  S25  1  0.05541000  0.20948500  0.62986900  1
  S  S26  1  0.44459000  0.70948500  0.62986900  1
  S  S27  1  0.94459000  0.79051500  0.37013100  1
  S  S28  1  0.19323100  0.35425300  0.14938400  1
  S  S29  1  0.69323100  0.14574700  0.85061600  1
  S  S30  1  0.80676900  0.64574700  0.85061600  1
  S  S31  1  0.30676900  0.85425300  0.14938400  1
  S  S32  1  0.66265400  0.43217400  0.09027600  1
  S  S33  1  0.16265400  0.06782600  0.90972400  1
  S  S34  1  0.33734600  0.56782600  0.90972400  1
  S  S35  1  0.83734600  0.93217400  0.09027600  1
  S  S36  1  0.05579100  0.07901400  0.25378700  1
  S  S37  1  0.55579100  0.42098600  0.74621300  1
  S  S38  1  0.94420900  0.92098600  0.74621300  1
  S  S39  1  0.44420900  0.57901400  0.25378700  1
  S  S40  1  0.97829500  0.43019800  0.33935500  1
  S  S41  1  0.47829500  0.06980200  0.66064500  1
  S  S42  1  0.02170500  0.56980200  0.66064500  1
  S  S43  1  0.52170500  0.93019800  0.33935500  1
