# generated using pymatgen
data_PrMgRh
_symmetry_space_group_name_H-M   'P 1'
_cell_length_a   4.22015100
_cell_length_b   7.30276500
_cell_length_c   8.75505000
_cell_angle_alpha   90.00000000
_cell_angle_beta   90.00000000
_cell_angle_gamma   90.00000000
_symmetry_Int_Tables_number   1
_chemical_formula_structural   PrMgRh
_chemical_formula_sum   'Pr4 Mg4 Rh4'
_cell_volume   269.81988120
_cell_formula_units_Z   4
loop_
 _symmetry_equiv_pos_site_id
 _symmetry_equiv_pos_as_xyz
  1  'x, y, z'
loop_
 _atom_site_type_symbol
 _atom_site_label
 _atom_site_symmetry_multiplicity
 _atom_site_fract_x
 _atom_site_fract_y
 _atom_site_fract_z
 _atom_site_occupancy
  Pr  Pr0  1  0.25000000  0.03826700  0.32097300  1
  Pr  Pr1  1  0.75000000  0.96173300  0.67902700  1
  Pr  Pr2  1  0.25000000  0.53826700  0.17902700  1
  Pr  Pr3  1  0.75000000  0.46173300  0.82097300  1
  Mg  Mg4  1  0.25000000  0.13341800  0.94261400  1
  Mg  Mg5  1  0.75000000  0.86658200  0.05738600  1
  Mg  Mg6  1  0.25000000  0.63341800  0.55738600  1
  Mg  Mg7  1  0.75000000  0.36658200  0.44261400  1
  Rh  Rh8  1  0.75000000  0.24654600  0.12645800  1
  Rh  Rh9  1  0.25000000  0.75345400  0.87354200  1
  Rh  Rh10  1  0.75000000  0.74654600  0.37354200  1
  Rh  Rh11  1  0.25000000  0.25345400  0.62645800  1
