# generated using pymatgen
data_Ba5P4
_symmetry_space_group_name_H-M   'P 1'
_cell_length_a   8.43617900
_cell_length_b   8.52067300
_cell_length_c   9.36516935
_cell_angle_alpha   90.00000000
_cell_angle_beta   116.76947189
_cell_angle_gamma   90.00000000
_symmetry_Int_Tables_number   1
_chemical_formula_structural   Ba5P4
_chemical_formula_sum   'Ba10 P8'
_cell_volume   601.03825207
_cell_formula_units_Z   2
loop_
 _symmetry_equiv_pos_site_id
 _symmetry_equiv_pos_as_xyz
  1  'x, y, z'
loop_
 _atom_site_type_symbol
 _atom_site_label
 _atom_site_symmetry_multiplicity
 _atom_site_fract_x
 _atom_site_fract_y
 _atom_site_fract_z
 _atom_site_occupancy
  Ba  Ba0  1  0.02046700  0.66212100  0.70545400  1
  Ba  Ba1  1  0.68498700  0.33787900  0.70545400  1
  Ba  Ba2  1  0.18498700  0.16212100  0.70545400  1
  Ba  Ba3  1  0.52046700  0.83787900  0.70545400  1
  Ba  Ba4  1  0.97953300  0.33787900  0.29454600  1
  Ba  Ba5  1  0.31501300  0.66212100  0.29454600  1
  Ba  Ba6  1  0.81501300  0.83787900  0.29454600  1
  Ba  Ba7  1  0.47953300  0.16212100  0.29454600  1
  Ba  Ba8  1  0.50000000  0.50000000  0.00000000  1
  Ba  Ba9  1  0.00000000  0.00000000  0.00000000  1
  P  P10  1  0.30328000  0.50000000  0.60656000  1
  P  P11  1  0.80328000  0.00000000  0.60656000  1
  P  P12  1  0.69672000  0.50000000  0.39344000  1
  P  P13  1  0.19672000  0.00000000  0.39344000  1
  P  P14  1  0.40298100  0.90476200  0.00000000  1
  P  P15  1  0.59701900  0.09523800  0.00000000  1
  P  P16  1  0.09701900  0.40476200  0.00000000  1
  P  P17  1  0.90298100  0.59523800  0.00000000  1
