# generated using pymatgen
data_Er2Ni2Sn
_symmetry_space_group_name_H-M   'P 1'
_cell_length_a   7.25686000
_cell_length_b   7.25686000
_cell_length_c   3.66742000
_cell_angle_alpha   90.00000000
_cell_angle_beta   90.00000000
_cell_angle_gamma   90.00000000
_symmetry_Int_Tables_number   1
_chemical_formula_structural   Er2Ni2Sn
_chemical_formula_sum   'Er4 Ni4 Sn2'
_cell_volume   193.13373460
_cell_formula_units_Z   2
loop_
 _symmetry_equiv_pos_site_id
 _symmetry_equiv_pos_as_xyz
  1  'x, y, z'
loop_
 _atom_site_type_symbol
 _atom_site_label
 _atom_site_symmetry_multiplicity
 _atom_site_fract_x
 _atom_site_fract_y
 _atom_site_fract_z
 _atom_site_occupancy
  Er  Er0  1  0.67436800  0.17436800  0.50000000  1
  Er  Er1  1  0.32563200  0.82563200  0.50000000  1
  Er  Er2  1  0.17436800  0.32563200  0.50000000  1
  Er  Er3  1  0.82563200  0.67436800  0.50000000  1
  Ni  Ni4  1  0.87889700  0.37889700  0.00000000  1
  Ni  Ni5  1  0.12110300  0.62110300  0.00000000  1
  Ni  Ni6  1  0.37889700  0.12110300  0.00000000  1
  Ni  Ni7  1  0.62110300  0.87889700  0.00000000  1
  Sn  Sn8  1  0.50000000  0.50000000  0.00000000  1
  Sn  Sn9  1  0.00000000  0.00000000  0.00000000  1
