# generated using pymatgen
data_Ho2(Ga3Ir)3
_symmetry_space_group_name_H-M   'P 1'
_cell_length_a   7.59810476
_cell_length_b   7.59810476
_cell_length_c   9.51140800
_cell_angle_alpha   90.00000000
_cell_angle_beta   90.00000000
_cell_angle_gamma   119.98685802
_symmetry_Int_Tables_number   1
_chemical_formula_structural   Ho2(Ga3Ir)3
_chemical_formula_sum   'Ho4 Ga18 Ir6'
_cell_volume   475.60180505
_cell_formula_units_Z   2
loop_
 _symmetry_equiv_pos_site_id
 _symmetry_equiv_pos_as_xyz
  1  'x, y, z'
loop_
 _atom_site_type_symbol
 _atom_site_label
 _atom_site_symmetry_multiplicity
 _atom_site_fract_x
 _atom_site_fract_y
 _atom_site_fract_z
 _atom_site_occupancy
  Ho  Ho0  1  0.99713400  0.66791900  0.25000000  1
  Ho  Ho1  1  0.00286600  0.33208100  0.75000000  1
  Ho  Ho2  1  0.66791900  0.99713400  0.25000000  1
  Ho  Ho3  1  0.33208100  0.00286600  0.75000000  1
  Ga  Ga4  1  0.12622000  0.12622000  0.25000000  1
  Ga  Ga5  1  0.87378000  0.87378000  0.75000000  1
  Ga  Ga6  1  0.99925100  0.33384700  0.07937200  1
  Ga  Ga7  1  0.00074900  0.66615300  0.92062800  1
  Ga  Ga8  1  0.00074900  0.66615300  0.57937200  1
  Ga  Ga9  1  0.33384700  0.99925100  0.42062800  1
  Ga  Ga10  1  0.99925100  0.33384700  0.42062800  1
  Ga  Ga11  1  0.66615300  0.00074900  0.57937200  1
  Ga  Ga12  1  0.66615300  0.00074900  0.92062800  1
  Ga  Ga13  1  0.33384700  0.99925100  0.07937200  1
  Ga  Ga14  1  0.33287300  0.33287300  0.56357900  1
  Ga  Ga15  1  0.66712700  0.66712700  0.43642100  1
  Ga  Ga16  1  0.66712700  0.66712700  0.06357900  1
  Ga  Ga17  1  0.33287300  0.33287300  0.93642100  1
  Ga  Ga18  1  0.33849400  0.54635800  0.25000000  1
  Ga  Ga19  1  0.66150600  0.45364200  0.75000000  1
  Ga  Ga20  1  0.54635800  0.33849400  0.25000000  1
  Ga  Ga21  1  0.45364200  0.66150600  0.75000000  1
  Ir  Ir22  1  0.67162000  0.32838000  0.00000000  1
  Ir  Ir23  1  0.32838000  0.67162000  0.00000000  1
  Ir  Ir24  1  0.32838000  0.67162000  0.50000000  1
  Ir  Ir25  1  0.67162000  0.32838000  0.50000000  1
  Ir  Ir26  1  0.00000000  0.00000000  0.00000000  1
  Ir  Ir27  1  0.00000000  0.00000000  0.50000000  1
