# generated using pymatgen
data_TbTe3
_symmetry_space_group_name_H-M   'P 1'
_cell_length_a   13.20926543
_cell_length_b   13.20926543
_cell_length_c   4.35588200
_cell_angle_alpha   90.00000000
_cell_angle_beta   90.00000000
_cell_angle_gamma   161.02486182
_symmetry_Int_Tables_number   1
_chemical_formula_structural   TbTe3
_chemical_formula_sum   'Tb2 Te6'
_cell_volume   247.13125535
_cell_formula_units_Z   2
loop_
 _symmetry_equiv_pos_site_id
 _symmetry_equiv_pos_as_xyz
  1  'x, y, z'
loop_
 _atom_site_type_symbol
 _atom_site_label
 _atom_site_symmetry_multiplicity
 _atom_site_fract_x
 _atom_site_fract_y
 _atom_site_fract_z
 _atom_site_occupancy
  Tb  Tb0  1  0.16953000  0.83047000  0.75000000  1
  Tb  Tb1  1  0.83047000  0.16953000  0.25000000  1
  Te  Te2  1  0.92570000  0.07430000  0.75000000  1
  Te  Te3  1  0.07430000  0.92570000  0.25000000  1
  Te  Te4  1  0.57435800  0.42564200  0.75000000  1
  Te  Te5  1  0.42564200  0.57435800  0.25000000  1
  Te  Te6  1  0.29370700  0.70629300  0.75000000  1
  Te  Te7  1  0.70629300  0.29370700  0.25000000  1
