# generated using pymatgen
data_Gd3Cu2Te7
_symmetry_space_group_name_H-M   'P 1'
_cell_length_a   6.07939203
_cell_length_b   11.19827279
_cell_length_c   11.19827279
_cell_angle_alpha   118.48179624
_cell_angle_beta   90.00000000
_cell_angle_gamma   90.00000000
_symmetry_Int_Tables_number   1
_chemical_formula_structural   Gd3Cu2Te7
_chemical_formula_sum   'Gd6 Cu4 Te14'
_cell_volume   670.09384749
_cell_formula_units_Z   2
loop_
 _symmetry_equiv_pos_site_id
 _symmetry_equiv_pos_as_xyz
  1  'x, y, z'
loop_
 _atom_site_type_symbol
 _atom_site_label
 _atom_site_symmetry_multiplicity
 _atom_site_fract_x
 _atom_site_fract_y
 _atom_site_fract_z
 _atom_site_occupancy
  Gd  Gd0  1  0.75000000  0.41183006  0.59044838  1
  Gd  Gd1  1  0.25000000  0.59044838  0.41183006  1
  Gd  Gd2  1  0.75000000  0.90652756  0.61810342  1
  Gd  Gd3  1  0.25000000  0.61810342  0.90652756  1
  Gd  Gd4  1  0.25000000  0.08985783  0.37961619  1
  Gd  Gd5  1  0.75000000  0.37961619  0.08985783  1
  Cu  Cu6  1  0.75000000  0.23768535  0.76491749  1
  Cu  Cu7  1  0.25000000  0.76491749  0.23768535  1
  Cu  Cu8  1  0.75000000  0.84824381  0.29208493  1
  Cu  Cu9  1  0.25000000  0.29208493  0.84824381  1
  Te  Te10  1  0.75000000  0.65343620  0.34779672  1
  Te  Te11  1  0.25000000  0.34779672  0.65343620  1
  Te  Te12  1  0.75000000  0.10410791  0.49647252  1
  Te  Te13  1  0.25000000  0.49647252  0.10410791  1
  Te  Te14  1  0.25000000  0.89410914  0.50292816  1
  Te  Te15  1  0.75000000  0.50292816  0.89410914  1
  Te  Te16  1  0.50019246  0.88132910  0.11810284  1
  Te  Te17  1  0.49980754  0.11810284  0.88132910  1
  Te  Te18  1  0.99980754  0.88132910  0.11810284  1
  Te  Te19  1  0.00019246  0.11810284  0.88132910  1
  Te  Te20  1  0.50000000  0.30634566  0.30634566  1
  Te  Te21  1  0.00000000  0.30634566  0.30634566  1
  Te  Te22  1  0.50000000  0.69473956  0.69473956  1
  Te  Te23  1  0.00000000  0.69473956  0.69473956  1
