# generated using pymatgen
data_Nd5Pb3
_symmetry_space_group_name_H-M   'P 1'
_cell_length_a   9.42516224
_cell_length_b   9.42516224
_cell_length_c   6.91315400
_cell_angle_alpha   90.00000000
_cell_angle_beta   90.00000000
_cell_angle_gamma   120.00000166
_symmetry_Int_Tables_number   1
_chemical_formula_structural   Nd5Pb3
_chemical_formula_sum   'Nd10 Pb6'
_cell_volume   531.84431943
_cell_formula_units_Z   2
loop_
 _symmetry_equiv_pos_site_id
 _symmetry_equiv_pos_as_xyz
  1  'x, y, z'
loop_
 _atom_site_type_symbol
 _atom_site_label
 _atom_site_symmetry_multiplicity
 _atom_site_fract_x
 _atom_site_fract_y
 _atom_site_fract_z
 _atom_site_occupancy
  Nd  Nd0  1  0.66666700  0.33333300  0.00000000  1
  Nd  Nd1  1  0.33333300  0.66666700  0.00000000  1
  Nd  Nd2  1  0.33333300  0.66666700  0.50000000  1
  Nd  Nd3  1  0.66666700  0.33333300  0.50000000  1
  Nd  Nd4  1  0.75932800  0.75932800  0.75000000  1
  Nd  Nd5  1  0.24067200  0.00000000  0.75000000  1
  Nd  Nd6  1  0.00000000  0.24067200  0.75000000  1
  Nd  Nd7  1  0.24067200  0.24067200  0.25000000  1
  Nd  Nd8  1  0.75932800  0.00000000  0.25000000  1
  Nd  Nd9  1  0.00000000  0.75932800  0.25000000  1
  Pb  Pb10  1  0.39285600  0.39285600  0.75000000  1
  Pb  Pb11  1  0.60714400  0.00000000  0.75000000  1
  Pb  Pb12  1  0.00000000  0.60714400  0.75000000  1
  Pb  Pb13  1  0.60714400  0.60714400  0.25000000  1
  Pb  Pb14  1  0.39285600  0.00000000  0.25000000  1
  Pb  Pb15  1  0.00000000  0.39285600  0.25000000  1
