# generated using pymatgen
data_HoTl(MoO4)2
_symmetry_space_group_name_H-M   'P 1'
_cell_length_a   5.13488200
_cell_length_b   8.16055200
_cell_length_c   18.84014200
_cell_angle_alpha   90.00000000
_cell_angle_beta   90.00000000
_cell_angle_gamma   90.00000000
_symmetry_Int_Tables_number   1
_chemical_formula_structural   HoTl(MoO4)2
_chemical_formula_sum   'Ho4 Tl4 Mo8 O32'
_cell_volume   789.46735476
_cell_formula_units_Z   4
loop_
 _symmetry_equiv_pos_site_id
 _symmetry_equiv_pos_as_xyz
  1  'x, y, z'
loop_
 _atom_site_type_symbol
 _atom_site_label
 _atom_site_symmetry_multiplicity
 _atom_site_fract_x
 _atom_site_fract_y
 _atom_site_fract_z
 _atom_site_occupancy
  Ho  Ho0  1  0.00000000  0.75000000  0.00647300  1
  Ho  Ho1  1  0.00000000  0.25000000  0.99352700  1
  Ho  Ho2  1  0.50000000  0.25000000  0.49352700  1
  Ho  Ho3  1  0.50000000  0.75000000  0.50647300  1
  Tl  Tl4  1  0.00000000  0.75000000  0.76943400  1
  Tl  Tl5  1  0.00000000  0.25000000  0.23056600  1
  Tl  Tl6  1  0.50000000  0.25000000  0.73056600  1
  Tl  Tl7  1  0.50000000  0.75000000  0.26943400  1
  Mo  Mo8  1  0.02239900  0.51541500  0.40060300  1
  Mo  Mo9  1  0.97760100  0.48458500  0.59939700  1
  Mo  Mo10  1  0.47760100  0.01541500  0.09939700  1
  Mo  Mo11  1  0.97760100  0.98458500  0.40060300  1
  Mo  Mo12  1  0.52239900  0.98458500  0.90060300  1
  Mo  Mo13  1  0.02239900  0.01541500  0.59939700  1
  Mo  Mo14  1  0.52239900  0.48458500  0.09939700  1
  Mo  Mo15  1  0.47760100  0.51541500  0.90060300  1
  O  O16  1  0.09926200  0.97591000  0.31321400  1
  O  O17  1  0.90073800  0.02409000  0.68678600  1
  O  O18  1  0.40073800  0.47591000  0.18678600  1
  O  O19  1  0.90073800  0.52409000  0.31321400  1
  O  O20  1  0.59926200  0.52409000  0.81321400  1
  O  O21  1  0.09926200  0.47591000  0.68678600  1
  O  O22  1  0.59926200  0.02409000  0.18678600  1
  O  O23  1  0.40073800  0.97591000  0.81321400  1
  O  O24  1  0.26742400  0.83904400  0.09695000  1
  O  O25  1  0.73257600  0.16095600  0.90305000  1
  O  O26  1  0.23257600  0.33904400  0.40305000  1
  O  O27  1  0.73257600  0.66095600  0.09695000  1
  O  O28  1  0.76742400  0.66095600  0.59695000  1
  O  O29  1  0.26742400  0.33904400  0.90305000  1
  O  O30  1  0.76742400  0.16095600  0.40305000  1
  O  O31  1  0.23257600  0.83904400  0.59695000  1
  O  O32  1  0.24592200  0.50555600  0.03562300  1
  O  O33  1  0.75407800  0.49444400  0.96437700  1
  O  O34  1  0.25407800  0.00555600  0.46437700  1
  O  O35  1  0.75407800  0.99444400  0.03562300  1
  O  O36  1  0.74592200  0.99444400  0.53562300  1
  O  O37  1  0.24592200  0.00555600  0.96437700  1
  O  O38  1  0.74592200  0.49444400  0.46437700  1
  O  O39  1  0.25407800  0.50555600  0.53562300  1
  O  O40  1  0.24255600  0.68933000  0.41093300  1
  O  O41  1  0.75744400  0.31067000  0.58906700  1
  O  O42  1  0.25744400  0.18933000  0.08906700  1
  O  O43  1  0.75744400  0.81067000  0.41093300  1
  O  O44  1  0.74255600  0.81067000  0.91093300  1
  O  O45  1  0.24255600  0.18933000  0.58906700  1
  O  O46  1  0.74255600  0.31067000  0.08906700  1
  O  O47  1  0.25744400  0.68933000  0.91093300  1
