# generated using pymatgen
data_Na5IO6
_symmetry_space_group_name_H-M   'P 1'
_cell_length_a   5.74851467
_cell_length_b   5.74851467
_cell_length_c   5.70013228
_cell_angle_alpha   79.59673136
_cell_angle_beta   79.59673136
_cell_angle_gamma   119.35260479
_symmetry_Int_Tables_number   1
_chemical_formula_structural   Na5IO6
_chemical_formula_sum   'Na5 I1 O6'
_cell_volume   153.32106747
_cell_formula_units_Z   1
loop_
 _symmetry_equiv_pos_site_id
 _symmetry_equiv_pos_as_xyz
  1  'x, y, z'
loop_
 _atom_site_type_symbol
 _atom_site_label
 _atom_site_symmetry_multiplicity
 _atom_site_fract_x
 _atom_site_fract_y
 _atom_site_fract_z
 _atom_site_occupancy
  Na  Na0  1  0.83340700  0.16659300  0.00000000  1
  Na  Na1  1  0.16659300  0.83340700  0.00000000  1
  Na  Na2  1  0.67061300  0.32938700  0.50000000  1
  Na  Na3  1  0.32938700  0.67061300  0.50000000  1
  Na  Na4  1  0.00000000  0.00000000  0.50000000  1
  I  I5  1  0.50000000  0.50000000  0.00000000  1
  O  O6  1  0.43054700  0.15432500  0.21462400  1
  O  O7  1  0.56945300  0.84567500  0.78537600  1
  O  O8  1  0.84567500  0.56945300  0.78537600  1
  O  O9  1  0.15432500  0.43054700  0.21462400  1
  O  O10  1  0.70229100  0.70229100  0.20247000  1
  O  O11  1  0.29770900  0.29770900  0.79753000  1
