# generated using pymatgen
data_Zr4(B5Ir4)3
_symmetry_space_group_name_H-M   'P 1'
_cell_length_a   3.54859100
_cell_length_b   7.59394079
_cell_length_c   13.14709191
_cell_angle_alpha   90.03144272
_cell_angle_beta   90.08337402
_cell_angle_gamma   90.03938456
_symmetry_Int_Tables_number   1
_chemical_formula_structural   Zr4(B5Ir4)3
_chemical_formula_sum   'Zr4 B15 Ir12'
_cell_volume   354.28455889
_cell_formula_units_Z   1
loop_
 _symmetry_equiv_pos_site_id
 _symmetry_equiv_pos_as_xyz
  1  'x, y, z'
loop_
 _atom_site_type_symbol
 _atom_site_label
 _atom_site_symmetry_multiplicity
 _atom_site_fract_x
 _atom_site_fract_y
 _atom_site_fract_z
 _atom_site_occupancy
  Zr  Zr0  1  0.24999900  0.49898600  0.83139700  1
  Zr  Zr1  1  0.24908100  0.00079200  0.33509400  1
  Zr  Zr2  1  0.75091900  0.99920800  0.66490600  1
  Zr  Zr3  1  0.75000100  0.50101400  0.16860300  1
  B  B4  1  0.50000000  0.00000000  0.00000000  1
  B  B5  1  0.50000000  0.50000000  0.50000000  1
  B  B6  1  0.00000000  0.00000000  0.00000000  1
  B  B7  1  0.76104900  0.32712000  0.72245900  1
  B  B8  1  0.75348700  0.82617800  0.22513600  1
  B  B9  1  0.75124000  0.75087300  0.79979600  1
  B  B10  1  0.75937700  0.25129500  0.30304300  1
  B  B11  1  0.75016500  0.42388500  0.97457900  1
  B  B12  1  0.76448900  0.92085700  0.47529200  1
  B  B13  1  0.24651300  0.17382200  0.77486400  1
  B  B14  1  0.23895100  0.67288000  0.27754100  1
  B  B15  1  0.24062300  0.74870500  0.69695700  1
  B  B16  1  0.24876000  0.24912700  0.20020400  1
  B  B17  1  0.23551100  0.07914300  0.52470800  1
  B  B18  1  0.24983500  0.57611500  0.02542100  1
  Ir  Ir19  1  0.74026500  0.59198300  0.66354200  1
  Ir  Ir20  1  0.75084900  0.09148500  0.16387600  1
  Ir  Ir21  1  0.75058400  0.70744400  0.96301700  1
  Ir  Ir22  1  0.73555300  0.20994800  0.46501000  1
  Ir  Ir23  1  0.74850000  0.19986900  0.87241700  1
  Ir  Ir24  1  0.73993000  0.69900100  0.37211600  1
  Ir  Ir25  1  0.24915100  0.90851500  0.83612400  1
  Ir  Ir26  1  0.25973500  0.40801700  0.33645800  1
  Ir  Ir27  1  0.26444700  0.79005200  0.53499000  1
  Ir  Ir28  1  0.24941600  0.29255600  0.03698300  1
  Ir  Ir29  1  0.26007000  0.30099900  0.62788400  1
  Ir  Ir30  1  0.25150000  0.80013100  0.12758300  1
