# generated using pymatgen
data_PdPb
_symmetry_space_group_name_H-M   'P 1'
_cell_length_a   5.67538500
_cell_length_b   5.68529071
_cell_length_c   21.94415271
_cell_angle_alpha   95.86706299
_cell_angle_beta   95.89717005
_cell_angle_gamma   99.64937318
_symmetry_Int_Tables_number   1
_chemical_formula_structural   PdPb
_chemical_formula_sum   'Pd16 Pb16'
_cell_volume   689.17333550
_cell_formula_units_Z   16
loop_
 _symmetry_equiv_pos_site_id
 _symmetry_equiv_pos_as_xyz
  1  'x, y, z'
loop_
 _atom_site_type_symbol
 _atom_site_label
 _atom_site_symmetry_multiplicity
 _atom_site_fract_x
 _atom_site_fract_y
 _atom_site_fract_z
 _atom_site_occupancy
  Pd  Pd0  1  0.47737000  0.23384800  0.29231600  1
  Pd  Pd1  1  0.52263000  0.76615200  0.70768400  1
  Pd  Pd2  1  0.35665900  0.11583800  0.54220200  1
  Pd  Pd3  1  0.64334100  0.88416200  0.45779800  1
  Pd  Pd4  1  0.59542700  0.35741400  0.04443300  1
  Pd  Pd5  1  0.40457300  0.64258600  0.95556700  1
  Pd  Pd6  1  0.06593600  0.80237400  0.29391300  1
  Pd  Pd7  1  0.93406400  0.19762600  0.70608700  1
  Pd  Pd8  1  0.05401900  0.31592100  0.45606600  1
  Pd  Pd9  1  0.94598100  0.68407900  0.54393400  1
  Pd  Pd10  1  0.76343700  0.00120400  0.20825200  1
  Pd  Pd11  1  0.23656300  0.99879600  0.79174800  1
  Pd  Pd12  1  0.17153600  0.43396500  0.20564500  1
  Pd  Pd13  1  0.82846400  0.56603500  0.79435500  1
  Pd  Pd14  1  0.18235600  0.92031200  0.04187200  1
  Pd  Pd15  1  0.81764400  0.07968800  0.95812800  1
  Pb  Pb16  1  0.43561000  0.23421900  0.67946600  1
  Pb  Pb17  1  0.56439000  0.76578100  0.32053400  1
  Pb  Pb18  1  0.31332400  0.10867600  0.92733100  1
  Pb  Pb19  1  0.68667600  0.89132400  0.07266900  1
  Pb  Pb20  1  0.00410300  0.29984100  0.32221700  1
  Pb  Pb21  1  0.99589700  0.70015900  0.67778300  1
  Pb  Pb22  1  0.55783900  0.35532900  0.42967600  1
  Pb  Pb23  1  0.44216100  0.64467100  0.57032400  1
  Pb  Pb24  1  0.11747900  0.82059600  0.42746100  1
  Pb  Pb25  1  0.88252100  0.17940400  0.57253900  1
  Pb  Pb26  1  0.23787000  0.94211400  0.17706200  1
  Pb  Pb27  1  0.76213000  0.05788600  0.82293800  1
  Pb  Pb28  1  0.67834100  0.47601000  0.18007800  1
  Pb  Pb29  1  0.32165900  0.52399000  0.81992200  1
  Pb  Pb30  1  0.12593700  0.42145300  0.06995300  1
  Pb  Pb31  1  0.87406300  0.57854700  0.93004700  1
