# generated using pymatgen
data_HoAlRh
_symmetry_space_group_name_H-M   'P 1'
_cell_length_a   4.22779600
_cell_length_b   6.87257100
_cell_length_c   7.95238800
_cell_angle_alpha   90.00000000
_cell_angle_beta   90.00000000
_cell_angle_gamma   90.00000000
_symmetry_Int_Tables_number   1
_chemical_formula_structural   HoAlRh
_chemical_formula_sum   'Ho4 Al4 Rh4'
_cell_volume   231.06321938
_cell_formula_units_Z   4
loop_
 _symmetry_equiv_pos_site_id
 _symmetry_equiv_pos_as_xyz
  1  'x, y, z'
loop_
 _atom_site_type_symbol
 _atom_site_label
 _atom_site_symmetry_multiplicity
 _atom_site_fract_x
 _atom_site_fract_y
 _atom_site_fract_z
 _atom_site_occupancy
  Ho  Ho0  1  0.25000000  0.53052600  0.18000800  1
  Ho  Ho1  1  0.75000000  0.46947400  0.81999200  1
  Ho  Ho2  1  0.75000000  0.96947400  0.68000800  1
  Ho  Ho3  1  0.25000000  0.03052600  0.31999200  1
  Al  Al4  1  0.25000000  0.64019500  0.56048100  1
  Al  Al5  1  0.75000000  0.35980500  0.43951900  1
  Al  Al6  1  0.75000000  0.85980500  0.06048100  1
  Al  Al7  1  0.25000000  0.14019500  0.93951900  1
  Rh  Rh8  1  0.25000000  0.76735500  0.87944000  1
  Rh  Rh9  1  0.75000000  0.23264500  0.12056000  1
  Rh  Rh10  1  0.75000000  0.73264500  0.37944000  1
  Rh  Rh11  1  0.25000000  0.26735500  0.62056000  1
