# generated using pymatgen
data_SrCaPb6
_symmetry_space_group_name_H-M   'P 1'
_cell_length_a   5.07293100
_cell_length_b   5.07293100
_cell_length_c   9.84826100
_cell_angle_alpha   90.00000000
_cell_angle_beta   90.00000000
_cell_angle_gamma   90.00000000
_symmetry_Int_Tables_number   1
_chemical_formula_structural   SrCaPb6
_chemical_formula_sum   'Sr1 Ca1 Pb6'
_cell_volume   253.44134245
_cell_formula_units_Z   1
loop_
 _symmetry_equiv_pos_site_id
 _symmetry_equiv_pos_as_xyz
  1  'x, y, z'
loop_
 _atom_site_type_symbol
 _atom_site_label
 _atom_site_symmetry_multiplicity
 _atom_site_fract_x
 _atom_site_fract_y
 _atom_site_fract_z
 _atom_site_occupancy
  Sr  Sr0  1  0.00000000  0.00000000  0.50000000  1
  Ca  Ca1  1  0.00000000  0.00000000  0.00000000  1
  Pb  Pb2  1  0.50000000  0.00000000  0.24577800  1
  Pb  Pb3  1  0.50000000  0.00000000  0.75422200  1
  Pb  Pb4  1  0.00000000  0.50000000  0.24577800  1
  Pb  Pb5  1  0.00000000  0.50000000  0.75422200  1
  Pb  Pb6  1  0.50000000  0.50000000  0.00000000  1
  Pb  Pb7  1  0.50000000  0.50000000  0.50000000  1
