# generated using pymatgen
data_ThSi3Ru
_symmetry_space_group_name_H-M   'P 1'
_cell_length_a   5.78359206
_cell_length_b   5.78359206
_cell_length_c   5.78359206
_cell_angle_alpha   136.95245689
_cell_angle_beta   136.95245689
_cell_angle_gamma   62.51120884
_symmetry_Int_Tables_number   1
_chemical_formula_structural   ThSi3Ru
_chemical_formula_sum   'Th1 Si3 Ru1'
_cell_volume   89.04584905
_cell_formula_units_Z   1
loop_
 _symmetry_equiv_pos_site_id
 _symmetry_equiv_pos_as_xyz
  1  'x, y, z'
loop_
 _atom_site_type_symbol
 _atom_site_label
 _atom_site_symmetry_multiplicity
 _atom_site_fract_x
 _atom_site_fract_y
 _atom_site_fract_z
 _atom_site_occupancy
  Th  Th0  1  0.99727200  0.99727200  0.00000000  1
  Si  Si1  1  0.41632200  0.41632200  0.00000000  1
  Si  Si2  1  0.26282600  0.76282600  0.50000000  1
  Si  Si3  1  0.76282600  0.26282600  0.50000000  1
  Ru  Ru4  1  0.65475300  0.65475300  0.00000000  1
