# generated using pymatgen
data_BaCu2GeSe4
_symmetry_space_group_name_H-M   'P 1'
_cell_length_a   6.59720687
_cell_length_b   6.59720687
_cell_length_c   16.40473800
_cell_angle_alpha   90.00000000
_cell_angle_beta   90.00000000
_cell_angle_gamma   120.00000877
_symmetry_Int_Tables_number   1
_chemical_formula_structural   BaCu2GeSe4
_chemical_formula_sum   'Ba3 Cu6 Ge3 Se12'
_cell_volume   618.32968633
_cell_formula_units_Z   3
loop_
 _symmetry_equiv_pos_site_id
 _symmetry_equiv_pos_as_xyz
  1  'x, y, z'
loop_
 _atom_site_type_symbol
 _atom_site_label
 _atom_site_symmetry_multiplicity
 _atom_site_fract_x
 _atom_site_fract_y
 _atom_site_fract_z
 _atom_site_occupancy
  Ba  Ba0  1  0.44870700  0.00000000  0.33333300  1
  Ba  Ba1  1  0.55129300  0.55129300  0.00000000  1
  Ba  Ba2  1  0.00000000  0.44870700  0.66666700  1
  Cu  Cu3  1  0.07753400  0.43315400  0.42223800  1
  Cu  Cu4  1  0.35561900  0.92246600  0.08890500  1
  Cu  Cu5  1  0.56684600  0.64438100  0.75557200  1
  Cu  Cu6  1  0.92246600  0.35561900  0.91109500  1
  Cu  Cu7  1  0.43315400  0.07753400  0.57776200  1
  Cu  Cu8  1  0.64438100  0.56684600  0.24442800  1
  Ge  Ge9  1  0.00000000  0.28637400  0.16666700  1
  Ge  Ge10  1  0.28637400  0.00000000  0.83333300  1
  Ge  Ge11  1  0.71362600  0.71362600  0.50000000  1
  Se  Se12  1  0.53213600  0.04059300  0.94895700  1
  Se  Se13  1  0.50845700  0.46786400  0.61562300  1
  Se  Se14  1  0.95940700  0.49154300  0.28229000  1
  Se  Se15  1  0.89376200  0.66404200  0.83586500  1
  Se  Se16  1  0.22972000  0.33595800  0.83080200  1
  Se  Se17  1  0.10623800  0.77028000  0.49746900  1
  Se  Se18  1  0.77028000  0.10623800  0.50253100  1
  Se  Se19  1  0.46786400  0.50845700  0.38437700  1
  Se  Se20  1  0.33595800  0.22972000  0.16919800  1
  Se  Se21  1  0.04059300  0.53213600  0.05104300  1
  Se  Se22  1  0.49154300  0.95940700  0.71771000  1
  Se  Se23  1  0.66404200  0.89376200  0.16413500  1
