# generated using pymatgen
data_Ba2MnS3
_symmetry_space_group_name_H-M   'P 1'
_cell_length_a   4.35206100
_cell_length_b   8.90861200
_cell_length_c   17.20842600
_cell_angle_alpha   90.00000000
_cell_angle_beta   90.00000000
_cell_angle_gamma   90.00000000
_symmetry_Int_Tables_number   1
_chemical_formula_structural   Ba2MnS3
_chemical_formula_sum   'Ba8 Mn4 S12'
_cell_volume   667.18483596
_cell_formula_units_Z   4
loop_
 _symmetry_equiv_pos_site_id
 _symmetry_equiv_pos_as_xyz
  1  'x, y, z'
loop_
 _atom_site_type_symbol
 _atom_site_label
 _atom_site_symmetry_multiplicity
 _atom_site_fract_x
 _atom_site_fract_y
 _atom_site_fract_z
 _atom_site_occupancy
  Ba  Ba0  1  0.25000000  0.75486700  0.95675700  1
  Ba  Ba1  1  0.75000000  0.74513300  0.45675700  1
  Ba  Ba2  1  0.25000000  0.25486700  0.54324300  1
  Ba  Ba3  1  0.75000000  0.24513300  0.04324300  1
  Ba  Ba4  1  0.25000000  0.41692000  0.28570800  1
  Ba  Ba5  1  0.75000000  0.58308000  0.71429200  1
  Ba  Ba6  1  0.25000000  0.91692000  0.21429200  1
  Ba  Ba7  1  0.75000000  0.08308000  0.78570800  1
  Mn  Mn8  1  0.75000000  0.12847000  0.36645200  1
  Mn  Mn9  1  0.75000000  0.62847000  0.13354800  1
  Mn  Mn10  1  0.25000000  0.87153000  0.63354800  1
  Mn  Mn11  1  0.25000000  0.37153000  0.86645200  1
  S  S12  1  0.25000000  0.00559300  0.39838300  1
  S  S13  1  0.75000000  0.99440700  0.60161700  1
  S  S14  1  0.25000000  0.50559300  0.10161700  1
  S  S15  1  0.75000000  0.49440700  0.89838300  1
  S  S16  1  0.25000000  0.13104800  0.92705400  1
  S  S17  1  0.75000000  0.86895200  0.07294600  1
  S  S18  1  0.25000000  0.63104800  0.57294600  1
  S  S19  1  0.75000000  0.17807900  0.22955300  1
  S  S20  1  0.25000000  0.32192100  0.72955300  1
  S  S21  1  0.75000000  0.67807900  0.27044700  1
  S  S22  1  0.25000000  0.82192100  0.77044700  1
  S  S23  1  0.75000000  0.36895200  0.42705400  1
