# generated using pymatgen
data_TaFe4W
_symmetry_space_group_name_H-M   'P 1'
_cell_length_a   4.74923979
_cell_length_b   4.74923979
_cell_length_c   7.83028015
_cell_angle_alpha   90.01948989
_cell_angle_beta   89.98051011
_cell_angle_gamma   119.97818064
_symmetry_Int_Tables_number   1
_chemical_formula_structural   TaFe4W
_chemical_formula_sum   'Ta2 Fe8 W2'
_cell_volume   152.98594681
_cell_formula_units_Z   2
loop_
 _symmetry_equiv_pos_site_id
 _symmetry_equiv_pos_as_xyz
  1  'x, y, z'
loop_
 _atom_site_type_symbol
 _atom_site_label
 _atom_site_symmetry_multiplicity
 _atom_site_fract_x
 _atom_site_fract_y
 _atom_site_fract_z
 _atom_site_occupancy
  Ta  Ta0  1  0.66662100  0.33337900  0.57191800  1
  Ta  Ta1  1  0.33337900  0.66662100  0.42808200  1
  Fe  Fe2  1  0.00000000  0.00000000  0.50000000  1
  Fe  Fe3  1  0.00000000  0.00000000  0.00000000  1
  Fe  Fe4  1  0.17002700  0.34001900  0.75197100  1
  Fe  Fe5  1  0.16995000  0.83005000  0.75185000  1
  Fe  Fe6  1  0.65998100  0.82997300  0.75197100  1
  Fe  Fe7  1  0.82997300  0.65998100  0.24802900  1
  Fe  Fe8  1  0.83005000  0.16995000  0.24815000  1
  Fe  Fe9  1  0.34001900  0.17002700  0.24802900  1
  W  W10  1  0.33322600  0.66677400  0.05943600  1
  W  W11  1  0.66677400  0.33322600  0.94056400  1
