# generated using pymatgen
data_Mn3P4H2(PbO8)2
_symmetry_space_group_name_H-M   'P 1'
_cell_length_a   8.07851617
_cell_length_b   9.00288500
_cell_length_c   9.71874379
_cell_angle_alpha   90.00000000
_cell_angle_beta   100.98798115
_cell_angle_gamma   90.00000000
_symmetry_Int_Tables_number   1
_chemical_formula_structural   Mn3P4H2(PbO8)2
_chemical_formula_sum   'Mn6 P8 H4 Pb4 O32'
_cell_volume   693.88533537
_cell_formula_units_Z   2
loop_
 _symmetry_equiv_pos_site_id
 _symmetry_equiv_pos_as_xyz
  1  'x, y, z'
loop_
 _atom_site_type_symbol
 _atom_site_label
 _atom_site_symmetry_multiplicity
 _atom_site_fract_x
 _atom_site_fract_y
 _atom_site_fract_z
 _atom_site_occupancy
  Mn  Mn0  1  0.00000000  0.00000000  0.00000000  1
  Mn  Mn1  1  0.00000000  0.50000000  0.50000000  1
  Mn  Mn2  1  0.10753900  0.36201700  0.09176900  1
  Mn  Mn3  1  0.89246100  0.86201700  0.40823100  1
  Mn  Mn4  1  0.89246100  0.63798300  0.90823100  1
  Mn  Mn5  1  0.10753900  0.13798300  0.59176900  1
  P  P6  1  0.14094400  0.79547400  0.73221200  1
  P  P7  1  0.85905600  0.29547400  0.76778800  1
  P  P8  1  0.85905600  0.20452600  0.26778800  1
  P  P9  1  0.14094400  0.70452600  0.23221200  1
  P  P10  1  0.65979300  0.79377100  0.06753100  1
  P  P11  1  0.34020700  0.29377100  0.43246900  1
  P  P12  1  0.34020700  0.20622900  0.93246900  1
  P  P13  1  0.65979300  0.70622900  0.56753100  1
  H  H14  1  0.39767600  0.82968600  0.93152600  1
  H  H15  1  0.60232400  0.32968600  0.56847400  1
  H  H16  1  0.60232400  0.17031400  0.06847400  1
  H  H17  1  0.39767600  0.67031400  0.43152600  1
  Pb  Pb18  1  0.40685600  0.97215700  0.25276700  1
  Pb  Pb19  1  0.59314400  0.47215700  0.24723300  1
  Pb  Pb20  1  0.59314400  0.02784300  0.74723300  1
  Pb  Pb21  1  0.40685600  0.52784300  0.75276700  1
  O  O22  1  0.04702600  0.81781400  0.85579100  1
  O  O23  1  0.95297400  0.31781400  0.64420900  1
  O  O24  1  0.95297400  0.18218600  0.14420900  1
  O  O25  1  0.04702600  0.68218600  0.35579100  1
  O  O26  1  0.07473500  0.90312700  0.60942400  1
  O  O27  1  0.92526500  0.40312700  0.89057600  1
  O  O28  1  0.92526500  0.09687300  0.39057600  1
  O  O29  1  0.07473500  0.59687300  0.10942400  1
  O  O30  1  0.11705400  0.63114300  0.68083400  1
  O  O31  1  0.88294600  0.13114300  0.81916600  1
  O  O32  1  0.88294600  0.36885700  0.31916600  1
  O  O33  1  0.11705400  0.86885700  0.18083400  1
  O  O34  1  0.33580500  0.81527200  0.78647600  1
  O  O35  1  0.66419500  0.31527200  0.71352400  1
  O  O36  1  0.66419500  0.18472800  0.21352400  1
  O  O37  1  0.33580500  0.68472800  0.28647600  1
  O  O38  1  0.70894100  0.82568900  0.22442500  1
  O  O39  1  0.29105900  0.32568900  0.27557500  1
  O  O40  1  0.29105900  0.17431100  0.77557500  1
  O  O41  1  0.70894100  0.67431100  0.72442500  1
  O  O42  1  0.75328600  0.89087400  0.97477200  1
  O  O43  1  0.24671400  0.39087400  0.52522800  1
  O  O44  1  0.24671400  0.10912600  0.02522800  1
  O  O45  1  0.75328600  0.60912600  0.47477200  1
  O  O46  1  0.67968600  0.62907400  0.02826500  1
  O  O47  1  0.32031400  0.12907400  0.47173500  1
  O  O48  1  0.32031400  0.37092600  0.97173500  1
  O  O49  1  0.67968600  0.87092600  0.52826500  1
  O  O50  1  0.46394100  0.83677500  0.03694000  1
  O  O51  1  0.53605900  0.33677500  0.46306000  1
  O  O52  1  0.53605900  0.16322500  0.96306000  1
  O  O53  1  0.46394100  0.66322500  0.53694000  1
