# generated using pymatgen
data_BaCa2WN4
_symmetry_space_group_name_H-M   'P 1'
_cell_length_a   9.45255600
_cell_length_b   10.29939200
_cell_length_c   11.72939500
_cell_angle_alpha   90.00000000
_cell_angle_beta   90.00000000
_cell_angle_gamma   90.00000000
_symmetry_Int_Tables_number   1
_chemical_formula_structural   BaCa2WN4
_chemical_formula_sum   'Ba8 Ca16 W8 N32'
_cell_volume   1141.92204912
_cell_formula_units_Z   8
loop_
 _symmetry_equiv_pos_site_id
 _symmetry_equiv_pos_as_xyz
  1  'x, y, z'
loop_
 _atom_site_type_symbol
 _atom_site_label
 _atom_site_symmetry_multiplicity
 _atom_site_fract_x
 _atom_site_fract_y
 _atom_site_fract_z
 _atom_site_occupancy
  Ba  Ba0  1  0.17993000  0.73785400  0.88100800  1
  Ba  Ba1  1  0.82007000  0.26214600  0.11899200  1
  Ba  Ba2  1  0.32007000  0.23785400  0.11899200  1
  Ba  Ba3  1  0.82007000  0.76214600  0.38100800  1
  Ba  Ba4  1  0.67993000  0.76214600  0.88100800  1
  Ba  Ba5  1  0.17993000  0.23785400  0.61899200  1
  Ba  Ba6  1  0.67993000  0.26214600  0.61899200  1
  Ba  Ba7  1  0.32007000  0.73785400  0.38100800  1
  Ca  Ca8  1  0.03387600  0.62159700  0.60357600  1
  Ca  Ca9  1  0.96612400  0.37840300  0.39642400  1
  Ca  Ca10  1  0.46612400  0.12159700  0.39642400  1
  Ca  Ca11  1  0.96612400  0.87840300  0.10357600  1
  Ca  Ca12  1  0.53387600  0.87840300  0.60357600  1
  Ca  Ca13  1  0.03387600  0.12159700  0.89642400  1
  Ca  Ca14  1  0.53387600  0.37840300  0.89642400  1
  Ca  Ca15  1  0.46612400  0.62159700  0.10357600  1
  Ca  Ca16  1  0.37816300  0.54143700  0.63608400  1
  Ca  Ca17  1  0.62183700  0.45856300  0.36391600  1
  Ca  Ca18  1  0.12183700  0.04143700  0.36391600  1
  Ca  Ca19  1  0.62183700  0.95856300  0.13608400  1
  Ca  Ca20  1  0.87816300  0.95856300  0.63608400  1
  Ca  Ca21  1  0.37816300  0.04143700  0.86391600  1
  Ca  Ca22  1  0.87816300  0.45856300  0.86391600  1
  Ca  Ca23  1  0.12183700  0.54143700  0.13608400  1
  W  W24  1  0.20088400  0.90298900  0.61352200  1
  W  W25  1  0.79911600  0.09701100  0.38647800  1
  W  W26  1  0.29911600  0.40298900  0.38647800  1
  W  W27  1  0.79911600  0.59701100  0.11352200  1
  W  W28  1  0.70088400  0.59701100  0.61352200  1
  W  W29  1  0.20088400  0.40298900  0.88647800  1
  W  W30  1  0.70088400  0.09701100  0.88647800  1
  W  W31  1  0.29911600  0.90298900  0.11352200  1
  N  N32  1  0.30774000  0.76394000  0.67215500  1
  N  N33  1  0.69226000  0.23606000  0.32784500  1
  N  N34  1  0.19226000  0.26394000  0.32784500  1
  N  N35  1  0.69226000  0.73606000  0.17215500  1
  N  N36  1  0.80774000  0.73606000  0.67215500  1
  N  N37  1  0.30774000  0.26394000  0.82784500  1
  N  N38  1  0.80774000  0.23606000  0.82784500  1
  N  N39  1  0.19226000  0.76394000  0.17215500  1
  N  N40  1  0.32188100  0.51055800  0.97253100  1
  N  N41  1  0.67811900  0.48944200  0.02746900  1
  N  N42  1  0.17811900  0.01055800  0.02746900  1
  N  N43  1  0.67811900  0.98944200  0.47253100  1
  N  N44  1  0.82188100  0.98944200  0.97253100  1
  N  N45  1  0.32188100  0.01055800  0.52746900  1
  N  N46  1  0.82188100  0.48944200  0.52746900  1
  N  N47  1  0.17811900  0.51055800  0.47253100  1
  N  N48  1  0.11282000  0.49825500  0.76823800  1
  N  N49  1  0.88718000  0.50174500  0.23176200  1
  N  N50  1  0.38718000  0.99825500  0.23176200  1
  N  N51  1  0.88718000  0.00174500  0.26823800  1
  N  N52  1  0.61282000  0.00174500  0.76823800  1
  N  N53  1  0.11282000  0.99825500  0.73176200  1
  N  N54  1  0.61282000  0.50174500  0.73176200  1
  N  N55  1  0.38718000  0.49825500  0.26823800  1
  N  N56  1  0.06166600  0.84156800  0.51255900  1
  N  N57  1  0.93833400  0.15843200  0.48744100  1
  N  N58  1  0.43833400  0.34156800  0.48744100  1
  N  N59  1  0.93833400  0.65843200  0.01255900  1
  N  N60  1  0.56166600  0.65843200  0.51255900  1
  N  N61  1  0.06166600  0.34156800  0.98744100  1
  N  N62  1  0.56166600  0.15843200  0.98744100  1
  N  N63  1  0.43833400  0.84156800  0.01255900  1
