# generated using pymatgen
data_Na3H5(SeO4)4
_symmetry_space_group_name_H-M   'P 1'
_cell_length_a   6.02760100
_cell_length_b   7.39461108
_cell_length_c   9.20993114
_cell_angle_alpha   105.36563348
_cell_angle_beta   92.09247968
_cell_angle_gamma   105.81743025
_symmetry_Int_Tables_number   1
_chemical_formula_structural   Na3H5(SeO4)4
_chemical_formula_sum   'Na3 H5 Se4 O16'
_cell_volume   378.21627167
_cell_formula_units_Z   1
loop_
 _symmetry_equiv_pos_site_id
 _symmetry_equiv_pos_as_xyz
  1  'x, y, z'
loop_
 _atom_site_type_symbol
 _atom_site_label
 _atom_site_symmetry_multiplicity
 _atom_site_fract_x
 _atom_site_fract_y
 _atom_site_fract_z
 _atom_site_occupancy
  Na  Na0  1  0.80770700  0.62986700  0.08089900  1
  Na  Na1  1  0.19229300  0.37013300  0.91910100  1
  Na  Na2  1  0.00000000  0.00000000  0.50000000  1
  H  H3  1  0.41474700  0.12477900  0.13795400  1
  H  H4  1  0.58525300  0.87522100  0.86204600  1
  H  H5  1  0.50000000  0.00000000  0.50000000  1
  H  H6  1  0.85260100  0.61243900  0.62090400  1
  H  H7  1  0.14739900  0.38756100  0.37909600  1
  Se  Se8  1  0.79301100  0.14224900  0.15730400  1
  Se  Se9  1  0.20698900  0.85775100  0.84269600  1
  Se  Se10  1  0.66922600  0.32683700  0.67422700  1
  Se  Se11  1  0.33077400  0.67316300  0.32577300  1
  O  O12  1  0.73894100  0.92062700  0.03505200  1
  O  O13  1  0.26105900  0.07937300  0.96494800  1
  O  O14  1  0.88211500  0.32263800  0.07994600  1
  O  O15  1  0.11788500  0.67736200  0.92005400  1
  O  O16  1  0.96693000  0.16992900  0.31055400  1
  O  O17  1  0.03307000  0.83007100  0.68944600  1
  O  O18  1  0.53040100  0.15594200  0.22990900  1
  O  O19  1  0.46959900  0.84405800  0.77009100  1
  O  O20  1  0.57612400  0.43724400  0.82835200  1
  O  O21  1  0.42387600  0.56275600  0.17164800  1
  O  O22  1  0.89175300  0.24317500  0.69678400  1
  O  O23  1  0.10824700  0.75682500  0.30321600  1
  O  O24  1  0.44380200  0.14407500  0.56403200  1
  O  O25  1  0.55619800  0.85592500  0.43596800  1
  O  O26  1  0.73635300  0.48275700  0.55962900  1
  O  O27  1  0.26364700  0.51724300  0.44037100  1
