# generated using pymatgen
data_AcMg149
_symmetry_space_group_name_H-M   'P 1'
_cell_length_a   16.04660982
_cell_length_b   16.04661546
_cell_length_c   15.66822415
_cell_angle_alpha   90.00000000
_cell_angle_beta   90.00000000
_cell_angle_gamma   120.00000968
_symmetry_Int_Tables_number   1
_chemical_formula_structural   AcMg149
_chemical_formula_sum   'Ac1 Mg149'
_cell_volume   3493.95335983
_cell_formula_units_Z   1
loop_
 _symmetry_equiv_pos_site_id
 _symmetry_equiv_pos_as_xyz
  1  'x, y, z'
loop_
 _atom_site_type_symbol
 _atom_site_label
 _atom_site_symmetry_multiplicity
 _atom_site_fract_x
 _atom_site_fract_y
 _atom_site_fract_z
 _atom_site_occupancy
  Ac  Ac0  1  0.00000000  0.00000000  0.00000000  1
  Mg  Mg1  1  0.60029035  0.20058069  0.00000000  1
  Mg  Mg2  1  0.40224674  0.20112387  0.00000000  1
  Mg  Mg3  1  0.79887613  0.20112387  0.00000000  1
  Mg  Mg4  1  0.20740027  0.21161067  0.00000000  1
  Mg  Mg5  1  0.00421140  0.21161167  0.00000000  1
  Mg  Mg6  1  0.60029035  0.39970965  0.00000000  1
  Mg  Mg7  1  0.79941931  0.39970965  0.00000000  1
  Mg  Mg8  1  0.40163637  0.40204192  0.00000000  1
  Mg  Mg9  1  0.00040454  0.40204192  0.00000000  1
  Mg  Mg10  1  0.20248215  0.40496331  0.00000000  1
  Mg  Mg11  1  0.79887613  0.59775226  0.00000000  1
  Mg  Mg12  1  0.59795808  0.59836263  0.00000000  1
  Mg  Mg13  1  0.00040454  0.59836263  0.00000000  1
  Mg  Mg14  1  0.39944035  0.60055965  0.00000000  1
  Mg  Mg15  1  0.20111930  0.60055965  0.00000000  1
  Mg  Mg16  1  0.00421140  0.79259973  0.00000000  1
  Mg  Mg17  1  0.78838833  0.79260073  0.00000000  1
  Mg  Mg18  1  0.59503669  0.79751785  0.00000000  1
  Mg  Mg19  1  0.20248215  0.79751885  0.00000000  1
  Mg  Mg20  1  0.39944035  0.79888070  0.00000000  1
  Mg  Mg21  1  0.78838833  0.99578860  0.00000000  1
  Mg  Mg22  1  0.20740027  0.99578860  0.00000000  1
  Mg  Mg23  1  0.40163637  0.99959446  0.00000000  1
  Mg  Mg24  1  0.59795808  0.99959546  0.00000000  1
  Mg  Mg25  1  0.86899001  0.13100899  0.16395669  1
  Mg  Mg26  1  0.26201998  0.13100999  0.16395669  1
  Mg  Mg27  1  0.86899001  0.73798102  0.16395669  1
  Mg  Mg28  1  0.66666700  0.33333300  0.16604325  1
  Mg  Mg29  1  0.66757089  0.13288311  0.16645511  1
  Mg  Mg30  1  0.46531122  0.13288311  0.16645511  1
  Mg  Mg31  1  0.86711689  0.33242911  0.16645511  1
  Mg  Mg32  1  0.46531122  0.33242911  0.16645511  1
  Mg  Mg33  1  0.66757089  0.53468878  0.16645511  1
  Mg  Mg34  1  0.86711689  0.53468878  0.16645511  1
  Mg  Mg35  1  0.26729913  0.53459926  0.16747109  1
  Mg  Mg36  1  0.46539974  0.73269987  0.16747109  1
  Mg  Mg37  1  0.26729913  0.73269987  0.16747109  1
  Mg  Mg38  1  0.06687007  0.53343503  0.16769951  1
  Mg  Mg39  1  0.46656497  0.53343503  0.16769951  1
  Mg  Mg40  1  0.46656497  0.93312993  0.16769951  1
  Mg  Mg41  1  0.26868845  0.33702611  0.16826390  1
  Mg  Mg42  1  0.06833866  0.33702711  0.16826390  1
  Mg  Mg43  1  0.66297289  0.73131155  0.16826390  1
  Mg  Mg44  1  0.06833866  0.73131155  0.16826390  1
  Mg  Mg45  1  0.26868845  0.93166134  0.16826390  1
  Mg  Mg46  1  0.66297289  0.93166134  0.16826390  1
  Mg  Mg47  1  0.07020974  0.14041947  0.17478304  1
  Mg  Mg48  1  0.85958053  0.92979026  0.17478304  1
  Mg  Mg49  1  0.07020974  0.92979026  0.17478304  1
  Mg  Mg50  1  0.39972041  0.19986021  0.33254239  1
  Mg  Mg51  1  0.80013979  0.19986021  0.33254239  1
  Mg  Mg52  1  0.80013979  0.60027959  0.33254239  1
  Mg  Mg53  1  0.60003622  0.20007144  0.33277337  1
  Mg  Mg54  1  0.79992756  0.39996378  0.33277337  1
  Mg  Mg55  1  0.60003622  0.39996378  0.33277337  1
  Mg  Mg56  1  0.19992663  0.59996282  0.33377719  1
  Mg  Mg57  1  0.40003618  0.59996282  0.33377719  1
  Mg  Mg58  1  0.40003618  0.80007337  0.33377719  1
  Mg  Mg59  1  0.40072803  0.00023055  0.33392667  1
  Mg  Mg60  1  0.59950253  0.00023055  0.33392667  1
  Mg  Mg61  1  0.99976945  0.40049747  0.33392667  1
  Mg  Mg62  1  0.40072803  0.40049747  0.33392667  1
  Mg  Mg63  1  0.59950253  0.59927197  0.33392667  1
  Mg  Mg64  1  0.99976945  0.59927197  0.33392667  1
  Mg  Mg65  1  0.20016201  0.40032302  0.33420802  1
  Mg  Mg66  1  0.59967698  0.79983799  0.33420802  1
  Mg  Mg67  1  0.20016201  0.79983799  0.33420802  1
  Mg  Mg68  1  0.00000000  0.00000000  0.33478781  1
  Mg  Mg69  1  0.20160318  0.00046068  0.33480786  1
  Mg  Mg70  1  0.79885750  0.00046068  0.33480786  1
  Mg  Mg71  1  0.99953932  0.20114250  0.33480786  1
  Mg  Mg72  1  0.20160318  0.20114350  0.33480786  1
  Mg  Mg73  1  0.79885750  0.79839682  0.33480786  1
  Mg  Mg74  1  0.99953932  0.79839682  0.33480786  1
  Mg  Mg75  1  0.06677939  0.13355778  0.50000000  1
  Mg  Mg76  1  0.26745494  0.13372697  0.50000000  1
  Mg  Mg77  1  0.86627303  0.13372797  0.50000000  1
  Mg  Mg78  1  0.66723033  0.13431550  0.50000000  1
  Mg  Mg79  1  0.46708517  0.13431550  0.50000000  1
  Mg  Mg80  1  0.46708517  0.33276967  0.50000000  1
  Mg  Mg81  1  0.86568350  0.33276967  0.50000000  1
  Mg  Mg82  1  0.66666700  0.33333300  0.50000000  1
  Mg  Mg83  1  0.06709778  0.33400072  0.50000000  1
  Mg  Mg84  1  0.26690395  0.33400172  0.50000000  1
  Mg  Mg85  1  0.86568350  0.53291483  0.50000000  1
  Mg  Mg86  1  0.66723033  0.53291483  0.50000000  1
  Mg  Mg87  1  0.06621622  0.53310761  0.50000000  1
  Mg  Mg88  1  0.46689139  0.53310761  0.50000000  1
  Mg  Mg89  1  0.26684495  0.53368989  0.50000000  1
  Mg  Mg90  1  0.86627303  0.73254506  0.50000000  1
  Mg  Mg91  1  0.06709778  0.73309605  0.50000000  1
  Mg  Mg92  1  0.66599928  0.73309605  0.50000000  1
  Mg  Mg93  1  0.46631011  0.73315505  0.50000000  1
  Mg  Mg94  1  0.26684495  0.73315505  0.50000000  1
  Mg  Mg95  1  0.26690395  0.93290222  0.50000000  1
  Mg  Mg96  1  0.66599928  0.93290222  0.50000000  1
  Mg  Mg97  1  0.86644222  0.93322061  0.50000000  1
  Mg  Mg98  1  0.06677939  0.93322061  0.50000000  1
  Mg  Mg99  1  0.46689139  0.93378378  0.50000000  1
  Mg  Mg100  1  0.20160318  0.00046068  0.66519214  1
  Mg  Mg101  1  0.79885750  0.00046068  0.66519214  1
  Mg  Mg102  1  0.99953932  0.20114250  0.66519214  1
  Mg  Mg103  1  0.20160318  0.20114350  0.66519214  1
  Mg  Mg104  1  0.79885750  0.79839682  0.66519214  1
  Mg  Mg105  1  0.99953932  0.79839682  0.66519214  1
  Mg  Mg106  1  0.00000000  0.00000000  0.66521219  1
  Mg  Mg107  1  0.20016201  0.40032302  0.66579198  1
  Mg  Mg108  1  0.59967698  0.79983799  0.66579198  1
  Mg  Mg109  1  0.20016201  0.79983799  0.66579198  1
  Mg  Mg110  1  0.40072803  0.00023055  0.66607333  1
  Mg  Mg111  1  0.59950253  0.00023055  0.66607333  1
  Mg  Mg112  1  0.99976945  0.40049747  0.66607333  1
  Mg  Mg113  1  0.40072803  0.40049747  0.66607333  1
  Mg  Mg114  1  0.59950253  0.59927197  0.66607333  1
  Mg  Mg115  1  0.99976945  0.59927197  0.66607333  1
  Mg  Mg116  1  0.19992663  0.59996282  0.66622281  1
  Mg  Mg117  1  0.40003618  0.59996282  0.66622281  1
  Mg  Mg118  1  0.40003618  0.80007337  0.66622281  1
  Mg  Mg119  1  0.60003622  0.20007144  0.66722563  1
  Mg  Mg120  1  0.79992756  0.39996378  0.66722563  1
  Mg  Mg121  1  0.60003622  0.39996378  0.66722563  1
  Mg  Mg122  1  0.39972041  0.19986021  0.66745761  1
  Mg  Mg123  1  0.80013979  0.19986021  0.66745761  1
  Mg  Mg124  1  0.80013979  0.60027959  0.66745761  1
  Mg  Mg125  1  0.07020974  0.14041947  0.82521696  1
  Mg  Mg126  1  0.85958053  0.92979026  0.82521696  1
  Mg  Mg127  1  0.07020974  0.92979026  0.82521696  1
  Mg  Mg128  1  0.26868845  0.33702611  0.83173610  1
  Mg  Mg129  1  0.06833866  0.33702711  0.83173610  1
  Mg  Mg130  1  0.66297289  0.73131155  0.83173610  1
  Mg  Mg131  1  0.06833866  0.73131155  0.83173610  1
  Mg  Mg132  1  0.26868845  0.93166134  0.83173610  1
  Mg  Mg133  1  0.66297289  0.93166134  0.83173610  1
  Mg  Mg134  1  0.06687007  0.53343503  0.83230049  1
  Mg  Mg135  1  0.46656497  0.53343503  0.83230049  1
  Mg  Mg136  1  0.46656497  0.93312993  0.83230049  1
  Mg  Mg137  1  0.26729913  0.53459926  0.83252891  1
  Mg  Mg138  1  0.46539974  0.73269987  0.83252891  1
  Mg  Mg139  1  0.26729913  0.73269987  0.83252891  1
  Mg  Mg140  1  0.66757089  0.13288311  0.83354389  1
  Mg  Mg141  1  0.46531122  0.13288311  0.83354389  1
  Mg  Mg142  1  0.86711689  0.33242911  0.83354389  1
  Mg  Mg143  1  0.46531122  0.33242911  0.83354389  1
  Mg  Mg144  1  0.66757089  0.53468878  0.83354389  1
  Mg  Mg145  1  0.86711689  0.53468878  0.83354389  1
  Mg  Mg146  1  0.66666700  0.33333300  0.83395675  1
  Mg  Mg147  1  0.86899001  0.13100899  0.83604431  1
  Mg  Mg148  1  0.26201998  0.13100999  0.83604431  1
  Mg  Mg149  1  0.86899001  0.73798102  0.83604431  1
