# generated using pymatgen
data_Sc2Ga3Cu
_symmetry_space_group_name_H-M   'P 1'
_cell_length_a   3.25907400
_cell_length_b   4.28895900
_cell_length_c   7.42412000
_cell_angle_alpha   90.00000000
_cell_angle_beta   90.00000000
_cell_angle_gamma   90.00000000
_symmetry_Int_Tables_number   1
_chemical_formula_structural   Sc2Ga3Cu
_chemical_formula_sum   'Sc2 Ga3 Cu1'
_cell_volume   103.77460745
_cell_formula_units_Z   1
loop_
 _symmetry_equiv_pos_site_id
 _symmetry_equiv_pos_as_xyz
  1  'x, y, z'
loop_
 _atom_site_type_symbol
 _atom_site_label
 _atom_site_symmetry_multiplicity
 _atom_site_fract_x
 _atom_site_fract_y
 _atom_site_fract_z
 _atom_site_occupancy
  Sc  Sc0  1  0.00000000  0.00000000  0.00195500  1
  Sc  Sc1  1  0.00000000  0.50000000  0.49825800  1
  Ga  Ga2  1  0.50000000  0.50000000  0.83530600  1
  Ga  Ga3  1  0.50000000  0.50000000  0.17516500  1
  Ga  Ga4  1  0.50000000  0.00000000  0.65771000  1
  Cu  Cu5  1  0.50000000  0.00000000  0.33160600  1
