# generated using pymatgen
data_CsDy(WO4)2
_symmetry_space_group_name_H-M   'P 1'
_cell_length_a   7.69722268
_cell_length_b   7.69722268
_cell_length_c   7.58802381
_cell_angle_alpha   62.53089732
_cell_angle_beta   62.53089732
_cell_angle_gamma   88.80821971
_symmetry_Int_Tables_number   1
_chemical_formula_structural   CsDy(WO4)2
_chemical_formula_sum   'Cs2 Dy2 W4 O16'
_cell_volume   343.23023646
_cell_formula_units_Z   2
loop_
 _symmetry_equiv_pos_site_id
 _symmetry_equiv_pos_as_xyz
  1  'x, y, z'
loop_
 _atom_site_type_symbol
 _atom_site_label
 _atom_site_symmetry_multiplicity
 _atom_site_fract_x
 _atom_site_fract_y
 _atom_site_fract_z
 _atom_site_occupancy
  Cs  Cs0  1  0.19795900  0.80204100  0.75000000  1
  Cs  Cs1  1  0.80204100  0.19795900  0.25000000  1
  Dy  Dy2  1  0.77813200  0.22186800  0.75000000  1
  Dy  Dy3  1  0.22186800  0.77813200  0.25000000  1
  W  W4  1  0.69739100  0.68627300  0.78309700  1
  W  W5  1  0.30260900  0.31372700  0.21690300  1
  W  W6  1  0.31372700  0.30260900  0.71690300  1
  W  W7  1  0.68627300  0.69739100  0.28309700  1
  O  O8  1  0.62076200  0.74734900  0.56566900  1
  O  O9  1  0.37923800  0.25265100  0.43433100  1
  O  O10  1  0.25265100  0.37923800  0.93433100  1
  O  O11  1  0.74734900  0.62076200  0.06566900  1
  O  O12  1  0.36795900  0.06070600  0.87664500  1
  O  O13  1  0.63204100  0.93929400  0.12335500  1
  O  O14  1  0.93929400  0.63204100  0.62335500  1
  O  O15  1  0.06070600  0.36795900  0.37664500  1
  O  O16  1  0.59230700  0.37305700  0.96158700  1
  O  O17  1  0.40769300  0.62694300  0.03841300  1
  O  O18  1  0.62694300  0.40769300  0.53841300  1
  O  O19  1  0.37305700  0.59230700  0.46158700  1
  O  O20  1  0.77478900  0.94846500  0.70584800  1
  O  O21  1  0.22521100  0.05153500  0.29415200  1
  O  O22  1  0.05153500  0.22521100  0.79415200  1
  O  O23  1  0.94846500  0.77478900  0.20584800  1
