# generated using pymatgen
data_Cs(CrS2)2
_symmetry_space_group_name_H-M   'P 1'
_cell_length_a   5.98187900
_cell_length_b   6.99608800
_cell_length_c   16.71440700
_cell_angle_alpha   90.00000000
_cell_angle_beta   90.00000000
_cell_angle_gamma   90.00000000
_symmetry_Int_Tables_number   1
_chemical_formula_structural   Cs(CrS2)2
_chemical_formula_sum   'Cs4 Cr8 S16'
_cell_volume   699.49378593
_cell_formula_units_Z   4
loop_
 _symmetry_equiv_pos_site_id
 _symmetry_equiv_pos_as_xyz
  1  'x, y, z'
loop_
 _atom_site_type_symbol
 _atom_site_label
 _atom_site_symmetry_multiplicity
 _atom_site_fract_x
 _atom_site_fract_y
 _atom_site_fract_z
 _atom_site_occupancy
  Cs  Cs0  1  0.34431900  0.00000000  0.00000000  1
  Cs  Cs1  1  0.65568100  0.50000000  0.50000000  1
  Cs  Cs2  1  0.04034300  0.00000000  0.50000000  1
  Cs  Cs3  1  0.95965700  0.50000000  0.00000000  1
  Cr  Cr4  1  0.99419900  0.00000000  0.24896300  1
  Cr  Cr5  1  0.99419900  0.00000000  0.75103700  1
  Cr  Cr6  1  0.00580100  0.50000000  0.25103700  1
  Cr  Cr7  1  0.00580100  0.50000000  0.74896300  1
  Cr  Cr8  1  0.50000000  0.25000000  0.25000000  1
  Cr  Cr9  1  0.50000000  0.75000000  0.75000000  1
  Cr  Cr10  1  0.50000000  0.75000000  0.25000000  1
  Cr  Cr11  1  0.50000000  0.25000000  0.75000000  1
  S  S12  1  0.83226500  0.24889700  0.32807600  1
  S  S13  1  0.83226500  0.75110300  0.67192400  1
  S  S14  1  0.16773500  0.74889700  0.17192400  1
  S  S15  1  0.16773500  0.25110300  0.82807600  1
  S  S16  1  0.16773500  0.25110300  0.17192400  1
  S  S17  1  0.16773500  0.74889700  0.82807600  1
  S  S18  1  0.83226500  0.75110300  0.32807600  1
  S  S19  1  0.83226500  0.24889700  0.67192400  1
  S  S20  1  0.67049100  0.00000000  0.17167200  1
  S  S21  1  0.67049100  0.00000000  0.82832800  1
  S  S22  1  0.32950900  0.50000000  0.32832800  1
  S  S23  1  0.32950900  0.50000000  0.67167200  1
  S  S24  1  0.33926700  0.00000000  0.32710400  1
  S  S25  1  0.33926700  0.00000000  0.67289600  1
  S  S26  1  0.66073300  0.50000000  0.17289600  1
  S  S27  1  0.66073300  0.50000000  0.82710400  1
