# generated using pymatgen
data_In2(CN2)3
_symmetry_space_group_name_H-M   'P 1'
_cell_length_a   10.33976080
_cell_length_b   10.33976080
_cell_length_c   10.33976082
_cell_angle_alpha   34.86715335
_cell_angle_beta   34.86715335
_cell_angle_gamma   34.86715566
_symmetry_Int_Tables_number   1
_chemical_formula_structural   In2(CN2)3
_chemical_formula_sum   'In4 C6 N12'
_cell_volume   322.49711001
_cell_formula_units_Z   2
loop_
 _symmetry_equiv_pos_site_id
 _symmetry_equiv_pos_as_xyz
  1  'x, y, z'
loop_
 _atom_site_type_symbol
 _atom_site_label
 _atom_site_symmetry_multiplicity
 _atom_site_fract_x
 _atom_site_fract_y
 _atom_site_fract_z
 _atom_site_occupancy
  In  In0  1  0.16335600  0.16335600  0.16335600  1
  In  In1  1  0.66335600  0.66335600  0.66335600  1
  In  In2  1  0.83664400  0.83664400  0.83664400  1
  In  In3  1  0.33664400  0.33664400  0.33664400  1
  C  C4  1  0.44902400  0.75000000  0.05097600  1
  C  C5  1  0.05097600  0.44902400  0.75000000  1
  C  C6  1  0.75000000  0.05097600  0.44902400  1
  C  C7  1  0.25000000  0.94902400  0.55097600  1
  C  C8  1  0.55097600  0.25000000  0.94902400  1
  C  C9  1  0.94902400  0.55097600  0.25000000  1
  N  N10  1  0.46295800  0.85387400  0.05510700  1
  N  N11  1  0.05510700  0.46295800  0.85387400  1
  N  N12  1  0.85387400  0.05510700  0.46295800  1
  N  N13  1  0.35387400  0.96295800  0.55510700  1
  N  N14  1  0.55510700  0.35387400  0.96295800  1
  N  N15  1  0.96295800  0.55510700  0.35387400  1
  N  N16  1  0.53704200  0.14612600  0.94489300  1
  N  N17  1  0.94489300  0.53704200  0.14612600  1
  N  N18  1  0.14612600  0.94489300  0.53704200  1
  N  N19  1  0.64612600  0.03704200  0.44489300  1
  N  N20  1  0.44489300  0.64612600  0.03704200  1
  N  N21  1  0.03704200  0.44489300  0.64612600  1
