# generated using pymatgen
data_Cs4Sn21Hg2
_symmetry_space_group_name_H-M   'P 1'
_cell_length_a   12.53411942
_cell_length_b   12.53411942
_cell_length_c   12.53452900
_cell_angle_alpha   90.00000000
_cell_angle_beta   90.00000000
_cell_angle_gamma   90.03160559
_symmetry_Int_Tables_number   1
_chemical_formula_structural   Cs4Sn21Hg2
_chemical_formula_sum   'Cs8 Sn42 Hg4'
_cell_volume   1969.22621958
_cell_formula_units_Z   2
loop_
 _symmetry_equiv_pos_site_id
 _symmetry_equiv_pos_as_xyz
  1  'x, y, z'
loop_
 _atom_site_type_symbol
 _atom_site_label
 _atom_site_symmetry_multiplicity
 _atom_site_fract_x
 _atom_site_fract_y
 _atom_site_fract_z
 _atom_site_occupancy
  Cs  Cs0  1  0.49972300  0.99984700  0.25000000  1
  Cs  Cs1  1  0.00015300  0.50027700  0.75000000  1
  Cs  Cs2  1  0.49925900  0.50074100  0.00000000  1
  Cs  Cs3  1  0.00075200  0.24891800  0.25000000  1
  Cs  Cs4  1  0.75108200  0.99924800  0.75000000  1
  Cs  Cs5  1  0.49925900  0.50074100  0.50000000  1
  Cs  Cs6  1  0.00074900  0.75103200  0.25000000  1
  Cs  Cs7  1  0.24896800  0.99925100  0.75000000  1
  Sn  Sn8  1  0.68432200  0.18336800  0.06649300  1
  Sn  Sn9  1  0.31752200  0.81745000  0.43263200  1
  Sn  Sn10  1  0.68347300  0.81742100  0.43370400  1
  Sn  Sn11  1  0.31650200  0.18351900  0.06735700  1
  Sn  Sn12  1  0.31752200  0.81745000  0.06736800  1
  Sn  Sn13  1  0.68432200  0.18336800  0.43350700  1
  Sn  Sn14  1  0.31650200  0.18351900  0.43264300  1
  Sn  Sn15  1  0.68347300  0.81742100  0.06629600  1
  Sn  Sn16  1  0.18257900  0.31652700  0.93370400  1
  Sn  Sn17  1  0.81648100  0.68349800  0.56735700  1
  Sn  Sn18  1  0.18255000  0.68247800  0.56736800  1
  Sn  Sn19  1  0.81663200  0.31567800  0.93350700  1
  Sn  Sn20  1  0.81663200  0.31567800  0.56649300  1
  Sn  Sn21  1  0.18255000  0.68247800  0.93263200  1
  Sn  Sn22  1  0.81648100  0.68349800  0.93264300  1
  Sn  Sn23  1  0.18257900  0.31652700  0.56629600  1
  Sn  Sn24  1  0.49989900  0.11698500  0.94243200  1
  Sn  Sn25  1  0.61628400  0.30806500  0.25000000  1
  Sn  Sn26  1  0.81195900  0.99999300  0.13202800  1
  Sn  Sn27  1  0.50003600  0.87985200  0.56324700  1
  Sn  Sn28  1  0.38011200  0.68674700  0.25000000  1
  Sn  Sn29  1  0.18805500  0.99999100  0.36831300  1
  Sn  Sn30  1  0.61678600  0.69209200  0.25000000  1
  Sn  Sn31  1  0.81195900  0.99999300  0.36797200  1
  Sn  Sn32  1  0.38051800  0.31352100  0.25000000  1
  Sn  Sn33  1  0.18805500  0.99999100  0.13168700  1
  Sn  Sn34  1  0.50003600  0.87985200  0.93675300  1
  Sn  Sn35  1  0.49989900  0.11698500  0.55756800  1
  Sn  Sn36  1  0.00000700  0.18804100  0.86797200  1
  Sn  Sn37  1  0.12014800  0.49996400  0.06324700  1
  Sn  Sn38  1  0.30790800  0.38321400  0.75000000  1
  Sn  Sn39  1  0.00000900  0.81194500  0.63168700  1
  Sn  Sn40  1  0.88301500  0.50010100  0.44243200  1
  Sn  Sn41  1  0.68647900  0.61948200  0.75000000  1
  Sn  Sn42  1  0.12014800  0.49996400  0.43675300  1
  Sn  Sn43  1  0.31325300  0.61988800  0.75000000  1
  Sn  Sn44  1  0.88301500  0.50010100  0.05756800  1
  Sn  Sn45  1  0.69193500  0.38371600  0.75000000  1
  Sn  Sn46  1  0.00000700  0.18804100  0.63202800  1
  Sn  Sn47  1  0.00000900  0.81194500  0.86831300  1
  Sn  Sn48  1  0.50032000  0.24992600  0.75000000  1
  Sn  Sn49  1  0.75007400  0.49968000  0.25000000  1
  Hg  Hg50  1  0.99994400  0.00005600  0.00000000  1
  Hg  Hg51  1  0.50006700  0.74994500  0.75000000  1
  Hg  Hg52  1  0.25005500  0.49993300  0.25000000  1
  Hg  Hg53  1  0.99994400  0.00005600  0.50000000  1
