# generated using pymatgen
data_USeS
_symmetry_space_group_name_H-M   'P 1'
_cell_length_a   4.07951800
_cell_length_b   7.31692900
_cell_length_c   8.66768800
_cell_angle_alpha   90.00000000
_cell_angle_beta   90.00000000
_cell_angle_gamma   90.00000000
_symmetry_Int_Tables_number   1
_chemical_formula_structural   USeS
_chemical_formula_sum   'U4 Se4 S4'
_cell_volume   258.72653052
_cell_formula_units_Z   4
loop_
 _symmetry_equiv_pos_site_id
 _symmetry_equiv_pos_as_xyz
  1  'x, y, z'
loop_
 _atom_site_type_symbol
 _atom_site_label
 _atom_site_symmetry_multiplicity
 _atom_site_fract_x
 _atom_site_fract_y
 _atom_site_fract_z
 _atom_site_occupancy
  U  U0  1  0.25000000  0.22664400  0.87305100  1
  U  U1  1  0.75000000  0.77335600  0.12694900  1
  U  U2  1  0.25000000  0.72664400  0.62694900  1
  U  U3  1  0.75000000  0.27335600  0.37305100  1
  Se  Se4  1  0.75000000  0.02959100  0.66407500  1
  Se  Se5  1  0.25000000  0.97040900  0.33592500  1
  Se  Se6  1  0.75000000  0.52959100  0.83592500  1
  Se  Se7  1  0.25000000  0.47040900  0.16407500  1
  S  S8  1  0.25000000  0.85463800  0.92961700  1
  S  S9  1  0.75000000  0.14536200  0.07038300  1
  S  S10  1  0.25000000  0.35463800  0.57038300  1
  S  S11  1  0.75000000  0.64536200  0.42961700  1
