# generated using pymatgen
data_Ca(BIr)2
_symmetry_space_group_name_H-M   'P 1'
_cell_length_a   7.12004457
_cell_length_b   6.15789370
_cell_length_c   5.52560460
_cell_angle_alpha   74.87468402
_cell_angle_beta   56.60605914
_cell_angle_gamma   48.51925683
_symmetry_Int_Tables_number   1
_chemical_formula_structural   Ca(BIr)2
_chemical_formula_sum   'Ca2 B4 Ir4'
_cell_volume   149.44232020
_cell_formula_units_Z   2
loop_
 _symmetry_equiv_pos_site_id
 _symmetry_equiv_pos_as_xyz
  1  'x, y, z'
loop_
 _atom_site_type_symbol
 _atom_site_label
 _atom_site_symmetry_multiplicity
 _atom_site_fract_x
 _atom_site_fract_y
 _atom_site_fract_z
 _atom_site_occupancy
  Ca  Ca0  1  0.00000000  0.00000000  0.00000000  1
  Ca  Ca1  1  0.25000000  0.25000000  0.25000000  1
  B  B2  1  0.32260100  0.67739900  0.32260100  1
  B  B3  1  0.57260100  0.92739900  0.57260100  1
  B  B4  1  0.67739900  0.32260100  0.67739900  1
  B  B5  1  0.92739900  0.57260100  0.92739900  1
  Ir  Ir6  1  0.62982400  0.62982400  0.37017600  1
  Ir  Ir7  1  0.87982400  0.87982400  0.62017600  1
  Ir  Ir8  1  0.62017600  0.62017600  0.87982400  1
  Ir  Ir9  1  0.37017600  0.37017600  0.62982400  1
