# generated using pymatgen
data_HfCrCuS4
_symmetry_space_group_name_H-M   'P 1'
_cell_length_a   7.19382541
_cell_length_b   7.19382541
_cell_length_c   7.19382541
_cell_angle_alpha   119.92361044
_cell_angle_beta   119.61475638
_cell_angle_gamma   90.40045982
_symmetry_Int_Tables_number   1
_chemical_formula_structural   HfCrCuS4
_chemical_formula_sum   'Hf2 Cr2 Cu2 S8'
_cell_volume   264.15680964
_cell_formula_units_Z   2
loop_
 _symmetry_equiv_pos_site_id
 _symmetry_equiv_pos_as_xyz
  1  'x, y, z'
loop_
 _atom_site_type_symbol
 _atom_site_label
 _atom_site_symmetry_multiplicity
 _atom_site_fract_x
 _atom_site_fract_y
 _atom_site_fract_z
 _atom_site_occupancy
  Hf  Hf0  1  0.00000000  0.50000000  0.00000000  1
  Hf  Hf1  1  0.00000000  0.00000000  0.50000000  1
  Cr  Cr2  1  0.50000000  0.50000000  0.00000000  1
  Cr  Cr3  1  0.00000000  0.50000000  0.50000000  1
  Cu  Cu4  1  0.62895100  0.87895100  0.75000000  1
  Cu  Cu5  1  0.37104900  0.12104900  0.25000000  1
  S  S6  1  0.23722200  0.74013500  0.49708700  1
  S  S7  1  0.74304800  0.74013500  0.00291300  1
  S  S8  1  0.74903400  0.72861300  0.47958000  1
  S  S9  1  0.74903400  0.26945400  0.02042000  1
  S  S10  1  0.76277800  0.25986500  0.50291300  1
  S  S11  1  0.25695200  0.25986500  0.99708700  1
  S  S12  1  0.25096600  0.27138700  0.52042000  1
  S  S13  1  0.25096600  0.73054600  0.97958000  1
