# generated using pymatgen
data_Na3H2OsO6
_symmetry_space_group_name_H-M   'P 1'
_cell_length_a   5.84949484
_cell_length_b   6.05179374
_cell_length_c   9.55856500
_cell_angle_alpha   90.00000000
_cell_angle_beta   90.00000000
_cell_angle_gamma   119.05727065
_symmetry_Int_Tables_number   1
_chemical_formula_structural   Na3H2OsO6
_chemical_formula_sum   'Na6 H4 Os2 O12'
_cell_volume   295.78321482
_cell_formula_units_Z   2
loop_
 _symmetry_equiv_pos_site_id
 _symmetry_equiv_pos_as_xyz
  1  'x, y, z'
loop_
 _atom_site_type_symbol
 _atom_site_label
 _atom_site_symmetry_multiplicity
 _atom_site_fract_x
 _atom_site_fract_y
 _atom_site_fract_z
 _atom_site_occupancy
  Na  Na0  1  0.98764500  0.01451800  0.75000000  1
  Na  Na1  1  0.01235500  0.98548200  0.25000000  1
  Na  Na2  1  0.54909100  0.25531600  0.57076100  1
  Na  Na3  1  0.45090900  0.74468400  0.07076100  1
  Na  Na4  1  0.45090900  0.74468400  0.42923900  1
  Na  Na5  1  0.54909100  0.25531600  0.92923900  1
  H  H6  1  0.02744100  0.75097900  0.53500500  1
  H  H7  1  0.97255900  0.24902100  0.03500500  1
  H  H8  1  0.97255900  0.24902100  0.46499500  1
  H  H9  1  0.02744100  0.75097900  0.96499500  1
  Os  Os10  1  0.22370800  0.62106900  0.75000000  1
  Os  Os11  1  0.77629200  0.37893100  0.25000000  1
  O  O12  1  0.87336600  0.48221300  0.75000000  1
  O  O13  1  0.12663400  0.51778700  0.25000000  1
  O  O14  1  0.54641300  0.89071800  0.75000000  1
  O  O15  1  0.45358700  0.10928200  0.25000000  1
  O  O16  1  0.25732900  0.42868600  0.61067200  1
  O  O17  1  0.74267100  0.57131400  0.11067200  1
  O  O18  1  0.74267100  0.57131400  0.38932800  1
  O  O19  1  0.25732900  0.42868600  0.88932800  1
  O  O20  1  0.18877500  0.85628500  0.58800800  1
  O  O21  1  0.81122500  0.14371500  0.08800800  1
  O  O22  1  0.81122500  0.14371500  0.41199200  1
  O  O23  1  0.18877500  0.85628500  0.91199200  1
