# generated using pymatgen
data_Li2Mg2(SO4)3
_symmetry_space_group_name_H-M   'P 1'
_cell_length_a   8.63804900
_cell_length_b   8.80974800
_cell_length_c   12.34857700
_cell_angle_alpha   90.00000000
_cell_angle_beta   90.00000000
_cell_angle_gamma   90.00000000
_symmetry_Int_Tables_number   1
_chemical_formula_structural   Li2Mg2(SO4)3
_chemical_formula_sum   'Li8 Mg8 S12 O48'
_cell_volume   939.71479211
_cell_formula_units_Z   4
loop_
 _symmetry_equiv_pos_site_id
 _symmetry_equiv_pos_as_xyz
  1  'x, y, z'
loop_
 _atom_site_type_symbol
 _atom_site_label
 _atom_site_symmetry_multiplicity
 _atom_site_fract_x
 _atom_site_fract_y
 _atom_site_fract_z
 _atom_site_occupancy
  Li  Li0  1  0.28561100  0.77679600  0.68128800  1
  Li  Li1  1  0.28561100  0.72320400  0.31871200  1
  Li  Li2  1  0.21438900  0.27679600  0.81871200  1
  Li  Li3  1  0.21438900  0.22320400  0.18128800  1
  Li  Li4  1  0.71438900  0.22320400  0.31871200  1
  Li  Li5  1  0.71438900  0.27679600  0.68128800  1
  Li  Li6  1  0.78561100  0.72320400  0.18128800  1
  Li  Li7  1  0.78561100  0.77679600  0.81871200  1
  Mg  Mg8  1  0.24536400  0.04169000  0.39096800  1
  Mg  Mg9  1  0.24536400  0.45831000  0.60903200  1
  Mg  Mg10  1  0.25463600  0.95831000  0.89096800  1
  Mg  Mg11  1  0.25463600  0.54169000  0.10903200  1
  Mg  Mg12  1  0.75463600  0.54169000  0.39096800  1
  Mg  Mg13  1  0.75463600  0.95831000  0.60903200  1
  Mg  Mg14  1  0.74536400  0.04169000  0.10903200  1
  Mg  Mg15  1  0.74536400  0.45831000  0.89096800  1
  S  S16  1  0.95250600  0.25000000  0.50000000  1
  S  S17  1  0.54749400  0.75000000  0.00000000  1
  S  S18  1  0.60613800  0.60414200  0.64838500  1
  S  S19  1  0.45250600  0.25000000  0.00000000  1
  S  S20  1  0.04749400  0.75000000  0.50000000  1
  S  S21  1  0.60613800  0.89585800  0.35161500  1
  S  S22  1  0.89386200  0.10414200  0.85161500  1
  S  S23  1  0.89386200  0.39585800  0.14838500  1
  S  S24  1  0.39386200  0.39585800  0.35161500  1
  S  S25  1  0.39386200  0.10414200  0.64838500  1
  S  S26  1  0.10613800  0.89585800  0.14838500  1
  S  S27  1  0.10613800  0.60414200  0.85161500  1
  O  O28  1  0.33239200  0.25636700  0.68050000  1
  O  O29  1  0.16990400  0.48667900  0.77638700  1
  O  O30  1  0.16990400  0.01332100  0.22361300  1
  O  O31  1  0.33009600  0.98667900  0.72361300  1
  O  O32  1  0.33009600  0.51332100  0.27638700  1
  O  O33  1  0.83009600  0.51332100  0.22361300  1
  O  O34  1  0.83009600  0.98667900  0.77638700  1
  O  O35  1  0.66990400  0.01332100  0.27638700  1
  O  O36  1  0.66990400  0.48667900  0.72361300  1
  O  O37  1  0.15105300  0.56674200  0.96272700  1
  O  O38  1  0.15105300  0.93325800  0.03727300  1
  O  O39  1  0.34894700  0.06674200  0.53727300  1
  O  O40  1  0.34894700  0.43325800  0.46272700  1
  O  O41  1  0.84894700  0.43325800  0.03727300  1
  O  O42  1  0.84894700  0.06674200  0.96272700  1
  O  O43  1  0.65105300  0.93325800  0.46272700  1
  O  O44  1  0.65105300  0.56674200  0.53727300  1
  O  O45  1  0.16760800  0.75636700  0.81950000  1
  O  O46  1  0.83239200  0.24363300  0.18050000  1
  O  O47  1  0.33239200  0.24363300  0.31950000  1
  O  O48  1  0.15105300  0.66819600  0.57771600  1
  O  O49  1  0.15105300  0.83180400  0.42228400  1
  O  O50  1  0.34894700  0.16819600  0.92228400  1
  O  O51  1  0.34894700  0.33180400  0.07771600  1
  O  O52  1  0.84894700  0.33180400  0.42228400  1
  O  O53  1  0.84894700  0.16819600  0.57771600  1
  O  O54  1  0.65105300  0.83180400  0.07771600  1
  O  O55  1  0.65105300  0.66819600  0.92228400  1
  O  O56  1  0.95419000  0.85791100  0.56245400  1
  O  O57  1  0.95419000  0.64208900  0.43754600  1
  O  O58  1  0.54581000  0.35791100  0.93754600  1
  O  O59  1  0.54581000  0.14208900  0.06245400  1
  O  O60  1  0.04581000  0.14208900  0.43754600  1
  O  O61  1  0.04581000  0.35791100  0.56245400  1
  O  O62  1  0.45419000  0.64208900  0.06245400  1
  O  O63  1  0.45419000  0.85791100  0.93754600  1
  O  O64  1  0.43423300  0.60703500  0.65846000  1
  O  O65  1  0.43423300  0.89296500  0.34154000  1
  O  O66  1  0.06576700  0.10703500  0.84154000  1
  O  O67  1  0.06576700  0.39296500  0.15846000  1
  O  O68  1  0.56576700  0.39296500  0.34154000  1
  O  O69  1  0.56576700  0.10703500  0.65846000  1
  O  O70  1  0.93423300  0.89296500  0.15846000  1
  O  O71  1  0.93423300  0.60703500  0.84154000  1
  O  O72  1  0.66760800  0.75636700  0.68050000  1
  O  O73  1  0.66760800  0.74363300  0.31950000  1
  O  O74  1  0.83239200  0.25636700  0.81950000  1
  O  O75  1  0.16760800  0.74363300  0.18050000  1
