# generated using pymatgen
data_LaPrNi10
_symmetry_space_group_name_H-M   'P 1'
_cell_length_a   3.94423200
_cell_length_b   4.99584600
_cell_length_c   8.62642000
_cell_angle_alpha   90.00000000
_cell_angle_beta   90.00000000
_cell_angle_gamma   90.00000000
_symmetry_Int_Tables_number   1
_chemical_formula_structural   LaPrNi10
_chemical_formula_sum   'La1 Pr1 Ni10'
_cell_volume   169.98167085
_cell_formula_units_Z   1
loop_
 _symmetry_equiv_pos_site_id
 _symmetry_equiv_pos_as_xyz
  1  'x, y, z'
loop_
 _atom_site_type_symbol
 _atom_site_label
 _atom_site_symmetry_multiplicity
 _atom_site_fract_x
 _atom_site_fract_y
 _atom_site_fract_z
 _atom_site_occupancy
  La  La0  1  0.00000000  0.00000000  0.00000000  1
  Pr  Pr1  1  0.00000000  0.50000000  0.50000000  1
  Ni  Ni2  1  0.00000000  0.00000000  0.33279100  1
  Ni  Ni3  1  0.00000000  0.50000000  0.83353100  1
  Ni  Ni4  1  0.00000000  0.50000000  0.16646900  1
  Ni  Ni5  1  0.00000000  0.00000000  0.66720900  1
  Ni  Ni6  1  0.50000000  0.00000000  0.50000000  1
  Ni  Ni7  1  0.50000000  0.50000000  0.00000000  1
  Ni  Ni8  1  0.50000000  0.25057100  0.25104900  1
  Ni  Ni9  1  0.50000000  0.74942900  0.74895100  1
  Ni  Ni10  1  0.50000000  0.74942900  0.25104900  1
  Ni  Ni11  1  0.50000000  0.25057100  0.74895100  1
