# generated using pymatgen
data_Zr6Al16Pd7
_symmetry_space_group_name_H-M   'P 1'
_cell_length_a   8.79868100
_cell_length_b   8.79868100
_cell_length_c   8.79868100
_cell_angle_alpha   60.00000000
_cell_angle_beta   60.00000000
_cell_angle_gamma   60.00000000
_symmetry_Int_Tables_number   1
_chemical_formula_structural   Zr6Al16Pd7
_chemical_formula_sum   'Zr6 Al16 Pd7'
_cell_volume   481.65682594
_cell_formula_units_Z   1
loop_
 _symmetry_equiv_pos_site_id
 _symmetry_equiv_pos_as_xyz
  1  'x, y, z'
loop_
 _atom_site_type_symbol
 _atom_site_label
 _atom_site_symmetry_multiplicity
 _atom_site_fract_x
 _atom_site_fract_y
 _atom_site_fract_z
 _atom_site_occupancy
  Zr  Zr0  1  0.68690900  0.68690900  0.31309100  1
  Zr  Zr1  1  0.31309100  0.68690900  0.31309100  1
  Zr  Zr2  1  0.68690900  0.31309100  0.31309100  1
  Zr  Zr3  1  0.31309100  0.31309100  0.68690900  1
  Zr  Zr4  1  0.68690900  0.31309100  0.68690900  1
  Zr  Zr5  1  0.31309100  0.68690900  0.68690900  1
  Al  Al6  1  0.87947200  0.87947200  0.36158500  1
  Al  Al7  1  0.87947200  0.36158500  0.87947200  1
  Al  Al8  1  0.36158500  0.87947200  0.87947200  1
  Al  Al9  1  0.87947200  0.87947200  0.87947200  1
  Al  Al10  1  0.12052800  0.12052800  0.63841500  1
  Al  Al11  1  0.12052800  0.63841500  0.12052800  1
  Al  Al12  1  0.63841500  0.12052800  0.12052800  1
  Al  Al13  1  0.12052800  0.12052800  0.12052800  1
  Al  Al14  1  0.66570500  0.66570500  0.00288500  1
  Al  Al15  1  0.66570500  0.00288500  0.66570500  1
  Al  Al16  1  0.00288500  0.66570500  0.66570500  1
  Al  Al17  1  0.66570500  0.66570500  0.66570500  1
  Al  Al18  1  0.33429500  0.33429500  0.99711500  1
  Al  Al19  1  0.33429500  0.99711500  0.33429500  1
  Al  Al20  1  0.99711500  0.33429500  0.33429500  1
  Al  Al21  1  0.33429500  0.33429500  0.33429500  1
  Pd  Pd22  1  0.00000000  0.00000000  0.00000000  1
  Pd  Pd23  1  0.00000000  0.00000000  0.50000000  1
  Pd  Pd24  1  0.50000000  0.00000000  0.50000000  1
  Pd  Pd25  1  0.00000000  0.50000000  0.50000000  1
  Pd  Pd26  1  0.50000000  0.50000000  0.00000000  1
  Pd  Pd27  1  0.00000000  0.50000000  0.00000000  1
  Pd  Pd28  1  0.50000000  0.00000000  0.00000000  1
