# generated using pymatgen
data_CrCdO4
_symmetry_space_group_name_H-M   'P 1'
_cell_length_a   5.31932684
_cell_length_b   5.31932684
_cell_length_c   7.11341600
_cell_angle_alpha   90.00000000
_cell_angle_beta   90.00000000
_cell_angle_gamma   114.55252758
_symmetry_Int_Tables_number   1
_chemical_formula_structural   CrCdO4
_chemical_formula_sum   'Cr2 Cd2 O8'
_cell_volume   183.07658370
_cell_formula_units_Z   2
loop_
 _symmetry_equiv_pos_site_id
 _symmetry_equiv_pos_as_xyz
  1  'x, y, z'
loop_
 _atom_site_type_symbol
 _atom_site_label
 _atom_site_symmetry_multiplicity
 _atom_site_fract_x
 _atom_site_fract_y
 _atom_site_fract_z
 _atom_site_occupancy
  Cr  Cr0  1  0.64290700  0.35709300  0.25000000  1
  Cr  Cr1  1  0.35709300  0.64290700  0.75000000  1
  Cd  Cd2  1  0.00000000  0.00000000  0.50000000  1
  Cd  Cd3  1  0.00000000  0.00000000  0.00000000  1
  O  O4  1  0.70910600  0.77807000  0.75000000  1
  O  O5  1  0.29089400  0.22193000  0.25000000  1
  O  O6  1  0.77807000  0.70910600  0.25000000  1
  O  O7  1  0.22193000  0.29089400  0.75000000  1
  O  O8  1  0.25206800  0.74793200  0.93858800  1
  O  O9  1  0.74793200  0.25206800  0.43858800  1
  O  O10  1  0.74793200  0.25206800  0.06141200  1
  O  O11  1  0.25206800  0.74793200  0.56141200  1
