# generated using pymatgen
data_Pr5Ir3
_symmetry_space_group_name_H-M   'P 1'
_cell_length_a   11.33972600
_cell_length_b   11.33972600
_cell_length_c   6.60642500
_cell_angle_alpha   90.00000000
_cell_angle_beta   90.00000000
_cell_angle_gamma   90.00000000
_symmetry_Int_Tables_number   1
_chemical_formula_structural   Pr5Ir3
_chemical_formula_sum   'Pr20 Ir12'
_cell_volume   849.51613279
_cell_formula_units_Z   4
loop_
 _symmetry_equiv_pos_site_id
 _symmetry_equiv_pos_as_xyz
  1  'x, y, z'
loop_
 _atom_site_type_symbol
 _atom_site_label
 _atom_site_symmetry_multiplicity
 _atom_site_fract_x
 _atom_site_fract_y
 _atom_site_fract_z
 _atom_site_occupancy
  Pr  Pr0  1  0.29084300  0.08828900  0.38037500  1
  Pr  Pr1  1  0.29084300  0.91171100  0.88037500  1
  Pr  Pr2  1  0.70915700  0.08828900  0.88037500  1
  Pr  Pr3  1  0.70915700  0.91171100  0.38037500  1
  Pr  Pr4  1  0.58828900  0.79084300  0.88037500  1
  Pr  Pr5  1  0.58828900  0.20915700  0.38037500  1
  Pr  Pr6  1  0.41171100  0.79084300  0.38037500  1
  Pr  Pr7  1  0.41171100  0.20915700  0.88037500  1
  Pr  Pr8  1  0.20915700  0.41171100  0.61962500  1
  Pr  Pr9  1  0.20915700  0.58828900  0.11962500  1
  Pr  Pr10  1  0.79084300  0.41171100  0.11962500  1
  Pr  Pr11  1  0.79084300  0.58828900  0.61962500  1
  Pr  Pr12  1  0.91171100  0.70915700  0.11962500  1
  Pr  Pr13  1  0.91171100  0.29084300  0.61962500  1
  Pr  Pr14  1  0.08828900  0.70915700  0.61962500  1
  Pr  Pr15  1  0.08828900  0.29084300  0.11962500  1
  Pr  Pr16  1  0.00000000  0.00000000  0.50000000  1
  Pr  Pr17  1  0.00000000  0.00000000  0.00000000  1
  Pr  Pr18  1  0.50000000  0.50000000  0.00000000  1
  Pr  Pr19  1  0.50000000  0.50000000  0.50000000  1
  Ir  Ir20  1  0.84621600  0.15378400  0.25000000  1
  Ir  Ir21  1  0.84621600  0.84621600  0.75000000  1
  Ir  Ir22  1  0.15378400  0.15378400  0.75000000  1
  Ir  Ir23  1  0.15378400  0.84621600  0.25000000  1
  Ir  Ir24  1  0.65378400  0.34621600  0.75000000  1
  Ir  Ir25  1  0.65378400  0.65378400  0.25000000  1
  Ir  Ir26  1  0.34621600  0.34621600  0.25000000  1
  Ir  Ir27  1  0.34621600  0.65378400  0.75000000  1
  Ir  Ir28  1  0.50000000  0.00000000  0.11430500  1
  Ir  Ir29  1  0.50000000  0.00000000  0.61430500  1
  Ir  Ir30  1  0.00000000  0.50000000  0.88569500  1
  Ir  Ir31  1  0.00000000  0.50000000  0.38569500  1
