# generated using pymatgen
data_RbUCrNO9
_symmetry_space_group_name_H-M   'P 1'
_cell_length_a   10.22740600
_cell_length_b   7.50083300
_cell_length_c   14.45007546
_cell_angle_alpha   90.00000000
_cell_angle_beta   121.60827348
_cell_angle_gamma   90.00000000
_symmetry_Int_Tables_number   1
_chemical_formula_structural   RbUCrNO9
_chemical_formula_sum   'Rb4 U4 Cr4 N4 O36'
_cell_volume   944.07588034
_cell_formula_units_Z   4
loop_
 _symmetry_equiv_pos_site_id
 _symmetry_equiv_pos_as_xyz
  1  'x, y, z'
loop_
 _atom_site_type_symbol
 _atom_site_label
 _atom_site_symmetry_multiplicity
 _atom_site_fract_x
 _atom_site_fract_y
 _atom_site_fract_z
 _atom_site_occupancy
  Rb  Rb0  1  0.32788600  0.56980300  0.31572300  1
  Rb  Rb1  1  0.67211400  0.06980300  0.18427700  1
  Rb  Rb2  1  0.67211400  0.43019700  0.68427700  1
  Rb  Rb3  1  0.32788600  0.93019700  0.81572300  1
  U  U4  1  0.17113000  0.20139500  0.45042400  1
  U  U5  1  0.82887000  0.70139500  0.04957600  1
  U  U6  1  0.82887000  0.79860500  0.54957600  1
  U  U7  1  0.17113000  0.29860500  0.95042400  1
  Cr  Cr8  1  0.13036800  0.07456300  0.17892300  1
  Cr  Cr9  1  0.86963200  0.57456300  0.32107700  1
  Cr  Cr10  1  0.86963200  0.92543700  0.82107700  1
  Cr  Cr11  1  0.13036800  0.42543700  0.67892300  1
  N  N12  1  0.35251900  0.63219800  0.05160100  1
  N  N13  1  0.64748100  0.13219800  0.44839900  1
  N  N14  1  0.64748100  0.36780200  0.94839900  1
  N  N15  1  0.35251900  0.86780200  0.55160100  1
  O  O16  1  0.16384200  0.19436100  0.28857000  1
  O  O17  1  0.83615800  0.69436100  0.21143000  1
  O  O18  1  0.83615800  0.80563900  0.71143000  1
  O  O19  1  0.16384200  0.30563900  0.78857000  1
  O  O20  1  0.35342000  0.31828600  0.50952100  1
  O  O21  1  0.64658000  0.81828600  0.99047900  1
  O  O22  1  0.64658000  0.68171400  0.49047900  1
  O  O23  1  0.35342000  0.18171400  0.00952100  1
  O  O24  1  0.99153500  0.41986700  0.88762000  1
  O  O25  1  0.00846500  0.91986700  0.61238000  1
  O  O26  1  0.00846500  0.58013300  0.11238000  1
  O  O27  1  0.99153500  0.08013300  0.38762000  1
  O  O28  1  0.30416900  0.90866100  0.45199300  1
  O  O29  1  0.69583100  0.40866100  0.04800700  1
  O  O30  1  0.69583100  0.09133900  0.54800700  1
  O  O31  1  0.30416900  0.59133900  0.95199300  1
  O  O32  1  0.96055500  0.96694100  0.12518600  1
  O  O33  1  0.03944500  0.46694100  0.37481400  1
  O  O34  1  0.03944500  0.03305900  0.87481400  1
  O  O35  1  0.96055500  0.53305900  0.62518600  1
  O  O36  1  0.13323200  0.20801400  0.08637900  1
  O  O37  1  0.86676800  0.70801400  0.41362100  1
  O  O38  1  0.86676800  0.79198600  0.91362100  1
  O  O39  1  0.13323200  0.29198600  0.58637900  1
  O  O40  1  0.26494600  0.92951200  0.21803200  1
  O  O41  1  0.73505400  0.42951200  0.28196800  1
  O  O42  1  0.73505400  0.07048800  0.78196800  1
  O  O43  1  0.26494600  0.57048800  0.71803200  1
  O  O44  1  0.31317300  0.52234600  0.10158200  1
  O  O45  1  0.68682700  0.02234600  0.39841800  1
  O  O46  1  0.68682700  0.47765400  0.89841800  1
  O  O47  1  0.31317300  0.97765400  0.60158200  1
  O  O48  1  0.43007600  0.76538000  0.09599800  1
  O  O49  1  0.56992400  0.26538000  0.40400200  1
  O  O50  1  0.56992400  0.23462000  0.90400200  1
  O  O51  1  0.43007600  0.73462000  0.59599800  1
