# generated using pymatgen
data_K3Yb(SO4)3
_symmetry_space_group_name_H-M   'P 1'
_cell_length_a   9.35330944
_cell_length_b   9.35330944
_cell_length_c   9.35022472
_cell_angle_alpha   71.38026683
_cell_angle_beta   71.38026683
_cell_angle_gamma   110.90146591
_symmetry_Int_Tables_number   1
_chemical_formula_structural   K3Yb(SO4)3
_chemical_formula_sum   'K6 Yb2 S6 O24'
_cell_volume   631.55396423
_cell_formula_units_Z   2
loop_
 _symmetry_equiv_pos_site_id
 _symmetry_equiv_pos_as_xyz
  1  'x, y, z'
loop_
 _atom_site_type_symbol
 _atom_site_label
 _atom_site_symmetry_multiplicity
 _atom_site_fract_x
 _atom_site_fract_y
 _atom_site_fract_z
 _atom_site_occupancy
  K  K0  1  0.83901100  0.81616500  0.61328600  1
  K  K1  1  0.81616400  0.83901100  0.11328600  1
  K  K2  1  0.94542300  0.45212300  0.85330300  1
  K  K3  1  0.45212300  0.94542300  0.35330300  1
  K  K4  1  0.16757900  0.30384300  0.51749300  1
  K  K5  1  0.30384300  0.16757900  0.01749300  1
  Yb  Yb6  1  0.65795700  0.33968200  0.50544100  1
  Yb  Yb7  1  0.33968200  0.65795700  0.00544100  1
  S  S8  1  0.64699000  0.02757200  0.86322300  1
  S  S9  1  0.02757200  0.64699000  0.36322300  1
  S  S10  1  0.22571800  0.94040800  0.73932300  1
  S  S11  1  0.94040800  0.22571800  0.23932300  1
  S  S12  1  0.44712800  0.56777800  0.63831900  1
  S  S13  1  0.56777800  0.44712800  0.13831900  1
  O  O14  1  0.61083100  0.16451300  0.77643100  1
  O  O15  1  0.16451300  0.61083100  0.27643100  1
  O  O16  1  0.43575100  0.57660700  0.79864000  1
  O  O17  1  0.57660700  0.43575100  0.29864000  1
  O  O18  1  0.82715400  0.11210100  0.83687400  1
  O  O19  1  0.11210100  0.82715400  0.33687400  1
  O  O20  1  0.48086700  0.42198800  0.64440500  1
  O  O21  1  0.42198800  0.48086700  0.14440500  1
  O  O22  1  0.40676800  0.07904800  0.58929000  1
  O  O23  1  0.07904800  0.40676800  0.08929000  1
  O  O24  1  0.91835800  0.51204900  0.55102300  1
  O  O25  1  0.51204900  0.91835800  0.05102300  1
  O  O26  1  0.62549700  0.90606900  0.78926800  1
  O  O27  1  0.90606900  0.62549700  0.28926800  1
  O  O28  1  0.11522000  0.87187200  0.66692300  1
  O  O29  1  0.87187200  0.11522000  0.16692300  1
  O  O30  1  0.15564200  0.01504800  0.84099700  1
  O  O31  1  0.01504800  0.15564200  0.34099700  1
  O  O32  1  0.79700700  0.24270400  0.34664200  1
  O  O33  1  0.24270400  0.79700700  0.84664200  1
  O  O34  1  0.28158900  0.53172200  0.63398400  1
  O  O35  1  0.53172200  0.28158900  0.13398400  1
  O  O36  1  0.59622000  0.73800100  0.48513500  1
  O  O37  1  0.73800100  0.59622000  0.98513500  1
