# generated using pymatgen
data_GaHg3AsSCl4
_symmetry_space_group_name_H-M   'P 1'
_cell_length_a   7.51933506
_cell_length_b   7.53321035
_cell_length_c   12.64348945
_cell_angle_alpha   90.04975713
_cell_angle_beta   90.10626604
_cell_angle_gamma   120.01181800
_symmetry_Int_Tables_number   1
_chemical_formula_structural   GaHg3AsSCl4
_chemical_formula_sum   'Ga2 Hg6 As2 S2 Cl8'
_cell_volume   620.15993061
_cell_formula_units_Z   2
loop_
 _symmetry_equiv_pos_site_id
 _symmetry_equiv_pos_as_xyz
  1  'x, y, z'
loop_
 _atom_site_type_symbol
 _atom_site_label
 _atom_site_symmetry_multiplicity
 _atom_site_fract_x
 _atom_site_fract_y
 _atom_site_fract_z
 _atom_site_occupancy
  Ga  Ga0  1  0.00032600  0.00025600  0.25985000  1
  Ga  Ga1  1  0.99934800  0.99939100  0.76460500  1
  Hg  Hg2  1  0.50187400  0.00364600  0.47103900  1
  Hg  Hg3  1  0.50186600  0.49859200  0.47093900  1
  Hg  Hg4  1  0.99686200  0.49861800  0.47085900  1
  Hg  Hg5  1  0.49803000  0.99606800  0.96067900  1
  Hg  Hg6  1  0.49805100  0.50181100  0.96068200  1
  Hg  Hg7  1  0.00370600  0.50180000  0.96080900  1
  As  As8  1  0.66730800  0.33402300  0.57601700  1
  As  As9  1  0.33391300  0.66719500  0.06629100  1
  S  S10  1  0.33341500  0.66683900  0.38170200  1
  S  S11  1  0.66614500  0.33265400  0.87182700  1
  Cl  Cl12  1  0.32202400  0.16088200  0.20882900  1
  Cl  Cl13  1  0.83886500  0.67800600  0.20799000  1
  Cl  Cl14  1  0.83870900  0.16074000  0.20841600  1
  Cl  Cl15  1  0.67748100  0.83869700  0.71234300  1
  Cl  Cl16  1  0.16063200  0.32136700  0.71242400  1
  Cl  Cl17  1  0.16091000  0.83900000  0.71241400  1
  Cl  Cl18  1  0.00034800  0.00029800  0.43661800  1
  Cl  Cl19  1  0.00018700  0.00011600  0.94026800  1
