# generated using pymatgen
data_KNp2F9
_symmetry_space_group_name_H-M   'P 1'
_cell_length_a   6.99929700
_cell_length_b   8.72212100
_cell_length_c   11.57132500
_cell_angle_alpha   90.00000000
_cell_angle_beta   90.00000000
_cell_angle_gamma   90.00000000
_symmetry_Int_Tables_number   1
_chemical_formula_structural   KNp2F9
_chemical_formula_sum   'K4 Np8 F36'
_cell_volume   706.41452614
_cell_formula_units_Z   4
loop_
 _symmetry_equiv_pos_site_id
 _symmetry_equiv_pos_as_xyz
  1  'x, y, z'
loop_
 _atom_site_type_symbol
 _atom_site_label
 _atom_site_symmetry_multiplicity
 _atom_site_fract_x
 _atom_site_fract_y
 _atom_site_fract_z
 _atom_site_occupancy
  K  K0  1  0.64334900  0.03430500  0.25000000  1
  K  K1  1  0.35665100  0.96569500  0.75000000  1
  K  K2  1  0.14334900  0.46569500  0.75000000  1
  K  K3  1  0.85665100  0.53430500  0.25000000  1
  Np  Np4  1  0.15842400  0.17176500  0.05079100  1
  Np  Np5  1  0.84157600  0.82823500  0.94920900  1
  Np  Np6  1  0.65842400  0.32823500  0.94920900  1
  Np  Np7  1  0.84157600  0.82823500  0.55079100  1
  Np  Np8  1  0.34157600  0.67176500  0.05079100  1
  Np  Np9  1  0.15842400  0.17176500  0.44920900  1
  Np  Np10  1  0.34157600  0.67176500  0.44920900  1
  Np  Np11  1  0.65842400  0.32823500  0.55079100  1
  F  F12  1  0.19451200  0.43328900  0.07815900  1
  F  F13  1  0.80548800  0.56671100  0.92184100  1
  F  F14  1  0.69451200  0.06671100  0.92184100  1
  F  F15  1  0.80548800  0.56671100  0.57815900  1
  F  F16  1  0.30548800  0.93328900  0.07815900  1
  F  F17  1  0.19451200  0.43328900  0.42184100  1
  F  F18  1  0.30548800  0.93328900  0.42184100  1
  F  F19  1  0.69451200  0.06671100  0.57815900  1
  F  F20  1  0.07211700  0.00394800  0.59828300  1
  F  F21  1  0.92788300  0.99605200  0.40171700  1
  F  F22  1  0.57211700  0.49605200  0.40171700  1
  F  F23  1  0.92788300  0.99605200  0.09828300  1
  F  F24  1  0.42788300  0.50394800  0.59828300  1
  F  F25  1  0.07211700  0.00394800  0.90171700  1
  F  F26  1  0.42788300  0.50394800  0.90171700  1
  F  F27  1  0.57211700  0.49605200  0.09828300  1
  F  F28  1  0.46938900  0.21004000  0.09586800  1
  F  F29  1  0.53061100  0.78996000  0.90413200  1
  F  F30  1  0.96938900  0.28996000  0.90413200  1
  F  F31  1  0.53061100  0.78996000  0.59586800  1
  F  F32  1  0.03061100  0.71004000  0.09586800  1
  F  F33  1  0.46938900  0.21004000  0.40413200  1
  F  F34  1  0.03061100  0.71004000  0.40413200  1
  F  F35  1  0.96938900  0.28996000  0.59586800  1
  F  F36  1  0.15806400  0.17502100  0.25000000  1
  F  F37  1  0.84193600  0.82497900  0.75000000  1
  F  F38  1  0.65806400  0.32497900  0.75000000  1
  F  F39  1  0.34193600  0.67502100  0.25000000  1
  F  F40  1  0.35218000  0.21589200  0.60580400  1
  F  F41  1  0.64782000  0.78410800  0.39419600  1
  F  F42  1  0.85218000  0.28410800  0.39419600  1
  F  F43  1  0.64782000  0.78410800  0.10580400  1
  F  F44  1  0.14782000  0.71589200  0.60580400  1
  F  F45  1  0.35218000  0.21589200  0.89419600  1
  F  F46  1  0.14782000  0.71589200  0.89419600  1
  F  F47  1  0.85218000  0.28410800  0.10580400  1
