# generated using pymatgen
data_Tm3SbO7
_symmetry_space_group_name_H-M   'P 1'
_cell_length_a   6.40571303
_cell_length_b   6.40571303
_cell_length_c   7.42368100
_cell_angle_alpha   90.00000000
_cell_angle_beta   90.00000000
_cell_angle_gamma   109.15258816
_symmetry_Int_Tables_number   1
_chemical_formula_structural   Tm3SbO7
_chemical_formula_sum   'Tm6 Sb2 O14'
_cell_volume   287.75597603
_cell_formula_units_Z   2
loop_
 _symmetry_equiv_pos_site_id
 _symmetry_equiv_pos_as_xyz
  1  'x, y, z'
loop_
 _atom_site_type_symbol
 _atom_site_label
 _atom_site_symmetry_multiplicity
 _atom_site_fract_x
 _atom_site_fract_y
 _atom_site_fract_z
 _atom_site_occupancy
  Tm  Tm0  1  0.99941500  0.46828600  0.74722900  1
  Tm  Tm1  1  0.00058500  0.53171400  0.24722900  1
  Tm  Tm2  1  0.53171400  0.00058500  0.75277100  1
  Tm  Tm3  1  0.46828600  0.99941500  0.25277100  1
  Tm  Tm4  1  0.51482700  0.51482700  0.50000000  1
  Tm  Tm5  1  0.48517300  0.48517300  0.00000000  1
  Sb  Sb6  1  0.99998800  0.99998800  0.50000000  1
  Sb  Sb7  1  0.00001200  0.00001200  0.00000000  1
  O  O8  1  0.63856300  0.36143700  0.75000000  1
  O  O9  1  0.36143700  0.63856300  0.25000000  1
  O  O10  1  0.92602300  0.07397700  0.75000000  1
  O  O11  1  0.07397700  0.92602300  0.25000000  1
  O  O12  1  0.92097300  0.67256200  0.52788900  1
  O  O13  1  0.07902700  0.32743800  0.02788900  1
  O  O14  1  0.32743800  0.07902700  0.97211100  1
  O  O15  1  0.67256200  0.92097300  0.47211100  1
  O  O16  1  0.36989800  0.63010200  0.75000000  1
  O  O17  1  0.63010200  0.36989800  0.25000000  1
  O  O18  1  0.93462400  0.67865900  0.96594000  1
  O  O19  1  0.06537600  0.32134100  0.46594000  1
  O  O20  1  0.32134100  0.06537600  0.53406000  1
  O  O21  1  0.67865900  0.93462400  0.03406000  1
