# generated using pymatgen
data_Th(SeO3)2
_symmetry_space_group_name_H-M   'P 1'
_cell_length_a   10.94187800
_cell_length_b   7.27729500
_cell_length_c   8.75411007
_cell_angle_alpha   55.13300726
_cell_angle_beta   90.00000000
_cell_angle_gamma   90.00000000
_symmetry_Int_Tables_number   1
_chemical_formula_structural   Th(SeO3)2
_chemical_formula_sum   'Th4 Se8 O24'
_cell_volume   571.92958463
_cell_formula_units_Z   4
loop_
 _symmetry_equiv_pos_site_id
 _symmetry_equiv_pos_as_xyz
  1  'x, y, z'
loop_
 _atom_site_type_symbol
 _atom_site_label
 _atom_site_symmetry_multiplicity
 _atom_site_fract_x
 _atom_site_fract_y
 _atom_site_fract_z
 _atom_site_occupancy
  Th  Th0  1  0.90159700  0.75494300  0.98295600  1
  Th  Th1  1  0.59840300  0.75494300  0.48295600  1
  Th  Th2  1  0.09840300  0.24505700  0.01704400  1
  Th  Th3  1  0.40159700  0.24505700  0.51704400  1
  Se  Se4  1  0.56480600  0.71137700  0.06235500  1
  Se  Se5  1  0.93519400  0.71137700  0.56235500  1
  Se  Se6  1  0.43519400  0.28862300  0.93764500  1
  Se  Se7  1  0.06480600  0.28862300  0.43764500  1
  Se  Se8  1  0.21476500  0.80285700  0.93566400  1
  Se  Se9  1  0.28523500  0.80285700  0.43566400  1
  Se  Se10  1  0.78523500  0.19714300  0.06433600  1
  Se  Se11  1  0.71476500  0.19714300  0.56433600  1
  O  O12  1  0.10126400  0.98626400  0.91764700  1
  O  O13  1  0.39873600  0.98626400  0.41764700  1
  O  O14  1  0.89873600  0.01373600  0.08235300  1
  O  O15  1  0.60126400  0.01373600  0.58235300  1
  O  O16  1  0.47735800  0.47549400  0.21183100  1
  O  O17  1  0.02264200  0.47549400  0.71183100  1
  O  O18  1  0.52264200  0.52450600  0.78816900  1
  O  O19  1  0.97735800  0.52450600  0.28816900  1
  O  O20  1  0.10454500  0.61614200  0.95484800  1
  O  O21  1  0.39545500  0.61614200  0.45484800  1
  O  O22  1  0.89545500  0.38385800  0.04515200  1
  O  O23  1  0.60454500  0.38385800  0.54515200  1
  O  O24  1  0.26119600  0.93710900  0.71001000  1
  O  O25  1  0.23880400  0.93710900  0.21001000  1
  O  O26  1  0.73880400  0.06289100  0.28999000  1
  O  O27  1  0.76119600  0.06289100  0.78999000  1
  O  O28  1  0.70794900  0.59436900  0.08862500  1
  O  O29  1  0.79205100  0.59436900  0.58862500  1
  O  O30  1  0.29205100  0.40563100  0.91137500  1
  O  O31  1  0.20794900  0.40563100  0.41137500  1
  O  O32  1  0.59087500  0.83267600  0.18253800  1
  O  O33  1  0.90912500  0.83267600  0.68253800  1
  O  O34  1  0.40912500  0.16732400  0.81746200  1
  O  O35  1  0.09087500  0.16732400  0.31746200  1
