# generated using pymatgen
data_Nb2(PO4)3
_symmetry_space_group_name_H-M   'P 1'
_cell_length_a   9.11067963
_cell_length_b   9.11067963
_cell_length_c   9.11067983
_cell_angle_alpha   58.00913276
_cell_angle_beta   58.00913276
_cell_angle_gamma   58.00913013
_symmetry_Int_Tables_number   1
_chemical_formula_structural   Nb2(PO4)3
_chemical_formula_sum   'Nb4 P6 O24'
_cell_volume   510.31430013
_cell_formula_units_Z   2
loop_
 _symmetry_equiv_pos_site_id
 _symmetry_equiv_pos_as_xyz
  1  'x, y, z'
loop_
 _atom_site_type_symbol
 _atom_site_label
 _atom_site_symmetry_multiplicity
 _atom_site_fract_x
 _atom_site_fract_y
 _atom_site_fract_z
 _atom_site_occupancy
  Nb  Nb0  1  0.14204700  0.14204700  0.14204700  1
  Nb  Nb1  1  0.35795300  0.35795300  0.35795300  1
  Nb  Nb2  1  0.85795300  0.85795300  0.85795300  1
  Nb  Nb3  1  0.64204700  0.64204700  0.64204700  1
  P  P4  1  0.25000000  0.53213100  0.96786900  1
  P  P5  1  0.96786900  0.25000000  0.53213100  1
  P  P6  1  0.53213100  0.96786900  0.25000000  1
  P  P7  1  0.75000000  0.46786900  0.03213100  1
  P  P8  1  0.03213100  0.75000000  0.46786900  1
  P  P9  1  0.46786900  0.03213100  0.75000000  1
  O  O10  1  0.92122200  0.29481400  0.06163900  1
  O  O11  1  0.06163900  0.92122200  0.29481400  1
  O  O12  1  0.29481400  0.06163900  0.92122200  1
  O  O13  1  0.57877800  0.43836100  0.20518600  1
  O  O14  1  0.20518600  0.57877800  0.43836100  1
  O  O15  1  0.43836100  0.20518600  0.57877800  1
  O  O16  1  0.07877800  0.70518600  0.93836100  1
  O  O17  1  0.93836100  0.07877800  0.70518600  1
  O  O18  1  0.70518600  0.93836100  0.07877800  1
  O  O19  1  0.42122200  0.56163900  0.79481400  1
  O  O20  1  0.49580700  0.86270400  0.72660200  1
  O  O21  1  0.86270400  0.72660200  0.49580700  1
  O  O22  1  0.72660200  0.49580700  0.86270400  1
  O  O23  1  0.63729600  0.00419300  0.77339800  1
  O  O24  1  0.00419300  0.77339800  0.63729600  1
  O  O25  1  0.77339800  0.63729600  0.00419300  1
  O  O26  1  0.50419300  0.13729600  0.27339800  1
  O  O27  1  0.13729600  0.27339800  0.50419300  1
  O  O28  1  0.27339800  0.50419300  0.13729600  1
  O  O29  1  0.36270400  0.99580700  0.22660200  1
  O  O30  1  0.99580700  0.22660200  0.36270400  1
  O  O31  1  0.22660200  0.36270400  0.99580700  1
  O  O32  1  0.56163900  0.79481400  0.42122200  1
  O  O33  1  0.79481400  0.42122200  0.56163900  1
