# generated using pymatgen
data_Rb2LaNb5O15
_symmetry_space_group_name_H-M   'P 1'
_cell_length_a   12.87967400
_cell_length_b   12.87967400
_cell_length_c   3.98517500
_cell_angle_alpha   90.00000000
_cell_angle_beta   90.00000000
_cell_angle_gamma   90.00000000
_symmetry_Int_Tables_number   1
_chemical_formula_structural   Rb2LaNb5O15
_chemical_formula_sum   'Rb4 La2 Nb10 O30'
_cell_volume   661.08474940
_cell_formula_units_Z   2
loop_
 _symmetry_equiv_pos_site_id
 _symmetry_equiv_pos_as_xyz
  1  'x, y, z'
loop_
 _atom_site_type_symbol
 _atom_site_label
 _atom_site_symmetry_multiplicity
 _atom_site_fract_x
 _atom_site_fract_y
 _atom_site_fract_z
 _atom_site_occupancy
  Rb  Rb0  1  0.66950100  0.16950100  0.50000000  1
  Rb  Rb1  1  0.33049900  0.83049900  0.50000000  1
  Rb  Rb2  1  0.16950100  0.33049900  0.50000000  1
  Rb  Rb3  1  0.83049900  0.66950100  0.50000000  1
  La  La4  1  0.00000000  0.00000000  0.50000000  1
  La  La5  1  0.50000000  0.50000000  0.50000000  1
  Nb  Nb6  1  0.50000000  0.00000000  0.00000000  1
  Nb  Nb7  1  0.00000000  0.50000000  0.00000000  1
  Nb  Nb8  1  0.21393800  0.07569900  0.00000000  1
  Nb  Nb9  1  0.78606200  0.92430100  0.00000000  1
  Nb  Nb10  1  0.07569900  0.78606200  0.00000000  1
  Nb  Nb11  1  0.71393800  0.42430100  0.00000000  1
  Nb  Nb12  1  0.92430100  0.21393800  0.00000000  1
  Nb  Nb13  1  0.28606200  0.57569900  0.00000000  1
  Nb  Nb14  1  0.57569900  0.71393800  0.00000000  1
  Nb  Nb15  1  0.42430100  0.28606200  0.00000000  1
  O  O16  1  0.19187800  0.07804100  0.50000000  1
  O  O17  1  0.80812200  0.92195900  0.50000000  1
  O  O18  1  0.07804100  0.80812200  0.50000000  1
  O  O19  1  0.69187800  0.42195900  0.50000000  1
  O  O20  1  0.92195900  0.19187800  0.50000000  1
  O  O21  1  0.30812200  0.57804100  0.50000000  1
  O  O22  1  0.57804100  0.69187800  0.50000000  1
  O  O23  1  0.42195900  0.30812200  0.50000000  1
  O  O24  1  0.21371100  0.71371100  0.00000000  1
  O  O25  1  0.78628900  0.28628900  0.00000000  1
  O  O26  1  0.71371100  0.78628900  0.00000000  1
  O  O27  1  0.28628900  0.21371100  0.00000000  1
  O  O28  1  0.50000000  0.00000000  0.50000000  1
  O  O29  1  0.00000000  0.50000000  0.50000000  1
  O  O30  1  0.05923600  0.13298600  0.00000000  1
  O  O31  1  0.94076400  0.86701400  0.00000000  1
  O  O32  1  0.13298600  0.94076400  0.00000000  1
  O  O33  1  0.55923600  0.36701400  0.00000000  1
  O  O34  1  0.86701400  0.05923600  0.00000000  1
  O  O35  1  0.44076400  0.63298600  0.00000000  1
  O  O36  1  0.63298600  0.55923600  0.00000000  1
  O  O37  1  0.36701400  0.44076400  0.00000000  1
  O  O38  1  0.34353500  0.00140400  0.00000000  1
  O  O39  1  0.65646500  0.99859600  0.00000000  1
  O  O40  1  0.00140400  0.65646500  0.00000000  1
  O  O41  1  0.84353500  0.49859600  0.00000000  1
  O  O42  1  0.99859600  0.34353500  0.00000000  1
  O  O43  1  0.15646500  0.50140400  0.00000000  1
  O  O44  1  0.50140400  0.84353500  0.00000000  1
  O  O45  1  0.49859600  0.15646500  0.00000000  1
