# generated using pymatgen
data_HfGaAu
_symmetry_space_group_name_H-M   'P 1'
_cell_length_a   4.37326201
_cell_length_b   4.37326201
_cell_length_c   6.71077700
_cell_angle_alpha   90.00000000
_cell_angle_beta   90.00000000
_cell_angle_gamma   120.00000014
_symmetry_Int_Tables_number   1
_chemical_formula_structural   HfGaAu
_chemical_formula_sum   'Hf2 Ga2 Au2'
_cell_volume   111.15127103
_cell_formula_units_Z   2
loop_
 _symmetry_equiv_pos_site_id
 _symmetry_equiv_pos_as_xyz
  1  'x, y, z'
loop_
 _atom_site_type_symbol
 _atom_site_label
 _atom_site_symmetry_multiplicity
 _atom_site_fract_x
 _atom_site_fract_y
 _atom_site_fract_z
 _atom_site_occupancy
  Hf  Hf0  1  0.00000000  0.00000000  0.50000000  1
  Hf  Hf1  1  0.00000000  0.00000000  0.00000000  1
  Ga  Ga2  1  0.66666700  0.33333300  0.21097300  1
  Ga  Ga3  1  0.66666700  0.33333300  0.78902700  1
  Au  Au4  1  0.33333300  0.66666700  0.71356600  1
  Au  Au5  1  0.33333300  0.66666700  0.28643400  1
