# generated using pymatgen
data_Dy6InCo2
_symmetry_space_group_name_H-M   'P 1'
_cell_length_a   8.38763703
_cell_length_b   8.38763703
_cell_length_c   8.38763703
_cell_angle_alpha   111.80284418
_cell_angle_beta   109.73084211
_cell_angle_gamma   106.91688033
_symmetry_Int_Tables_number   1
_chemical_formula_structural   Dy6InCo2
_chemical_formula_sum   'Dy12 In2 Co4'
_cell_volume   453.42322480
_cell_formula_units_Z   2
loop_
 _symmetry_equiv_pos_site_id
 _symmetry_equiv_pos_as_xyz
  1  'x, y, z'
loop_
 _atom_site_type_symbol
 _atom_site_label
 _atom_site_symmetry_multiplicity
 _atom_site_fract_x
 _atom_site_fract_y
 _atom_site_fract_z
 _atom_site_occupancy
  Dy  Dy0  1  0.44260900  0.23437700  0.20823300  1
  Dy  Dy1  1  0.55739100  0.76562300  0.79176700  1
  Dy  Dy2  1  0.02614400  0.23437700  0.79176700  1
  Dy  Dy3  1  0.97385600  0.76562300  0.20823300  1
  Dy  Dy4  1  0.18500400  0.28669700  0.47170100  1
  Dy  Dy5  1  0.81499600  0.71330300  0.52829900  1
  Dy  Dy6  1  0.18500400  0.71330300  0.89830700  1
  Dy  Dy7  1  0.81499600  0.28669700  0.10169300  1
  Dy  Dy8  1  0.31855700  0.62676600  0.30820900  1
  Dy  Dy9  1  0.68144300  0.37323400  0.69179100  1
  Dy  Dy10  1  0.31855700  0.01034800  0.69179100  1
  Dy  Dy11  1  0.68144300  0.98965200  0.30820900  1
  In  In12  1  0.50000000  0.50000000  0.00000000  1
  In  In13  1  0.00000000  0.00000000  0.00000000  1
  Co  Co14  1  0.36667100  0.00000000  0.36667100  1
  Co  Co15  1  0.63332900  0.00000000  0.63332900  1
  Co  Co16  1  0.11198800  0.61198800  0.50000000  1
  Co  Co17  1  0.88801200  0.38801200  0.50000000  1
