# generated using pymatgen
data_Li3Pr2(BO3)3
_symmetry_space_group_name_H-M   'P 1'
_cell_length_a   14.27751600
_cell_length_b   5.88563600
_cell_length_c   9.46884474
_cell_angle_alpha   66.79822103
_cell_angle_beta   90.00000000
_cell_angle_gamma   90.00000000
_symmetry_Int_Tables_number   1
_chemical_formula_structural   Li3Pr2(BO3)3
_chemical_formula_sum   'Li12 Pr8 B12 O36'
_cell_volume   731.33563468
_cell_formula_units_Z   4
loop_
 _symmetry_equiv_pos_site_id
 _symmetry_equiv_pos_as_xyz
  1  'x, y, z'
loop_
 _atom_site_type_symbol
 _atom_site_label
 _atom_site_symmetry_multiplicity
 _atom_site_fract_x
 _atom_site_fract_y
 _atom_site_fract_z
 _atom_site_occupancy
  Li  Li0  1  0.88824600  0.94848900  0.20806900  1
  Li  Li1  1  0.38824600  0.05151100  0.29193100  1
  Li  Li2  1  0.11175400  0.05151100  0.79193100  1
  Li  Li3  1  0.61175400  0.94848900  0.70806900  1
  Li  Li4  1  0.83471000  0.42504000  0.00340300  1
  Li  Li5  1  0.33471000  0.57496000  0.49659700  1
  Li  Li6  1  0.16529000  0.57496000  0.99659700  1
  Li  Li7  1  0.66529000  0.42504000  0.50340300  1
  Li  Li8  1  0.78509200  0.57977200  0.21077300  1
  Li  Li9  1  0.28509200  0.42022800  0.28922700  1
  Li  Li10  1  0.21490800  0.42022800  0.78922700  1
  Li  Li11  1  0.71490800  0.57977200  0.71077300  1
  Pr  Pr12  1  0.50292600  0.65322700  0.15893200  1
  Pr  Pr13  1  0.00292600  0.34677300  0.34106800  1
  Pr  Pr14  1  0.49707400  0.34677300  0.84106800  1
  Pr  Pr15  1  0.99707400  0.65322700  0.65893200  1
  Pr  Pr16  1  0.66397400  0.05835500  0.30798900  1
  Pr  Pr17  1  0.16397400  0.94164500  0.19201100  1
  Pr  Pr18  1  0.33602600  0.94164500  0.69201100  1
  Pr  Pr19  1  0.83602600  0.05835500  0.80798900  1
  B  B20  1  0.98498800  0.73612900  0.01381400  1
  B  B21  1  0.48498800  0.26387100  0.48618600  1
  B  B22  1  0.01501200  0.26387100  0.98618600  1
  B  B23  1  0.51501200  0.73612900  0.51381400  1
  B  B24  1  0.67715900  0.11363900  0.98313800  1
  B  B25  1  0.17715900  0.88636100  0.51686200  1
  B  B26  1  0.32284100  0.88636100  0.01686200  1
  B  B27  1  0.82284100  0.11363900  0.48313800  1
  B  B28  1  0.66355000  0.61522800  0.97169100  1
  B  B29  1  0.16355000  0.38477200  0.52830900  1
  B  B30  1  0.33645000  0.38477200  0.02830900  1
  B  B31  1  0.83645000  0.61522800  0.47169100  1
  O  O32  1  0.89725700  0.69033600  0.08078500  1
  O  O33  1  0.39725700  0.30966400  0.41921500  1
  O  O34  1  0.10274300  0.30966400  0.91921500  1
  O  O35  1  0.60274300  0.69033600  0.58078500  1
  O  O36  1  0.50684900  0.84256600  0.35480600  1
  O  O37  1  0.00684900  0.15743400  0.14519400  1
  O  O38  1  0.49315100  0.15743400  0.64519400  1
  O  O39  1  0.99315100  0.84256600  0.85480600  1
  O  O40  1  0.56460100  0.32298700  0.39416300  1
  O  O41  1  0.06460100  0.67701300  0.10583700  1
  O  O42  1  0.43539900  0.67701300  0.60583700  1
  O  O43  1  0.93539900  0.32298700  0.89416300  1
  O  O44  1  0.66968200  0.21257100  0.82374000  1
  O  O45  1  0.16968200  0.78742900  0.67626000  1
  O  O46  1  0.33031800  0.78742900  0.17626000  1
  O  O47  1  0.83031800  0.21257100  0.32374000  1
  O  O48  1  0.76247600  0.09420300  0.05548200  1
  O  O49  1  0.26247600  0.90579700  0.44451800  1
  O  O50  1  0.23752400  0.90579700  0.94451800  1
  O  O51  1  0.73752400  0.09420300  0.55548200  1
  O  O52  1  0.59518500  0.04245100  0.06941100  1
  O  O53  1  0.09518500  0.95754900  0.43058900  1
  O  O54  1  0.40481500  0.95754900  0.93058900  1
  O  O55  1  0.90481500  0.04245100  0.56941100  1
  O  O56  1  0.74215900  0.68178200  0.87898200  1
  O  O57  1  0.24215900  0.31821800  0.62101800  1
  O  O58  1  0.25784100  0.31821800  0.12101800  1
  O  O59  1  0.75784100  0.68178200  0.37898200  1
  O  O60  1  0.57467900  0.66291400  0.90675100  1
  O  O61  1  0.07467900  0.33708600  0.59324900  1
  O  O62  1  0.42532100  0.33708600  0.09324900  1
  O  O63  1  0.92532100  0.66291400  0.40675100  1
  O  O64  1  0.66877100  0.50476600  0.13079100  1
  O  O65  1  0.16877100  0.49523400  0.36920900  1
  O  O66  1  0.33122900  0.49523400  0.86920900  1
  O  O67  1  0.83122900  0.50476600  0.63079100  1
