# generated using pymatgen
data_K2Zn3(SeO3)4
_symmetry_space_group_name_H-M   'P 1'
_cell_length_a   7.29659300
_cell_length_b   7.29659300
_cell_length_c   14.01261095
_cell_angle_alpha   87.33200177
_cell_angle_beta   87.33200177
_cell_angle_gamma   74.51322190
_symmetry_Int_Tables_number   1
_chemical_formula_structural   K2Zn3(SeO3)4
_chemical_formula_sum   'K4 Zn6 Se8 O24'
_cell_volume   717.71765838
_cell_formula_units_Z   2
loop_
 _symmetry_equiv_pos_site_id
 _symmetry_equiv_pos_as_xyz
  1  'x, y, z'
loop_
 _atom_site_type_symbol
 _atom_site_label
 _atom_site_symmetry_multiplicity
 _atom_site_fract_x
 _atom_site_fract_y
 _atom_site_fract_z
 _atom_site_occupancy
  K  K0  1  0.79774100  0.78267000  0.98305200  1
  K  K1  1  0.21733000  0.20225900  0.51694800  1
  K  K2  1  0.20225900  0.21733000  0.01694800  1
  K  K3  1  0.78267000  0.79774100  0.48305200  1
  Zn  Zn4  1  0.32310600  0.62612900  0.89807000  1
  Zn  Zn5  1  0.37387100  0.67689400  0.60193000  1
  Zn  Zn6  1  0.67689400  0.37387100  0.10193000  1
  Zn  Zn7  1  0.62612900  0.32310600  0.39807000  1
  Zn  Zn8  1  0.00064200  0.99935800  0.75000000  1
  Zn  Zn9  1  0.99935800  0.00064200  0.25000000  1
  Se  Se10  1  0.02166900  0.58340400  0.72210700  1
  Se  Se11  1  0.41659600  0.97833100  0.77789300  1
  Se  Se12  1  0.97833100  0.41659600  0.27789300  1
  Se  Se13  1  0.58340400  0.02166900  0.22210700  1
  Se  Se14  1  0.67682100  0.28152400  0.62896100  1
  Se  Se15  1  0.71847600  0.32317900  0.87103900  1
  Se  Se16  1  0.32317900  0.71847600  0.37103900  1
  Se  Se17  1  0.28152400  0.67682100  0.12896100  1
  O  O18  1  0.92328800  0.80248300  0.66785300  1
  O  O19  1  0.19751700  0.07671200  0.83214700  1
  O  O20  1  0.07671200  0.19751700  0.33214700  1
  O  O21  1  0.80248300  0.92328800  0.16785300  1
  O  O22  1  0.23074300  0.49815900  0.65434900  1
  O  O23  1  0.50184100  0.76925700  0.84565100  1
  O  O24  1  0.76925700  0.50184100  0.34565100  1
  O  O25  1  0.49815900  0.23074300  0.15434900  1
  O  O26  1  0.08836000  0.67672600  0.82396200  1
  O  O27  1  0.32327400  0.91164000  0.67603800  1
  O  O28  1  0.91164000  0.32327400  0.17603800  1
  O  O29  1  0.67672600  0.08836000  0.32396200  1
  O  O30  1  0.91912000  0.21190900  0.64561300  1
  O  O31  1  0.78809100  0.08088000  0.85438700  1
  O  O32  1  0.08088000  0.78809100  0.35438700  1
  O  O33  1  0.21190900  0.91912000  0.14561300  1
  O  O34  1  0.65222100  0.17850400  0.52276000  1
  O  O35  1  0.82149600  0.34777900  0.97724000  1
  O  O36  1  0.34777900  0.82149600  0.47724000  1
  O  O37  1  0.17850400  0.65222100  0.02276000  1
  O  O38  1  0.64489400  0.51791100  0.59189500  1
  O  O39  1  0.48208900  0.35510600  0.90810500  1
  O  O40  1  0.35510600  0.48208900  0.40810500  1
  O  O41  1  0.51791100  0.64489400  0.09189500  1
