# generated using pymatgen
data_GePt3
_symmetry_space_group_name_H-M   'P 1'
_cell_length_a   5.64047182
_cell_length_b   5.64047182
_cell_length_c   5.64047182
_cell_angle_alpha   120.50269579
_cell_angle_beta   120.50269579
_cell_angle_gamma   89.13148850
_symmetry_Int_Tables_number   1
_chemical_formula_structural   GePt3
_chemical_formula_sum   'Ge2 Pt6'
_cell_volume   125.91130634
_cell_formula_units_Z   2
loop_
 _symmetry_equiv_pos_site_id
 _symmetry_equiv_pos_as_xyz
  1  'x, y, z'
loop_
 _atom_site_type_symbol
 _atom_site_label
 _atom_site_symmetry_multiplicity
 _atom_site_fract_x
 _atom_site_fract_y
 _atom_site_fract_z
 _atom_site_occupancy
  Ge  Ge0  1  0.25000000  0.75000000  0.50000000  1
  Ge  Ge1  1  0.75000000  0.25000000  0.50000000  1
  Pt  Pt2  1  0.75000000  0.75000000  0.00000000  1
  Pt  Pt3  1  0.25000000  0.25000000  0.00000000  1
  Pt  Pt4  1  0.30468100  0.80468100  0.10936200  1
  Pt  Pt5  1  0.69531900  0.19531900  0.89063800  1
  Pt  Pt6  1  0.80468100  0.69531900  0.50000000  1
  Pt  Pt7  1  0.19531900  0.30468100  0.50000000  1
