# generated using pymatgen
data_SmPtF7
_symmetry_space_group_name_H-M   'P 1'
_cell_length_a   5.63097400
_cell_length_b   9.07580000
_cell_length_c   12.18920398
_cell_angle_alpha   62.11023257
_cell_angle_beta   90.00000000
_cell_angle_gamma   90.00000000
_symmetry_Int_Tables_number   1
_chemical_formula_structural   SmPtF7
_chemical_formula_sum   'Sm4 Pt4 F28'
_cell_volume   550.58192446
_cell_formula_units_Z   4
loop_
 _symmetry_equiv_pos_site_id
 _symmetry_equiv_pos_as_xyz
  1  'x, y, z'
loop_
 _atom_site_type_symbol
 _atom_site_label
 _atom_site_symmetry_multiplicity
 _atom_site_fract_x
 _atom_site_fract_y
 _atom_site_fract_z
 _atom_site_occupancy
  Sm  Sm0  1  0.76054300  0.81232500  0.76431800  1
  Sm  Sm1  1  0.26054300  0.18767500  0.73568200  1
  Sm  Sm2  1  0.23945700  0.18767500  0.23568200  1
  Sm  Sm3  1  0.73945700  0.81232500  0.26431800  1
  Pt  Pt4  1  0.75741500  0.27301100  0.95730500  1
  Pt  Pt5  1  0.25741500  0.72698900  0.54269500  1
  Pt  Pt6  1  0.24258500  0.72698900  0.04269500  1
  Pt  Pt7  1  0.74258500  0.27301100  0.45730500  1
  F  F8  1  0.43437300  0.70532000  0.91600500  1
  F  F9  1  0.93437300  0.29468000  0.58399500  1
  F  F10  1  0.56562700  0.29468000  0.08399500  1
  F  F11  1  0.06562700  0.70532000  0.41600500  1
  F  F12  1  0.44636200  0.28065100  0.54098200  1
  F  F13  1  0.94636200  0.71934900  0.95901800  1
  F  F14  1  0.55363800  0.71934900  0.45901800  1
  F  F15  1  0.05363800  0.28065100  0.04098200  1
  F  F16  1  0.76936200  0.51778900  0.85998200  1
  F  F17  1  0.26936200  0.48221100  0.64001800  1
  F  F18  1  0.23063800  0.48221100  0.14001800  1
  F  F19  1  0.73063800  0.51778900  0.35998200  1
  F  F20  1  0.75597800  0.02817600  0.04973600  1
  F  F21  1  0.25597800  0.97182400  0.45026400  1
  F  F22  1  0.24402200  0.97182400  0.95026400  1
  F  F23  1  0.74402200  0.02817600  0.54973600  1
  F  F24  1  0.96732000  0.72710400  0.63260700  1
  F  F25  1  0.46732000  0.27289600  0.86739300  1
  F  F26  1  0.03268000  0.27289600  0.36739300  1
  F  F27  1  0.53268000  0.72710400  0.13260700  1
  F  F28  1  0.05549700  0.74369600  0.17303700  1
  F  F29  1  0.55549700  0.25630400  0.32696300  1
  F  F30  1  0.94450300  0.25630400  0.82696300  1
  F  F31  1  0.44450300  0.74369600  0.67303700  1
  F  F32  1  0.41029500  0.96811600  0.23172000  1
  F  F33  1  0.91029500  0.03188400  0.26828000  1
  F  F34  1  0.58970500  0.03188400  0.76828000  1
  F  F35  1  0.08970500  0.96811600  0.73172000  1
