# generated using pymatgen
data_Nd4Rh6Pb19
_symmetry_space_group_name_H-M   'P 1'
_cell_length_a   14.58070713
_cell_length_b   14.58070713
_cell_length_c   17.79362302
_cell_angle_alpha   114.18707296
_cell_angle_beta   114.18707296
_cell_angle_gamma   90.00000000
_symmetry_Int_Tables_number   1
_chemical_formula_structural   Nd4Rh6Pb19
_chemical_formula_sum   'Nd16 Rh24 Pb76'
_cell_volume   3083.12959260
_cell_formula_units_Z   4
loop_
 _symmetry_equiv_pos_site_id
 _symmetry_equiv_pos_as_xyz
  1  'x, y, z'
loop_
 _atom_site_type_symbol
 _atom_site_label
 _atom_site_symmetry_multiplicity
 _atom_site_fract_x
 _atom_site_fract_y
 _atom_site_fract_z
 _atom_site_occupancy
  Nd  Nd0  1  0.54585837  0.05163313  0.36440835  1
  Nd  Nd1  1  0.31854998  0.55163313  0.36440835  1
  Nd  Nd2  1  0.43145002  0.43722478  0.13559165  1
  Nd  Nd3  1  0.20414163  0.93722478  0.13559165  1
  Nd  Nd4  1  0.81854998  0.31277522  0.36440835  1
  Nd  Nd5  1  0.04585837  0.81277522  0.36440835  1
  Nd  Nd6  1  0.70414163  0.69836687  0.13559165  1
  Nd  Nd7  1  0.93145002  0.19836687  0.13559165  1
  Nd  Nd8  1  0.68722478  0.45414163  0.63559165  1
  Nd  Nd9  1  0.18722478  0.68145002  0.63559165  1
  Nd  Nd10  1  0.30163313  0.56854998  0.86440835  1
  Nd  Nd11  1  0.80163313  0.79585837  0.86440835  1
  Nd  Nd12  1  0.94836687  0.18145002  0.63559165  1
  Nd  Nd13  1  0.44836687  0.95414163  0.63559165  1
  Nd  Nd14  1  0.56277522  0.29585837  0.86440835  1
  Nd  Nd15  1  0.06277522  0.06854998  0.86440835  1
  Rh  Rh16  1  0.87088013  0.37088013  0.74176026  1
  Rh  Rh17  1  0.37088013  0.87088013  0.74176026  1
  Rh  Rh18  1  0.37911987  0.37911987  0.75823974  1
  Rh  Rh19  1  0.87911987  0.87911987  0.75823974  1
  Rh  Rh20  1  0.62911987  0.12911987  0.25823974  1
  Rh  Rh21  1  0.12911987  0.62911987  0.25823974  1
  Rh  Rh22  1  0.62088013  0.62088013  0.24176026  1
  Rh  Rh23  1  0.12088013  0.12088013  0.24176026  1
  Rh  Rh24  1  0.74919906  0.00763510  0.49998537  1
  Rh  Rh25  1  0.25078631  0.50763510  0.49998537  1
  Rh  Rh26  1  0.49921369  0.25764973  0.00001463  1
  Rh  Rh27  1  0.00080094  0.75764973  0.00001463  1
  Rh  Rh28  1  0.75078631  0.49235027  0.49998537  1
  Rh  Rh29  1  0.24919906  0.99235027  0.49998537  1
  Rh  Rh30  1  0.50080094  0.74236490  0.00001463  1
  Rh  Rh31  1  0.99921369  0.24236490  0.00001463  1
  Rh  Rh32  1  0.50764973  0.25080094  0.50001463  1
  Rh  Rh33  1  0.00764973  0.74921369  0.50001463  1
  Rh  Rh34  1  0.25763510  0.50078631  0.99998537  1
  Rh  Rh35  1  0.75763510  0.99919906  0.99998537  1
  Rh  Rh36  1  0.99236490  0.24921369  0.50001463  1
  Rh  Rh37  1  0.49236490  0.75080094  0.50001463  1
  Rh  Rh38  1  0.74235027  0.49919906  0.99998537  1
  Rh  Rh39  1  0.24235027  0.00078631  0.99998537  1
  Pb  Pb40  1  0.66324057  0.12500000  0.75000000  1
  Pb  Pb41  1  0.58675943  0.62500000  0.75000000  1
  Pb  Pb42  1  0.16324057  0.12500000  0.75000000  1
  Pb  Pb43  1  0.08675943  0.62500000  0.75000000  1
  Pb  Pb44  1  0.37500000  0.33675943  0.25000000  1
  Pb  Pb45  1  0.87500000  0.41324057  0.25000000  1
  Pb  Pb46  1  0.37500000  0.83675943  0.25000000  1
  Pb  Pb47  1  0.87500000  0.91324057  0.25000000  1
  Pb  Pb48  1  0.67177028  0.17177028  1.00000000  1
  Pb  Pb49  1  0.82822972  0.67177028  0.00000000  1
  Pb  Pb50  1  0.92177028  0.92177028  0.50000000  1
  Pb  Pb51  1  0.07822972  0.42177028  0.50000000  1
  Pb  Pb52  1  0.32822972  0.82822972  0.00000000  1
  Pb  Pb53  1  0.17177028  0.32822972  0.00000000  1
  Pb  Pb54  1  0.57822972  0.57822972  0.50000000  1
  Pb  Pb55  1  0.42177028  0.07822972  0.50000000  1
  Pb  Pb56  1  0.82570867  0.32570867  0.00000000  1
  Pb  Pb57  1  0.67429133  0.82570867  0.00000000  1
  Pb  Pb58  1  0.07570867  0.07570867  0.50000000  1
  Pb  Pb59  1  0.92429133  0.57570867  0.50000000  1
  Pb  Pb60  1  0.17429133  0.67429133  1.00000000  1
  Pb  Pb61  1  0.32570867  0.17429133  0.00000000  1
  Pb  Pb62  1  0.42429133  0.42429133  0.50000000  1
  Pb  Pb63  1  0.57570867  0.92429133  0.50000000  1
  Pb  Pb64  1  0.82803717  0.00994056  0.67343108  1
  Pb  Pb65  1  0.34539391  0.50994056  0.67343108  1
  Pb  Pb66  1  0.40460609  0.08650948  0.82656892  1
  Pb  Pb67  1  0.92196283  0.58650948  0.82656892  1
  Pb  Pb68  1  0.84539391  0.66349052  0.67343108  1
  Pb  Pb69  1  0.32803717  0.16349052  0.67343108  1
  Pb  Pb70  1  0.42196283  0.74005944  0.82656892  1
  Pb  Pb71  1  0.90460609  0.24005944  0.82656892  1
  Pb  Pb72  1  0.33650948  0.17196283  0.32656892  1
  Pb  Pb73  1  0.83650948  0.65460609  0.32656892  1
  Pb  Pb74  1  0.25994056  0.59539391  0.17343108  1
  Pb  Pb75  1  0.75994056  0.07803717  0.17343108  1
  Pb  Pb76  1  0.99005944  0.15460609  0.32656892  1
  Pb  Pb77  1  0.49005944  0.67196283  0.32656892  1
  Pb  Pb78  1  0.91349052  0.57803717  0.17343108  1
  Pb  Pb79  1  0.41349052  0.09539391  0.17343108  1
  Pb  Pb80  1  0.50975041  0.33152665  0.67204353  1
  Pb  Pb81  1  0.66229313  0.83152665  0.67204353  1
  Pb  Pb82  1  0.08770687  0.40948312  0.82795647  1
  Pb  Pb83  1  0.24024959  0.90948312  0.82795647  1
  Pb  Pb84  1  0.16229313  0.34051688  0.67204353  1
  Pb  Pb85  1  0.00975041  0.84051688  0.67204353  1
  Pb  Pb86  1  0.74024959  0.41847335  0.82795647  1
  Pb  Pb87  1  0.58770687  0.91847335  0.82795647  1
  Pb  Pb88  1  0.65948312  0.49024959  0.32795647  1
  Pb  Pb89  1  0.15948312  0.33770687  0.32795647  1
  Pb  Pb90  1  0.58152665  0.91229313  0.17204353  1
  Pb  Pb91  1  0.08152665  0.75975041  0.17204353  1
  Pb  Pb92  1  0.66847335  0.83770687  0.32795647  1
  Pb  Pb93  1  0.16847335  0.99024959  0.32795647  1
  Pb  Pb94  1  0.59051688  0.25975041  0.17204353  1
  Pb  Pb95  1  0.09051688  0.41229313  0.17204353  1
  Pb  Pb96  1  0.70443544  0.20652386  0.58808689  1
  Pb  Pb97  1  0.38365145  0.70652386  0.58808689  1
  Pb  Pb98  1  0.36634855  0.36843697  0.91191311  1
  Pb  Pb99  1  0.04556456  0.86843697  0.91191311  1
  Pb  Pb100  1  0.88365145  0.38156303  0.58808689  1
  Pb  Pb101  1  0.20443544  0.88156303  0.58808689  1
  Pb  Pb102  1  0.54556456  0.54347614  0.91191311  1
  Pb  Pb103  1  0.86634855  0.04347614  0.91191311  1
  Pb  Pb104  1  0.61843697  0.29556456  0.41191311  1
  Pb  Pb105  1  0.11843697  0.61634855  0.41191311  1
  Pb  Pb106  1  0.45652386  0.63365145  0.08808689  1
  Pb  Pb107  1  0.95652386  0.95443544  0.08808689  1
  Pb  Pb108  1  0.79347614  0.11634855  0.41191311  1
  Pb  Pb109  1  0.29347614  0.79556456  0.41191311  1
  Pb  Pb110  1  0.63156303  0.45443544  0.08808689  1
  Pb  Pb111  1  0.13156303  0.13365145  0.08808689  1
  Pb  Pb112  1  0.00000000  0.50000000  0.00000000  1
  Pb  Pb113  1  0.50000000  -0.00000000  0.00000000  1
  Pb  Pb114  1  0.25000000  0.25000000  0.50000000  1
  Pb  Pb115  1  0.75000000  0.75000000  0.50000000  1
