# generated using pymatgen
data_EuZrF7
_symmetry_space_group_name_H-M   'P 1'
_cell_length_a   5.81150700
_cell_length_b   6.23458702
_cell_length_c   8.44408153
_cell_angle_alpha   101.40534368
_cell_angle_beta   90.00000000
_cell_angle_gamma   90.00000000
_symmetry_Int_Tables_number   1
_chemical_formula_structural   EuZrF7
_chemical_formula_sum   'Eu2 Zr2 F14'
_cell_volume   299.90723088
_cell_formula_units_Z   2
loop_
 _symmetry_equiv_pos_site_id
 _symmetry_equiv_pos_as_xyz
  1  'x, y, z'
loop_
 _atom_site_type_symbol
 _atom_site_label
 _atom_site_symmetry_multiplicity
 _atom_site_fract_x
 _atom_site_fract_y
 _atom_site_fract_z
 _atom_site_occupancy
  Eu  Eu0  1  0.69893300  0.65606900  0.68518400  1
  Eu  Eu1  1  0.19893300  0.34393100  0.31481600  1
  Zr  Zr2  1  0.70853700  0.81243000  0.22296500  1
  Zr  Zr3  1  0.20853700  0.18757000  0.77703500  1
  F  F4  1  0.88493200  0.45116000  0.47564500  1
  F  F5  1  0.38493200  0.54884000  0.52435500  1
  F  F6  1  0.42205100  0.92513800  0.76631000  1
  F  F7  1  0.92205100  0.07486200  0.23369000  1
  F  F8  1  0.94569800  0.96721500  0.76142800  1
  F  F9  1  0.44569800  0.03278500  0.23857200  1
  F  F10  1  0.99983300  0.45188300  0.78520500  1
  F  F11  1  0.49983300  0.54811700  0.21479500  1
  F  F12  1  0.70450200  0.75721200  0.97864300  1
  F  F13  1  0.20450200  0.24278800  0.02135700  1
  F  F14  1  0.71264700  0.85609200  0.47000500  1
  F  F15  1  0.21264700  0.14390800  0.52999500  1
  F  F16  1  0.49922600  0.37594800  0.78123500  1
  F  F17  1  0.99922600  0.62405200  0.21876500  1
