# generated using pymatgen
data_CrPO4
_symmetry_space_group_name_H-M   'P 1'
_cell_length_a   9.03839311
_cell_length_b   9.03839311
_cell_length_c   9.03839311
_cell_angle_alpha   138.48905433
_cell_angle_beta   108.27394934
_cell_angle_gamma   86.42300063
_symmetry_Int_Tables_number   1
_chemical_formula_structural   CrPO4
_chemical_formula_sum   'Cr6 P6 O24'
_cell_volume   446.90615295
_cell_formula_units_Z   6
loop_
 _symmetry_equiv_pos_site_id
 _symmetry_equiv_pos_as_xyz
  1  'x, y, z'
loop_
 _atom_site_type_symbol
 _atom_site_label
 _atom_site_symmetry_multiplicity
 _atom_site_fract_x
 _atom_site_fract_y
 _atom_site_fract_z
 _atom_site_occupancy
  Cr  Cr0  1  0.88324400  0.88324400  0.50000000  1
  Cr  Cr1  1  0.61675600  0.11675600  0.00000000  1
  Cr  Cr2  1  0.11675600  0.11675600  0.50000000  1
  Cr  Cr3  1  0.38324400  0.88324400  0.00000000  1
  Cr  Cr4  1  0.50000000  0.00000000  0.50000000  1
  Cr  Cr5  1  0.00000000  0.50000000  0.50000000  1
  P  P6  1  0.67642600  0.67642600  0.50000000  1
  P  P7  1  0.82357400  0.32357400  0.00000000  1
  P  P8  1  0.32357400  0.32357400  0.50000000  1
  P  P9  1  0.17642600  0.67642600  0.00000000  1
  P  P10  1  0.75000000  0.16365700  0.41365700  1
  P  P11  1  0.25000000  0.83634300  0.58634300  1
  O  O12  1  0.65133700  0.18938200  0.53804500  1
  O  O13  1  0.84866300  0.38670800  0.53804500  1
  O  O14  1  0.34866300  0.81061800  0.46195500  1
  O  O15  1  0.15133700  0.61329200  0.46195500  1
  O  O16  1  0.91174200  0.19299400  0.83285500  1
  O  O17  1  0.58825800  0.42111300  0.28125200  1
  O  O18  1  0.63986100  0.80700600  0.71874800  1
  O  O19  1  0.86013900  0.57888700  0.16714500  1
  O  O20  1  0.08825800  0.80700600  0.16714500  1
  O  O21  1  0.41174200  0.57888700  0.71874800  1
  O  O22  1  0.36013900  0.19299400  0.28125200  1
  O  O23  1  0.13986100  0.42111300  0.83285500  1
  O  O24  1  0.37259500  0.97927100  0.85186600  1
  O  O25  1  0.12740500  0.97927100  0.60667700  1
  O  O26  1  0.87259500  0.02072900  0.39332300  1
  O  O27  1  0.62740500  0.02072900  0.14813400  1
  O  O28  1  0.14754200  0.72438800  0.85507700  1
  O  O29  1  0.35245800  0.20753400  0.57684500  1
  O  O30  1  0.13068900  0.27561200  0.42315500  1
  O  O31  1  0.36931100  0.79246600  0.14492300  1
  O  O32  1  0.85245800  0.27561200  0.14492300  1
  O  O33  1  0.64754200  0.79246600  0.42315500  1
  O  O34  1  0.86931100  0.72438800  0.57684500  1
  O  O35  1  0.63068900  0.20753400  0.85507700  1
