# generated using pymatgen
data_Sc9Te2
_symmetry_space_group_name_H-M   'P 1'
_cell_length_a   8.72419611
_cell_length_b   8.72419611
_cell_length_c   17.35931700
_cell_angle_alpha   90.00000000
_cell_angle_beta   90.00000000
_cell_angle_gamma   127.20726600
_symmetry_Int_Tables_number   1
_chemical_formula_structural   Sc9Te2
_chemical_formula_sum   'Sc36 Te8'
_cell_volume   1052.31014024
_cell_formula_units_Z   4
loop_
 _symmetry_equiv_pos_site_id
 _symmetry_equiv_pos_as_xyz
  1  'x, y, z'
loop_
 _atom_site_type_symbol
 _atom_site_label
 _atom_site_symmetry_multiplicity
 _atom_site_fract_x
 _atom_site_fract_y
 _atom_site_fract_z
 _atom_site_occupancy
  Sc  Sc0  1  0.34964000  0.20157600  0.86911600  1
  Sc  Sc1  1  0.79842400  0.65036000  0.86911600  1
  Sc  Sc2  1  0.65036000  0.79842400  0.36911600  1
  Sc  Sc3  1  0.20157600  0.34964000  0.36911600  1
  Sc  Sc4  1  0.60018400  0.95166400  0.64109000  1
  Sc  Sc5  1  0.04833600  0.39981600  0.64109000  1
  Sc  Sc6  1  0.39981600  0.04833600  0.14109000  1
  Sc  Sc7  1  0.95166400  0.60018400  0.14109000  1
  Sc  Sc8  1  0.73495700  0.26504300  0.79486800  1
  Sc  Sc9  1  0.26504300  0.73495700  0.29486800  1
  Sc  Sc10  1  0.57576600  0.42423400  0.43118700  1
  Sc  Sc11  1  0.42423400  0.57576600  0.93118700  1
  Sc  Sc12  1  0.61444400  0.38555600  0.02140400  1
  Sc  Sc13  1  0.38555600  0.61444400  0.52140400  1
  Sc  Sc14  1  0.23264500  0.21014000  0.56071900  1
  Sc  Sc15  1  0.78986000  0.76735500  0.56071900  1
  Sc  Sc16  1  0.76735500  0.78986000  0.06071900  1
  Sc  Sc17  1  0.21014000  0.23264500  0.06071900  1
  Sc  Sc18  1  0.98459100  0.01540900  0.71502200  1
  Sc  Sc19  1  0.01540900  0.98459100  0.21502200  1
  Sc  Sc20  1  0.93097600  0.06902400  0.92499100  1
  Sc  Sc21  1  0.06902400  0.93097600  0.42499100  1
  Sc  Sc22  1  0.47548800  0.52451200  0.70194000  1
  Sc  Sc23  1  0.52451200  0.47548800  0.20194000  1
  Sc  Sc24  1  0.13584200  0.86415800  0.98733200  1
  Sc  Sc25  1  0.86415800  0.13584200  0.48733200  1
  Sc  Sc26  1  0.45998300  0.98345800  0.44905900  1
  Sc  Sc27  1  0.01654200  0.54001700  0.44905900  1
  Sc  Sc28  1  0.54001700  0.01654200  0.94905900  1
  Sc  Sc29  1  0.98345800  0.45998300  0.94905900  1
  Sc  Sc30  1  0.22584700  0.77415300  0.80636900  1
  Sc  Sc31  1  0.77415300  0.22584700  0.30636900  1
  Sc  Sc32  1  0.67447600  0.32552400  0.57881600  1
  Sc  Sc33  1  0.32552400  0.67447600  0.07881600  1
  Sc  Sc34  1  0.18070700  0.81929300  0.58454300  1
  Sc  Sc35  1  0.81929300  0.18070700  0.08454300  1
  Te  Te36  1  0.38133400  0.12169500  0.70364200  1
  Te  Te37  1  0.87830500  0.61866600  0.70364200  1
  Te  Te38  1  0.61866600  0.87830500  0.20364200  1
  Te  Te39  1  0.12169500  0.38133400  0.20364200  1
  Te  Te40  1  0.62770000  0.86656800  0.80591900  1
  Te  Te41  1  0.13343200  0.37230000  0.80591900  1
  Te  Te42  1  0.37230000  0.13343200  0.30591900  1
  Te  Te43  1  0.86656800  0.62770000  0.30591900  1
