# generated using pymatgen
data_Mg149Cl
_symmetry_space_group_name_H-M   'P 1'
_cell_length_a   15.91366820
_cell_length_b   15.91369802
_cell_length_c   15.61346785
_cell_angle_alpha   90.00000000
_cell_angle_beta   90.00000000
_cell_angle_gamma   120.00006199
_symmetry_Int_Tables_number   1
_chemical_formula_structural   Mg149Cl
_chemical_formula_sum   'Mg149 Cl1'
_cell_volume   3424.29479031
_cell_formula_units_Z   1
loop_
 _symmetry_equiv_pos_site_id
 _symmetry_equiv_pos_as_xyz
  1  'x, y, z'
loop_
 _atom_site_type_symbol
 _atom_site_label
 _atom_site_symmetry_multiplicity
 _atom_site_fract_x
 _atom_site_fract_y
 _atom_site_fract_z
 _atom_site_occupancy
  Mg  Mg0  1  0.20260431  0.00088048  0.00000000  1
  Mg  Mg1  1  0.79827614  0.00088081  0.00000000  1
  Mg  Mg2  1  0.79975899  0.20024120  0.00000000  1
  Mg  Mg3  1  0.40048310  0.20024105  0.00000000  1
  Mg  Mg4  1  0.60041183  0.20082399  0.00000000  1
  Mg  Mg5  1  0.99911848  0.20172300  -0.00000000  1
  Mg  Mg6  1  0.20260431  0.20172383  0.00000000  1
  Mg  Mg7  1  0.19993214  0.39986520  0.00000000  1
  Mg  Mg8  1  0.60041183  0.39958784  -0.00000000  1
  Mg  Mg9  1  0.79917621  0.39958811  -0.00000000  1
  Mg  Mg10  1  0.40080153  0.40125898  -0.00000000  1
  Mg  Mg11  1  0.00045743  0.40125896  0.00000000  1
  Mg  Mg12  1  0.59874097  0.59919829  -0.00000000  1
  Mg  Mg13  1  0.00045743  0.59919847  0.00000000  1
  Mg  Mg14  1  0.79975899  0.59951779  0.00000000  1
  Mg  Mg15  1  0.20096191  0.60048145  0.00000000  1
  Mg  Mg16  1  0.39951964  0.60048152  0.00000000  1
  Mg  Mg17  1  0.99911848  0.79739548  -0.00000000  1
  Mg  Mg18  1  0.79827614  0.79739533  -0.00000000  1
  Mg  Mg19  1  0.39951964  0.79903812  0.00000000  1
  Mg  Mg20  1  0.19993214  0.80006794  -0.00000000  1
  Mg  Mg21  1  0.60013484  0.80006792  0.00000000  1
  Mg  Mg22  1  0.59874097  0.99954268  -0.00000000  1
  Mg  Mg23  1  0.40080153  0.99954255  -0.00000000  1
  Mg  Mg24  1  0.66666687  0.33333294  0.16604311  1
  Mg  Mg25  1  0.66703106  0.13335113  0.16626405  1
  Mg  Mg26  1  0.46632015  0.13335114  0.16626402  1
  Mg  Mg27  1  0.46632015  0.33296900  0.16626402  1
  Mg  Mg28  1  0.86664892  0.33296902  0.16626406  1
  Mg  Mg29  1  0.86664892  0.53367990  0.16626406  1
  Mg  Mg30  1  0.66703106  0.53367993  0.16626405  1
  Mg  Mg31  1  0.26655162  0.53310312  0.16638776  1
  Mg  Mg32  1  0.26655162  0.73344850  0.16638776  1
  Mg  Mg33  1  0.46689679  0.73344840  0.16638795  1
  Mg  Mg34  1  0.06671094  0.33314868  0.16650592  1
  Mg  Mg35  1  0.26643875  0.33314970  0.16650593  1
  Mg  Mg36  1  0.66685032  0.73356119  0.16650574  1
  Mg  Mg37  1  0.06671094  0.73356126  0.16650592  1
  Mg  Mg38  1  0.66685032  0.93328913  0.16650574  1
  Mg  Mg39  1  0.26643875  0.93328906  0.16650593  1
  Mg  Mg40  1  0.26582511  0.13291206  0.16679929  1
  Mg  Mg41  1  0.86708799  0.13291300  0.16679911  1
  Mg  Mg42  1  0.86708799  0.73417499  0.16679911  1
  Mg  Mg43  1  0.46649988  0.53350008  0.16684748  1
  Mg  Mg44  1  0.06700112  0.53350106  0.16684747  1
  Mg  Mg45  1  0.46649988  0.93299880  0.16684748  1
  Mg  Mg46  1  0.06693902  0.13387816  0.16834813  1
  Mg  Mg47  1  0.86612206  0.93306103  0.16834811  1
  Mg  Mg48  1  0.06693902  0.93306086  0.16834813  1
  Mg  Mg49  1  0.00000004  0.00000002  0.33171687  1
  Mg  Mg50  1  0.39981752  0.19990876  0.33276283  1
  Mg  Mg51  1  0.80009132  0.19990887  0.33276303  1
  Mg  Mg52  1  0.80009132  0.60018246  0.33276303  1
  Mg  Mg53  1  0.60012898  0.20025780  0.33288920  1
  Mg  Mg54  1  0.60012898  0.39987018  0.33288920  1
  Mg  Mg55  1  0.79974167  0.39987134  0.33288906  1
  Mg  Mg56  1  0.19997336  0.39994666  0.33286914  1
  Mg  Mg57  1  0.19997336  0.80002670  0.33286914  1
  Mg  Mg58  1  0.60005327  0.80002663  0.33286925  1
  Mg  Mg59  1  0.39991417  0.60008579  0.33317098  1
  Mg  Mg60  1  0.20017254  0.60008677  0.33317093  1
  Mg  Mg61  1  0.39991417  0.79982838  0.33317098  1
  Mg  Mg62  1  0.40024994  0.99998002  0.33345298  1
  Mg  Mg63  1  0.59973127  0.99998115  0.33345301  1
  Mg  Mg64  1  0.00001989  0.40026880  0.33345300  1
  Mg  Mg65  1  0.40024994  0.40026892  0.33345298  1
  Mg  Mg66  1  0.59973127  0.59975012  0.33345301  1
  Mg  Mg67  1  0.00001989  0.59975108  0.33345300  1
  Mg  Mg68  1  0.20036225  0.99997122  0.33411928  1
  Mg  Mg69  1  0.79960983  0.99997113  0.33411926  1
  Mg  Mg70  1  0.00002868  0.20039008  0.33411938  1
  Mg  Mg71  1  0.20036225  0.20039003  0.33411928  1
  Mg  Mg72  1  0.79960983  0.79963770  0.33411926  1
  Mg  Mg73  1  0.00002868  0.79963860  0.33411938  1
  Mg  Mg74  1  0.06651294  0.13302507  0.50000000  1
  Mg  Mg75  1  0.86649051  0.13350858  0.50000000  1
  Mg  Mg76  1  0.26701716  0.13350858  0.50000000  1
  Mg  Mg77  1  0.66675816  0.13346435  0.50000000  1
  Mg  Mg78  1  0.46670617  0.13346436  0.50000000  1
  Mg  Mg79  1  0.86653572  0.33324184  0.50000000  1
  Mg  Mg80  1  0.46670617  0.33324181  0.50000000  1
  Mg  Mg81  1  0.66666695  0.33333298  0.50000000  1
  Mg  Mg82  1  0.06707858  0.33359301  0.50000000  1
  Mg  Mg83  1  0.26651442  0.33359309  0.50000000  1
  Mg  Mg84  1  0.86653572  0.53329388  0.50000000  1
  Mg  Mg85  1  0.66675816  0.53329381  0.50000000  1
  Mg  Mg86  1  0.46667607  0.53332379  0.50000000  1
  Mg  Mg87  1  0.06664766  0.53332383  0.50000000  1
  Mg  Mg88  1  0.26661581  0.53323088  0.50000000  1
  Mg  Mg89  1  0.86649051  0.73298192  0.50000000  1
  Mg  Mg90  1  0.26661581  0.73338393  0.50000000  1
  Mg  Mg91  1  0.46676817  0.73338409  0.50000000  1
  Mg  Mg92  1  0.66640679  0.73348465  0.50000000  1
  Mg  Mg93  1  0.06707858  0.73348557  0.50000000  1
  Mg  Mg94  1  0.26651442  0.93292133  0.50000000  1
  Mg  Mg95  1  0.66640679  0.93292114  0.50000000  1
  Mg  Mg96  1  0.46667607  0.93335228  0.50000000  1
  Mg  Mg97  1  0.06651294  0.93348687  0.50000000  1
  Mg  Mg98  1  0.86697524  0.93348812  0.50000000  1
  Mg  Mg99  1  0.20036225  0.99997122  0.66588072  1
  Mg  Mg100  1  0.79960983  0.99997113  0.66588074  1
  Mg  Mg101  1  0.00002868  0.20039008  0.66588062  1
  Mg  Mg102  1  0.20036225  0.20039003  0.66588072  1
  Mg  Mg103  1  0.79960983  0.79963770  0.66588074  1
  Mg  Mg104  1  0.00002868  0.79963860  0.66588062  1
  Mg  Mg105  1  0.40024994  0.99998002  0.66654702  1
  Mg  Mg106  1  0.59973127  0.99998115  0.66654699  1
  Mg  Mg107  1  0.00001989  0.40026880  0.66654700  1
  Mg  Mg108  1  0.40024994  0.40026892  0.66654702  1
  Mg  Mg109  1  0.59973127  0.59975012  0.66654699  1
  Mg  Mg110  1  0.00001989  0.59975108  0.66654700  1
  Mg  Mg111  1  0.39991417  0.60008579  0.66682902  1
  Mg  Mg112  1  0.20017254  0.60008677  0.66682907  1
  Mg  Mg113  1  0.39991417  0.79982838  0.66682902  1
  Mg  Mg114  1  0.19997336  0.39994666  0.66712986  1
  Mg  Mg115  1  0.19997336  0.80002670  0.66712986  1
  Mg  Mg116  1  0.60005327  0.80002663  0.66712975  1
  Mg  Mg117  1  0.60012898  0.20025780  0.66711180  1
  Mg  Mg118  1  0.60012898  0.39987018  0.66711180  1
  Mg  Mg119  1  0.79974167  0.39987134  0.66711194  1
  Mg  Mg120  1  0.39981752  0.19990876  0.66723717  1
  Mg  Mg121  1  0.80009132  0.19990887  0.66723697  1
  Mg  Mg122  1  0.80009132  0.60018246  0.66723697  1
  Mg  Mg123  1  0.00000004  0.00000002  0.66828313  1
  Mg  Mg124  1  0.06693902  0.13387816  0.83165187  1
  Mg  Mg125  1  0.86612206  0.93306103  0.83165189  1
  Mg  Mg126  1  0.06693902  0.93306086  0.83165187  1
  Mg  Mg127  1  0.46649988  0.53350008  0.83315252  1
  Mg  Mg128  1  0.06700112  0.53350106  0.83315253  1
  Mg  Mg129  1  0.46649988  0.93299880  0.83315252  1
  Mg  Mg130  1  0.26582511  0.13291206  0.83319971  1
  Mg  Mg131  1  0.86708799  0.13291300  0.83319989  1
  Mg  Mg132  1  0.86708799  0.73417499  0.83319989  1
  Mg  Mg133  1  0.06671094  0.33314868  0.83349408  1
  Mg  Mg134  1  0.26643875  0.33314970  0.83349407  1
  Mg  Mg135  1  0.66685032  0.73356119  0.83349426  1
  Mg  Mg136  1  0.06671094  0.73356126  0.83349408  1
  Mg  Mg137  1  0.66685032  0.93328913  0.83349426  1
  Mg  Mg138  1  0.26643875  0.93328906  0.83349407  1
  Mg  Mg139  1  0.26655162  0.53310312  0.83361224  1
  Mg  Mg140  1  0.26655162  0.73344850  0.83361224  1
  Mg  Mg141  1  0.46689679  0.73344840  0.83361205  1
  Mg  Mg142  1  0.66703106  0.13335113  0.83373595  1
  Mg  Mg143  1  0.46632015  0.13335114  0.83373598  1
  Mg  Mg144  1  0.46632015  0.33296900  0.83373598  1
  Mg  Mg145  1  0.86664892  0.33296902  0.83373594  1
  Mg  Mg146  1  0.86664892  0.53367990  0.83373594  1
  Mg  Mg147  1  0.66703106  0.53367993  0.83373595  1
  Mg  Mg148  1  0.66666687  0.33333294  0.83395689  1
  Cl  Cl149  1  -0.00000088  -0.00000044  0.00000000  1
