# generated using pymatgen
data_Ba2MnTeSe2
_symmetry_space_group_name_H-M   'P 1'
_cell_length_a   4.67105700
_cell_length_b   9.35654900
_cell_length_c   18.24983700
_cell_angle_alpha   90.00000000
_cell_angle_beta   90.00000000
_cell_angle_gamma   90.00000000
_symmetry_Int_Tables_number   1
_chemical_formula_structural   Ba2MnTeSe2
_chemical_formula_sum   'Ba8 Mn4 Te4 Se8'
_cell_volume   797.60864616
_cell_formula_units_Z   4
loop_
 _symmetry_equiv_pos_site_id
 _symmetry_equiv_pos_as_xyz
  1  'x, y, z'
loop_
 _atom_site_type_symbol
 _atom_site_label
 _atom_site_symmetry_multiplicity
 _atom_site_fract_x
 _atom_site_fract_y
 _atom_site_fract_z
 _atom_site_occupancy
  Ba  Ba0  1  0.25000000  0.27167400  0.54291700  1
  Ba  Ba1  1  0.25000000  0.77167400  0.95708300  1
  Ba  Ba2  1  0.75000000  0.72832600  0.45708300  1
  Ba  Ba3  1  0.75000000  0.22832600  0.04291700  1
  Ba  Ba4  1  0.25000000  0.41472500  0.28725200  1
  Ba  Ba5  1  0.25000000  0.91472500  0.21274800  1
  Ba  Ba6  1  0.75000000  0.58527500  0.71274800  1
  Ba  Ba7  1  0.75000000  0.08527500  0.78725200  1
  Mn  Mn8  1  0.25000000  0.36535600  0.86387700  1
  Mn  Mn9  1  0.25000000  0.86535600  0.63612300  1
  Mn  Mn10  1  0.75000000  0.63464400  0.13612300  1
  Mn  Mn11  1  0.75000000  0.13464400  0.36387700  1
  Te  Te12  1  0.25000000  0.99627000  0.40162600  1
  Te  Te13  1  0.25000000  0.49627000  0.09837400  1
  Te  Te14  1  0.75000000  0.00373000  0.59837400  1
  Te  Te15  1  0.75000000  0.50373000  0.90162600  1
  Se  Se16  1  0.25000000  0.12490600  0.92664300  1
  Se  Se17  1  0.25000000  0.62490600  0.57335700  1
  Se  Se18  1  0.75000000  0.87509400  0.07335700  1
  Se  Se19  1  0.75000000  0.37509400  0.42664300  1
  Se  Se20  1  0.25000000  0.32148000  0.72843400  1
  Se  Se21  1  0.25000000  0.82148000  0.77156600  1
  Se  Se22  1  0.75000000  0.67852000  0.27156600  1
  Se  Se23  1  0.75000000  0.17852000  0.22843400  1
