# generated using pymatgen
data_Rb2ZnGeO4
_symmetry_space_group_name_H-M   'P 1'
_cell_length_a   5.79598000
_cell_length_b   11.55537500
_cell_length_c   16.39272200
_cell_angle_alpha   90.00000000
_cell_angle_beta   90.00000000
_cell_angle_gamma   90.00000000
_symmetry_Int_Tables_number   1
_chemical_formula_structural   Rb2ZnGeO4
_chemical_formula_sum   'Rb16 Zn8 Ge8 O32'
_cell_volume   1097.89800521
_cell_formula_units_Z   8
loop_
 _symmetry_equiv_pos_site_id
 _symmetry_equiv_pos_as_xyz
  1  'x, y, z'
loop_
 _atom_site_type_symbol
 _atom_site_label
 _atom_site_symmetry_multiplicity
 _atom_site_fract_x
 _atom_site_fract_y
 _atom_site_fract_z
 _atom_site_occupancy
  Rb  Rb0  1  0.96682000  0.76821100  0.62935400  1
  Rb  Rb1  1  0.03318000  0.23178900  0.12935400  1
  Rb  Rb2  1  0.03318000  0.26821100  0.62935400  1
  Rb  Rb3  1  0.96682000  0.73178900  0.12935400  1
  Rb  Rb4  1  0.98648700  0.50506700  0.75525500  1
  Rb  Rb5  1  0.01351300  0.49493300  0.25525500  1
  Rb  Rb6  1  0.01351300  0.00506700  0.75525500  1
  Rb  Rb7  1  0.98648700  0.99493300  0.25525500  1
  Rb  Rb8  1  0.46366600  0.73516800  0.99995100  1
  Rb  Rb9  1  0.53633400  0.26483200  0.49995100  1
  Rb  Rb10  1  0.53633400  0.23516800  0.99995100  1
  Rb  Rb11  1  0.46366600  0.76483200  0.49995100  1
  Rb  Rb12  1  0.49222200  0.98999000  0.87587500  1
  Rb  Rb13  1  0.50777800  0.01001000  0.37587500  1
  Rb  Rb14  1  0.50777800  0.48999000  0.87587500  1
  Rb  Rb15  1  0.49222200  0.51001000  0.37587500  1
  Zn  Zn16  1  0.98185200  0.98397000  0.00433500  1
  Zn  Zn17  1  0.01814800  0.01603000  0.50433500  1
  Zn  Zn18  1  0.01814800  0.48397000  0.00433500  1
  Zn  Zn19  1  0.98185200  0.51603000  0.50433500  1
  Zn  Zn20  1  0.48769600  0.76073400  0.75127700  1
  Zn  Zn21  1  0.51230400  0.23926600  0.25127700  1
  Zn  Zn22  1  0.51230400  0.26073400  0.75127700  1
  Zn  Zn23  1  0.48769600  0.73926600  0.25127700  1
  Ge  Ge24  1  0.47926300  0.51326800  0.62595000  1
  Ge  Ge25  1  0.52073700  0.48673200  0.12595000  1
  Ge  Ge26  1  0.52073700  0.01326800  0.62595000  1
  Ge  Ge27  1  0.47926300  0.98673200  0.12595000  1
  Ge  Ge28  1  0.98933300  0.73303100  0.88009500  1
  Ge  Ge29  1  0.01066700  0.26696900  0.38009500  1
  Ge  Ge30  1  0.01066700  0.23303100  0.88009500  1
  Ge  Ge31  1  0.98933300  0.76696900  0.38009500  1
  O  O32  1  0.41921400  0.65808600  0.65836300  1
  O  O33  1  0.58078600  0.34191400  0.15836300  1
  O  O34  1  0.58078600  0.15808600  0.65836300  1
  O  O35  1  0.41921400  0.84191400  0.15836300  1
  O  O36  1  0.74038000  0.69918100  0.82068000  1
  O  O37  1  0.25962000  0.30081900  0.32068000  1
  O  O38  1  0.25962000  0.19918100  0.82068000  1
  O  O39  1  0.74038000  0.80081900  0.32068000  1
  O  O40  1  0.90098000  0.40040900  0.41814100  1
  O  O41  1  0.09902000  0.59959100  0.91814100  1
  O  O42  1  0.09902000  0.90040900  0.41814100  1
  O  O43  1  0.90098000  0.09959100  0.91814100  1
  O  O44  1  0.77719900  0.49176100  0.60080800  1
  O  O45  1  0.22280100  0.50823900  0.10080800  1
  O  O46  1  0.22280100  0.99176100  0.60080800  1
  O  O47  1  0.77719900  0.00823900  0.10080800  1
  O  O48  1  0.79091200  0.29777900  0.81872800  1
  O  O49  1  0.20908800  0.70222100  0.31872800  1
  O  O50  1  0.20908800  0.79777900  0.81872800  1
  O  O51  1  0.79091200  0.20222100  0.31872800  1
  O  O52  1  0.69212900  0.98800400  0.53703000  1
  O  O53  1  0.30787100  0.01199600  0.03703000  1
  O  O54  1  0.30787100  0.48800400  0.53703000  1
  O  O55  1  0.69212900  0.51199600  0.03703000  1
  O  O56  1  0.91471900  0.82490300  0.96356500  1
  O  O57  1  0.08528100  0.17509700  0.46356500  1
  O  O58  1  0.08528100  0.32490300  0.96356500  1
  O  O59  1  0.91471900  0.67509700  0.46356500  1
  O  O60  1  0.59346600  0.91372400  0.70589100  1
  O  O61  1  0.40653400  0.08627600  0.20589100  1
  O  O62  1  0.40653400  0.41372400  0.70589100  1
  O  O63  1  0.59346600  0.58627600  0.20589100  1
