# generated using pymatgen
data_Pr2Al2Ge
_symmetry_space_group_name_H-M   'P 1'
_cell_length_a   4.13551200
_cell_length_b   4.51202700
_cell_length_c   13.64008274
_cell_angle_alpha   90.00000000
_cell_angle_beta   98.71931801
_cell_angle_gamma   90.00000000
_symmetry_Int_Tables_number   1
_chemical_formula_structural   Pr2Al2Ge
_chemical_formula_sum   'Pr4 Al4 Ge2'
_cell_volume   251.57619010
_cell_formula_units_Z   2
loop_
 _symmetry_equiv_pos_site_id
 _symmetry_equiv_pos_as_xyz
  1  'x, y, z'
loop_
 _atom_site_type_symbol
 _atom_site_label
 _atom_site_symmetry_multiplicity
 _atom_site_fract_x
 _atom_site_fract_y
 _atom_site_fract_z
 _atom_site_occupancy
  Pr  Pr0  1  0.20430500  0.25000000  0.40861100  1
  Pr  Pr1  1  0.79569500  0.75000000  0.59138900  1
  Pr  Pr2  1  0.57417300  0.25000000  0.14834700  1
  Pr  Pr3  1  0.42582700  0.75000000  0.85165300  1
  Al  Al4  1  0.88124300  0.25000000  0.76248600  1
  Al  Al5  1  0.11875700  0.75000000  0.23751400  1
  Al  Al6  1  0.97636100  0.25000000  0.95272100  1
  Al  Al7  1  0.02363900  0.75000000  0.04727900  1
  Ge  Ge8  1  0.32496000  0.25000000  0.64991900  1
  Ge  Ge9  1  0.67504000  0.75000000  0.35008100  1
