# generated using pymatgen
data_NaSe
_symmetry_space_group_name_H-M   'P 1'
_cell_length_a   4.72572757
_cell_length_b   4.72572757
_cell_length_c   10.78844700
_cell_angle_alpha   90.00000000
_cell_angle_beta   90.00000000
_cell_angle_gamma   119.99999395
_symmetry_Int_Tables_number   1
_chemical_formula_structural   NaSe
_chemical_formula_sum   'Na4 Se4'
_cell_volume   208.65411470
_cell_formula_units_Z   4
loop_
 _symmetry_equiv_pos_site_id
 _symmetry_equiv_pos_as_xyz
  1  'x, y, z'
loop_
 _atom_site_type_symbol
 _atom_site_label
 _atom_site_symmetry_multiplicity
 _atom_site_fract_x
 _atom_site_fract_y
 _atom_site_fract_z
 _atom_site_occupancy
  Na  Na0  1  0.00000000  0.00000000  0.00000000  1
  Na  Na1  1  0.00000000  0.00000000  0.50000000  1
  Na  Na2  1  0.33333300  0.66666700  0.25000000  1
  Na  Na3  1  0.66666700  0.33333300  0.75000000  1
  Se  Se4  1  0.33333300  0.66666700  0.63527200  1
  Se  Se5  1  0.66666700  0.33333300  0.13527200  1
  Se  Se6  1  0.66666700  0.33333300  0.36472800  1
  Se  Se7  1  0.33333300  0.66666700  0.86472800  1
