# generated using pymatgen
data_CsNaSnF6
_symmetry_space_group_name_H-M   'P 1'
_cell_length_a   8.52461000
_cell_length_b   11.42353900
_cell_length_c   13.61486500
_cell_angle_alpha   90.00000000
_cell_angle_beta   90.00000000
_cell_angle_gamma   90.00000000
_symmetry_Int_Tables_number   1
_chemical_formula_structural   CsNaSnF6
_chemical_formula_sum   'Cs8 Na8 Sn8 F48'
_cell_volume   1325.83209297
_cell_formula_units_Z   8
loop_
 _symmetry_equiv_pos_site_id
 _symmetry_equiv_pos_as_xyz
  1  'x, y, z'
loop_
 _atom_site_type_symbol
 _atom_site_label
 _atom_site_symmetry_multiplicity
 _atom_site_fract_x
 _atom_site_fract_y
 _atom_site_fract_z
 _atom_site_occupancy
  Cs  Cs0  1  0.50000000  0.75000000  0.11555700  1
  Cs  Cs1  1  0.00000000  0.25000000  0.38444300  1
  Cs  Cs2  1  0.50000000  0.25000000  0.88444300  1
  Cs  Cs3  1  0.00000000  0.75000000  0.07325800  1
  Cs  Cs4  1  0.50000000  0.25000000  0.42674200  1
  Cs  Cs5  1  0.00000000  0.25000000  0.92674200  1
  Cs  Cs6  1  0.50000000  0.75000000  0.57325800  1
  Cs  Cs7  1  0.00000000  0.75000000  0.61555700  1
  Na  Na8  1  0.74743500  0.42660800  0.14311200  1
  Na  Na9  1  0.24743500  0.57339200  0.35688800  1
  Na  Na10  1  0.75256500  0.92660800  0.35688800  1
  Na  Na11  1  0.25256500  0.07339200  0.14311200  1
  Na  Na12  1  0.25256500  0.57339200  0.85688800  1
  Na  Na13  1  0.75256500  0.42660800  0.64311200  1
  Na  Na14  1  0.24743500  0.07339200  0.64311200  1
  Na  Na15  1  0.74743500  0.92660800  0.85688800  1
  Sn  Sn16  1  0.25032100  0.42391000  0.13713200  1
  Sn  Sn17  1  0.74967900  0.07609000  0.13713200  1
  Sn  Sn18  1  0.24967900  0.92391000  0.36286800  1
  Sn  Sn19  1  0.24967900  0.42391000  0.63713200  1
  Sn  Sn20  1  0.75032100  0.07609000  0.63713200  1
  Sn  Sn21  1  0.74967900  0.57609000  0.86286800  1
  Sn  Sn22  1  0.25032100  0.92391000  0.86286800  1
  Sn  Sn23  1  0.75032100  0.57609000  0.36286800  1
  F  F24  1  0.28052700  0.87832400  0.72137900  1
  F  F25  1  0.78052700  0.12167600  0.77862100  1
  F  F26  1  0.21947300  0.37832400  0.77862100  1
  F  F27  1  0.71947300  0.62167600  0.72137900  1
  F  F28  1  0.71947300  0.12167600  0.27862100  1
  F  F29  1  0.21947300  0.87832400  0.22137900  1
  F  F30  1  0.78052700  0.62167600  0.22137900  1
  F  F31  1  0.28052700  0.37832400  0.27862100  1
  F  F32  1  0.20653300  0.97768900  0.00030500  1
  F  F33  1  0.70653300  0.02231100  0.49969500  1
  F  F34  1  0.29346700  0.47768900  0.49969500  1
  F  F35  1  0.79346700  0.52231100  0.00030500  1
  F  F36  1  0.79346700  0.02231100  0.99969500  1
  F  F37  1  0.29346700  0.97768900  0.50030500  1
  F  F38  1  0.70653300  0.52231100  0.50030500  1
  F  F39  1  0.20653300  0.47768900  0.99969500  1
  F  F40  1  0.02099800  0.89086000  0.84669400  1
  F  F41  1  0.47873600  0.95790000  0.87916700  1
  F  F42  1  0.52099800  0.10914000  0.65330600  1
  F  F43  1  0.97900200  0.60914000  0.84669400  1
  F  F44  1  0.97900200  0.10914000  0.15330600  1
  F  F45  1  0.47900200  0.89086000  0.34669400  1
  F  F46  1  0.52099800  0.60914000  0.34669400  1
  F  F47  1  0.02099800  0.39086000  0.15330600  1
  F  F48  1  0.21771900  0.76105900  0.41568100  1
  F  F49  1  0.71771900  0.23894100  0.08431900  1
  F  F50  1  0.28228100  0.26105900  0.08431900  1
  F  F51  1  0.78228100  0.73894100  0.41568100  1
  F  F52  1  0.78228100  0.23894100  0.58431900  1
  F  F53  1  0.28228100  0.76105900  0.91568100  1
  F  F54  1  0.71771900  0.73894100  0.91568100  1
  F  F55  1  0.21771900  0.26105900  0.58431900  1
  F  F56  1  0.22280700  0.59003800  0.18562300  1
  F  F57  1  0.72280700  0.40996200  0.31437700  1
  F  F58  1  0.27719300  0.09003800  0.31437700  1
  F  F59  1  0.77719300  0.90996200  0.18562300  1
  F  F60  1  0.77719300  0.40996200  0.81437700  1
  F  F61  1  0.27719300  0.59003800  0.68562300  1
  F  F62  1  0.72280700  0.90996200  0.68562300  1
  F  F63  1  0.22280700  0.09003800  0.81437700  1
  F  F64  1  0.47873600  0.45790000  0.12083300  1
  F  F65  1  0.97873600  0.54210000  0.37916700  1
  F  F66  1  0.02126400  0.95790000  0.37916700  1
  F  F67  1  0.52126400  0.04210000  0.12083300  1
  F  F68  1  0.52126400  0.54210000  0.87916700  1
  F  F69  1  0.02126400  0.45790000  0.62083300  1
  F  F70  1  0.97873600  0.04210000  0.62083300  1
  F  F71  1  0.47900200  0.39086000  0.65330600  1
