# generated using pymatgen
data_Mn6Te5O16
_symmetry_space_group_name_H-M   'P 1'
_cell_length_a   10.71596206
_cell_length_b   11.55576465
_cell_length_c   13.43799685
_cell_angle_alpha   90.00000000
_cell_angle_beta   90.00000000
_cell_angle_gamma   90.00000000
_symmetry_Int_Tables_number   1
_chemical_formula_structural   Mn6Te5O16
_chemical_formula_sum   'Mn24 Te20 O64'
_cell_volume   1664.04240964
_cell_formula_units_Z   4
loop_
 _symmetry_equiv_pos_site_id
 _symmetry_equiv_pos_as_xyz
  1  'x, y, z'
loop_
 _atom_site_type_symbol
 _atom_site_label
 _atom_site_symmetry_multiplicity
 _atom_site_fract_x
 _atom_site_fract_y
 _atom_site_fract_z
 _atom_site_occupancy
  Mn  Mn0  1  0.92953869  0.74996437  0.99185966  1
  Mn  Mn1  1  0.07046131  0.25003563  0.00814034  1
  Mn  Mn2  1  0.07046131  0.75003563  0.49185966  1
  Mn  Mn3  1  0.42953869  0.25003563  0.00814034  1
  Mn  Mn4  1  0.92953869  0.24996437  0.50814034  1
  Mn  Mn5  1  0.57046131  0.74996437  0.99185966  1
  Mn  Mn6  1  0.57046131  0.24996437  0.50814034  1
  Mn  Mn7  1  0.42953869  0.75003563  0.49185966  1
  Mn  Mn8  1  0.90967173  0.74991824  0.72916784  1
  Mn  Mn9  1  0.09032827  0.25008176  0.27083216  1
  Mn  Mn10  1  0.09032827  0.75008176  0.22916784  1
  Mn  Mn11  1  0.40967173  0.25008176  0.27083216  1
  Mn  Mn12  1  0.90967173  0.24991824  0.77083216  1
  Mn  Mn13  1  0.59032827  0.74991824  0.72916784  1
  Mn  Mn14  1  0.59032827  0.24991824  0.77083216  1
  Mn  Mn15  1  0.40967173  0.75008176  0.22916784  1
  Mn  Mn16  1  0.42540176  0.98416699  0.89315848  1
  Mn  Mn17  1  0.57459824  0.01583301  0.10684152  1
  Mn  Mn18  1  0.57459824  0.51583301  0.39315848  1
  Mn  Mn19  1  0.92540176  0.01583301  0.10684152  1
  Mn  Mn20  1  0.42540176  0.48416699  0.60684152  1
  Mn  Mn21  1  0.07459824  0.98416699  0.89315848  1
  Mn  Mn22  1  0.07459824  0.48416699  0.60684152  1
  Mn  Mn23  1  0.92540176  0.51583301  0.39315848  1
  Te  Te24  1  0.75000000  0.80211530  0.18306355  1
  Te  Te25  1  0.25000000  0.19788470  0.81693645  1
  Te  Te26  1  0.25000000  0.69788470  0.68306355  1
  Te  Te27  1  0.75000000  0.30211530  0.31693645  1
  Te  Te28  1  0.75000000  0.96399361  0.86367964  1
  Te  Te29  1  0.25000000  0.03600639  0.13632036  1
  Te  Te30  1  0.25000000  0.53600639  0.36367964  1
  Te  Te31  1  0.75000000  0.46399361  0.63632036  1
  Te  Te32  1  0.75000000  0.77933885  0.49408342  1
  Te  Te33  1  0.25000000  0.22066115  0.50591658  1
  Te  Te34  1  0.25000000  0.72066115  0.99408342  1
  Te  Te35  1  0.75000000  0.27933885  0.00591658  1
  Te  Te36  1  0.96477028  0.99275899  0.36381019  1
  Te  Te37  1  0.03522972  0.00724101  0.63618981  1
  Te  Te38  1  0.03522972  0.50724101  0.86381019  1
  Te  Te39  1  0.46477028  0.00724101  0.63618981  1
  Te  Te40  1  0.96477028  0.49275899  0.13618981  1
  Te  Te41  1  0.53522972  0.99275899  0.36381019  1
  Te  Te42  1  0.53522972  0.49275899  0.13618981  1
  Te  Te43  1  0.46477028  0.50724101  0.86381019  1
  O  O44  1  0.92169334  0.63285726  0.85683280  1
  O  O45  1  0.07830666  0.36714274  0.14316720  1
  O  O46  1  0.07830666  0.86714274  0.35683280  1
  O  O47  1  0.42169334  0.36714274  0.14316720  1
  O  O48  1  0.92169334  0.13285726  0.64316720  1
  O  O49  1  0.57830666  0.63285726  0.85683280  1
  O  O50  1  0.57830666  0.13285726  0.64316720  1
  O  O51  1  0.42169334  0.86714274  0.35683280  1
  O  O52  1  0.43905703  0.67451503  0.65062685  1
  O  O53  1  0.56094297  0.32548497  0.34937315  1
  O  O54  1  0.56094297  0.82548497  0.15062685  1
  O  O55  1  0.93905703  0.32548497  0.34937315  1
  O  O56  1  0.43905703  0.17451503  0.84937315  1
  O  O57  1  0.06094297  0.67451503  0.65062685  1
  O  O58  1  0.06094297  0.17451503  0.84937315  1
  O  O59  1  0.93905703  0.82548497  0.15062685  1
  O  O60  1  0.75000000  0.21797108  0.44155630  1
  O  O61  1  0.25000000  0.78202892  0.55844370  1
  O  O62  1  0.25000000  0.28202892  0.94155630  1
  O  O63  1  0.75000000  0.71797108  0.05844370  1
  O  O64  1  0.75000000  0.72226649  0.62807771  1
  O  O65  1  0.25000000  0.27773351  0.37192229  1
  O  O66  1  0.25000000  0.77773351  0.12807771  1
  O  O67  1  0.75000000  0.22226649  0.87192229  1
  O  O68  1  0.88504830  0.94054854  0.95607912  1
  O  O69  1  0.11495170  0.05945146  0.04392088  1
  O  O70  1  0.11495170  0.55945146  0.45607912  1
  O  O71  1  0.38504830  0.05945146  0.04392088  1
  O  O72  1  0.88504830  0.44054854  0.54392088  1
  O  O73  1  0.61495170  0.94054854  0.95607912  1
  O  O74  1  0.61495170  0.44054854  0.54392088  1
  O  O75  1  0.38504830  0.55945146  0.45607912  1
  O  O76  1  0.75000000  0.80940492  0.81917119  1
  O  O77  1  0.25000000  0.19059508  0.18082881  1
  O  O78  1  0.25000000  0.69059508  0.31917119  1
  O  O79  1  0.75000000  0.30940492  0.68082881  1
  O  O80  1  0.95596434  0.89916533  0.55009022  1
  O  O81  1  0.04403566  0.10083467  0.44990978  1
  O  O82  1  0.04403566  0.60083467  0.05009022  1
  O  O83  1  0.45596434  0.10083467  0.44990978  1
  O  O84  1  0.95596434  0.39916533  0.94990978  1
  O  O85  1  0.54403566  0.89916533  0.55009022  1
  O  O86  1  0.54403566  0.39916533  0.94990978  1
  O  O87  1  0.45596434  0.60083467  0.05009022  1
  O  O88  1  0.98400693  0.92565477  0.75427629  1
  O  O89  1  0.01599307  0.07434523  0.24572371  1
  O  O90  1  0.01599307  0.57434523  0.25427629  1
  O  O91  1  0.48400693  0.07434523  0.24572371  1
  O  O92  1  0.98400693  0.42565477  0.74572371  1
  O  O93  1  0.51599307  0.92565477  0.75427629  1
  O  O94  1  0.51599307  0.42565477  0.74572371  1
  O  O95  1  0.48400693  0.57434523  0.25427629  1
  O  O96  1  0.38541238  0.81107941  0.94507982  1
  O  O97  1  0.61458762  0.18892059  0.05492018  1
  O  O98  1  0.61458762  0.68892059  0.44507982  1
  O  O99  1  0.88541238  0.18892059  0.05492018  1
  O  O100  1  0.38541238  0.31107941  0.55492018  1
  O  O101  1  0.11458762  0.81107941  0.94507982  1
  O  O102  1  0.11458762  0.31107941  0.55492018  1
  O  O103  1  0.88541238  0.68892059  0.44507982  1
  O  O104  1  0.75000000  0.96875556  0.16918125  1
  O  O105  1  0.25000000  0.03124444  0.83081875  1
  O  O106  1  0.25000000  0.53124444  0.66918125  1
  O  O107  1  0.75000000  0.46875556  0.33081875  1
