# generated using pymatgen
data_Na11TiNb2Si4P2O25F
_symmetry_space_group_name_H-M   'P 1'
_cell_length_a   5.57753100
_cell_length_b   7.24737747
_cell_length_c   14.66834757
_cell_angle_alpha   92.62877920
_cell_angle_beta   95.19067620
_cell_angle_gamma   90.66454650
_symmetry_Int_Tables_number   1
_chemical_formula_structural   Na11TiNb2Si4P2O25F
_chemical_formula_sum   'Na11 Ti1 Nb2 Si4 P2 O25 F1'
_cell_volume   589.80403445
_cell_formula_units_Z   1
loop_
 _symmetry_equiv_pos_site_id
 _symmetry_equiv_pos_as_xyz
  1  'x, y, z'
loop_
 _atom_site_type_symbol
 _atom_site_label
 _atom_site_symmetry_multiplicity
 _atom_site_fract_x
 _atom_site_fract_y
 _atom_site_fract_z
 _atom_site_occupancy
  Na  Na0  1  0.49242800  0.73809000  0.50167500  1
  Na  Na1  1  0.50004800  0.26077400  0.49624400  1
  Na  Na2  1  0.75734200  0.76351200  0.92103900  1
  Na  Na3  1  0.24269500  0.23646600  0.07891200  1
  Na  Na4  1  0.81568900  0.51846600  0.10068300  1
  Na  Na5  1  0.18438900  0.48147800  0.89919200  1
  Na  Na6  1  0.29074000  0.51061400  0.26568600  1
  Na  Na7  1  0.70889200  0.48935600  0.73471700  1
  Na  Na8  1  0.80353400  0.99279700  0.13277000  1
  Na  Na9  1  0.19661900  0.00722400  0.86713800  1
  Na  Na10  1  0.00036900  0.00015100  0.49988000  1
  Ti  Ti11  1  0.97383400  0.50009700  0.50750500  1
  Nb  Nb12  1  0.29994000  0.99165300  0.28360700  1
  Nb  Nb13  1  0.70057200  0.00838600  0.71599300  1
  Si  Si14  1  0.80132800  0.70446800  0.31588600  1
  Si  Si15  1  0.20017400  0.29542900  0.68371700  1
  Si  Si16  1  0.18387400  0.71904700  0.69624000  1
  Si  Si17  1  0.81757700  0.28121700  0.30377600  1
  P  P18  1  0.31276000  0.75534100  0.06639500  1
  P  P19  1  0.68744100  0.24456000  0.93357600  1
  O  O20  1  0.58720400  0.75587900  0.05605800  1
  O  O21  1  0.41293500  0.24404700  0.94387400  1
  O  O22  1  0.84134500  0.69829200  0.42614400  1
  O  O23  1  0.16448800  0.30204000  0.57321000  1
  O  O24  1  0.17026600  0.77346500  0.97102600  1
  O  O25  1  0.82974600  0.22651500  0.02891400  1
  O  O26  1  0.25701800  0.93074800  0.12960500  1
  O  O27  1  0.74354800  0.06929100  0.87031600  1
  O  O28  1  0.53951100  0.78794000  0.28209400  1
  O  O29  1  0.46113300  0.21165500  0.71823600  1
  O  O30  1  0.94978100  0.80259800  0.74523800  1
  O  O31  1  0.05095200  0.19741300  0.25436900  1
  O  O32  1  0.23423300  0.57361800  0.10915800  1
  O  O33  1  0.76590100  0.42644100  0.89083900  1
  O  O34  1  0.79668000  0.49401600  0.26478200  1
  O  O35  1  0.20431800  0.50594600  0.73501000  1
  O  O36  1  0.68431500  0.98348400  0.59291800  1
  O  O37  1  0.31557400  0.01610800  0.40674900  1
  O  O38  1  0.43309000  0.82513100  0.74138600  1
  O  O39  1  0.56782700  0.17508700  0.25881000  1
  O  O40  1  0.01566700  0.81425400  0.27185100  1
  O  O41  1  0.98462400  0.18618700  0.72741900  1
  O  O42  1  0.16144600  0.70877500  0.58501000  1
  O  O43  1  0.84217200  0.29178600  0.41484500  1
  O  O44  1  0.73854900  0.49753600  0.57587600  1
  F  F45  1  0.27743400  0.50262600  0.42163000  1
