# generated using pymatgen
data_Ca2IrRhO6
_symmetry_space_group_name_H-M   'P 1'
_cell_length_a   3.18935800
_cell_length_b   5.17557006
_cell_length_c   7.37624139
_cell_angle_alpha   90.28064082
_cell_angle_beta   90.00000000
_cell_angle_gamma   72.05423591
_symmetry_Int_Tables_number   1
_chemical_formula_structural   Ca2IrRhO6
_chemical_formula_sum   'Ca2 Ir1 Rh1 O6'
_cell_volume   115.83252199
_cell_formula_units_Z   1
loop_
 _symmetry_equiv_pos_site_id
 _symmetry_equiv_pos_as_xyz
  1  'x, y, z'
loop_
 _atom_site_type_symbol
 _atom_site_label
 _atom_site_symmetry_multiplicity
 _atom_site_fract_x
 _atom_site_fract_y
 _atom_site_fract_z
 _atom_site_occupancy
  Ca  Ca0  1  0.74896300  0.50207400  0.24167900  1
  Ca  Ca1  1  0.25103700  0.49792600  0.75832100  1
  Ir  Ir2  1  0.00000000  0.00000000  0.50000000  1
  Rh  Rh3  1  0.00000000  0.00000000  0.00000000  1
  O  O4  1  0.07504700  0.84990600  0.25302600  1
  O  O5  1  0.92495300  0.15009400  0.74697400  1
  O  O6  1  0.37027800  0.25944500  0.04994600  1
  O  O7  1  0.62972200  0.74055500  0.95005400  1
  O  O8  1  0.37569500  0.24861000  0.45100800  1
  O  O9  1  0.62430500  0.75139000  0.54899200  1
