# generated using pymatgen
data_LiSbO2
_symmetry_space_group_name_H-M   'P 1'
_cell_length_a   4.94774858
_cell_length_b   5.68528996
_cell_length_c   18.21342100
_cell_angle_alpha   90.00000000
_cell_angle_beta   90.00000000
_cell_angle_gamma   89.84697150
_symmetry_Int_Tables_number   1
_chemical_formula_structural   LiSbO2
_chemical_formula_sum   'Li8 Sb8 O16'
_cell_volume   512.33050982
_cell_formula_units_Z   8
loop_
 _symmetry_equiv_pos_site_id
 _symmetry_equiv_pos_as_xyz
  1  'x, y, z'
loop_
 _atom_site_type_symbol
 _atom_site_label
 _atom_site_symmetry_multiplicity
 _atom_site_fract_x
 _atom_site_fract_y
 _atom_site_fract_z
 _atom_site_occupancy
  Li  Li0  1  0.73564400  0.45392700  0.71451700  1
  Li  Li1  1  0.26435600  0.04607300  0.21451700  1
  Li  Li2  1  0.26435600  0.54607300  0.28548300  1
  Li  Li3  1  0.73564400  0.95392700  0.78548300  1
  Li  Li4  1  0.23570200  0.12505400  0.71192400  1
  Li  Li5  1  0.76429800  0.37494600  0.21192400  1
  Li  Li6  1  0.76429800  0.87494600  0.28807600  1
  Li  Li7  1  0.23570200  0.62505400  0.78807600  1
  Sb  Sb8  1  0.73794200  0.92157300  0.10032500  1
  Sb  Sb9  1  0.26205800  0.57842700  0.60032500  1
  Sb  Sb10  1  0.26205800  0.07842700  0.89967500  1
  Sb  Sb11  1  0.73794200  0.42157300  0.39967500  1
  Sb  Sb12  1  0.76044400  0.50470900  0.90070300  1
  Sb  Sb13  1  0.23955600  0.99529100  0.40070300  1
  Sb  Sb14  1  0.23955600  0.49529100  0.09929700  1
  Sb  Sb15  1  0.76044400  0.00470900  0.59929700  1
  O  O16  1  0.66619500  0.03759700  0.19720700  1
  O  O17  1  0.33380500  0.46240300  0.69720700  1
  O  O18  1  0.33380500  0.96240300  0.80279300  1
  O  O19  1  0.66619500  0.53759700  0.30279300  1
  O  O20  1  0.83569000  0.62216800  0.80426400  1
  O  O21  1  0.16431000  0.87783200  0.30426400  1
  O  O22  1  0.16431000  0.37783200  0.19573600  1
  O  O23  1  0.83569000  0.12216800  0.69573600  1
  O  O24  1  0.63358200  0.57941800  0.11782100  1
  O  O25  1  0.36641800  0.92058200  0.61782100  1
  O  O26  1  0.36641800  0.42058200  0.88217900  1
  O  O27  1  0.63358200  0.07941800  0.38217900  1
  O  O28  1  0.86692900  0.16440300  0.88249800  1
  O  O29  1  0.13307100  0.33559700  0.38249800  1
  O  O30  1  0.13307100  0.83559700  0.11750200  1
  O  O31  1  0.86692900  0.66440300  0.61750200  1
