# generated using pymatgen
data_Na2CaMg5Si8(O11F)2
_symmetry_space_group_name_H-M   'P 1'
_cell_length_a   5.32982900
_cell_length_b   9.97529675
_cell_length_c   10.38607962
_cell_angle_alpha   61.33675789
_cell_angle_beta   83.42323151
_cell_angle_gamma   76.22973041
_symmetry_Int_Tables_number   1
_chemical_formula_structural   Na2CaMg5Si8(O11F)2
_chemical_formula_sum   'Na2 Ca1 Mg5 Si8 O22 F2'
_cell_volume   470.59756396
_cell_formula_units_Z   1
loop_
 _symmetry_equiv_pos_site_id
 _symmetry_equiv_pos_as_xyz
  1  'x, y, z'
loop_
 _atom_site_type_symbol
 _atom_site_label
 _atom_site_symmetry_multiplicity
 _atom_site_fract_x
 _atom_site_fract_y
 _atom_site_fract_z
 _atom_site_occupancy
  Na  Na0  1  0.08381200  0.45596100  0.02351700  1
  Na  Na1  1  0.49996900  0.27574500  0.44986600  1
  Ca  Ca2  1  0.50015000  0.72421100  0.55257400  1
  Mg  Mg3  1  0.50066400  0.91103200  0.17629300  1
  Mg  Mg4  1  0.50046400  0.09015500  0.81855800  1
  Mg  Mg5  1  0.99989000  0.82170400  0.35585800  1
  Mg  Mg6  1  0.99960600  0.18236400  0.63545300  1
  Mg  Mg7  1  0.00003700  0.99988600  0.99894800  1
  Si  Si8  1  0.70706300  0.19404900  0.16866100  1
  Si  Si9  1  0.29364800  0.63719800  0.16879100  1
  Si  Si10  1  0.29233700  0.80572700  0.83229700  1
  Si  Si11  1  0.70821500  0.36181400  0.83210400  1
  Si  Si12  1  0.20191300  0.11549800  0.34232300  1
  Si  Si13  1  0.79839900  0.54189600  0.34116400  1
  Si  Si14  1  0.80038700  0.88450800  0.65990100  1
  Si  Si15  1  0.19991500  0.45538800  0.65912900  1
  O  O16  1  0.92153400  0.21876500  0.25249100  1
  O  O17  1  0.08066200  0.52775300  0.25335800  1
  O  O18  1  0.08709200  0.78090700  0.74225000  1
  O  O19  1  0.91445300  0.47611000  0.74323900  1
  O  O20  1  0.70493000  0.34041900  0.00015000  1
  O  O21  1  0.29471100  0.65898700  0.00012200  1
  O  O22  1  0.27713300  0.94752800  0.33956900  1
  O  O23  1  0.72387500  0.71255400  0.33961700  1
  O  O24  1  0.72910500  0.04781500  0.66601900  1
  O  O25  1  0.27183500  0.28577400  0.66621700  1
  O  O26  1  0.41435100  0.22564800  0.23227600  1
  O  O27  1  0.58199400  0.54108200  0.23558600  1
  O  O28  1  0.57878300  0.77598600  0.76021800  1
  O  O29  1  0.41859900  0.46276700  0.76299900  1
  O  O30  1  0.20306600  0.11206200  0.49643600  1
  O  O31  1  0.79844300  0.39187600  0.49655800  1
  O  O32  1  0.79698000  0.88023800  0.50692700  1
  O  O33  1  0.20405700  0.61297100  0.50733200  1
  O  O34  1  0.78350300  0.02597200  0.17027100  1
  O  O35  1  0.21605800  0.80432600  0.16968800  1
  O  O36  1  0.21757700  0.97232000  0.83218500  1
  O  O37  1  0.78260200  0.19566500  0.83173300  1
  F  F38  1  0.28872000  0.10196200  0.00079100  1
  F  F39  1  0.70946800  0.89937500  0.00053200  1
