# generated using pymatgen
data_RbSm2Ag3Se5
_symmetry_space_group_name_H-M   'P 1'
_cell_length_a   8.04675463
_cell_length_b   8.04675463
_cell_length_c   17.67729600
_cell_angle_alpha   90.00000000
_cell_angle_beta   90.00000000
_cell_angle_gamma   148.39005936
_symmetry_Int_Tables_number   1
_chemical_formula_structural   RbSm2Ag3Se5
_chemical_formula_sum   'Rb2 Sm4 Ag6 Se10'
_cell_volume   599.92838484
_cell_formula_units_Z   2
loop_
 _symmetry_equiv_pos_site_id
 _symmetry_equiv_pos_as_xyz
  1  'x, y, z'
loop_
 _atom_site_type_symbol
 _atom_site_label
 _atom_site_symmetry_multiplicity
 _atom_site_fract_x
 _atom_site_fract_y
 _atom_site_fract_z
 _atom_site_occupancy
  Rb  Rb0  1  0.43602000  0.56398000  0.25000000  1
  Rb  Rb1  1  0.56398000  0.43602000  0.75000000  1
  Sm  Sm2  1  0.30924600  0.69075400  0.90489500  1
  Sm  Sm3  1  0.30924600  0.69075400  0.59510500  1
  Sm  Sm4  1  0.69075400  0.30924600  0.40489500  1
  Sm  Sm5  1  0.69075400  0.30924600  0.09510500  1
  Ag  Ag6  1  0.08581200  0.91418800  0.96334900  1
  Ag  Ag7  1  0.08581200  0.91418800  0.53665100  1
  Ag  Ag8  1  0.91418800  0.08581200  0.46334900  1
  Ag  Ag9  1  0.16117000  0.83883000  0.25000000  1
  Ag  Ag10  1  0.83883000  0.16117000  0.75000000  1
  Ag  Ag11  1  0.91418800  0.08581200  0.03665100  1
  Se  Se12  1  0.67876900  0.32123100  0.57115000  1
  Se  Se13  1  0.93528400  0.06471600  0.88053300  1
  Se  Se14  1  0.32123100  0.67876900  0.42885000  1
  Se  Se15  1  0.32123100  0.67876900  0.07115000  1
  Se  Se16  1  0.67876900  0.32123100  0.92885000  1
  Se  Se17  1  0.75722900  0.24277100  0.25000000  1
  Se  Se18  1  0.24277100  0.75722900  0.75000000  1
  Se  Se19  1  0.93528400  0.06471600  0.61946700  1
  Se  Se20  1  0.06471600  0.93528400  0.38053300  1
  Se  Se21  1  0.06471600  0.93528400  0.11946700  1
