# generated using pymatgen
data_KSbO2
_symmetry_space_group_name_H-M   'P 1'
_cell_length_a   5.89129370
_cell_length_b   5.89129370
_cell_length_c   5.67969395
_cell_angle_alpha   67.14782724
_cell_angle_beta   67.14782724
_cell_angle_gamma   94.86792240
_symmetry_Int_Tables_number   1
_chemical_formula_structural   KSbO2
_chemical_formula_sum   'K2 Sb2 O4'
_cell_volume   160.82031482
_cell_formula_units_Z   2
loop_
 _symmetry_equiv_pos_site_id
 _symmetry_equiv_pos_as_xyz
  1  'x, y, z'
loop_
 _atom_site_type_symbol
 _atom_site_label
 _atom_site_symmetry_multiplicity
 _atom_site_fract_x
 _atom_site_fract_y
 _atom_site_fract_z
 _atom_site_occupancy
  K  K0  1  0.63663700  0.36336300  0.25000000  1
  K  K1  1  0.36336300  0.63663700  0.75000000  1
  Sb  Sb2  1  0.90695900  0.09304100  0.75000000  1
  Sb  Sb3  1  0.09304100  0.90695900  0.25000000  1
  O  O4  1  0.76607200  0.86863300  0.22028900  1
  O  O5  1  0.13136700  0.23392800  0.27971100  1
  O  O6  1  0.86863300  0.76607200  0.72028900  1
  O  O7  1  0.23392800  0.13136700  0.77971100  1
