# generated using pymatgen
data_CeTa7O19
_symmetry_space_group_name_H-M   'P 1'
_cell_length_a   6.29426888
_cell_length_b   6.29426888
_cell_length_c   20.18392000
_cell_angle_alpha   90.00000000
_cell_angle_beta   90.00000000
_cell_angle_gamma   120.00000923
_symmetry_Int_Tables_number   1
_chemical_formula_structural   CeTa7O19
_chemical_formula_sum   'Ce2 Ta14 O38'
_cell_volume   692.51102152
_cell_formula_units_Z   2
loop_
 _symmetry_equiv_pos_site_id
 _symmetry_equiv_pos_as_xyz
  1  'x, y, z'
loop_
 _atom_site_type_symbol
 _atom_site_label
 _atom_site_symmetry_multiplicity
 _atom_site_fract_x
 _atom_site_fract_y
 _atom_site_fract_z
 _atom_site_occupancy
  Ce  Ce0  1  0.00000000  0.00000000  0.00000000  1
  Ce  Ce1  1  0.00000000  0.00000000  0.50000000  1
  Ta  Ta2  1  0.69116900  0.02586300  0.15598700  1
  Ta  Ta3  1  0.97413700  0.66530600  0.15598700  1
  Ta  Ta4  1  0.69116900  0.02586300  0.34401300  1
  Ta  Ta5  1  0.69116900  0.66530600  0.65598700  1
  Ta  Ta6  1  0.33469400  0.30883100  0.15598700  1
  Ta  Ta7  1  0.97413700  0.66530600  0.34401300  1
  Ta  Ta8  1  0.97413700  0.30883100  0.65598700  1
  Ta  Ta9  1  0.69116900  0.66530600  0.84401300  1
  Ta  Ta10  1  0.33469400  0.30883100  0.34401300  1
  Ta  Ta11  1  0.97413700  0.30883100  0.84401300  1
  Ta  Ta12  1  0.33469400  0.02586300  0.65598700  1
  Ta  Ta13  1  0.33469400  0.02586300  0.84401300  1
  Ta  Ta14  1  0.66666700  0.33333300  0.00000000  1
  Ta  Ta15  1  0.66666700  0.33333300  0.50000000  1
  O  O16  1  0.74718400  0.04278200  0.25000000  1
  O  O17  1  0.95721800  0.70440300  0.25000000  1
  O  O18  1  0.74718400  0.70440300  0.75000000  1
  O  O19  1  0.29559700  0.25281600  0.25000000  1
  O  O20  1  0.95721800  0.25281600  0.75000000  1
  O  O21  1  0.29559700  0.04278200  0.75000000  1
  O  O22  1  0.08819200  0.42119800  0.15333600  1
  O  O23  1  0.57880200  0.66699400  0.15333600  1
  O  O24  1  0.08819200  0.42119800  0.34666400  1
  O  O25  1  0.08819200  0.66699400  0.65333600  1
  O  O26  1  0.33300600  0.91180800  0.15333600  1
  O  O27  1  0.57880200  0.66699400  0.34666400  1
  O  O28  1  0.57880200  0.91180800  0.65333600  1
  O  O29  1  0.08819200  0.66699400  0.84666400  1
  O  O30  1  0.33300600  0.91180800  0.34666400  1
  O  O31  1  0.57880200  0.91180800  0.84666400  1
  O  O32  1  0.33300600  0.42119800  0.65333600  1
  O  O33  1  0.33300600  0.42119800  0.84666400  1
  O  O34  1  0.66666700  0.33333300  0.16547400  1
  O  O35  1  0.66666700  0.33333300  0.33452600  1
  O  O36  1  0.66666700  0.33333300  0.66547400  1
  O  O37  1  0.66666700  0.33333300  0.83452600  1
  O  O38  1  0.00000000  0.00000000  0.13254100  1
  O  O39  1  0.00000000  0.00000000  0.36745900  1
  O  O40  1  0.00000000  0.00000000  0.63254100  1
  O  O41  1  0.00000000  0.00000000  0.86745900  1
  O  O42  1  0.71084400  0.09495200  0.05635800  1
  O  O43  1  0.90504800  0.61589100  0.05635800  1
  O  O44  1  0.71084400  0.09495200  0.44364200  1
  O  O45  1  0.71084400  0.61589100  0.55635800  1
  O  O46  1  0.38410900  0.28915600  0.05635800  1
  O  O47  1  0.90504800  0.61589100  0.44364200  1
  O  O48  1  0.90504800  0.28915600  0.55635800  1
  O  O49  1  0.71084400  0.61589100  0.94364200  1
  O  O50  1  0.38410900  0.28915600  0.44364200  1
  O  O51  1  0.90504800  0.28915600  0.94364200  1
  O  O52  1  0.38410900  0.09495200  0.55635800  1
  O  O53  1  0.38410900  0.09495200  0.94364200  1
