# generated using pymatgen
data_Ba2Sb3
_symmetry_space_group_name_H-M   'P 1'
_cell_length_a   13.69382800
_cell_length_b   7.03669900
_cell_length_c   16.02292091
_cell_angle_alpha   89.84863352
_cell_angle_beta   90.00000000
_cell_angle_gamma   90.00000000
_symmetry_Int_Tables_number   1
_chemical_formula_structural   Ba2Sb3
_chemical_formula_sum   'Ba16 Sb24'
_cell_volume   1543.95278914
_cell_formula_units_Z   8
loop_
 _symmetry_equiv_pos_site_id
 _symmetry_equiv_pos_as_xyz
  1  'x, y, z'
loop_
 _atom_site_type_symbol
 _atom_site_label
 _atom_site_symmetry_multiplicity
 _atom_site_fract_x
 _atom_site_fract_y
 _atom_site_fract_z
 _atom_site_occupancy
  Ba  Ba0  1  0.52318900  0.47552400  0.25387500  1
  Ba  Ba1  1  0.02318900  0.52447600  0.24612500  1
  Ba  Ba2  1  0.47681100  0.52447600  0.74612500  1
  Ba  Ba3  1  0.97681100  0.47552400  0.75387500  1
  Ba  Ba4  1  0.77222300  0.97835700  0.73952800  1
  Ba  Ba5  1  0.27222300  0.02164300  0.76047200  1
  Ba  Ba6  1  0.22777700  0.02164300  0.26047200  1
  Ba  Ba7  1  0.72777700  0.97835700  0.23952800  1
  Ba  Ba8  1  0.87388200  0.74700100  0.49292300  1
  Ba  Ba9  1  0.37388200  0.25299900  0.00707700  1
  Ba  Ba10  1  0.12611800  0.25299900  0.50707700  1
  Ba  Ba11  1  0.62611800  0.74700100  0.99292300  1
  Ba  Ba12  1  0.62276400  0.24599400  0.49408800  1
  Ba  Ba13  1  0.12276400  0.75400600  0.00591200  1
  Ba  Ba14  1  0.37723600  0.75400600  0.50591200  1
  Ba  Ba15  1  0.87723600  0.24599400  0.99408800  1
  Sb  Sb16  1  0.61680200  0.75599700  0.41908500  1
  Sb  Sb17  1  0.11680200  0.24400300  0.08091500  1
  Sb  Sb18  1  0.38319800  0.24400300  0.58091500  1
  Sb  Sb19  1  0.88319800  0.75599700  0.91908500  1
  Sb  Sb20  1  0.98040900  0.99850300  0.16935000  1
  Sb  Sb21  1  0.48040900  0.00149700  0.33065000  1
  Sb  Sb22  1  0.01959100  0.00149700  0.83065000  1
  Sb  Sb23  1  0.51959100  0.99850300  0.66935000  1
  Sb  Sb24  1  0.54867900  0.10071200  0.84420400  1
  Sb  Sb25  1  0.04867900  0.89928800  0.65579600  1
  Sb  Sb26  1  0.45132100  0.89928800  0.15579600  1
  Sb  Sb27  1  0.95132100  0.10071200  0.34420400  1
  Sb  Sb28  1  0.79321100  0.41094400  0.33742000  1
  Sb  Sb29  1  0.29321100  0.58905600  0.16258000  1
  Sb  Sb30  1  0.20678900  0.58905600  0.66258000  1
  Sb  Sb31  1  0.70678900  0.41094400  0.83742000  1
  Sb  Sb32  1  0.63282300  0.25716700  0.07032100  1
  Sb  Sb33  1  0.13282300  0.74283300  0.42967900  1
  Sb  Sb34  1  0.36717700  0.74283300  0.92967900  1
  Sb  Sb35  1  0.86717700  0.25716700  0.57032100  1
  Sb  Sb36  1  0.76922500  0.50552700  0.16057000  1
  Sb  Sb37  1  0.26922500  0.49447300  0.33943000  1
  Sb  Sb38  1  0.23077500  0.49447300  0.83943000  1
  Sb  Sb39  1  0.73077500  0.50552700  0.66057000  1
