# generated using pymatgen
data_Ba2H8PtO8
_symmetry_space_group_name_H-M   'P 1'
_cell_length_a   8.70697800
_cell_length_b   8.92404800
_cell_length_c   10.46890200
_cell_angle_alpha   90.00000000
_cell_angle_beta   90.00000000
_cell_angle_gamma   90.00000000
_symmetry_Int_Tables_number   1
_chemical_formula_structural   Ba2H8PtO8
_chemical_formula_sum   'Ba8 H32 Pt4 O32'
_cell_volume   813.44927995
_cell_formula_units_Z   4
loop_
 _symmetry_equiv_pos_site_id
 _symmetry_equiv_pos_as_xyz
  1  'x, y, z'
loop_
 _atom_site_type_symbol
 _atom_site_label
 _atom_site_symmetry_multiplicity
 _atom_site_fract_x
 _atom_site_fract_y
 _atom_site_fract_z
 _atom_site_occupancy
  Ba  Ba0  1  0.78026700  0.28272600  0.22588600  1
  Ba  Ba1  1  0.28026700  0.21727400  0.77411400  1
  Ba  Ba2  1  0.21973300  0.78272600  0.27411400  1
  Ba  Ba3  1  0.71973300  0.71727400  0.72588600  1
  Ba  Ba4  1  0.21973300  0.71727400  0.77411400  1
  Ba  Ba5  1  0.71973300  0.78272600  0.22588600  1
  Ba  Ba6  1  0.78026700  0.21727400  0.72588600  1
  Ba  Ba7  1  0.28026700  0.28272600  0.27411400  1
  H  H8  1  0.52659200  0.51437000  0.40958800  1
  H  H9  1  0.02659200  0.98563000  0.59041200  1
  H  H10  1  0.47340800  0.01437000  0.09041200  1
  H  H11  1  0.97340800  0.48563000  0.90958800  1
  H  H12  1  0.47340800  0.48563000  0.59041200  1
  H  H13  1  0.97340800  0.01437000  0.40958800  1
  H  H14  1  0.52659200  0.98563000  0.90958800  1
  H  H15  1  0.02659200  0.51437000  0.09041200  1
  H  H16  1  0.51386700  0.01599200  0.26208500  1
  H  H17  1  0.01386700  0.48400800  0.73791500  1
  H  H18  1  0.48613300  0.51599200  0.23791500  1
  H  H19  1  0.98613300  0.98400800  0.76208500  1
  H  H20  1  0.48613300  0.98400800  0.73791500  1
  H  H21  1  0.98613300  0.51599200  0.26208500  1
  H  H22  1  0.51386700  0.48400800  0.76208500  1
  H  H23  1  0.01386700  0.01599200  0.23791500  1
  H  H24  1  0.71462900  0.04397500  0.99246700  1
  H  H25  1  0.21462900  0.45602500  0.00753300  1
  H  H26  1  0.28537100  0.54397500  0.50753300  1
  H  H27  1  0.78537100  0.95602500  0.49246700  1
  H  H28  1  0.28537100  0.95602500  0.00753300  1
  H  H29  1  0.78537100  0.54397500  0.99246700  1
  H  H30  1  0.71462900  0.45602500  0.49246700  1
  H  H31  1  0.21462900  0.04397500  0.50753300  1
  H  H32  1  0.02378800  0.21908000  0.50520700  1
  H  H33  1  0.52378800  0.28092000  0.49479300  1
  H  H34  1  0.97621200  0.71908000  0.99479300  1
  H  H35  1  0.47621200  0.78092000  0.00520700  1
  H  H36  1  0.97621200  0.78092000  0.49479300  1
  H  H37  1  0.47621200  0.71908000  0.50520700  1
  H  H38  1  0.02378800  0.28092000  0.00520700  1
  H  H39  1  0.52378800  0.21908000  0.99479300  1
  Pt  Pt40  1  0.50000000  0.00000000  0.50000000  1
  Pt  Pt41  1  0.00000000  0.50000000  0.50000000  1
  Pt  Pt42  1  0.50000000  0.50000000  0.00000000  1
  Pt  Pt43  1  0.00000000  0.00000000  0.00000000  1
  O  O44  1  0.55890900  0.41969300  0.37161600  1
  O  O45  1  0.05890900  0.08030700  0.62838400  1
  O  O46  1  0.44109100  0.91969300  0.12838400  1
  O  O47  1  0.94109100  0.58030700  0.87161600  1
  O  O48  1  0.44109100  0.58030700  0.62838400  1
  O  O49  1  0.94109100  0.91969300  0.37161600  1
  O  O50  1  0.55890900  0.08030700  0.87161600  1
  O  O51  1  0.05890900  0.41969300  0.12838400  1
  O  O52  1  0.57637900  0.07186100  0.32643000  1
  O  O53  1  0.07637900  0.42813900  0.67357000  1
  O  O54  1  0.42362100  0.57186100  0.17357000  1
  O  O55  1  0.92362100  0.92813900  0.82643000  1
  O  O56  1  0.42362100  0.92813900  0.67357000  1
  O  O57  1  0.92362100  0.57186100  0.32643000  1
  O  O58  1  0.57637900  0.42813900  0.82643000  1
  O  O59  1  0.07637900  0.07186100  0.17357000  1
  O  O60  1  0.78199800  0.02805500  0.06777600  1
  O  O61  1  0.28199800  0.47194500  0.93222400  1
  O  O62  1  0.21800200  0.52805500  0.43222400  1
  O  O63  1  0.71800200  0.97194500  0.56777600  1
  O  O64  1  0.21800200  0.97194500  0.93222400  1
  O  O65  1  0.71800200  0.52805500  0.06777600  1
  O  O66  1  0.78199800  0.47194500  0.56777600  1
  O  O67  1  0.28199800  0.02805500  0.43222400  1
  O  O68  1  0.00105700  0.28516300  0.43005600  1
  O  O69  1  0.50105700  0.21483700  0.56994400  1
  O  O70  1  0.99894300  0.78516300  0.06994400  1
  O  O71  1  0.49894300  0.71483700  0.93005600  1
  O  O72  1  0.99894300  0.71483700  0.56994400  1
  O  O73  1  0.49894300  0.78516300  0.43005600  1
  O  O74  1  0.00105700  0.21483700  0.93005600  1
  O  O75  1  0.50105700  0.28516300  0.06994400  1
