# generated using pymatgen
data_Er2Co3Si5
_symmetry_space_group_name_H-M   'P 1'
_cell_length_a   5.52633800
_cell_length_b   7.81925902
_cell_length_c   7.81925902
_cell_angle_alpha   75.19180462
_cell_angle_beta   69.30581494
_cell_angle_gamma   69.30581494
_symmetry_Int_Tables_number   1
_chemical_formula_structural   Er2Co3Si5
_chemical_formula_sum   'Er4 Co6 Si10'
_cell_volume   292.37391792
_cell_formula_units_Z   2
loop_
 _symmetry_equiv_pos_site_id
 _symmetry_equiv_pos_as_xyz
  1  'x, y, z'
loop_
 _atom_site_type_symbol
 _atom_site_label
 _atom_site_symmetry_multiplicity
 _atom_site_fract_x
 _atom_site_fract_y
 _atom_site_fract_z
 _atom_site_occupancy
  Er  Er0  1  0.36644500  0.86906500  0.39804500  1
  Er  Er1  1  0.63355500  0.13093500  0.60195500  1
  Er  Er2  1  0.86644500  0.39804500  0.86906500  1
  Er  Er3  1  0.13355500  0.60195500  0.13093500  1
  Co  Co4  1  0.75000000  0.00000000  0.00000000  1
  Co  Co5  1  0.25000000  0.00000000  0.00000000  1
  Co  Co6  1  0.13629900  0.25160800  0.47579300  1
  Co  Co7  1  0.86370100  0.74839200  0.52420700  1
  Co  Co8  1  0.63629900  0.47579300  0.25160800  1
  Co  Co9  1  0.36370100  0.52420700  0.74839200  1
  Si  Si10  1  0.75000000  0.50000000  0.50000000  1
  Si  Si11  1  0.25000000  0.50000000  0.50000000  1
  Si  Si12  1  0.51932800  0.23067200  0.23067200  1
  Si  Si13  1  0.98067200  0.76932800  0.76932800  1
  Si  Si14  1  0.48067200  0.76932800  0.76932800  1
  Si  Si15  1  0.01932800  0.23067200  0.23067200  1
  Si  Si16  1  0.10226400  0.05438600  0.74108600  1
  Si  Si17  1  0.89773600  0.94561400  0.25891400  1
  Si  Si18  1  0.60226400  0.74108600  0.05438600  1
  Si  Si19  1  0.39773600  0.25891400  0.94561400  1
