# generated using pymatgen
data_Cs3Tm11Te18
_symmetry_space_group_name_H-M   'P 1'
_cell_length_a   13.48601920
_cell_length_b   13.48601920
_cell_length_c   20.24006205
_cell_angle_alpha   79.97077664
_cell_angle_beta   79.97077664
_cell_angle_gamma   19.40816341
_symmetry_Int_Tables_number   1
_chemical_formula_structural   Cs3Tm11Te18
_chemical_formula_sum   'Cs3 Tm11 Te18'
_cell_volume   1203.97511370
_cell_formula_units_Z   1
loop_
 _symmetry_equiv_pos_site_id
 _symmetry_equiv_pos_as_xyz
  1  'x, y, z'
loop_
 _atom_site_type_symbol
 _atom_site_label
 _atom_site_symmetry_multiplicity
 _atom_site_fract_x
 _atom_site_fract_y
 _atom_site_fract_z
 _atom_site_occupancy
  Cs  Cs0  1  0.00000000  0.00000000  0.00000000  1
  Cs  Cs1  1  0.30447200  0.30447200  0.59136600  1
  Cs  Cs2  1  0.69552800  0.69552800  0.40863400  1
  Tm  Tm3  1  0.50000000  0.50000000  0.50000000  1
  Tm  Tm4  1  0.03244200  0.03244200  0.24018500  1
  Tm  Tm5  1  0.96755800  0.96755800  0.75981500  1
  Tm  Tm6  1  0.65357600  0.65357600  0.77493600  1
  Tm  Tm7  1  0.34642400  0.34642400  0.22506400  1
  Tm  Tm8  1  0.33743300  0.33743300  0.81718900  1
  Tm  Tm9  1  0.66256700  0.66256700  0.18281100  1
  Tm  Tm10  1  0.20239600  0.20239600  0.93020500  1
  Tm  Tm11  1  0.79760400  0.79760400  0.06979500  1
  Tm  Tm12  1  0.09328900  0.09328900  0.62672000  1
  Tm  Tm13  1  0.90671100  0.90671100  0.37328000  1
  Te  Te14  1  0.07711900  0.07711900  0.78144800  1
  Te  Te15  1  0.92288100  0.92288100  0.21855200  1
  Te  Te16  1  0.50658300  0.50658300  0.64992000  1
  Te  Te17  1  0.49341700  0.49341700  0.35008000  1
  Te  Te18  1  0.23076100  0.23076100  0.77768800  1
  Te  Te19  1  0.76923900  0.76923900  0.22231200  1
  Te  Te20  1  0.07939800  0.07939800  0.48457700  1
  Te  Te21  1  0.92060200  0.92060200  0.51542300  1
  Te  Te22  1  0.13532400  0.13532400  0.27877200  1
  Te  Te23  1  0.86467600  0.86467600  0.72122800  1
  Te  Te24  1  0.44006700  0.44006700  0.85731800  1
  Te  Te25  1  0.55993300  0.55993300  0.14268200  1
  Te  Te26  1  0.62980300  0.62980300  0.92898100  1
  Te  Te27  1  0.37019700  0.37019700  0.07101900  1
  Te  Te28  1  0.79051800  0.79051800  0.92203800  1
  Te  Te29  1  0.20948200  0.20948200  0.07796200  1
  Te  Te30  1  0.32941100  0.32941100  0.37866700  1
  Te  Te31  1  0.67058900  0.67058900  0.62133300  1
