# generated using pymatgen
data_Ba2V2FeHO9
_symmetry_space_group_name_H-M   'P 1'
_cell_length_a   6.26773500
_cell_length_b   8.02085651
_cell_length_c   9.32073648
_cell_angle_alpha   112.93526418
_cell_angle_beta   90.00000000
_cell_angle_gamma   90.00000000
_symmetry_Int_Tables_number   1
_chemical_formula_structural   Ba2V2FeHO9
_chemical_formula_sum   'Ba4 V4 Fe2 H2 O18'
_cell_volume   431.53462055
_cell_formula_units_Z   2
loop_
 _symmetry_equiv_pos_site_id
 _symmetry_equiv_pos_as_xyz
  1  'x, y, z'
loop_
 _atom_site_type_symbol
 _atom_site_label
 _atom_site_symmetry_multiplicity
 _atom_site_fract_x
 _atom_site_fract_y
 _atom_site_fract_z
 _atom_site_occupancy
  Ba  Ba0  1  0.75000000  0.32011500  0.41050400  1
  Ba  Ba1  1  0.25000000  0.67988500  0.58949600  1
  Ba  Ba2  1  0.75000000  0.73519000  0.24571400  1
  Ba  Ba3  1  0.25000000  0.26481000  0.75428600  1
  V  V4  1  0.25000000  0.04567600  0.33320900  1
  V  V5  1  0.75000000  0.95432400  0.66679100  1
  V  V6  1  0.75000000  0.56488700  0.82696600  1
  V  V7  1  0.25000000  0.43511300  0.17303400  1
  Fe  Fe8  1  0.50000000  0.00000000  0.00000000  1
  Fe  Fe9  1  0.00000000  0.00000000  0.00000000  1
  H  H10  1  0.75000000  0.26537400  0.01941700  1
  H  H11  1  0.25000000  0.73462600  0.98058300  1
  O  O12  1  0.48689600  0.00283700  0.21749300  1
  O  O13  1  0.98689600  0.99716300  0.78250700  1
  O  O14  1  0.51310400  0.99716300  0.78250700  1
  O  O15  1  0.01310400  0.00283700  0.21749300  1
  O  O16  1  0.53001400  0.50116400  0.70676100  1
  O  O17  1  0.03001300  0.49883600  0.29323900  1
  O  O18  1  0.46998600  0.49883600  0.29323900  1
  O  O19  1  0.96998600  0.50116400  0.70676100  1
  O  O20  1  0.75000000  0.80933000  0.95059400  1
  O  O21  1  0.25000000  0.19067000  0.04940600  1
  O  O22  1  0.25000000  0.26826300  0.45754300  1
  O  O23  1  0.75000000  0.73173700  0.54245700  1
  O  O24  1  0.75000000  0.17539500  0.06871000  1
  O  O25  1  0.25000000  0.82460500  0.93128900  1
  O  O26  1  0.25000000  0.92097400  0.44534200  1
  O  O27  1  0.75000000  0.07902600  0.55465800  1
  O  O28  1  0.75000000  0.45027300  0.94863700  1
  O  O29  1  0.25000000  0.54972700  0.05136300  1
