# generated using pymatgen
data_Pr(Ge2Rh3)2
_symmetry_space_group_name_H-M   'P 1'
_cell_length_a   7.23559381
_cell_length_b   7.23559381
_cell_length_c   3.91306600
_cell_angle_alpha   90.00000000
_cell_angle_beta   90.00000000
_cell_angle_gamma   119.99999829
_symmetry_Int_Tables_number   1
_chemical_formula_structural   Pr(Ge2Rh3)2
_chemical_formula_sum   'Pr1 Ge4 Rh6'
_cell_volume   177.41738333
_cell_formula_units_Z   1
loop_
 _symmetry_equiv_pos_site_id
 _symmetry_equiv_pos_as_xyz
  1  'x, y, z'
loop_
 _atom_site_type_symbol
 _atom_site_label
 _atom_site_symmetry_multiplicity
 _atom_site_fract_x
 _atom_site_fract_y
 _atom_site_fract_z
 _atom_site_occupancy
  Pr  Pr0  1  0.00000000  0.00000000  0.00000000  1
  Ge  Ge1  1  0.33333300  0.66666700  0.00000000  1
  Ge  Ge2  1  0.80137300  0.19862700  0.50000000  1
  Ge  Ge3  1  0.80137300  0.60274600  0.50000000  1
  Ge  Ge4  1  0.39725400  0.19862700  0.50000000  1
  Rh  Rh5  1  0.53325300  0.46674700  0.00000000  1
  Rh  Rh6  1  0.53325300  0.06650500  0.00000000  1
  Rh  Rh7  1  0.93349500  0.46674700  0.00000000  1
  Rh  Rh8  1  0.20075100  0.79924900  0.50000000  1
  Rh  Rh9  1  0.20075100  0.40150200  0.50000000  1
  Rh  Rh10  1  0.59849800  0.79924900  0.50000000  1
