# generated using pymatgen
data_Na3ThB24
_symmetry_space_group_name_H-M   'P 1'
_cell_length_a   4.14669000
_cell_length_b   4.14669000
_cell_length_c   16.63442000
_cell_angle_alpha   90.00000000
_cell_angle_beta   90.00000000
_cell_angle_gamma   90.00000000
_symmetry_Int_Tables_number   1
_chemical_formula_structural   Na3ThB24
_chemical_formula_sum   'Na3 Th1 B24'
_cell_volume   286.02948328
_cell_formula_units_Z   1
loop_
 _symmetry_equiv_pos_site_id
 _symmetry_equiv_pos_as_xyz
  1  'x, y, z'
loop_
 _atom_site_type_symbol
 _atom_site_label
 _atom_site_symmetry_multiplicity
 _atom_site_fract_x
 _atom_site_fract_y
 _atom_site_fract_z
 _atom_site_occupancy
  Na  Na0  1  0.50000000  0.50000000  0.26069900  1
  Na  Na1  1  0.50000000  0.50000000  0.50000000  1
  Na  Na2  1  0.50000000  0.50000000  0.73930100  1
  Th  Th3  1  0.50000000  0.50000000  0.00000000  1
  B  B4  1  0.00000000  0.00000000  0.04881300  1
  B  B5  1  0.00000000  0.00000000  0.29924400  1
  B  B6  1  0.00000000  0.00000000  0.54982800  1
  B  B7  1  0.00000000  0.00000000  0.80096800  1
  B  B8  1  0.00000000  0.29920000  0.87712300  1
  B  B9  1  0.00000000  0.29920000  0.12287700  1
  B  B10  1  0.00000000  0.30100100  0.37442600  1
  B  B11  1  0.00000000  0.30100100  0.62557400  1
  B  B12  1  0.29920000  0.00000000  0.87712300  1
  B  B13  1  0.29920000  0.00000000  0.12287700  1
  B  B14  1  0.30100100  0.00000000  0.37442600  1
  B  B15  1  0.30100100  0.00000000  0.62557400  1
  B  B16  1  0.00000000  0.00000000  0.95118700  1
  B  B17  1  0.00000000  0.00000000  0.19903200  1
  B  B18  1  0.00000000  0.00000000  0.45017200  1
  B  B19  1  0.00000000  0.00000000  0.70075600  1
  B  B20  1  0.00000000  0.70080000  0.87712300  1
  B  B21  1  0.00000000  0.70080000  0.12287700  1
  B  B22  1  0.00000000  0.69899900  0.37442600  1
  B  B23  1  0.00000000  0.69899900  0.62557400  1
  B  B24  1  0.70080000  0.00000000  0.87712300  1
  B  B25  1  0.70080000  0.00000000  0.12287700  1
  B  B26  1  0.69899900  0.00000000  0.37442600  1
  B  B27  1  0.69899900  0.00000000  0.62557400  1
