# generated using pymatgen
data_K2RbSmV2O8
_symmetry_space_group_name_H-M   'P 1'
_cell_length_a   6.10198833
_cell_length_b   6.10198833
_cell_length_c   7.94532000
_cell_angle_alpha   90.00000000
_cell_angle_beta   90.00000000
_cell_angle_gamma   120.00000355
_symmetry_Int_Tables_number   1
_chemical_formula_structural   K2RbSmV2O8
_chemical_formula_sum   'K2 Rb1 Sm1 V2 O8'
_cell_volume   256.20332074
_cell_formula_units_Z   1
loop_
 _symmetry_equiv_pos_site_id
 _symmetry_equiv_pos_as_xyz
  1  'x, y, z'
loop_
 _atom_site_type_symbol
 _atom_site_label
 _atom_site_symmetry_multiplicity
 _atom_site_fract_x
 _atom_site_fract_y
 _atom_site_fract_z
 _atom_site_occupancy
  K  K0  1  0.33333300  0.66666700  0.70275100  1
  K  K1  1  0.66666700  0.33333300  0.29724900  1
  Rb  Rb2  1  0.00000000  0.00000000  0.00000000  1
  Sm  Sm3  1  0.00000000  0.00000000  0.50000000  1
  V  V4  1  0.33333300  0.66666700  0.25074400  1
  V  V5  1  0.66666700  0.33333300  0.74925600  1
  O  O6  1  0.33333300  0.66666700  0.03830700  1
  O  O7  1  0.66666700  0.33333300  0.96169300  1
  O  O8  1  0.17633600  0.82366400  0.32669800  1
  O  O9  1  0.82366400  0.17633600  0.67330200  1
  O  O10  1  0.17633600  0.35267200  0.32669800  1
  O  O11  1  0.82366400  0.64732800  0.67330200  1
  O  O12  1  0.64732800  0.82366400  0.32669800  1
  O  O13  1  0.35267200  0.17633600  0.67330200  1
