# generated using pymatgen
data_Ce3(SiNi)4
_symmetry_space_group_name_H-M   'P 1'
_cell_length_a   12.11718257
_cell_length_b   12.11718257
_cell_length_c   12.11718257
_cell_angle_alpha   161.08856251
_cell_angle_beta   160.75643844
_cell_angle_gamma   27.10830787
_symmetry_Int_Tables_number   1
_chemical_formula_structural   Ce3(SiNi)4
_chemical_formula_sum   'Ce3 Si4 Ni4'
_cell_volume   189.97045409
_cell_formula_units_Z   1
loop_
 _symmetry_equiv_pos_site_id
 _symmetry_equiv_pos_as_xyz
  1  'x, y, z'
loop_
 _atom_site_type_symbol
 _atom_site_label
 _atom_site_symmetry_multiplicity
 _atom_site_fract_x
 _atom_site_fract_y
 _atom_site_fract_z
 _atom_site_occupancy
  Ce  Ce0  1  0.35065500  0.85065500  0.50000000  1
  Ce  Ce1  1  0.64934500  0.14934500  0.50000000  1
  Ce  Ce2  1  0.00000000  0.00000000  0.00000000  1
  Si  Si3  1  0.19753000  0.69753000  0.50000000  1
  Si  Si4  1  0.80247000  0.30247000  0.50000000  1
  Si  Si5  1  0.44919600  0.44919600  0.00000000  1
  Si  Si6  1  0.55080400  0.55080400  0.00000000  1
  Ni  Ni7  1  0.09740100  0.59740100  0.50000000  1
  Ni  Ni8  1  0.90259900  0.40259900  0.50000000  1
  Ni  Ni9  1  0.24955000  0.24955000  0.00000000  1
  Ni  Ni10  1  0.75045000  0.75045000  0.00000000  1
