# generated using pymatgen
data_Y2Te3
_symmetry_space_group_name_H-M   'P 1'
_cell_length_a   14.53355524
_cell_length_b   13.86781110
_cell_length_c   7.55535251
_cell_angle_alpha   79.50349925
_cell_angle_beta   69.75560510
_cell_angle_gamma   30.74089565
_symmetry_Int_Tables_number   1
_chemical_formula_structural   Y2Te3
_chemical_formula_sum   'Y8 Te12'
_cell_volume   708.89709289
_cell_formula_units_Z   4
loop_
 _symmetry_equiv_pos_site_id
 _symmetry_equiv_pos_as_xyz
  1  'x, y, z'
loop_
 _atom_site_type_symbol
 _atom_site_label
 _atom_site_symmetry_multiplicity
 _atom_site_fract_x
 _atom_site_fract_y
 _atom_site_fract_z
 _atom_site_occupancy
  Y  Y0  1  0.33284100  0.33284100  0.16715900  1
  Y  Y1  1  0.16715900  0.16715900  0.33284100  1
  Y  Y2  1  0.91715900  0.91715900  0.08284100  1
  Y  Y3  1  0.08284100  0.08284100  0.91715900  1
  Y  Y4  1  0.99994700  0.99994700  0.50005300  1
  Y  Y5  1  0.50005300  0.50005300  0.99994700  1
  Y  Y6  1  0.25005300  0.25005300  0.74994700  1
  Y  Y7  1  0.74994700  0.74994700  0.25005300  1
  Te  Te8  1  0.99697800  0.50302200  0.50302200  1
  Te  Te9  1  0.50302200  0.99697800  0.99697800  1
  Te  Te10  1  0.25302200  0.74697800  0.74697800  1
  Te  Te11  1  0.74697800  0.25302200  0.25302200  1
  Te  Te12  1  0.66600900  0.16810000  0.83277500  1
  Te  Te13  1  0.83277500  0.33311600  0.66600900  1
  Te  Te14  1  0.33311600  0.83277500  0.16810000  1
  Te  Te15  1  0.16810000  0.66600900  0.33311600  1
  Te  Te16  1  0.58399100  0.08190000  0.41722500  1
  Te  Te17  1  0.41722500  0.91688400  0.58399100  1
  Te  Te18  1  0.91688400  0.41722500  0.08190000  1
  Te  Te19  1  0.08190000  0.58399100  0.91688400  1
