# generated using pymatgen
data_Pr5Co2
_symmetry_space_group_name_H-M   'P 1'
_cell_length_a   9.03913289
_cell_length_b   9.03913289
_cell_length_c   7.10384934
_cell_angle_alpha   84.23478869
_cell_angle_beta   84.23478869
_cell_angle_gamma   42.82293379
_symmetry_Int_Tables_number   1
_chemical_formula_structural   Pr5Co2
_chemical_formula_sum   'Pr10 Co4'
_cell_volume   392.23285800
_cell_formula_units_Z   2
loop_
 _symmetry_equiv_pos_site_id
 _symmetry_equiv_pos_as_xyz
  1  'x, y, z'
loop_
 _atom_site_type_symbol
 _atom_site_label
 _atom_site_symmetry_multiplicity
 _atom_site_fract_x
 _atom_site_fract_y
 _atom_site_fract_z
 _atom_site_occupancy
  Pr  Pr0  1  0.01499300  0.79767400  0.41314700  1
  Pr  Pr1  1  0.20232600  0.98500700  0.08685300  1
  Pr  Pr2  1  0.98500700  0.20232600  0.58685300  1
  Pr  Pr3  1  0.79767400  0.01499300  0.91314700  1
  Pr  Pr4  1  0.35465200  0.21534200  0.31771800  1
  Pr  Pr5  1  0.78465800  0.64534800  0.18228200  1
  Pr  Pr6  1  0.64534800  0.78465800  0.68228200  1
  Pr  Pr7  1  0.21534200  0.35465200  0.81771800  1
  Pr  Pr8  1  0.57213800  0.42786200  0.25000000  1
  Pr  Pr9  1  0.42786200  0.57213800  0.75000000  1
  Co  Co10  1  0.18252400  0.59624800  0.07314800  1
  Co  Co11  1  0.40375200  0.81747600  0.42685200  1
  Co  Co12  1  0.81747600  0.40375200  0.92685200  1
  Co  Co13  1  0.59624800  0.18252400  0.57314800  1
