# generated using pymatgen
data_Y5Tl3
_symmetry_space_group_name_H-M   'P 1'
_cell_length_a   9.02102404
_cell_length_b   9.02102404
_cell_length_c   6.75427000
_cell_angle_alpha   90.00000000
_cell_angle_beta   90.00000000
_cell_angle_gamma   120.00000030
_symmetry_Int_Tables_number   1
_chemical_formula_structural   Y5Tl3
_chemical_formula_sum   'Y10 Tl6'
_cell_volume   476.01509867
_cell_formula_units_Z   2
loop_
 _symmetry_equiv_pos_site_id
 _symmetry_equiv_pos_as_xyz
  1  'x, y, z'
loop_
 _atom_site_type_symbol
 _atom_site_label
 _atom_site_symmetry_multiplicity
 _atom_site_fract_x
 _atom_site_fract_y
 _atom_site_fract_z
 _atom_site_occupancy
  Y  Y0  1  0.66666700  0.33333300  0.00000000  1
  Y  Y1  1  0.33333300  0.66666700  0.00000000  1
  Y  Y2  1  0.33333300  0.66666700  0.50000000  1
  Y  Y3  1  0.66666700  0.33333300  0.50000000  1
  Y  Y4  1  0.76446700  0.76446700  0.75000000  1
  Y  Y5  1  0.23553300  0.00000000  0.75000000  1
  Y  Y6  1  0.00000000  0.23553300  0.75000000  1
  Y  Y7  1  0.23553300  0.23553300  0.25000000  1
  Y  Y8  1  0.76446700  0.00000000  0.25000000  1
  Y  Y9  1  0.00000000  0.76446700  0.25000000  1
  Tl  Tl10  1  0.40426500  0.40426500  0.75000000  1
  Tl  Tl11  1  0.59573500  0.00000000  0.75000000  1
  Tl  Tl12  1  0.00000000  0.59573500  0.75000000  1
  Tl  Tl13  1  0.59573500  0.59573500  0.25000000  1
  Tl  Tl14  1  0.40426500  0.00000000  0.25000000  1
  Tl  Tl15  1  0.00000000  0.40426500  0.25000000  1
