# generated using pymatgen
data_Y4MgRh
_symmetry_space_group_name_H-M   'P 1'
_cell_length_a   9.75905504
_cell_length_b   9.75905504
_cell_length_c   9.75905504
_cell_angle_alpha   60.00000000
_cell_angle_beta   60.00000000
_cell_angle_gamma   60.00000000
_symmetry_Int_Tables_number   1
_chemical_formula_structural   Y4MgRh
_chemical_formula_sum   'Y16 Mg4 Rh4'
_cell_volume   657.21626798
_cell_formula_units_Z   4
loop_
 _symmetry_equiv_pos_site_id
 _symmetry_equiv_pos_as_xyz
  1  'x, y, z'
loop_
 _atom_site_type_symbol
 _atom_site_label
 _atom_site_symmetry_multiplicity
 _atom_site_fract_x
 _atom_site_fract_y
 _atom_site_fract_z
 _atom_site_occupancy
  Y  Y0  1  0.59793400  0.59793400  0.59793400  1
  Y  Y1  1  0.59793400  0.59793400  0.20619900  1
  Y  Y2  1  0.59793400  0.20619900  0.59793400  1
  Y  Y3  1  0.20619900  0.59793400  0.59793400  1
  Y  Y4  1  0.06288400  0.43711600  0.43711600  1
  Y  Y5  1  0.43711600  0.06288400  0.06288400  1
  Y  Y6  1  0.43711600  0.06288400  0.43711600  1
  Y  Y7  1  0.06288400  0.43711600  0.06288400  1
  Y  Y8  1  0.43711600  0.43711600  0.06288400  1
  Y  Y9  1  0.06288400  0.06288400  0.43711600  1
  Y  Y10  1  0.18552500  0.81447500  0.81447500  1
  Y  Y11  1  0.81447500  0.18552500  0.18552500  1
  Y  Y12  1  0.81447500  0.18552500  0.81447500  1
  Y  Y13  1  0.18552500  0.81447500  0.18552500  1
  Y  Y14  1  0.81447500  0.81447500  0.18552500  1
  Y  Y15  1  0.18552500  0.18552500  0.81447500  1
  Mg  Mg16  1  0.82970000  0.82970000  0.82970000  1
  Mg  Mg17  1  0.82970000  0.82970000  0.51089900  1
  Mg  Mg18  1  0.82970000  0.51089900  0.82970000  1
  Mg  Mg19  1  0.51089900  0.82970000  0.82970000  1
  Rh  Rh20  1  0.39223300  0.39223300  0.39223300  1
  Rh  Rh21  1  0.39223300  0.39223300  0.82330200  1
  Rh  Rh22  1  0.39223300  0.82330200  0.39223300  1
  Rh  Rh23  1  0.82330200  0.39223300  0.39223300  1
