# generated using pymatgen
data_Sr3(SiAs2)2
_symmetry_space_group_name_H-M   'P 1'
_cell_length_a   9.68894086
_cell_length_b   9.68894086
_cell_length_c   7.45636913
_cell_angle_alpha   75.06128694
_cell_angle_beta   75.06128694
_cell_angle_gamma   122.66139600
_symmetry_Int_Tables_number   1
_chemical_formula_structural   Sr3(SiAs2)2
_chemical_formula_sum   'Sr6 Si4 As8'
_cell_volume   496.98902597
_cell_formula_units_Z   2
loop_
 _symmetry_equiv_pos_site_id
 _symmetry_equiv_pos_as_xyz
  1  'x, y, z'
loop_
 _atom_site_type_symbol
 _atom_site_label
 _atom_site_symmetry_multiplicity
 _atom_site_fract_x
 _atom_site_fract_y
 _atom_site_fract_z
 _atom_site_occupancy
  Sr  Sr0  1  0.94106700  0.05893300  0.25000000  1
  Sr  Sr1  1  0.05893300  0.94106700  0.75000000  1
  Sr  Sr2  1  0.56463900  0.43536200  0.75000000  1
  Sr  Sr3  1  0.43536200  0.56463800  0.25000000  1
  Sr  Sr4  1  0.81396900  0.18603200  0.75000000  1
  Sr  Sr5  1  0.18603200  0.81396800  0.25000000  1
  Si  Si6  1  0.16956200  0.52832900  0.84420200  1
  Si  Si7  1  0.47167100  0.83043800  0.65579800  1
  Si  Si8  1  0.83043800  0.47167100  0.15579800  1
  Si  Si9  1  0.52832900  0.16956200  0.34420200  1
  As  As10  1  0.94953800  0.55575900  0.78207000  1
  As  As11  1  0.44424100  0.05046200  0.71793000  1
  As  As12  1  0.67816200  0.81140200  0.74801600  1
  As  As13  1  0.18859800  0.32183800  0.75198400  1
  As  As14  1  0.32183800  0.18859800  0.25198400  1
  As  As15  1  0.81140200  0.67816200  0.24801600  1
  As  As16  1  0.55575900  0.94953800  0.28207000  1
  As  As17  1  0.05046200  0.44424100  0.21793000  1
