# generated using pymatgen
data_Ba(As3Pt2)2
_symmetry_space_group_name_H-M   'P 1'
_cell_length_a   6.12437445
_cell_length_b   6.12437445
_cell_length_c   12.18060088
_cell_angle_alpha   89.46255371
_cell_angle_beta   89.46255371
_cell_angle_gamma   87.43635246
_symmetry_Int_Tables_number   1
_chemical_formula_structural   Ba(As3Pt2)2
_chemical_formula_sum   'Ba2 As12 Pt8'
_cell_volume   456.37382155
_cell_formula_units_Z   2
loop_
 _symmetry_equiv_pos_site_id
 _symmetry_equiv_pos_as_xyz
  1  'x, y, z'
loop_
 _atom_site_type_symbol
 _atom_site_label
 _atom_site_symmetry_multiplicity
 _atom_site_fract_x
 _atom_site_fract_y
 _atom_site_fract_z
 _atom_site_occupancy
  Ba  Ba0  1  0.60573800  0.39426200  0.75000000  1
  Ba  Ba1  1  0.39426200  0.60573800  0.25000000  1
  As  As2  1  0.09218600  0.13779600  0.30865700  1
  As  As3  1  0.86220400  0.90781400  0.19134300  1
  As  As4  1  0.90781400  0.86220400  0.69134300  1
  As  As5  1  0.13779600  0.09218600  0.80865700  1
  As  As6  1  0.62345500  0.87646300  0.94483800  1
  As  As7  1  0.12353700  0.37654500  0.55516200  1
  As  As8  1  0.37654500  0.12353700  0.05516200  1
  As  As9  1  0.87646300  0.62345500  0.44483800  1
  As  As10  1  0.87708100  0.38522400  0.05451200  1
  As  As11  1  0.61477600  0.12291900  0.44548800  1
  As  As12  1  0.38522400  0.87708100  0.55451200  1
  As  As13  1  0.12291900  0.61477600  0.94548800  1
  Pt  Pt14  1  0.50728200  0.91714400  0.74980400  1
  Pt  Pt15  1  0.08285600  0.49271800  0.75019600  1
  Pt  Pt16  1  0.50000000  0.50000000  0.50000000  1
  Pt  Pt17  1  0.50000000  0.50000000  0.00000000  1
  Pt  Pt18  1  0.00000000  0.00000000  0.50000000  1
  Pt  Pt19  1  0.00000000  0.00000000  0.00000000  1
  Pt  Pt20  1  0.91714400  0.50728200  0.24980400  1
  Pt  Pt21  1  0.49271800  0.08285600  0.25019600  1
