# generated using pymatgen
data_Cs2ZnH4
_symmetry_space_group_name_H-M   'P 1'
_cell_length_a   6.37468800
_cell_length_b   8.69595600
_cell_length_c   11.14103400
_cell_angle_alpha   90.00000000
_cell_angle_beta   90.00000000
_cell_angle_gamma   90.00000000
_symmetry_Int_Tables_number   1
_chemical_formula_structural   Cs2ZnH4
_chemical_formula_sum   'Cs8 Zn4 H16'
_cell_volume   617.59214963
_cell_formula_units_Z   4
loop_
 _symmetry_equiv_pos_site_id
 _symmetry_equiv_pos_as_xyz
  1  'x, y, z'
loop_
 _atom_site_type_symbol
 _atom_site_label
 _atom_site_symmetry_multiplicity
 _atom_site_fract_x
 _atom_site_fract_y
 _atom_site_fract_z
 _atom_site_occupancy
  Cs  Cs0  1  0.25000000  0.66185500  0.09340700  1
  Cs  Cs1  1  0.25000000  0.16185500  0.40659300  1
  Cs  Cs2  1  0.75000000  0.33814500  0.90659300  1
  Cs  Cs3  1  0.75000000  0.83814500  0.59340700  1
  Cs  Cs4  1  0.25000000  0.98734500  0.81137400  1
  Cs  Cs5  1  0.25000000  0.48734500  0.68862600  1
  Cs  Cs6  1  0.75000000  0.01265500  0.18862600  1
  Cs  Cs7  1  0.75000000  0.51265500  0.31137400  1
  Zn  Zn8  1  0.25000000  0.74326100  0.41560300  1
  Zn  Zn9  1  0.25000000  0.24326100  0.08439700  1
  Zn  Zn10  1  0.75000000  0.25673900  0.58439700  1
  Zn  Zn11  1  0.75000000  0.75673900  0.91560300  1
  H  H12  1  0.03552300  0.81382400  0.34815100  1
  H  H13  1  0.46447700  0.31382400  0.15184900  1
  H  H14  1  0.53552300  0.18617600  0.65184900  1
  H  H15  1  0.96447700  0.68617600  0.84815100  1
  H  H16  1  0.96447700  0.18617600  0.65184900  1
  H  H17  1  0.53552300  0.68617600  0.84815100  1
  H  H18  1  0.46447700  0.81382400  0.34815100  1
  H  H19  1  0.03552300  0.31382400  0.15184900  1
  H  H20  1  0.25000000  0.55194000  0.40607100  1
  H  H21  1  0.25000000  0.05194000  0.09392900  1
  H  H22  1  0.75000000  0.44806000  0.59392900  1
  H  H23  1  0.75000000  0.94806000  0.90607100  1
  H  H24  1  0.25000000  0.30361700  0.94089700  1
  H  H25  1  0.25000000  0.80361700  0.55910300  1
  H  H26  1  0.75000000  0.69638300  0.05910300  1
  H  H27  1  0.75000000  0.19638300  0.44089700  1
