# generated using pymatgen
data_ScAlCO
_symmetry_space_group_name_H-M   'P 1'
_cell_length_a   3.26319409
_cell_length_b   3.26319409
_cell_length_c   10.23639800
_cell_angle_alpha   90.00000000
_cell_angle_beta   90.00000000
_cell_angle_gamma   120.00000173
_symmetry_Int_Tables_number   1
_chemical_formula_structural   ScAlCO
_chemical_formula_sum   'Sc2 Al2 C2 O2'
_cell_volume   94.39817489
_cell_formula_units_Z   2
loop_
 _symmetry_equiv_pos_site_id
 _symmetry_equiv_pos_as_xyz
  1  'x, y, z'
loop_
 _atom_site_type_symbol
 _atom_site_label
 _atom_site_symmetry_multiplicity
 _atom_site_fract_x
 _atom_site_fract_y
 _atom_site_fract_z
 _atom_site_occupancy
  Sc  Sc0  1  0.66666700  0.33333300  0.80413900  1
  Sc  Sc1  1  0.33333300  0.66666700  0.30413900  1
  Al  Al2  1  0.00000000  0.00000000  0.52001200  1
  Al  Al3  1  0.00000000  0.00000000  0.02001200  1
  C  C4  1  0.33333300  0.66666700  0.94191400  1
  C  C5  1  0.66666700  0.33333300  0.44191400  1
  O  O6  1  0.00000000  0.00000000  0.69725400  1
  O  O7  1  0.00000000  0.00000000  0.19725400  1
