# generated using pymatgen
data_K2MgH4(I2O7)2
_symmetry_space_group_name_H-M   'P 1'
_cell_length_a   8.05597755
_cell_length_b   8.05597755
_cell_length_c   8.37912961
_cell_angle_alpha   59.24924127
_cell_angle_beta   59.24924127
_cell_angle_gamma   61.03726947
_symmetry_Int_Tables_number   1
_chemical_formula_structural   K2MgH4(I2O7)2
_chemical_formula_sum   'K2 Mg1 H4 I4 O14'
_cell_volume   382.91787139
_cell_formula_units_Z   1
loop_
 _symmetry_equiv_pos_site_id
 _symmetry_equiv_pos_as_xyz
  1  'x, y, z'
loop_
 _atom_site_type_symbol
 _atom_site_label
 _atom_site_symmetry_multiplicity
 _atom_site_fract_x
 _atom_site_fract_y
 _atom_site_fract_z
 _atom_site_occupancy
  K  K0  1  0.13404400  0.86595600  0.00000000  1
  K  K1  1  0.65528200  0.34471800  0.00000000  1
  Mg  Mg2  1  0.58082900  0.41917100  0.50000000  1
  H  H3  1  0.94067100  0.14403900  0.53856800  1
  H  H4  1  0.85596100  0.05932900  0.46143200  1
  H  H5  1  0.30933600  0.78354100  0.37517300  1
  H  H6  1  0.21645900  0.69066400  0.62482700  1
  I  I7  1  0.16728200  0.36406300  0.97964600  1
  I  I8  1  0.63593700  0.83271800  0.02035400  1
  I  I9  1  0.63500200  0.80793600  0.51773100  1
  I  I10  1  0.19206400  0.36499800  0.48226900  1
  O  O11  1  0.32936700  0.67063300  0.50000000  1
  O  O12  1  0.06866900  0.28951500  0.87902000  1
  O  O13  1  0.71048500  0.93133100  0.12098000  1
  O  O14  1  0.43639300  0.32102100  0.82047300  1
  O  O15  1  0.67897900  0.56360700  0.17952700  1
  O  O16  1  0.87261500  0.86241300  0.41427500  1
  O  O17  1  0.13758700  0.12738500  0.58572500  1
  O  O18  1  0.82908000  0.17092000  0.50000000  1
  O  O19  1  0.73870400  0.54300600  0.52855300  1
  O  O20  1  0.45699400  0.26129600  0.47144700  1
  O  O21  1  0.07898600  0.64204400  0.86484600  1
  O  O22  1  0.35795600  0.92101400  0.13515400  1
  O  O23  1  0.55664400  0.75366600  0.78320400  1
  O  O24  1  0.24633400  0.44335600  0.21679600  1
