# generated using pymatgen
data_Tm10S19
_symmetry_space_group_name_H-M   'P 1'
_cell_length_a   8.53860100
_cell_length_b   8.53860100
_cell_length_c   15.60959500
_cell_angle_alpha   90.00000000
_cell_angle_beta   90.00000000
_cell_angle_gamma   90.00000000
_symmetry_Int_Tables_number   1
_chemical_formula_structural   Tm10S19
_chemical_formula_sum   'Tm20 S38'
_cell_volume   1138.05977923
_cell_formula_units_Z   2
loop_
 _symmetry_equiv_pos_site_id
 _symmetry_equiv_pos_as_xyz
  1  'x, y, z'
loop_
 _atom_site_type_symbol
 _atom_site_label
 _atom_site_symmetry_multiplicity
 _atom_site_fract_x
 _atom_site_fract_y
 _atom_site_fract_z
 _atom_site_occupancy
  Tm  Tm0  1  0.50000000  0.00000000  0.13434800  1
  Tm  Tm1  1  0.50000000  0.00000000  0.63434800  1
  Tm  Tm2  1  0.00000000  0.50000000  0.36565200  1
  Tm  Tm3  1  0.00000000  0.50000000  0.86565200  1
  Tm  Tm4  1  0.30394800  0.39503600  0.14552500  1
  Tm  Tm5  1  0.69605200  0.60496400  0.14552500  1
  Tm  Tm6  1  0.89503600  0.19605200  0.64552500  1
  Tm  Tm7  1  0.10496400  0.80394800  0.64552500  1
  Tm  Tm8  1  0.19605200  0.10496400  0.35447500  1
  Tm  Tm9  1  0.80394800  0.89503600  0.35447500  1
  Tm  Tm10  1  0.60496400  0.30394800  0.85447500  1
  Tm  Tm11  1  0.39503600  0.69605200  0.85447500  1
  Tm  Tm12  1  0.09880400  0.79071800  0.12843500  1
  Tm  Tm13  1  0.90119600  0.20928200  0.12843500  1
  Tm  Tm14  1  0.29071800  0.40119600  0.62843500  1
  Tm  Tm15  1  0.70928200  0.59880400  0.62843500  1
  Tm  Tm16  1  0.40119600  0.70928200  0.37156500  1
  Tm  Tm17  1  0.59880400  0.29071800  0.37156500  1
  Tm  Tm18  1  0.20928200  0.09880400  0.87156500  1
  Tm  Tm19  1  0.79071800  0.90119600  0.87156500  1
  S  S20  1  0.31959400  0.86690100  0.00038700  1
  S  S21  1  0.68040600  0.13309900  0.00038700  1
  S  S22  1  0.36690100  0.18040600  0.50038700  1
  S  S23  1  0.63309900  0.81959400  0.50038700  1
  S  S24  1  0.18040600  0.63309900  0.49961300  1
  S  S25  1  0.81959400  0.36690100  0.49961300  1
  S  S26  1  0.13309900  0.31959400  0.99961300  1
  S  S27  1  0.86690100  0.68040600  0.99961300  1
  S  S28  1  0.55873400  0.77836100  0.00026900  1
  S  S29  1  0.44126600  0.22163900  0.00026900  1
  S  S30  1  0.27836100  0.94126600  0.50026900  1
  S  S31  1  0.72163900  0.05873400  0.50026900  1
  S  S32  1  0.94126600  0.72163900  0.49973100  1
  S  S33  1  0.05873400  0.27836100  0.49973100  1
  S  S34  1  0.22163900  0.55873400  0.99973100  1
  S  S35  1  0.77836100  0.44126600  0.99973100  1
  S  S36  1  0.60093600  0.30347000  0.18854600  1
  S  S37  1  0.39906400  0.69653000  0.18854600  1
  S  S38  1  0.80347000  0.89906400  0.68854600  1
  S  S39  1  0.19653000  0.10093600  0.68854600  1
  S  S40  1  0.89906400  0.19653000  0.31145400  1
  S  S41  1  0.10093600  0.80347000  0.31145400  1
  S  S42  1  0.69653000  0.60093600  0.81145400  1
  S  S43  1  0.30347000  0.39906400  0.81145400  1
  S  S44  1  0.79871100  0.90158700  0.17845600  1
  S  S45  1  0.20128900  0.09841300  0.17845600  1
  S  S46  1  0.40158700  0.70128900  0.67845600  1
  S  S47  1  0.59841300  0.29871100  0.67845600  1
  S  S48  1  0.70128900  0.59841300  0.32154400  1
  S  S49  1  0.29871100  0.40158700  0.32154400  1
  S  S50  1  0.09841300  0.79871100  0.82154400  1
  S  S51  1  0.90158700  0.20128900  0.82154400  1
  S  S52  1  0.00000000  0.50000000  0.18536400  1
  S  S53  1  0.00000000  0.50000000  0.68536400  1
  S  S54  1  0.50000000  0.00000000  0.31463600  1
  S  S55  1  0.50000000  0.00000000  0.81463600  1
  S  S56  1  0.00000000  0.00000000  0.00000000  1
  S  S57  1  0.50000000  0.50000000  0.50000000  1
