# generated using pymatgen
data_Nb5GaSn2
_symmetry_space_group_name_H-M   'P 1'
_cell_length_a   8.01614174
_cell_length_b   8.01614174
_cell_length_c   8.01614174
_cell_angle_alpha   96.04617295
_cell_angle_beta   96.04617295
_cell_angle_gamma   142.12389773
_symmetry_Int_Tables_number   1
_chemical_formula_structural   Nb5GaSn2
_chemical_formula_sum   'Nb10 Ga2 Sn4'
_cell_volume   299.13339039
_cell_formula_units_Z   2
loop_
 _symmetry_equiv_pos_site_id
 _symmetry_equiv_pos_as_xyz
  1  'x, y, z'
loop_
 _atom_site_type_symbol
 _atom_site_label
 _atom_site_symmetry_multiplicity
 _atom_site_fract_x
 _atom_site_fract_y
 _atom_site_fract_z
 _atom_site_occupancy
  Nb  Nb0  1  0.25000000  0.75000000  0.50000000  1
  Nb  Nb1  1  0.75000000  0.25000000  0.50000000  1
  Nb  Nb2  1  0.78242300  0.92917900  0.71160300  1
  Nb  Nb3  1  0.92917900  0.21757700  0.14675600  1
  Nb  Nb4  1  0.07082100  0.78242300  0.85324400  1
  Nb  Nb5  1  0.21757700  0.07082100  0.28839700  1
  Nb  Nb6  1  0.57082100  0.71757700  0.28839700  1
  Nb  Nb7  1  0.42917900  0.28242300  0.71160300  1
  Nb  Nb8  1  0.28242300  0.57082100  0.85324400  1
  Nb  Nb9  1  0.71757700  0.42917900  0.14675600  1
  Ga  Ga10  1  0.75000000  0.75000000  0.00000000  1
  Ga  Ga11  1  0.25000000  0.25000000  0.00000000  1
  Sn  Sn12  1  0.33125000  0.83125000  0.16250100  1
  Sn  Sn13  1  0.83125000  0.66875000  0.50000000  1
  Sn  Sn14  1  0.16875000  0.33125000  0.50000000  1
  Sn  Sn15  1  0.66875000  0.16875000  0.83749900  1
