# generated using pymatgen
data_K2B2Se3O10
_symmetry_space_group_name_H-M   'P 1'
_cell_length_a   4.79700500
_cell_length_b   14.58849700
_cell_length_c   16.11141300
_cell_angle_alpha   90.00000000
_cell_angle_beta   90.00000000
_cell_angle_gamma   90.00000000
_symmetry_Int_Tables_number   1
_chemical_formula_structural   K2B2Se3O10
_chemical_formula_sum   'K8 B8 Se12 O40'
_cell_volume   1127.49429234
_cell_formula_units_Z   4
loop_
 _symmetry_equiv_pos_site_id
 _symmetry_equiv_pos_as_xyz
  1  'x, y, z'
loop_
 _atom_site_type_symbol
 _atom_site_label
 _atom_site_symmetry_multiplicity
 _atom_site_fract_x
 _atom_site_fract_y
 _atom_site_fract_z
 _atom_site_occupancy
  K  K0  1  0.23538700  0.13409200  0.45230000  1
  K  K1  1  0.26461300  0.63409200  0.04770000  1
  K  K2  1  0.76461300  0.86590800  0.95230000  1
  K  K3  1  0.73538700  0.36590800  0.54770000  1
  K  K4  1  0.76461300  0.86590800  0.54770000  1
  K  K5  1  0.73538700  0.36590800  0.95230000  1
  K  K6  1  0.23538700  0.13409200  0.04770000  1
  K  K7  1  0.26461300  0.63409200  0.45230000  1
  B  B8  1  0.73853800  0.99032200  0.33070700  1
  B  B9  1  0.76146200  0.49032200  0.16929300  1
  B  B10  1  0.26146200  0.00967800  0.83070700  1
  B  B11  1  0.23853800  0.50967800  0.66929300  1
  B  B12  1  0.26146200  0.00967800  0.66929300  1
  B  B13  1  0.23853800  0.50967800  0.83070700  1
  B  B14  1  0.73853800  0.99032200  0.16929300  1
  B  B15  1  0.76146200  0.49032200  0.33070700  1
  Se  Se16  1  0.23922700  0.88683400  0.35889700  1
  Se  Se17  1  0.26077300  0.38683400  0.14110300  1
  Se  Se18  1  0.76077300  0.11316600  0.85889700  1
  Se  Se19  1  0.73922700  0.61316600  0.64110300  1
  Se  Se20  1  0.76077300  0.11316600  0.64110300  1
  Se  Se21  1  0.73922700  0.61316600  0.85889700  1
  Se  Se22  1  0.23922700  0.88683400  0.14110300  1
  Se  Se23  1  0.26077300  0.38683400  0.35889700  1
  Se  Se24  1  0.76116900  0.16700100  0.25000000  1
  Se  Se25  1  0.73883100  0.66700100  0.25000000  1
  Se  Se26  1  0.23883100  0.83299900  0.75000000  1
  Se  Se27  1  0.26116900  0.33299900  0.75000000  1
  O  O28  1  0.30104300  0.82518000  0.44427800  1
  O  O29  1  0.19895700  0.32518000  0.05572200  1
  O  O30  1  0.69895700  0.17482000  0.94427800  1
  O  O31  1  0.80104300  0.67482000  0.55572200  1
  O  O32  1  0.69895700  0.17482000  0.55572200  1
  O  O33  1  0.80104300  0.67482000  0.94427800  1
  O  O34  1  0.30104300  0.82518000  0.05572200  1
  O  O35  1  0.19895700  0.32518000  0.44427800  1
  O  O36  1  0.92878200  0.94279000  0.39190400  1
  O  O37  1  0.57121800  0.44279000  0.10809600  1
  O  O38  1  0.07121800  0.05721000  0.89190400  1
  O  O39  1  0.42878200  0.55721000  0.60809600  1
  O  O40  1  0.07121800  0.05721000  0.60809600  1
  O  O41  1  0.42878200  0.55721000  0.89190400  1
  O  O42  1  0.92878200  0.94279000  0.10809600  1
  O  O43  1  0.57121800  0.44279000  0.39190400  1
  O  O44  1  0.45583300  0.98557500  0.37116000  1
  O  O45  1  0.04416700  0.48557500  0.12884000  1
  O  O46  1  0.54416700  0.01442500  0.87116000  1
  O  O47  1  0.95583300  0.51442500  0.62884000  1
  O  O48  1  0.54416700  0.01442500  0.62884000  1
  O  O49  1  0.95583300  0.51442500  0.87116000  1
  O  O50  1  0.45583300  0.98557500  0.12884000  1
  O  O51  1  0.04416700  0.48557500  0.37116000  1
  O  O52  1  0.81505500  0.09020300  0.33514200  1
  O  O53  1  0.68494500  0.59020300  0.16485800  1
  O  O54  1  0.18494500  0.90979700  0.83514200  1
  O  O55  1  0.31505500  0.40979700  0.66485800  1
  O  O56  1  0.18494500  0.90979700  0.66485800  1
  O  O57  1  0.31505500  0.40979700  0.83514200  1
  O  O58  1  0.81505500  0.09020300  0.16485800  1
  O  O59  1  0.68494500  0.59020300  0.33514200  1
  O  O60  1  0.42151800  0.19029100  0.25000000  1
  O  O61  1  0.07848200  0.69029100  0.25000000  1
  O  O62  1  0.57848200  0.80970900  0.75000000  1
  O  O63  1  0.92151800  0.30970900  0.75000000  1
  O  O64  1  0.75572800  0.94933900  0.25000000  1
  O  O65  1  0.74427200  0.44933900  0.25000000  1
  O  O66  1  0.24427200  0.05066100  0.75000000  1
  O  O67  1  0.25572800  0.55066100  0.75000000  1
