# generated using pymatgen
data_Ba(BH)12
_symmetry_space_group_name_H-M   'P 1'
_cell_length_a   7.41089086
_cell_length_b   7.41089086
_cell_length_c   11.97046200
_cell_angle_alpha   90.00000000
_cell_angle_beta   90.00000000
_cell_angle_gamma   120.00000770
_symmetry_Int_Tables_number   1
_chemical_formula_structural   Ba(BH)12
_chemical_formula_sum   'Ba2 B24 H24'
_cell_volume   569.35395986
_cell_formula_units_Z   2
loop_
 _symmetry_equiv_pos_site_id
 _symmetry_equiv_pos_as_xyz
  1  'x, y, z'
loop_
 _atom_site_type_symbol
 _atom_site_label
 _atom_site_symmetry_multiplicity
 _atom_site_fract_x
 _atom_site_fract_y
 _atom_site_fract_z
 _atom_site_occupancy
  Ba  Ba0  1  0.66666700  0.33333300  0.26337300  1
  Ba  Ba1  1  0.33333300  0.66666700  0.76337300  1
  B  B2  1  0.91194300  0.38607100  0.61161700  1
  B  B3  1  0.47412800  0.08805700  0.61161700  1
  B  B4  1  0.61392900  0.52587200  0.61161700  1
  B  B5  1  0.52587200  0.61392900  0.11161700  1
  B  B6  1  0.38607100  0.91194300  0.11161700  1
  B  B7  1  0.08805700  0.47412800  0.11161700  1
  B  B8  1  0.51486400  0.30048500  0.52647200  1
  B  B9  1  0.78562100  0.48513600  0.52647200  1
  B  B10  1  0.69951500  0.21437900  0.52647200  1
  B  B11  1  0.21437900  0.69951500  0.02647200  1
  B  B12  1  0.30048500  0.51486400  0.02647200  1
  B  B13  1  0.48513600  0.78562100  0.02647200  1
  B  B14  1  0.81841000  0.36515100  0.75034500  1
  B  B15  1  0.54674100  0.18159000  0.75034500  1
  B  B16  1  0.63484900  0.45325900  0.75034500  1
  B  B17  1  0.45325900  0.63484900  0.25034500  1
  B  B18  1  0.36515100  0.81841000  0.25034500  1
  B  B19  1  0.18159000  0.54674100  0.25034500  1
  B  B20  1  0.42054900  0.28111800  0.66517900  1
  B  B21  1  0.86056900  0.57945100  0.66517900  1
  B  B22  1  0.71888200  0.13943100  0.66517900  1
  B  B23  1  0.13943100  0.71888200  0.16517900  1
  B  B24  1  0.28111800  0.42054900  0.16517900  1
  B  B25  1  0.57945100  0.86056900  0.16517900  1
  H  H26  1  0.08511700  0.42223200  0.58893800  1
  H  H27  1  0.33711500  0.91488300  0.58893800  1
  H  H28  1  0.57776800  0.66288500  0.58893800  1
  H  H29  1  0.66288500  0.57776800  0.08893800  1
  H  H30  1  0.42223200  0.08511700  0.08893800  1
  H  H31  1  0.91488300  0.33711500  0.08893800  1
  H  H32  1  0.40438000  0.27625500  0.44718600  1
  H  H33  1  0.87187600  0.59562000  0.44718600  1
  H  H34  1  0.72374500  0.12812400  0.44718600  1
  H  H35  1  0.12812400  0.72374500  0.94718600  1
  H  H36  1  0.27625500  0.40438000  0.94718600  1
  H  H37  1  0.59562000  0.87187600  0.94718600  1
  H  H38  1  0.92477800  0.38604300  0.83107600  1
  H  H39  1  0.46126500  0.07522200  0.83107600  1
  H  H40  1  0.61395700  0.53873500  0.83107600  1
  H  H41  1  0.53873500  0.61395700  0.33107600  1
  H  H42  1  0.38604300  0.92477800  0.33107600  1
  H  H43  1  0.07522200  0.46126500  0.33107600  1
  H  H44  1  0.24540200  0.24342700  0.68406300  1
  H  H45  1  0.99802500  0.75459800  0.68406300  1
  H  H46  1  0.75657300  0.00197500  0.68406300  1
  H  H47  1  0.00197500  0.75657300  0.18406300  1
  H  H48  1  0.24342700  0.24540200  0.18406300  1
  H  H49  1  0.75459800  0.99802500  0.18406300  1
