# generated using pymatgen
data_ThTe3
_symmetry_space_group_name_H-M   'P 1'
_cell_length_a   4.43831500
_cell_length_b   6.26531200
_cell_length_c   10.82628762
_cell_angle_alpha   82.30663267
_cell_angle_beta   90.00000000
_cell_angle_gamma   90.00000000
_symmetry_Int_Tables_number   1
_chemical_formula_structural   ThTe3
_chemical_formula_sum   'Th2 Te6'
_cell_volume   298.34136486
_cell_formula_units_Z   2
loop_
 _symmetry_equiv_pos_site_id
 _symmetry_equiv_pos_as_xyz
  1  'x, y, z'
loop_
 _atom_site_type_symbol
 _atom_site_label
 _atom_site_symmetry_multiplicity
 _atom_site_fract_x
 _atom_site_fract_y
 _atom_site_fract_z
 _atom_site_occupancy
  Th  Th0  1  0.25000000  0.71517600  0.15421000  1
  Th  Th1  1  0.75000000  0.28482400  0.84579000  1
  Te  Te2  1  0.25000000  0.55034000  0.67582100  1
  Te  Te3  1  0.75000000  0.44966000  0.32417900  1
  Te  Te4  1  0.25000000  0.23589100  0.06162000  1
  Te  Te5  1  0.75000000  0.76410900  0.93838000  1
  Te  Te6  1  0.25000000  0.10598700  0.67027100  1
  Te  Te7  1  0.75000000  0.89401300  0.32972900  1
