# generated using pymatgen
data_TbMgIn
_symmetry_space_group_name_H-M   'P 1'
_cell_length_a   7.56467276
_cell_length_b   7.56467276
_cell_length_c   4.67836900
_cell_angle_alpha   90.00000000
_cell_angle_beta   90.00000000
_cell_angle_gamma   120.00000664
_symmetry_Int_Tables_number   1
_chemical_formula_structural   TbMgIn
_chemical_formula_sum   'Tb3 Mg3 In3'
_cell_volume   231.84907472
_cell_formula_units_Z   3
loop_
 _symmetry_equiv_pos_site_id
 _symmetry_equiv_pos_as_xyz
  1  'x, y, z'
loop_
 _atom_site_type_symbol
 _atom_site_label
 _atom_site_symmetry_multiplicity
 _atom_site_fract_x
 _atom_site_fract_y
 _atom_site_fract_z
 _atom_site_occupancy
  Tb  Tb0  1  0.56974200  0.00000000  0.00000000  1
  Tb  Tb1  1  0.00000000  0.56974200  0.00000000  1
  Tb  Tb2  1  0.43025800  0.43025800  0.00000000  1
  Mg  Mg3  1  0.24294800  0.00000000  0.50000000  1
  Mg  Mg4  1  0.00000000  0.24294800  0.50000000  1
  Mg  Mg5  1  0.75705200  0.75705200  0.50000000  1
  In  In6  1  0.33333300  0.66666700  0.50000000  1
  In  In7  1  0.66666700  0.33333300  0.50000000  1
  In  In8  1  0.00000000  0.00000000  0.00000000  1
