# generated using pymatgen
data_K2CaMg5Si8(HO12)2
_symmetry_space_group_name_H-M   'P 1'
_cell_length_a   5.33945400
_cell_length_b   10.30823622
_cell_length_c   10.51258369
_cell_angle_alpha   115.14549775
_cell_angle_beta   97.36160954
_cell_angle_gamma   104.87035477
_symmetry_Int_Tables_number   1
_chemical_formula_structural   K2CaMg5Si8(HO12)2
_chemical_formula_sum   'K2 Ca1 Mg5 Si8 H2 O24'
_cell_volume   487.28342144
_cell_formula_units_Z   1
loop_
 _symmetry_equiv_pos_site_id
 _symmetry_equiv_pos_as_xyz
  1  'x, y, z'
loop_
 _atom_site_type_symbol
 _atom_site_label
 _atom_site_symmetry_multiplicity
 _atom_site_fract_x
 _atom_site_fract_y
 _atom_site_fract_z
 _atom_site_occupancy
  K  K0  1  0.48714300  0.50992200  0.00274400  1
  K  K1  1  0.21483900  0.71496600  0.43021400  1
  Ca  Ca2  1  0.77759400  0.27766500  0.55605200  1
  Mg  Mg3  1  0.41076300  0.91096900  0.82120500  1
  Mg  Mg4  1  0.58840500  0.08871100  0.17666000  1
  Mg  Mg5  1  0.81816500  0.81815700  0.63625400  1
  Mg  Mg6  1  0.17873700  0.17883600  0.35744000  1
  Mg  Mg7  1  0.99955700  0.99951300  0.99821300  1
  Si  Si8  1  0.30046700  0.11302200  0.65916500  1
  Si  Si9  1  0.63722200  0.44944200  0.34216200  1
  Si  Si10  1  0.70512300  0.89312900  0.34242400  1
  Si  Si11  1  0.35861500  0.54635700  0.65884000  1
  Si  Si12  1  0.88068400  0.18544100  0.82941300  1
  Si  Si13  1  0.04632600  0.35204600  0.16787600  1
  Si  Si14  1  0.12129800  0.81594000  0.16780500  1
  Si  Si15  1  0.94853000  0.64413500  0.82942700  1
  H  H16  1  0.44608100  0.20058600  0.00098600  1
  H  H17  1  0.55435600  0.80116500  0.00094000  1
  O  O18  1  0.02099900  0.32546300  0.99909400  1
  O  O19  1  0.97870700  0.67321700  0.99912500  1
  O  O20  1  0.80125800  0.02220000  0.82639000  1
  O  O21  1  0.97478500  0.19331300  0.17423000  1
  O  O22  1  0.19965500  0.98094500  0.17412200  1
  O  O23  1  0.02537600  0.80438300  0.82652300  1
  O  O24  1  0.10357900  0.21293300  0.73850000  1
  O  O25  1  0.36265000  0.46103800  0.25398100  1
  O  O26  1  0.89093000  0.79321200  0.25382500  1
  O  O27  1  0.63469200  0.52607000  0.73873900  1
  O  O28  1  0.22044300  0.95621500  0.66914900  1
  O  O29  1  0.56192100  0.28660600  0.34599600  1
  O  O30  1  0.78373700  0.05955200  0.34599600  1
  O  O31  1  0.44837800  0.71321800  0.66912700  1
  O  O32  1  0.62158300  0.22285300  0.76888900  1
  O  O33  1  0.83558500  0.44110200  0.22614100  1
  O  O34  1  0.39066200  0.78494800  0.22576400  1
  O  O35  1  0.14816100  0.54658300  0.76945900  1
  O  O36  1  0.38892700  0.10380100  0.00187600  1
  O  O37  1  0.61378000  0.89884600  0.00193900  1
  O  O38  1  0.32440000  0.12310900  0.51201000  1
  O  O39  1  0.78068000  0.59991600  0.49460900  1
  O  O40  1  0.71314700  0.89451800  0.49450600  1
  O  O41  1  0.18706000  0.38895600  0.51218700  1
