# generated using pymatgen
data_Nb2B3
_symmetry_space_group_name_H-M   'P 1'
_cell_length_a   9.93791911
_cell_length_b   9.93791911
_cell_length_c   3.14203000
_cell_angle_alpha   90.00000000
_cell_angle_beta   90.00000000
_cell_angle_gamma   160.72472194
_symmetry_Int_Tables_number   1
_chemical_formula_structural   Nb2B3
_chemical_formula_sum   'Nb4 B6'
_cell_volume   102.43683438
_cell_formula_units_Z   2
loop_
 _symmetry_equiv_pos_site_id
 _symmetry_equiv_pos_as_xyz
  1  'x, y, z'
loop_
 _atom_site_type_symbol
 _atom_site_label
 _atom_site_symmetry_multiplicity
 _atom_site_fract_x
 _atom_site_fract_y
 _atom_site_fract_z
 _atom_site_occupancy
  Nb  Nb0  1  0.56884400  0.43115600  0.75000000  1
  Nb  Nb1  1  0.43115600  0.56884400  0.25000000  1
  Nb  Nb2  1  0.29739000  0.70261000  0.75000000  1
  Nb  Nb3  1  0.70261000  0.29739000  0.25000000  1
  B  B4  1  0.97701800  0.02298200  0.75000000  1
  B  B5  1  0.02298200  0.97701800  0.25000000  1
  B  B6  1  0.88426100  0.11573900  0.75000000  1
  B  B7  1  0.11573900  0.88426100  0.25000000  1
  B  B8  1  0.16517000  0.83483000  0.75000000  1
  B  B9  1  0.83483000  0.16517000  0.25000000  1
