# generated using pymatgen
data_Tb6Al43Cr4
_symmetry_space_group_name_H-M   'P 1'
_cell_length_a   10.96122808
_cell_length_b   10.96122808
_cell_length_c   17.55535300
_cell_angle_alpha   90.00000000
_cell_angle_beta   90.00000000
_cell_angle_gamma   120.00000050
_symmetry_Int_Tables_number   1
_chemical_formula_structural   Tb6Al43Cr4
_chemical_formula_sum   'Tb12 Al86 Cr8'
_cell_volume   1826.66381391
_cell_formula_units_Z   2
loop_
 _symmetry_equiv_pos_site_id
 _symmetry_equiv_pos_as_xyz
  1  'x, y, z'
loop_
 _atom_site_type_symbol
 _atom_site_label
 _atom_site_symmetry_multiplicity
 _atom_site_fract_x
 _atom_site_fract_y
 _atom_site_fract_z
 _atom_site_occupancy
  Tb  Tb0  1  0.47059500  0.47059500  0.90476400  1
  Tb  Tb1  1  0.52940500  0.00000000  0.90476400  1
  Tb  Tb2  1  0.00000000  0.52940500  0.90476400  1
  Tb  Tb3  1  0.52940500  0.52940500  0.09523600  1
  Tb  Tb4  1  0.47059500  0.00000000  0.09523600  1
  Tb  Tb5  1  0.00000000  0.47059500  0.09523600  1
  Tb  Tb6  1  0.52940500  0.52940500  0.40476400  1
  Tb  Tb7  1  0.47059500  0.00000000  0.40476400  1
  Tb  Tb8  1  0.00000000  0.47059500  0.40476400  1
  Tb  Tb9  1  0.47059500  0.47059500  0.59523600  1
  Tb  Tb10  1  0.52940500  0.00000000  0.59523600  1
  Tb  Tb11  1  0.00000000  0.52940500  0.59523600  1
  Al  Al12  1  0.84022800  0.23099400  0.83458100  1
  Al  Al13  1  0.76900600  0.60923400  0.83458100  1
  Al  Al14  1  0.39076600  0.15977200  0.83458100  1
  Al  Al15  1  0.23099400  0.84022800  0.83458100  1
  Al  Al16  1  0.60923400  0.76900600  0.83458100  1
  Al  Al17  1  0.15977200  0.39076600  0.83458100  1
  Al  Al18  1  0.15977200  0.76900600  0.16541900  1
  Al  Al19  1  0.23099400  0.39076600  0.16541900  1
  Al  Al20  1  0.60923400  0.84022800  0.16541900  1
  Al  Al21  1  0.76900600  0.15977200  0.16541900  1
  Al  Al22  1  0.39076600  0.23099400  0.16541900  1
  Al  Al23  1  0.84022800  0.60923400  0.16541900  1
  Al  Al24  1  0.15977200  0.76900600  0.33458100  1
  Al  Al25  1  0.23099400  0.39076600  0.33458100  1
  Al  Al26  1  0.60923400  0.84022800  0.33458100  1
  Al  Al27  1  0.76900600  0.15977200  0.33458100  1
  Al  Al28  1  0.39076600  0.23099400  0.33458100  1
  Al  Al29  1  0.84022800  0.60923400  0.33458100  1
  Al  Al30  1  0.84022800  0.23099400  0.66541900  1
  Al  Al31  1  0.76900600  0.60923400  0.66541900  1
  Al  Al32  1  0.39076600  0.15977200  0.66541900  1
  Al  Al33  1  0.23099400  0.84022800  0.66541900  1
  Al  Al34  1  0.60923400  0.76900600  0.66541900  1
  Al  Al35  1  0.15977200  0.39076600  0.66541900  1
  Al  Al36  1  0.84549200  0.84549200  0.38428100  1
  Al  Al37  1  0.15450800  0.00000000  0.38428100  1
  Al  Al38  1  0.00000000  0.15450800  0.38428100  1
  Al  Al39  1  0.15450800  0.15450800  0.61571900  1
  Al  Al40  1  0.84549200  0.00000000  0.61571900  1
  Al  Al41  1  0.00000000  0.84549200  0.61571900  1
  Al  Al42  1  0.15450800  0.15450800  0.88428100  1
  Al  Al43  1  0.84549200  0.00000000  0.88428100  1
  Al  Al44  1  0.00000000  0.84549200  0.88428100  1
  Al  Al45  1  0.84549200  0.84549200  0.11571900  1
  Al  Al46  1  0.15450800  0.00000000  0.11571900  1
  Al  Al47  1  0.00000000  0.15450800  0.11571900  1
  Al  Al48  1  0.74869300  0.74869300  0.96925000  1
  Al  Al49  1  0.25130700  0.00000000  0.96925000  1
  Al  Al50  1  0.00000000  0.25130700  0.96925000  1
  Al  Al51  1  0.25130700  0.25130700  0.03075000  1
  Al  Al52  1  0.74869300  0.00000000  0.03075000  1
  Al  Al53  1  0.00000000  0.74869300  0.03075000  1
  Al  Al54  1  0.25130700  0.25130700  0.46925000  1
  Al  Al55  1  0.74869300  0.00000000  0.46925000  1
  Al  Al56  1  0.00000000  0.74869300  0.46925000  1
  Al  Al57  1  0.74869300  0.74869300  0.53075000  1
  Al  Al58  1  0.25130700  0.00000000  0.53075000  1
  Al  Al59  1  0.00000000  0.25130700  0.53075000  1
  Al  Al60  1  0.85536600  0.45103600  0.75000000  1
  Al  Al61  1  0.54896400  0.40433100  0.75000000  1
  Al  Al62  1  0.59566900  0.14463400  0.75000000  1
  Al  Al63  1  0.45103600  0.85536600  0.75000000  1
  Al  Al64  1  0.40433100  0.54896400  0.75000000  1
  Al  Al65  1  0.14463400  0.59566900  0.75000000  1
  Al  Al66  1  0.14463400  0.54896400  0.25000000  1
  Al  Al67  1  0.45103600  0.59566900  0.25000000  1
  Al  Al68  1  0.40433100  0.85536600  0.25000000  1
  Al  Al69  1  0.54896400  0.14463400  0.25000000  1
  Al  Al70  1  0.59566900  0.45103600  0.25000000  1
  Al  Al71  1  0.85536600  0.40433100  0.25000000  1
  Al  Al72  1  0.75308500  0.24691500  0.00000000  1
  Al  Al73  1  0.75308500  0.50617000  0.00000000  1
  Al  Al74  1  0.49383000  0.24691500  0.00000000  1
  Al  Al75  1  0.24691500  0.75308500  0.00000000  1
  Al  Al76  1  0.50617000  0.75308500  0.00000000  1
  Al  Al77  1  0.24691500  0.49383000  0.00000000  1
  Al  Al78  1  0.24691500  0.75308500  0.50000000  1
  Al  Al79  1  0.24691500  0.49383000  0.50000000  1
  Al  Al80  1  0.50617000  0.75308500  0.50000000  1
  Al  Al81  1  0.75308500  0.24691500  0.50000000  1
  Al  Al82  1  0.49383000  0.24691500  0.50000000  1
  Al  Al83  1  0.75308500  0.50617000  0.50000000  1
  Al  Al84  1  0.66666700  0.33333300  0.87214200  1
  Al  Al85  1  0.33333300  0.66666700  0.87214200  1
  Al  Al86  1  0.33333300  0.66666700  0.12785800  1
  Al  Al87  1  0.66666700  0.33333300  0.12785800  1
  Al  Al88  1  0.33333300  0.66666700  0.37214200  1
  Al  Al89  1  0.66666700  0.33333300  0.37214200  1
  Al  Al90  1  0.66666700  0.33333300  0.62785800  1
  Al  Al91  1  0.33333300  0.66666700  0.62785800  1
  Al  Al92  1  0.85538700  0.85538700  0.75000000  1
  Al  Al93  1  0.14461300  0.00000000  0.75000000  1
  Al  Al94  1  0.00000000  0.14461300  0.75000000  1
  Al  Al95  1  0.14461300  0.14461300  0.25000000  1
  Al  Al96  1  0.85538700  0.00000000  0.25000000  1
  Al  Al97  1  0.00000000  0.85538700  0.25000000  1
  Cr  Cr98  1  0.26954400  0.26954400  0.75000000  1
  Cr  Cr99  1  0.73045600  0.00000000  0.75000000  1
  Cr  Cr100  1  0.00000000  0.73045600  0.75000000  1
  Cr  Cr101  1  0.73045600  0.73045600  0.25000000  1
  Cr  Cr102  1  0.26954400  0.00000000  0.25000000  1
  Cr  Cr103  1  0.00000000  0.26954400  0.25000000  1
  Cr  Cr104  1  0.00000000  0.00000000  0.00000000  1
  Cr  Cr105  1  0.00000000  0.00000000  0.50000000  1
