# generated using pymatgen
data_K2CrF5
_symmetry_space_group_name_H-M   'P 1'
_cell_length_a   7.48359700
_cell_length_b   13.05096200
_cell_length_c   20.61458600
_cell_angle_alpha   90.00000000
_cell_angle_beta   90.00000000
_cell_angle_gamma   90.00000000
_symmetry_Int_Tables_number   1
_chemical_formula_structural   K2CrF5
_chemical_formula_sum   'K32 Cr16 F80'
_cell_volume   2013.38827294
_cell_formula_units_Z   16
loop_
 _symmetry_equiv_pos_site_id
 _symmetry_equiv_pos_as_xyz
  1  'x, y, z'
loop_
 _atom_site_type_symbol
 _atom_site_label
 _atom_site_symmetry_multiplicity
 _atom_site_fract_x
 _atom_site_fract_y
 _atom_site_fract_z
 _atom_site_occupancy
  K  K0  1  0.00000000  0.57366000  0.25000000  1
  K  K1  1  0.00000000  0.42634000  0.75000000  1
  K  K2  1  0.50000000  0.92634000  0.75000000  1
  K  K3  1  0.50000000  0.07366000  0.25000000  1
  K  K4  1  0.00000000  0.03730300  0.25000000  1
  K  K5  1  0.00000000  0.96269700  0.75000000  1
  K  K6  1  0.50000000  0.46269700  0.75000000  1
  K  K7  1  0.50000000  0.53730300  0.25000000  1
  K  K8  1  0.14629600  0.28817200  0.16327000  1
  K  K9  1  0.85370400  0.71182800  0.83673000  1
  K  K10  1  0.35370400  0.21182800  0.66327000  1
  K  K11  1  0.85370400  0.28817200  0.33673000  1
  K  K12  1  0.64629600  0.78817200  0.33673000  1
  K  K13  1  0.14629600  0.71182800  0.66327000  1
  K  K14  1  0.64629600  0.21182800  0.83673000  1
  K  K15  1  0.35370400  0.78817200  0.16327000  1
  K  K16  1  0.51145000  0.26828000  0.00661200  1
  K  K17  1  0.48855000  0.73172000  0.99338800  1
  K  K18  1  0.98855000  0.23172000  0.50661200  1
  K  K19  1  0.48855000  0.26828000  0.49338800  1
  K  K20  1  0.01145000  0.76828000  0.49338800  1
  K  K21  1  0.51145000  0.73172000  0.50661200  1
  K  K22  1  0.01145000  0.23172000  0.99338800  1
  K  K23  1  0.98855000  0.76828000  0.00661200  1
  K  K24  1  0.34178200  0.02140100  0.41626200  1
  K  K25  1  0.65821800  0.97859900  0.58373800  1
  K  K26  1  0.15821800  0.47859900  0.91626200  1
  K  K27  1  0.65821800  0.02140100  0.08373800  1
  K  K28  1  0.84178200  0.52140100  0.08373800  1
  K  K29  1  0.34178200  0.97859900  0.91626200  1
  K  K30  1  0.84178200  0.47859900  0.58373800  1
  K  K31  1  0.15821800  0.52140100  0.41626200  1
  Cr  Cr32  1  0.16545300  0.00034200  0.07757800  1
  Cr  Cr33  1  0.83454700  0.99965800  0.92242200  1
  Cr  Cr34  1  0.33454700  0.49965800  0.57757800  1
  Cr  Cr35  1  0.83454700  0.00034200  0.42242200  1
  Cr  Cr36  1  0.66545300  0.50034200  0.42242200  1
  Cr  Cr37  1  0.16545300  0.99965800  0.57757800  1
  Cr  Cr38  1  0.66545300  0.49965800  0.92242200  1
  Cr  Cr39  1  0.33454700  0.50034200  0.07757800  1
  Cr  Cr40  1  0.34018300  0.30419000  0.32827800  1
  Cr  Cr41  1  0.65981700  0.69581000  0.67172200  1
  Cr  Cr42  1  0.15981700  0.19581000  0.82827800  1
  Cr  Cr43  1  0.65981700  0.30419000  0.17172200  1
  Cr  Cr44  1  0.84018300  0.80419000  0.17172200  1
  Cr  Cr45  1  0.34018300  0.69581000  0.82827800  1
  Cr  Cr46  1  0.84018300  0.19581000  0.67172200  1
  Cr  Cr47  1  0.15981700  0.80419000  0.32827800  1
  F  F48  1  0.21933000  0.37935200  0.03978700  1
  F  F49  1  0.78067000  0.62064800  0.96021300  1
  F  F50  1  0.28067000  0.12064800  0.53978700  1
  F  F51  1  0.78067000  0.37935200  0.46021300  1
  F  F52  1  0.71933000  0.87935200  0.46021300  1
  F  F53  1  0.21933000  0.62064800  0.53978700  1
  F  F54  1  0.71933000  0.12064800  0.96021300  1
  F  F55  1  0.28067000  0.87935200  0.03978700  1
  F  F56  1  0.20407600  0.42042300  0.29639300  1
  F  F57  1  0.79592400  0.57957700  0.70360700  1
  F  F58  1  0.29592400  0.07957700  0.79639300  1
  F  F59  1  0.79592400  0.42042300  0.20360700  1
  F  F60  1  0.70407600  0.92042300  0.20360700  1
  F  F61  1  0.20407600  0.57957700  0.79639300  1
  F  F62  1  0.70407600  0.07957700  0.70360700  1
  F  F63  1  0.29592400  0.92042300  0.29639300  1
  F  F64  1  0.50659600  0.19750700  0.14006400  1
  F  F65  1  0.49340400  0.80249300  0.85993600  1
  F  F66  1  0.99340400  0.30249300  0.64006400  1
  F  F67  1  0.49340400  0.19750700  0.35993600  1
  F  F68  1  0.00659600  0.69750700  0.35993600  1
  F  F69  1  0.50659600  0.80249300  0.64006400  1
  F  F70  1  0.00659600  0.30249300  0.85993600  1
  F  F71  1  0.99340400  0.69750700  0.14006400  1
  F  F72  1  0.18187000  0.49283200  0.15150800  1
  F  F73  1  0.81813000  0.50716800  0.84849200  1
  F  F74  1  0.31813000  0.00716800  0.65150800  1
  F  F75  1  0.81813000  0.49283200  0.34849200  1
  F  F76  1  0.68187000  0.99283200  0.34849200  1
  F  F77  1  0.18187000  0.50716800  0.65150800  1
  F  F78  1  0.68187000  0.00716800  0.84849200  1
  F  F79  1  0.31813000  0.99283200  0.15150800  1
  F  F80  1  0.00000000  0.00000000  0.00000000  1
  F  F81  1  0.50000000  0.50000000  0.50000000  1
  F  F82  1  0.00000000  0.00000000  0.50000000  1
  F  F83  1  0.50000000  0.50000000  0.00000000  1
  F  F84  1  0.00000000  0.82193800  0.25000000  1
  F  F85  1  0.00000000  0.17806200  0.75000000  1
  F  F86  1  0.50000000  0.67806200  0.75000000  1
  F  F87  1  0.50000000  0.32193800  0.25000000  1
  F  F88  1  0.19075600  0.29833900  0.40350400  1
  F  F89  1  0.80924400  0.70166100  0.59649600  1
  F  F90  1  0.30924400  0.20166100  0.90350400  1
  F  F91  1  0.80924400  0.29833900  0.09649600  1
  F  F92  1  0.69075600  0.79833900  0.09649600  1
  F  F93  1  0.19075600  0.70166100  0.90350400  1
  F  F94  1  0.69075600  0.20166100  0.59649600  1
  F  F95  1  0.30924400  0.79833900  0.40350400  1
  F  F96  1  0.02835300  0.11108200  0.11246400  1
  F  F97  1  0.97164700  0.88891800  0.88753600  1
  F  F98  1  0.47164700  0.38891800  0.61246400  1
  F  F99  1  0.97164700  0.11108200  0.38753600  1
  F  F100  1  0.52835300  0.61108200  0.38753600  1
  F  F101  1  0.02835300  0.88891800  0.61246400  1
  F  F102  1  0.52835300  0.38891800  0.88753600  1
  F  F103  1  0.47164700  0.61108200  0.11246400  1
  F  F104  1  0.20199900  0.20606300  0.27932000  1
  F  F105  1  0.79800100  0.79393700  0.72068000  1
  F  F106  1  0.29800100  0.29393700  0.77932000  1
  F  F107  1  0.79800100  0.20606300  0.22068000  1
  F  F108  1  0.70199900  0.70606300  0.22068000  1
  F  F109  1  0.20199900  0.79393700  0.77932000  1
  F  F110  1  0.70199900  0.29393700  0.72068000  1
  F  F111  1  0.29800100  0.70606300  0.27932000  1
  F  F112  1  0.50498500  0.40475100  0.12328500  1
  F  F113  1  0.49501500  0.59524900  0.87671500  1
  F  F114  1  0.99501500  0.09524900  0.62328500  1
  F  F115  1  0.49501500  0.40475100  0.37671500  1
  F  F116  1  0.00498500  0.90475100  0.37671500  1
  F  F117  1  0.50498500  0.59524900  0.62328500  1
  F  F118  1  0.00498500  0.09524900  0.87671500  1
  F  F119  1  0.99501500  0.90475100  0.12328500  1
  F  F120  1  0.32093700  0.08940000  0.03025700  1
  F  F121  1  0.67906300  0.91060000  0.96974300  1
  F  F122  1  0.17906300  0.41060000  0.53025700  1
  F  F123  1  0.67906300  0.08940000  0.46974300  1
  F  F124  1  0.82093700  0.58940000  0.46974300  1
  F  F125  1  0.32093700  0.91060000  0.53025700  1
  F  F126  1  0.82093700  0.41060000  0.96974300  1
  F  F127  1  0.17906300  0.58940000  0.03025700  1
