# generated using pymatgen
data_K2Hg3S4
_symmetry_space_group_name_H-M   'P 1'
_cell_length_a   6.69102800
_cell_length_b   10.82101500
_cell_length_c   13.95155000
_cell_angle_alpha   90.00000000
_cell_angle_beta   90.00000000
_cell_angle_gamma   90.00000000
_symmetry_Int_Tables_number   1
_chemical_formula_structural   K2Hg3S4
_chemical_formula_sum   'K8 Hg12 S16'
_cell_volume   1010.14404099
_cell_formula_units_Z   4
loop_
 _symmetry_equiv_pos_site_id
 _symmetry_equiv_pos_as_xyz
  1  'x, y, z'
loop_
 _atom_site_type_symbol
 _atom_site_label
 _atom_site_symmetry_multiplicity
 _atom_site_fract_x
 _atom_site_fract_y
 _atom_site_fract_z
 _atom_site_occupancy
  K  K0  1  0.73407600  0.87894900  0.50184800  1
  K  K1  1  0.26592400  0.12105100  0.49815200  1
  K  K2  1  0.76592400  0.62105100  0.00184800  1
  K  K3  1  0.73407600  0.12105100  0.99815200  1
  K  K4  1  0.23407600  0.37894900  0.99815200  1
  K  K5  1  0.26592400  0.87894900  0.00184800  1
  K  K6  1  0.76592400  0.37894900  0.49815200  1
  K  K7  1  0.23407600  0.62105100  0.50184800  1
  Hg  Hg8  1  0.58402800  0.50000000  0.75000000  1
  Hg  Hg9  1  0.41597200  0.50000000  0.25000000  1
  Hg  Hg10  1  0.91597200  0.00000000  0.25000000  1
  Hg  Hg11  1  0.08402800  0.00000000  0.75000000  1
  Hg  Hg12  1  0.58587600  0.84171600  0.75844500  1
  Hg  Hg13  1  0.41412400  0.15828400  0.24155500  1
  Hg  Hg14  1  0.91412400  0.65828400  0.25844500  1
  Hg  Hg15  1  0.58587600  0.15828400  0.74155500  1
  Hg  Hg16  1  0.08587600  0.34171600  0.74155500  1
  Hg  Hg17  1  0.41412400  0.84171600  0.25844500  1
  Hg  Hg18  1  0.91412400  0.34171600  0.24155500  1
  Hg  Hg19  1  0.08587600  0.65828400  0.75844500  1
  S  S20  1  0.82596100  0.63294200  0.64149200  1
  S  S21  1  0.17403900  0.36705800  0.35850800  1
  S  S22  1  0.67403900  0.86705800  0.14149200  1
  S  S23  1  0.82596100  0.36705800  0.85850800  1
  S  S24  1  0.32596100  0.13294200  0.85850800  1
  S  S25  1  0.17403900  0.63294200  0.14149200  1
  S  S26  1  0.67403900  0.13294200  0.35850800  1
  S  S27  1  0.32596100  0.86705800  0.64149200  1
  S  S28  1  0.86137000  0.87089000  0.86752200  1
  S  S29  1  0.13863000  0.12911000  0.13247800  1
  S  S30  1  0.63863000  0.62911000  0.36752200  1
  S  S31  1  0.86137000  0.12911000  0.63247800  1
  S  S32  1  0.36137000  0.37089000  0.63247800  1
  S  S33  1  0.13863000  0.87089000  0.36752200  1
  S  S34  1  0.63863000  0.37089000  0.13247800  1
  S  S35  1  0.36137000  0.62911000  0.86752200  1
