# generated using pymatgen
data_K2EuF5
_symmetry_space_group_name_H-M   'P 1'
_cell_length_a   6.73259400
_cell_length_b   7.60014000
_cell_length_c   11.17449900
_cell_angle_alpha   90.00000000
_cell_angle_beta   90.00000000
_cell_angle_gamma   90.00000000
_symmetry_Int_Tables_number   1
_chemical_formula_structural   K2EuF5
_chemical_formula_sum   'K8 Eu4 F20'
_cell_volume   571.78410607
_cell_formula_units_Z   4
loop_
 _symmetry_equiv_pos_site_id
 _symmetry_equiv_pos_as_xyz
  1  'x, y, z'
loop_
 _atom_site_type_symbol
 _atom_site_label
 _atom_site_symmetry_multiplicity
 _atom_site_fract_x
 _atom_site_fract_y
 _atom_site_fract_z
 _atom_site_occupancy
  K  K0  1  0.52544700  0.49763600  0.82821600  1
  K  K1  1  0.47455300  0.50236400  0.17178400  1
  K  K2  1  0.02544700  0.50236400  0.67178400  1
  K  K3  1  0.47455300  0.99763600  0.17178400  1
  K  K4  1  0.97455300  0.49763600  0.32821600  1
  K  K5  1  0.52544700  0.00236400  0.82821600  1
  K  K6  1  0.97455300  0.00236400  0.32821600  1
  K  K7  1  0.02544700  0.99763600  0.67178400  1
  Eu  Eu8  1  0.56089100  0.75000000  0.50043600  1
  Eu  Eu9  1  0.43910900  0.25000000  0.49956400  1
  Eu  Eu10  1  0.06089100  0.25000000  0.99956400  1
  Eu  Eu11  1  0.93910900  0.75000000  0.00043600  1
  F  F12  1  0.82763800  0.75000000  0.80619600  1
  F  F13  1  0.17236200  0.25000000  0.19380400  1
  F  F14  1  0.32763800  0.25000000  0.69380400  1
  F  F15  1  0.67236200  0.75000000  0.30619600  1
  F  F16  1  0.36408200  0.75000000  0.66621200  1
  F  F17  1  0.63591800  0.25000000  0.33378800  1
  F  F18  1  0.86408200  0.25000000  0.83378800  1
  F  F19  1  0.13591800  0.75000000  0.16621200  1
  F  F20  1  0.90525600  0.75000000  0.51064100  1
  F  F21  1  0.09474400  0.25000000  0.48935900  1
  F  F22  1  0.40525600  0.25000000  0.98935900  1
  F  F23  1  0.59474400  0.75000000  0.01064100  1
  F  F24  1  0.64420900  0.03087700  0.58318800  1
  F  F25  1  0.35579100  0.96912300  0.41681200  1
  F  F26  1  0.14420900  0.96912300  0.91681200  1
  F  F27  1  0.35579100  0.53087700  0.41681200  1
  F  F28  1  0.85579100  0.03087700  0.08318800  1
  F  F29  1  0.64420900  0.46912300  0.58318800  1
  F  F30  1  0.85579100  0.46912300  0.08318800  1
  F  F31  1  0.14420900  0.53087700  0.91681200  1
