# generated using pymatgen
data_SmVO4
_symmetry_space_group_name_H-M   'P 1'
_cell_length_a   6.12035076
_cell_length_b   6.12035076
_cell_length_c   6.12035076
_cell_angle_alpha   106.09915920
_cell_angle_beta   106.09915920
_cell_angle_gamma   116.44886257
_symmetry_Int_Tables_number   1
_chemical_formula_structural   SmVO4
_chemical_formula_sum   'Sm2 V2 O8'
_cell_volume   174.49863116
_cell_formula_units_Z   2
loop_
 _symmetry_equiv_pos_site_id
 _symmetry_equiv_pos_as_xyz
  1  'x, y, z'
loop_
 _atom_site_type_symbol
 _atom_site_label
 _atom_site_symmetry_multiplicity
 _atom_site_fract_x
 _atom_site_fract_y
 _atom_site_fract_z
 _atom_site_occupancy
  Sm  Sm0  1  0.25000000  0.75000000  0.50000000  1
  Sm  Sm1  1  0.00000000  0.00000000  0.00000000  1
  V  V2  1  0.50000000  0.50000000  0.00000000  1
  V  V3  1  0.75000000  0.25000000  0.50000000  1
  O  O4  1  0.32687500  0.14510500  0.81823000  1
  O  O5  1  0.32687500  0.50864500  0.18177000  1
  O  O6  1  0.85489500  0.67312500  0.18177000  1
  O  O7  1  0.92312500  0.24135500  0.31823000  1
  O  O8  1  0.92312500  0.60489500  0.68177000  1
  O  O9  1  0.49135500  0.67312500  0.81823000  1
  O  O10  1  0.75864500  0.07687500  0.68177000  1
  O  O11  1  0.39510500  0.07687500  0.31823000  1
