# generated using pymatgen
data_CaNi3(P2O7)2
_symmetry_space_group_name_H-M   'P 1'
_cell_length_a   7.66210400
_cell_length_b   7.39724000
_cell_length_c   9.46443158
_cell_angle_alpha   68.00335908
_cell_angle_beta   90.00000000
_cell_angle_gamma   90.00000000
_symmetry_Int_Tables_number   1
_chemical_formula_structural   CaNi3(P2O7)2
_chemical_formula_sum   'Ca2 Ni6 P8 O28'
_cell_volume   497.38013367
_cell_formula_units_Z   2
loop_
 _symmetry_equiv_pos_site_id
 _symmetry_equiv_pos_as_xyz
  1  'x, y, z'
loop_
 _atom_site_type_symbol
 _atom_site_label
 _atom_site_symmetry_multiplicity
 _atom_site_fract_x
 _atom_site_fract_y
 _atom_site_fract_z
 _atom_site_occupancy
  Ca  Ca0  1  0.00000000  0.50000000  0.00000000  1
  Ca  Ca1  1  0.50000000  0.50000000  0.50000000  1
  Ni  Ni2  1  0.12732600  0.81516900  0.52451400  1
  Ni  Ni3  1  0.62732600  0.18483100  0.97548600  1
  Ni  Ni4  1  0.87267400  0.18483100  0.47548600  1
  Ni  Ni5  1  0.37267400  0.81516900  0.02451400  1
  Ni  Ni6  1  0.00000000  0.00000000  0.00000000  1
  Ni  Ni7  1  0.50000000  0.00000000  0.50000000  1
  P  P8  1  0.93472800  0.40204500  0.70324700  1
  P  P9  1  0.43472800  0.59795500  0.79675300  1
  P  P10  1  0.06527200  0.59795500  0.29675300  1
  P  P11  1  0.56527200  0.40204500  0.20324700  1
  P  P12  1  0.20416400  0.11893000  0.69106700  1
  P  P13  1  0.70416400  0.88107000  0.80893300  1
  P  P14  1  0.79583600  0.88107000  0.30893300  1
  P  P15  1  0.29583600  0.11893000  0.19106700  1
  O  O16  1  0.37785700  0.16937000  0.60638100  1
  O  O17  1  0.87785700  0.83063000  0.89361900  1
  O  O18  1  0.62214300  0.83063000  0.39361900  1
  O  O19  1  0.12214300  0.16937000  0.10638100  1
  O  O20  1  0.38112100  0.72712100  0.62973900  1
  O  O21  1  0.88112100  0.27287900  0.87026100  1
  O  O22  1  0.61887900  0.27287900  0.37026100  1
  O  O23  1  0.11887900  0.72712100  0.12973900  1
  O  O24  1  0.80738600  0.37883700  0.58728800  1
  O  O25  1  0.30738600  0.62116300  0.91271200  1
  O  O26  1  0.19261400  0.62116300  0.41271200  1
  O  O27  1  0.69261400  0.37883700  0.08728800  1
  O  O28  1  0.12288600  0.32526300  0.67522900  1
  O  O29  1  0.62288600  0.67473700  0.82477100  1
  O  O30  1  0.87711400  0.67473700  0.32477100  1
  O  O31  1  0.37711400  0.32526300  0.17522900  1
  O  O32  1  0.52394800  0.60742900  0.19545300  1
  O  O33  1  0.02394800  0.39257100  0.30454700  1
  O  O34  1  0.47605200  0.39257100  0.80454700  1
  O  O35  1  0.97605200  0.60742900  0.69545300  1
  O  O36  1  0.78781000  0.99233200  0.13588400  1
  O  O37  1  0.28781000  0.00766800  0.36411600  1
  O  O38  1  0.21219000  0.00766800  0.86411600  1
  O  O39  1  0.71219000  0.99233200  0.63588400  1
  O  O40  1  0.42382200  0.02840800  0.11138800  1
  O  O41  1  0.92382200  0.97159200  0.38861200  1
  O  O42  1  0.57617800  0.97159200  0.88861200  1
  O  O43  1  0.07617800  0.02840800  0.61138800  1
