# generated using pymatgen
data_Nd23Cd4Pt7
_symmetry_space_group_name_H-M   'P 1'
_cell_length_a   10.09837500
_cell_length_b   10.09837500
_cell_length_c   22.84586600
_cell_angle_alpha   90.00000000
_cell_angle_beta   90.00000000
_cell_angle_gamma   119.99999346
_symmetry_Int_Tables_number   1
_chemical_formula_structural   Nd23Cd4Pt7
_chemical_formula_sum   'Nd46 Cd8 Pt14'
_cell_volume   2017.62882433
_cell_formula_units_Z   2
loop_
 _symmetry_equiv_pos_site_id
 _symmetry_equiv_pos_as_xyz
  1  'x, y, z'
loop_
 _atom_site_type_symbol
 _atom_site_label
 _atom_site_symmetry_multiplicity
 _atom_site_fract_x
 _atom_site_fract_y
 _atom_site_fract_z
 _atom_site_occupancy
  Nd  Nd0  1  0.20540100  0.41080300  0.72093300  1
  Nd  Nd1  1  0.20540100  0.79459900  0.72093300  1
  Nd  Nd2  1  0.79459900  0.58919700  0.22093300  1
  Nd  Nd3  1  0.58919700  0.79459900  0.72093300  1
  Nd  Nd4  1  0.79459900  0.20540100  0.22093300  1
  Nd  Nd5  1  0.41080300  0.20540100  0.22093300  1
  Nd  Nd6  1  0.79428000  0.58856000  0.94540300  1
  Nd  Nd7  1  0.79428000  0.20572000  0.94540300  1
  Nd  Nd8  1  0.20572000  0.41144000  0.44540300  1
  Nd  Nd9  1  0.41144000  0.20572000  0.94540300  1
  Nd  Nd10  1  0.20572000  0.79428000  0.44540300  1
  Nd  Nd11  1  0.58856000  0.79428000  0.44540300  1
  Nd  Nd12  1  0.21133400  0.42266800  0.98939200  1
  Nd  Nd13  1  0.21133400  0.78866600  0.98939200  1
  Nd  Nd14  1  0.78866600  0.57733200  0.48939200  1
  Nd  Nd15  1  0.57733200  0.78866600  0.98939200  1
  Nd  Nd16  1  0.78866600  0.21133400  0.48939200  1
  Nd  Nd17  1  0.42266800  0.21133400  0.48939200  1
  Nd  Nd18  1  0.87114100  0.74228300  0.63627400  1
  Nd  Nd19  1  0.87114100  0.12885900  0.63627400  1
  Nd  Nd20  1  0.12885900  0.25771700  0.13627400  1
  Nd  Nd21  1  0.25771700  0.12885900  0.63627400  1
  Nd  Nd22  1  0.12885900  0.87114100  0.13627400  1
  Nd  Nd23  1  0.74228300  0.87114100  0.13627400  1
  Nd  Nd24  1  0.45645100  0.91290200  0.85625900  1
  Nd  Nd25  1  0.45645100  0.54354900  0.85625900  1
  Nd  Nd26  1  0.54354900  0.08709800  0.35625900  1
  Nd  Nd27  1  0.08709800  0.54354900  0.85625900  1
  Nd  Nd28  1  0.54354900  0.45645100  0.35625900  1
  Nd  Nd29  1  0.91290200  0.45645100  0.35625900  1
  Nd  Nd30  1  0.00000000  0.00000000  0.99606700  1
  Nd  Nd31  1  0.00000000  0.00000000  0.49606700  1
  Nd  Nd32  1  0.46130800  0.92261500  0.58488400  1
  Nd  Nd33  1  0.46130800  0.53869200  0.58488400  1
  Nd  Nd34  1  0.53869200  0.07738500  0.08488400  1
  Nd  Nd35  1  0.07738500  0.53869200  0.58488400  1
  Nd  Nd36  1  0.53869200  0.46130800  0.08488400  1
  Nd  Nd37  1  0.92261500  0.46130800  0.08488400  1
  Nd  Nd38  1  0.80146300  0.60292500  0.78398800  1
  Nd  Nd39  1  0.80146300  0.19853700  0.78398800  1
  Nd  Nd40  1  0.19853700  0.39707500  0.28398800  1
  Nd  Nd41  1  0.39707500  0.19853700  0.78398800  1
  Nd  Nd42  1  0.19853700  0.80146300  0.28398800  1
  Nd  Nd43  1  0.60292500  0.80146300  0.28398800  1
  Nd  Nd44  1  0.66666700  0.33333300  0.64231300  1
  Nd  Nd45  1  0.33333300  0.66666700  0.14231300  1
  Cd  Cd46  1  0.00000000  0.00000000  0.74882700  1
  Cd  Cd47  1  0.00000000  0.00000000  0.24882700  1
  Cd  Cd48  1  0.10752700  0.21505500  0.86347000  1
  Cd  Cd49  1  0.10752700  0.89247300  0.86347000  1
  Cd  Cd50  1  0.89247300  0.78494500  0.36347000  1
  Cd  Cd51  1  0.78494500  0.89247300  0.86347000  1
  Cd  Cd52  1  0.89247300  0.10752700  0.36347000  1
  Cd  Cd53  1  0.21505500  0.10752700  0.36347000  1
  Pt  Pt54  1  0.52284600  0.04569300  0.71081500  1
  Pt  Pt55  1  0.52284600  0.47715400  0.71081500  1
  Pt  Pt56  1  0.47715400  0.95430700  0.21081500  1
  Pt  Pt57  1  0.95430700  0.47715400  0.71081500  1
  Pt  Pt58  1  0.47715400  0.52284600  0.21081500  1
  Pt  Pt59  1  0.04569300  0.52284600  0.21081500  1
  Pt  Pt60  1  0.66666700  0.33333300  0.86120800  1
  Pt  Pt61  1  0.33333300  0.66666700  0.36120800  1
  Pt  Pt62  1  0.14286500  0.28573000  0.56468200  1
  Pt  Pt63  1  0.14286500  0.85713500  0.56468200  1
  Pt  Pt64  1  0.85713500  0.71427000  0.06468200  1
  Pt  Pt65  1  0.71427000  0.85713500  0.56468200  1
  Pt  Pt66  1  0.85713500  0.14286500  0.06468200  1
  Pt  Pt67  1  0.28573000  0.14286500  0.06468200  1
