# generated using pymatgen
data_Al2Ag2Bi2S3Cl8
_symmetry_space_group_name_H-M   'P 1'
_cell_length_a   7.01076064
_cell_length_b   7.01076064
_cell_length_c   22.79432500
_cell_angle_alpha   90.00000000
_cell_angle_beta   90.00000000
_cell_angle_gamma   120.00000605
_symmetry_Int_Tables_number   1
_chemical_formula_structural   Al2Ag2Bi2S3Cl8
_chemical_formula_sum   'Al4 Ag4 Bi4 S6 Cl16'
_cell_volume   970.25886845
_cell_formula_units_Z   2
loop_
 _symmetry_equiv_pos_site_id
 _symmetry_equiv_pos_as_xyz
  1  'x, y, z'
loop_
 _atom_site_type_symbol
 _atom_site_label
 _atom_site_symmetry_multiplicity
 _atom_site_fract_x
 _atom_site_fract_y
 _atom_site_fract_z
 _atom_site_occupancy
  Al  Al0  1  0.66666700  0.33333300  0.91968200  1
  Al  Al1  1  0.66666700  0.33333300  0.58031800  1
  Al  Al2  1  0.33333300  0.66666700  0.41968200  1
  Al  Al3  1  0.33333300  0.66666700  0.08031800  1
  Ag  Ag4  1  0.66666700  0.33333300  0.75000000  1
  Ag  Ag5  1  0.33333300  0.66666700  0.25000000  1
  Ag  Ag6  1  0.00000000  0.00000000  0.75000000  1
  Ag  Ag7  1  0.00000000  0.00000000  0.25000000  1
  Bi  Bi8  1  0.33333300  0.66666700  0.82716300  1
  Bi  Bi9  1  0.33333300  0.66666700  0.67283700  1
  Bi  Bi10  1  0.66666700  0.33333300  0.32716300  1
  Bi  Bi11  1  0.66666700  0.33333300  0.17283700  1
  S  S12  1  0.62016800  0.66801100  0.75000000  1
  S  S13  1  0.33198900  0.95215700  0.75000000  1
  S  S14  1  0.04784300  0.37983200  0.75000000  1
  S  S15  1  0.66801100  0.62016800  0.25000000  1
  S  S16  1  0.95215700  0.33198900  0.25000000  1
  S  S17  1  0.37983200  0.04784300  0.25000000  1
  Cl  Cl18  1  0.66666700  0.33333300  0.01282400  1
  Cl  Cl19  1  0.66666700  0.33333300  0.48717600  1
  Cl  Cl20  1  0.33333300  0.66666700  0.51282400  1
  Cl  Cl21  1  0.33333300  0.66666700  0.98717600  1
  Cl  Cl22  1  0.75144800  0.09672100  0.88389200  1
  Cl  Cl23  1  0.90327900  0.65472700  0.88389200  1
  Cl  Cl24  1  0.34527300  0.24855200  0.88389200  1
  Cl  Cl25  1  0.75144800  0.09672100  0.61610800  1
  Cl  Cl26  1  0.90327900  0.65472700  0.61610800  1
  Cl  Cl27  1  0.34527300  0.24855200  0.61610800  1
  Cl  Cl28  1  0.09672100  0.75144800  0.38389200  1
  Cl  Cl29  1  0.65472700  0.90327900  0.38389200  1
  Cl  Cl30  1  0.24855200  0.34527300  0.38389200  1
  Cl  Cl31  1  0.09672100  0.75144800  0.11610800  1
  Cl  Cl32  1  0.65472700  0.90327900  0.11610800  1
  Cl  Cl33  1  0.24855200  0.34527300  0.11610800  1
