# generated using pymatgen
data_Er2Cr2C3
_symmetry_space_group_name_H-M   'P 1'
_cell_length_a   5.48582521
_cell_length_b   5.48582521
_cell_length_c   5.50824135
_cell_angle_alpha   74.56952728
_cell_angle_beta   74.56952728
_cell_angle_gamma   35.39981952
_symmetry_Int_Tables_number   1
_chemical_formula_structural   Er2Cr2C3
_chemical_formula_sum   'Er2 Cr2 C3'
_cell_volume   92.20387547
_cell_formula_units_Z   1
loop_
 _symmetry_equiv_pos_site_id
 _symmetry_equiv_pos_as_xyz
  1  'x, y, z'
loop_
 _atom_site_type_symbol
 _atom_site_label
 _atom_site_symmetry_multiplicity
 _atom_site_fract_x
 _atom_site_fract_y
 _atom_site_fract_z
 _atom_site_occupancy
  Er  Er0  1  0.39204600  0.39204600  0.81615800  1
  Er  Er1  1  0.60795400  0.60795400  0.18384200  1
  Cr  Cr2  1  0.15536400  0.15536400  0.61282700  1
  Cr  Cr3  1  0.84463600  0.84463600  0.38717300  1
  C  C4  1  0.00000000  0.00000000  0.50000000  1
  C  C5  1  0.71786200  0.71786200  0.73263300  1
  C  C6  1  0.28213800  0.28213800  0.26736700  1
