# generated using pymatgen
data_Y3BBr3
_symmetry_space_group_name_H-M   'P 1'
_cell_length_a   9.75561509
_cell_length_b   9.75561509
_cell_length_c   9.75561509
_cell_angle_alpha   109.47122063
_cell_angle_beta   109.47122063
_cell_angle_gamma   109.47122063
_symmetry_Int_Tables_number   1
_chemical_formula_structural   Y3BBr3
_chemical_formula_sum   'Y12 B4 Br12'
_cell_volume   714.73011273
_cell_formula_units_Z   4
loop_
 _symmetry_equiv_pos_site_id
 _symmetry_equiv_pos_as_xyz
  1  'x, y, z'
loop_
 _atom_site_type_symbol
 _atom_site_label
 _atom_site_symmetry_multiplicity
 _atom_site_fract_x
 _atom_site_fract_y
 _atom_site_fract_z
 _atom_site_occupancy
  Y  Y0  1  0.45938900  0.47969400  0.22969400  1
  Y  Y1  1  0.75000000  0.22969400  0.27030600  1
  Y  Y2  1  0.75000000  0.02030600  0.47969400  1
  Y  Y3  1  0.22969400  0.45938900  0.47969400  1
  Y  Y4  1  0.27030600  0.75000000  0.22969400  1
  Y  Y5  1  0.04061100  0.27030600  0.02030600  1
  Y  Y6  1  0.02030600  0.04061100  0.27030600  1
  Y  Y7  1  0.47969400  0.75000000  0.02030600  1
  Y  Y8  1  0.47969400  0.22969400  0.45938900  1
  Y  Y9  1  0.02030600  0.47969400  0.75000000  1
  Y  Y10  1  0.27030600  0.02030600  0.04061100  1
  Y  Y11  1  0.22969400  0.27030600  0.75000000  1
  B  B12  1  0.25000000  0.25000000  0.25000000  1
  B  B13  1  0.50000000  0.00000000  0.25000000  1
  B  B14  1  0.00000000  0.25000000  0.50000000  1
  B  B15  1  0.25000000  0.50000000  0.00000000  1
  Br  Br16  1  0.25000000  0.75819600  0.74180400  1
  Br  Br17  1  0.51639300  0.50819600  0.75819600  1
  Br  Br18  1  0.98360700  0.74180400  0.99180400  1
  Br  Br19  1  0.74180400  0.25000000  0.75819600  1
  Br  Br20  1  0.99180400  0.98360700  0.74180400  1
  Br  Br21  1  0.25000000  0.99180400  0.50819600  1
  Br  Br22  1  0.75819600  0.51639300  0.50819600  1
  Br  Br23  1  0.50819600  0.25000000  0.99180400  1
  Br  Br24  1  0.75819600  0.74180400  0.25000000  1
  Br  Br25  1  0.74180400  0.99180400  0.98360700  1
  Br  Br26  1  0.99180400  0.50819600  0.25000000  1
  Br  Br27  1  0.50819600  0.75819600  0.51639300  1
