# generated using pymatgen
data_Tm5Re2C7
_symmetry_space_group_name_H-M   'P 1'
_cell_length_a   8.21465655
_cell_length_b   8.21465655
_cell_length_c   3.37880800
_cell_angle_alpha   90.00000000
_cell_angle_beta   90.00000000
_cell_angle_gamma   122.04402398
_symmetry_Int_Tables_number   1
_chemical_formula_structural   Tm5Re2C7
_chemical_formula_sum   'Tm5 Re2 C7'
_cell_volume   193.26540631
_cell_formula_units_Z   1
loop_
 _symmetry_equiv_pos_site_id
 _symmetry_equiv_pos_as_xyz
  1  'x, y, z'
loop_
 _atom_site_type_symbol
 _atom_site_label
 _atom_site_symmetry_multiplicity
 _atom_site_fract_x
 _atom_site_fract_y
 _atom_site_fract_z
 _atom_site_occupancy
  Tm  Tm0  1  0.50000000  0.50000000  0.00000000  1
  Tm  Tm1  1  0.07715000  0.33588300  0.50000000  1
  Tm  Tm2  1  0.92285000  0.66411700  0.50000000  1
  Tm  Tm3  1  0.66411700  0.92285000  0.50000000  1
  Tm  Tm4  1  0.33588300  0.07715000  0.50000000  1
  Re  Re5  1  0.71464900  0.28535100  0.00000000  1
  Re  Re6  1  0.28535100  0.71464900  0.00000000  1
  C  C7  1  0.62436200  0.37563800  0.50000000  1
  C  C8  1  0.37563800  0.62436200  0.50000000  1
  C  C9  1  0.00000000  0.00000000  0.00000000  1
  C  C10  1  0.17081400  0.17081400  0.00000000  1
  C  C11  1  0.82918600  0.82918600  0.00000000  1
  C  C12  1  0.00000000  0.50000000  0.00000000  1
  C  C13  1  0.50000000  0.00000000  0.00000000  1
