# generated using pymatgen
data_Ti2Te2P
_symmetry_space_group_name_H-M   'P 1'
_cell_length_a   10.15733339
_cell_length_b   10.15733339
_cell_length_c   10.15733374
_cell_angle_alpha   20.73755553
_cell_angle_beta   20.73755553
_cell_angle_gamma   20.73755829
_symmetry_Int_Tables_number   1
_chemical_formula_structural   Ti2Te2P
_chemical_formula_sum   'Ti2 Te2 P1'
_cell_volume   115.02860858
_cell_formula_units_Z   1
loop_
 _symmetry_equiv_pos_site_id
 _symmetry_equiv_pos_as_xyz
  1  'x, y, z'
loop_
 _atom_site_type_symbol
 _atom_site_label
 _atom_site_symmetry_multiplicity
 _atom_site_fract_x
 _atom_site_fract_y
 _atom_site_fract_z
 _atom_site_occupancy
  Ti  Ti0  1  0.37773900  0.37773900  0.37773900  1
  Ti  Ti1  1  0.62226100  0.62226100  0.62226100  1
  Te  Te2  1  0.77197000  0.77197000  0.77197000  1
  Te  Te3  1  0.22803000  0.22803000  0.22803000  1
  P  P4  1  0.00000000  0.00000000  0.00000000  1
