# generated using pymatgen
data_Sr(In4Ir)2
_symmetry_space_group_name_H-M   'P 1'
_cell_length_a   4.49545900
_cell_length_b   14.15501900
_cell_length_c   16.23174800
_cell_angle_alpha   90.00000000
_cell_angle_beta   90.00000000
_cell_angle_gamma   90.00000000
_symmetry_Int_Tables_number   1
_chemical_formula_structural   Sr(In4Ir)2
_chemical_formula_sum   'Sr4 In32 Ir8'
_cell_volume   1032.87981270
_cell_formula_units_Z   4
loop_
 _symmetry_equiv_pos_site_id
 _symmetry_equiv_pos_as_xyz
  1  'x, y, z'
loop_
 _atom_site_type_symbol
 _atom_site_label
 _atom_site_symmetry_multiplicity
 _atom_site_fract_x
 _atom_site_fract_y
 _atom_site_fract_z
 _atom_site_occupancy
  Sr  Sr0  1  0.00000000  0.84194600  0.18085400  1
  Sr  Sr1  1  0.00000000  0.15805400  0.81914600  1
  Sr  Sr2  1  0.00000000  0.34194600  0.31914600  1
  Sr  Sr3  1  0.00000000  0.65805400  0.68085400  1
  In  In4  1  0.50000000  0.51980200  0.36627400  1
  In  In5  1  0.50000000  0.48019800  0.63372600  1
  In  In6  1  0.50000000  0.01980200  0.13372600  1
  In  In7  1  0.50000000  0.98019800  0.86627400  1
  In  In8  1  0.50000000  0.66648900  0.12213600  1
  In  In9  1  0.50000000  0.33351100  0.87786400  1
  In  In10  1  0.50000000  0.16648900  0.37786400  1
  In  In11  1  0.50000000  0.83351100  0.62213600  1
  In  In12  1  0.50000000  0.73967400  0.32330800  1
  In  In13  1  0.50000000  0.26032600  0.67669200  1
  In  In14  1  0.50000000  0.23967400  0.17669200  1
  In  In15  1  0.50000000  0.76032600  0.82330800  1
  In  In16  1  0.50000000  0.82984400  0.01035300  1
  In  In17  1  0.50000000  0.17015600  0.98964700  1
  In  In18  1  0.50000000  0.32984400  0.48964700  1
  In  In19  1  0.50000000  0.67015600  0.51035300  1
  In  In20  1  0.50000000  0.94906900  0.31746400  1
  In  In21  1  0.50000000  0.05093100  0.68253600  1
  In  In22  1  0.50000000  0.44906900  0.18253600  1
  In  In23  1  0.50000000  0.55093100  0.81746400  1
  In  In24  1  0.00000000  0.59975800  0.24697800  1
  In  In25  1  0.00000000  0.40024200  0.75302200  1
  In  In26  1  0.00000000  0.09975800  0.25302200  1
  In  In27  1  0.00000000  0.90024200  0.74697800  1
  In  In28  1  0.00000000  0.83991100  0.45601100  1
  In  In29  1  0.00000000  0.16008900  0.54398900  1
  In  In30  1  0.00000000  0.33991100  0.04398900  1
  In  In31  1  0.00000000  0.66008900  0.95601100  1
  In  In32  1  0.50000000  0.50000000  0.00000000  1
  In  In33  1  0.50000000  0.00000000  0.50000000  1
  In  In34  1  0.00000000  0.50000000  0.50000000  1
  In  In35  1  0.00000000  0.00000000  0.00000000  1
  Ir  Ir36  1  0.00000000  0.53554300  0.09505800  1
  Ir  Ir37  1  0.00000000  0.46445700  0.90494200  1
  Ir  Ir38  1  0.00000000  0.03554300  0.40494200  1
  Ir  Ir39  1  0.00000000  0.96445700  0.59505800  1
  Ir  Ir40  1  0.00000000  0.65455800  0.40386300  1
  Ir  Ir41  1  0.00000000  0.34544200  0.59613700  1
  Ir  Ir42  1  0.00000000  0.15455800  0.09613700  1
  Ir  Ir43  1  0.00000000  0.84544200  0.90386300  1
