# generated using pymatgen
data_Ti5Ge4
_symmetry_space_group_name_H-M   'P 1'
_cell_length_a   6.68209900
_cell_length_b   6.77593500
_cell_length_c   12.88851800
_cell_angle_alpha   90.00000000
_cell_angle_beta   90.00000000
_cell_angle_gamma   90.00000000
_symmetry_Int_Tables_number   1
_chemical_formula_structural   Ti5Ge4
_chemical_formula_sum   'Ti20 Ge16'
_cell_volume   583.55946760
_cell_formula_units_Z   4
loop_
 _symmetry_equiv_pos_site_id
 _symmetry_equiv_pos_as_xyz
  1  'x, y, z'
loop_
 _atom_site_type_symbol
 _atom_site_label
 _atom_site_symmetry_multiplicity
 _atom_site_fract_x
 _atom_site_fract_y
 _atom_site_fract_z
 _atom_site_occupancy
  Ti  Ti0  1  0.82636200  0.49482100  0.75000000  1
  Ti  Ti1  1  0.32636200  0.00517900  0.75000000  1
  Ti  Ti2  1  0.17363800  0.50517900  0.25000000  1
  Ti  Ti3  1  0.67363800  0.99482100  0.25000000  1
  Ti  Ti4  1  0.64933300  0.16595400  0.62592900  1
  Ti  Ti5  1  0.14933300  0.33404600  0.87407100  1
  Ti  Ti6  1  0.35066700  0.83404600  0.12592900  1
  Ti  Ti7  1  0.85066700  0.66595400  0.37407100  1
  Ti  Ti8  1  0.35066700  0.83404600  0.37407100  1
  Ti  Ti9  1  0.85066700  0.66595400  0.12592900  1
  Ti  Ti10  1  0.64933300  0.16595400  0.87407100  1
  Ti  Ti11  1  0.14933300  0.33404600  0.62592900  1
  Ti  Ti12  1  0.48514200  0.67835600  0.59366800  1
  Ti  Ti13  1  0.98514200  0.82164400  0.90633200  1
  Ti  Ti14  1  0.51485800  0.32164400  0.09366800  1
  Ti  Ti15  1  0.01485800  0.17835600  0.40633200  1
  Ti  Ti16  1  0.51485800  0.32164400  0.40633200  1
  Ti  Ti17  1  0.01485800  0.17835600  0.09366800  1
  Ti  Ti18  1  0.48514200  0.67835600  0.90633200  1
  Ti  Ti19  1  0.98514200  0.82164400  0.59366800  1
  Ge  Ge20  1  0.68171300  0.84733700  0.75000000  1
  Ge  Ge21  1  0.18171300  0.65266300  0.75000000  1
  Ge  Ge22  1  0.31828700  0.15266300  0.25000000  1
  Ge  Ge23  1  0.81828700  0.34733700  0.25000000  1
  Ge  Ge24  1  0.45342500  0.38927900  0.75000000  1
  Ge  Ge25  1  0.95342500  0.11072100  0.75000000  1
  Ge  Ge26  1  0.54657500  0.61072100  0.25000000  1
  Ge  Ge27  1  0.04657500  0.88927900  0.25000000  1
  Ge  Ge28  1  0.69323300  0.96357600  0.46019600  1
  Ge  Ge29  1  0.19323300  0.53642400  0.03980400  1
  Ge  Ge30  1  0.30676700  0.03642400  0.96019600  1
  Ge  Ge31  1  0.80676700  0.46357600  0.53980400  1
  Ge  Ge32  1  0.30676700  0.03642400  0.53980400  1
  Ge  Ge33  1  0.80676700  0.46357600  0.96019600  1
  Ge  Ge34  1  0.69323300  0.96357600  0.03980400  1
  Ge  Ge35  1  0.19323300  0.53642400  0.46019600  1
