# generated using pymatgen
data_CaMoO4
_symmetry_space_group_name_H-M   'P 1'
_cell_length_a   6.90823664
_cell_length_b   6.90823664
_cell_length_c   6.90823664
_cell_angle_alpha   134.78999251
_cell_angle_beta   134.78999251
_cell_angle_gamma   65.85667938
_symmetry_Int_Tables_number   1
_chemical_formula_structural   CaMoO4
_chemical_formula_sum   'Ca2 Mo2 O8'
_cell_volume   163.53762147
_cell_formula_units_Z   2
loop_
 _symmetry_equiv_pos_site_id
 _symmetry_equiv_pos_as_xyz
  1  'x, y, z'
loop_
 _atom_site_type_symbol
 _atom_site_label
 _atom_site_symmetry_multiplicity
 _atom_site_fract_x
 _atom_site_fract_y
 _atom_site_fract_z
 _atom_site_occupancy
  Ca  Ca0  1  0.25000000  0.75000000  0.50000000  1
  Ca  Ca1  1  0.50000000  0.50000000  0.00000000  1
  Mo  Mo2  1  0.75000000  0.25000000  0.50000000  1
  Mo  Mo3  1  0.00000000  0.00000000  0.00000000  1
  O  O4  1  0.81380300  0.41137600  0.89317600  1
  O  O5  1  0.51819900  0.92062600  0.10682400  1
  O  O6  1  0.67062600  0.06380300  0.90242700  1
  O  O7  1  0.16137600  0.76819900  0.09757300  1
  O  O8  1  0.93619700  0.83862400  0.60682400  1
  O  O9  1  0.23180100  0.32937400  0.39317600  1
  O  O10  1  0.07937400  0.18619700  0.59757300  1
  O  O11  1  0.58862400  0.48180100  0.40242700  1
