# generated using pymatgen
data_Y3Sc2(GaO4)3
_symmetry_space_group_name_H-M   'P 1'
_cell_length_a   10.92331525
_cell_length_b   10.92331525
_cell_length_c   10.92331525
_cell_angle_alpha   109.47122063
_cell_angle_beta   109.47122063
_cell_angle_gamma   109.47122063
_symmetry_Int_Tables_number   1
_chemical_formula_structural   Y3Sc2(GaO4)3
_chemical_formula_sum   'Y12 Sc8 Ga12 O48'
_cell_volume   1003.32471947
_cell_formula_units_Z   4
loop_
 _symmetry_equiv_pos_site_id
 _symmetry_equiv_pos_as_xyz
  1  'x, y, z'
loop_
 _atom_site_type_symbol
 _atom_site_label
 _atom_site_symmetry_multiplicity
 _atom_site_fract_x
 _atom_site_fract_y
 _atom_site_fract_z
 _atom_site_occupancy
  Y  Y0  1  0.25000000  0.37500000  0.12500000  1
  Y  Y1  1  0.75000000  0.62500000  0.87500000  1
  Y  Y2  1  0.75000000  0.12500000  0.37500000  1
  Y  Y3  1  0.12500000  0.25000000  0.37500000  1
  Y  Y4  1  0.37500000  0.75000000  0.12500000  1
  Y  Y5  1  0.25000000  0.87500000  0.62500000  1
  Y  Y6  1  0.87500000  0.75000000  0.62500000  1
  Y  Y7  1  0.62500000  0.25000000  0.87500000  1
  Y  Y8  1  0.37500000  0.12500000  0.25000000  1
  Y  Y9  1  0.62500000  0.87500000  0.75000000  1
  Y  Y10  1  0.12500000  0.37500000  0.75000000  1
  Y  Y11  1  0.87500000  0.62500000  0.25000000  1
  Sc  Sc12  1  0.00000000  0.00000000  0.00000000  1
  Sc  Sc13  1  0.50000000  0.00000000  0.50000000  1
  Sc  Sc14  1  0.00000000  0.50000000  0.50000000  1
  Sc  Sc15  1  0.50000000  0.00000000  0.00000000  1
  Sc  Sc16  1  0.50000000  0.50000000  0.00000000  1
  Sc  Sc17  1  0.50000000  0.50000000  0.50000000  1
  Sc  Sc18  1  0.00000000  0.00000000  0.50000000  1
  Sc  Sc19  1  0.00000000  0.50000000  0.00000000  1
  Ga  Ga20  1  0.25000000  0.62500000  0.37500000  1
  Ga  Ga21  1  0.75000000  0.37500000  0.62500000  1
  Ga  Ga22  1  0.75000000  0.87500000  0.12500000  1
  Ga  Ga23  1  0.37500000  0.25000000  0.62500000  1
  Ga  Ga24  1  0.62500000  0.75000000  0.37500000  1
  Ga  Ga25  1  0.25000000  0.12500000  0.87500000  1
  Ga  Ga26  1  0.12500000  0.75000000  0.87500000  1
  Ga  Ga27  1  0.87500000  0.25000000  0.12500000  1
  Ga  Ga28  1  0.62500000  0.37500000  0.25000000  1
  Ga  Ga29  1  0.37500000  0.62500000  0.75000000  1
  Ga  Ga30  1  0.87500000  0.12500000  0.75000000  1
  Ga  Ga31  1  0.12500000  0.87500000  0.25000000  1
  O  O32  1  0.46955800  0.37321000  0.28726900  1
  O  O33  1  0.53044200  0.62679000  0.71273100  1
  O  O34  1  0.58594100  0.18228900  0.21273100  1
  O  O35  1  0.91405900  0.12679000  0.59634800  1
  O  O36  1  0.28726900  0.46955800  0.37321000  1
  O  O37  1  0.31771100  0.91405900  0.28726900  1
  O  O38  1  0.41405900  0.81771100  0.78726900  1
  O  O39  1  0.08594100  0.87321000  0.40365200  1
  O  O40  1  0.71273100  0.53044200  0.62679000  1
  O  O41  1  0.68228900  0.08594100  0.71273100  1
  O  O42  1  0.03044200  0.31771100  0.90365200  1
  O  O43  1  0.21273100  0.58594100  0.18228900  1
  O  O44  1  0.12679000  0.03044200  0.21273100  1
  O  O45  1  0.96955800  0.68228900  0.09634800  1
  O  O46  1  0.78726900  0.41405900  0.81771100  1
  O  O47  1  0.87321000  0.96955800  0.78726900  1
  O  O48  1  0.59634800  0.91405900  0.12679000  1
  O  O49  1  0.18228900  0.46955800  0.59634800  1
  O  O50  1  0.40365200  0.08594100  0.87321000  1
  O  O51  1  0.81771100  0.53044200  0.40365200  1
  O  O52  1  0.90365200  0.03044200  0.31771100  1
  O  O53  1  0.37321000  0.58594100  0.90365200  1
  O  O54  1  0.09634800  0.96955800  0.68228900  1
  O  O55  1  0.62679000  0.41405900  0.09634800  1
  O  O56  1  0.37321000  0.28726900  0.46955800  1
  O  O57  1  0.58594100  0.90365200  0.37321000  1
  O  O58  1  0.62679000  0.71273100  0.53044200  1
  O  O59  1  0.41405900  0.09634800  0.62679000  1
  O  O60  1  0.12679000  0.59634800  0.91405900  1
  O  O61  1  0.03044200  0.21273100  0.12679000  1
  O  O62  1  0.87321000  0.40365200  0.08594100  1
  O  O63  1  0.96955800  0.78726900  0.87321000  1
  O  O64  1  0.31771100  0.90365200  0.03044200  1
  O  O65  1  0.91405900  0.28726900  0.31771100  1
  O  O66  1  0.68228900  0.09634800  0.96955800  1
  O  O67  1  0.08594100  0.71273100  0.68228900  1
  O  O68  1  0.18228900  0.21273100  0.58594100  1
  O  O69  1  0.46955800  0.59634800  0.18228900  1
  O  O70  1  0.81771100  0.78726900  0.41405900  1
  O  O71  1  0.53044200  0.40365200  0.81771100  1
  O  O72  1  0.28726900  0.31771100  0.91405900  1
  O  O73  1  0.71273100  0.68228900  0.08594100  1
  O  O74  1  0.21273100  0.12679000  0.03044200  1
  O  O75  1  0.78726900  0.87321000  0.96955800  1
  O  O76  1  0.90365200  0.37321000  0.58594100  1
  O  O77  1  0.09634800  0.62679000  0.41405900  1
  O  O78  1  0.59634800  0.18228900  0.46955800  1
  O  O79  1  0.40365200  0.81771100  0.53044200  1
