# generated using pymatgen
data_Rb2U(PdS2)3
_symmetry_space_group_name_H-M   'P 1'
_cell_length_a   11.28360490
_cell_length_b   9.78587278
_cell_length_c   8.92000653
_cell_angle_alpha   74.03779606
_cell_angle_beta   56.49377968
_cell_angle_gamma   49.46842426
_symmetry_Int_Tables_number   1
_chemical_formula_structural   Rb2U(PdS2)3
_chemical_formula_sum   'Rb4 U2 Pd6 S12'
_cell_volume   618.73412937
_cell_formula_units_Z   2
loop_
 _symmetry_equiv_pos_site_id
 _symmetry_equiv_pos_as_xyz
  1  'x, y, z'
loop_
 _atom_site_type_symbol
 _atom_site_label
 _atom_site_symmetry_multiplicity
 _atom_site_fract_x
 _atom_site_fract_y
 _atom_site_fract_z
 _atom_site_occupancy
  Rb  Rb0  1  0.75000000  0.75000000  0.75000000  1
  Rb  Rb1  1  0.25000000  0.25000000  0.25000000  1
  Rb  Rb2  1  0.29648800  0.70351200  0.29648800  1
  Rb  Rb3  1  0.70351200  0.29648800  0.70351200  1
  U  U4  1  0.83205400  0.83205400  0.16794600  1
  U  U5  1  0.16794600  0.16794600  0.83205400  1
  Pd  Pd6  1  0.50372400  0.17762200  0.49627600  1
  Pd  Pd7  1  0.82237800  0.49627600  0.17762200  1
  Pd  Pd8  1  0.49627600  0.82237800  0.50372400  1
  Pd  Pd9  1  0.17762200  0.50372400  0.82237800  1
  Pd  Pd10  1  0.82699400  0.17300600  0.17300600  1
  Pd  Pd11  1  0.17300600  0.82699400  0.82699400  1
  S  S12  1  0.81985400  0.97543500  0.39720400  1
  S  S13  1  0.80750700  0.39720400  0.97543500  1
  S  S14  1  0.39720400  0.80750700  0.81985400  1
  S  S15  1  0.97543500  0.81985400  0.80750700  1
  S  S16  1  0.18014600  0.02456500  0.60279600  1
  S  S17  1  0.19249300  0.60279600  0.02456500  1
  S  S18  1  0.60279600  0.19249300  0.18014600  1
  S  S19  1  0.02456500  0.18014600  0.19249300  1
  S  S20  1  0.81119300  0.59621000  0.40379000  1
  S  S21  1  0.18880700  0.40379000  0.59621000  1
  S  S22  1  0.40379000  0.18880700  0.81119300  1
  S  S23  1  0.59621000  0.81119300  0.18880700  1
