# generated using pymatgen
data_Dy3Rh2
_symmetry_space_group_name_H-M   'P 1'
_cell_length_a   14.91347232
_cell_length_b   14.91347232
_cell_length_c   14.91347232
_cell_angle_alpha   135.76413961
_cell_angle_beta   135.76413961
_cell_angle_gamma   64.34519056
_symmetry_Int_Tables_number   1
_chemical_formula_structural   Dy3Rh2
_chemical_formula_sum   'Dy42 Rh28'
_cell_volume   1592.05940382
_cell_formula_units_Z   14
loop_
 _symmetry_equiv_pos_site_id
 _symmetry_equiv_pos_as_xyz
  1  'x, y, z'
loop_
 _atom_site_type_symbol
 _atom_site_label
 _atom_site_symmetry_multiplicity
 _atom_site_fract_x
 _atom_site_fract_y
 _atom_site_fract_z
 _atom_site_occupancy
  Dy  Dy0  1  0.63214500  0.50452000  0.27926000  1
  Dy  Dy1  1  0.22525900  0.35288500  0.72074000  1
  Dy  Dy2  1  0.13214500  0.85288500  0.12762600  1
  Dy  Dy3  1  0.72525900  0.00452000  0.87237400  1
  Dy  Dy4  1  0.35288500  0.63214500  0.12762600  1
  Dy  Dy5  1  0.50452000  0.22525900  0.87237400  1
  Dy  Dy6  1  0.00452000  0.13214500  0.27926000  1
  Dy  Dy7  1  0.85288500  0.72525900  0.72074000  1
  Dy  Dy8  1  0.36785500  0.49548000  0.72074000  1
  Dy  Dy9  1  0.77474100  0.64711500  0.27926000  1
  Dy  Dy10  1  0.86785500  0.14711500  0.87237400  1
  Dy  Dy11  1  0.27474100  0.99548000  0.12762600  1
  Dy  Dy12  1  0.64711500  0.36785500  0.87237400  1
  Dy  Dy13  1  0.49548000  0.77474100  0.12762600  1
  Dy  Dy14  1  0.99548000  0.86785500  0.72074000  1
  Dy  Dy15  1  0.14711500  0.27474100  0.27926000  1
  Dy  Dy16  1  0.38649300  0.51685200  0.29015400  1
  Dy  Dy17  1  0.22669800  0.09633900  0.70984600  1
  Dy  Dy18  1  0.88649300  0.59633900  0.86964100  1
  Dy  Dy19  1  0.72669800  0.01685200  0.13035900  1
  Dy  Dy20  1  0.09633900  0.38649300  0.86964100  1
  Dy  Dy21  1  0.51685200  0.22669800  0.13035900  1
  Dy  Dy22  1  0.01685200  0.88649300  0.29015400  1
  Dy  Dy23  1  0.59633900  0.72669800  0.70984600  1
  Dy  Dy24  1  0.61350700  0.48314800  0.70984600  1
  Dy  Dy25  1  0.77330200  0.90366100  0.29015400  1
  Dy  Dy26  1  0.11350700  0.40366100  0.13035900  1
  Dy  Dy27  1  0.27330200  0.98314800  0.86964100  1
  Dy  Dy28  1  0.90366100  0.61350700  0.13035900  1
  Dy  Dy29  1  0.48314800  0.77330200  0.86964100  1
  Dy  Dy30  1  0.98314800  0.11350700  0.70984600  1
  Dy  Dy31  1  0.40366100  0.27330200  0.29015400  1
  Dy  Dy32  1  0.84960100  0.34960100  0.19920100  1
  Dy  Dy33  1  0.15039900  0.65039900  0.80079900  1
  Dy  Dy34  1  0.34960100  0.15039900  0.50000000  1
  Dy  Dy35  1  0.65039900  0.84960100  0.50000000  1
  Dy  Dy36  1  0.38810500  0.88810500  0.50000000  1
  Dy  Dy37  1  0.88810500  0.38810500  0.50000000  1
  Dy  Dy38  1  0.61189500  0.11189500  0.50000000  1
  Dy  Dy39  1  0.11189500  0.61189500  0.50000000  1
  Dy  Dy40  1  0.25000000  0.75000000  0.50000000  1
  Dy  Dy41  1  0.75000000  0.25000000  0.50000000  1
  Rh  Rh42  1  0.71488800  0.21488800  0.14206300  1
  Rh  Rh43  1  0.07282500  0.57282500  0.85793700  1
  Rh  Rh44  1  0.21488800  0.07282500  0.50000000  1
  Rh  Rh45  1  0.57282500  0.71488800  0.50000000  1
  Rh  Rh46  1  0.28511200  0.78511200  0.85793700  1
  Rh  Rh47  1  0.92717500  0.42717500  0.14206300  1
  Rh  Rh48  1  0.78511200  0.92717500  0.50000000  1
  Rh  Rh49  1  0.42717500  0.28511200  0.50000000  1
  Rh  Rh50  1  0.46591500  0.96591500  0.80845300  1
  Rh  Rh51  1  0.15746300  0.65746300  0.19154700  1
  Rh  Rh52  1  0.96591500  0.15746300  0.50000000  1
  Rh  Rh53  1  0.65746300  0.46591500  0.50000000  1
  Rh  Rh54  1  0.53408500  0.03408500  0.19154700  1
  Rh  Rh55  1  0.84253700  0.34253700  0.80845300  1
  Rh  Rh56  1  0.03408500  0.84253700  0.50000000  1
  Rh  Rh57  1  0.34253700  0.53408500  0.50000000  1
  Rh  Rh58  1  0.59670500  0.09670500  0.69341100  1
  Rh  Rh59  1  0.40329500  0.90329500  0.30658900  1
  Rh  Rh60  1  0.09670500  0.40329500  0.50000000  1
  Rh  Rh61  1  0.90329500  0.59670500  0.50000000  1
  Rh  Rh62  1  0.36621500  0.36621500  0.00000000  1
  Rh  Rh63  1  0.86621500  0.86621500  0.00000000  1
  Rh  Rh64  1  0.63378500  0.63378500  0.00000000  1
  Rh  Rh65  1  0.13378500  0.13378500  0.00000000  1
  Rh  Rh66  1  0.50000000  0.50000000  0.00000000  1
  Rh  Rh67  1  0.00000000  0.00000000  0.00000000  1
  Rh  Rh68  1  0.25000000  0.25000000  0.00000000  1
  Rh  Rh69  1  0.75000000  0.75000000  0.00000000  1
