# generated using pymatgen
data_Ba(TbS2)2
_symmetry_space_group_name_H-M   'P 1'
_cell_length_a   4.08406400
_cell_length_b   12.36034600
_cell_length_c   14.63457100
_cell_angle_alpha   90.00000000
_cell_angle_beta   90.00000000
_cell_angle_gamma   90.00000000
_symmetry_Int_Tables_number   1
_chemical_formula_structural   Ba(TbS2)2
_chemical_formula_sum   'Ba4 Tb8 S16'
_cell_volume   738.75964368
_cell_formula_units_Z   4
loop_
 _symmetry_equiv_pos_site_id
 _symmetry_equiv_pos_as_xyz
  1  'x, y, z'
loop_
 _atom_site_type_symbol
 _atom_site_label
 _atom_site_symmetry_multiplicity
 _atom_site_fract_x
 _atom_site_fract_y
 _atom_site_fract_z
 _atom_site_occupancy
  Ba  Ba0  1  0.25000000  0.75678400  0.33862500  1
  Ba  Ba1  1  0.25000000  0.25678400  0.16137500  1
  Ba  Ba2  1  0.75000000  0.24321600  0.66137500  1
  Ba  Ba3  1  0.75000000  0.74321600  0.83862500  1
  Tb  Tb4  1  0.25000000  0.43235600  0.39075800  1
  Tb  Tb5  1  0.25000000  0.93235600  0.10924200  1
  Tb  Tb6  1  0.75000000  0.56764400  0.60924200  1
  Tb  Tb7  1  0.75000000  0.06764400  0.89075800  1
  Tb  Tb8  1  0.25000000  0.42062400  0.89848300  1
  Tb  Tb9  1  0.25000000  0.92062400  0.60151700  1
  Tb  Tb10  1  0.75000000  0.57937600  0.10151700  1
  Tb  Tb11  1  0.75000000  0.07937600  0.39848300  1
  S  S12  1  0.25000000  0.20669500  0.83491600  1
  S  S13  1  0.25000000  0.70669500  0.66508400  1
  S  S14  1  0.75000000  0.79330500  0.16508400  1
  S  S15  1  0.75000000  0.29330500  0.33491600  1
  S  S16  1  0.25000000  0.12448400  0.52347600  1
  S  S17  1  0.25000000  0.62448400  0.97652400  1
  S  S18  1  0.75000000  0.87551600  0.47652400  1
  S  S19  1  0.75000000  0.37551600  0.02347600  1
  S  S20  1  0.25000000  0.02327200  0.28328700  1
  S  S21  1  0.25000000  0.52327200  0.21671300  1
  S  S22  1  0.75000000  0.97672800  0.71671300  1
  S  S23  1  0.75000000  0.47672800  0.78328700  1
  S  S24  1  0.25000000  0.41973400  0.57688200  1
  S  S25  1  0.25000000  0.91973400  0.92311800  1
  S  S26  1  0.75000000  0.58026600  0.42311800  1
  S  S27  1  0.75000000  0.08026600  0.07688200  1
