# generated using pymatgen
data_Al2(CN2)3
_symmetry_space_group_name_H-M   'P 1'
_cell_length_a   9.75282183
_cell_length_b   9.75282183
_cell_length_c   9.75282186
_cell_angle_alpha   32.69272913
_cell_angle_beta   32.69272913
_cell_angle_gamma   32.69272412
_symmetry_Int_Tables_number   1
_chemical_formula_structural   Al2(CN2)3
_chemical_formula_sum   'Al4 C6 N12'
_cell_volume   240.72757942
_cell_formula_units_Z   2
loop_
 _symmetry_equiv_pos_site_id
 _symmetry_equiv_pos_as_xyz
  1  'x, y, z'
loop_
 _atom_site_type_symbol
 _atom_site_label
 _atom_site_symmetry_multiplicity
 _atom_site_fract_x
 _atom_site_fract_y
 _atom_site_fract_z
 _atom_site_occupancy
  Al  Al0  1  0.33497900  0.33497900  0.33497900  1
  Al  Al1  1  0.83497900  0.83497900  0.83497900  1
  Al  Al2  1  0.66502100  0.66502100  0.66502100  1
  Al  Al3  1  0.16502100  0.16502100  0.16502100  1
  C  C4  1  0.25000000  0.93739000  0.56261000  1
  C  C5  1  0.56261000  0.25000000  0.93739000  1
  C  C6  1  0.93739000  0.56261000  0.25000000  1
  C  C7  1  0.43739000  0.75000000  0.06261000  1
  C  C8  1  0.06261000  0.43739000  0.75000000  1
  C  C9  1  0.75000000  0.06261000  0.43739000  1
  N  N10  1  0.45874500  0.85041700  0.07063900  1
  N  N11  1  0.07063900  0.45874500  0.85041700  1
  N  N12  1  0.85041700  0.07063900  0.45874500  1
  N  N13  1  0.35041700  0.95874500  0.57063900  1
  N  N14  1  0.57063900  0.35041700  0.95874500  1
  N  N15  1  0.95874500  0.57063900  0.35041700  1
  N  N16  1  0.54125500  0.14958300  0.92936100  1
  N  N17  1  0.92936100  0.54125500  0.14958300  1
  N  N18  1  0.14958300  0.92936100  0.54125500  1
  N  N19  1  0.64958300  0.04125500  0.42936100  1
  N  N20  1  0.42936100  0.64958300  0.04125500  1
  N  N21  1  0.04125500  0.42936100  0.64958300  1
