# generated using pymatgen
data_Sr3MnBiO6
_symmetry_space_group_name_H-M   'P 1'
_cell_length_a   24.01902900
_cell_length_b   5.38530000
_cell_length_c   7.63378487
_cell_angle_alpha   45.08212938
_cell_angle_beta   90.00000000
_cell_angle_gamma   90.00000000
_symmetry_Int_Tables_number   1
_chemical_formula_structural   Sr3MnBiO6
_chemical_formula_sum   'Sr12 Mn4 Bi4 O24'
_cell_volume   699.21688185
_cell_formula_units_Z   4
loop_
 _symmetry_equiv_pos_site_id
 _symmetry_equiv_pos_as_xyz
  1  'x, y, z'
loop_
 _atom_site_type_symbol
 _atom_site_label
 _atom_site_symmetry_multiplicity
 _atom_site_fract_x
 _atom_site_fract_y
 _atom_site_fract_z
 _atom_site_occupancy
  Sr  Sr0  1  0.94383800  0.73926800  0.25400200  1
  Sr  Sr1  1  0.44383800  0.26073200  0.24599800  1
  Sr  Sr2  1  0.55616200  0.73926800  0.75400200  1
  Sr  Sr3  1  0.05616200  0.26073200  0.74599800  1
  Sr  Sr4  1  0.82765400  0.24553100  0.75130000  1
  Sr  Sr5  1  0.32765400  0.75446900  0.74870000  1
  Sr  Sr6  1  0.67305400  0.24406800  0.75269200  1
  Sr  Sr7  1  0.17305400  0.75593200  0.74730800  1
  Sr  Sr8  1  0.32694600  0.75593200  0.24730800  1
  Sr  Sr9  1  0.82694600  0.24406800  0.25269200  1
  Sr  Sr10  1  0.67234600  0.24553100  0.25130000  1
  Sr  Sr11  1  0.17234600  0.75446900  0.24870000  1
  Mn  Mn12  1  0.75526800  0.74836100  0.25044300  1
  Mn  Mn13  1  0.25526800  0.25163900  0.24955700  1
  Mn  Mn14  1  0.24473200  0.25163900  0.74955700  1
  Mn  Mn15  1  0.74473200  0.74836100  0.75044300  1
  Bi  Bi16  1  0.44164000  0.21307700  0.76925700  1
  Bi  Bi17  1  0.94164000  0.78692300  0.73074300  1
  Bi  Bi18  1  0.55836000  0.78692300  0.23074300  1
  Bi  Bi19  1  0.05836000  0.21307700  0.26925700  1
  O  O20  1  0.56167600  0.16792200  0.83163300  1
  O  O21  1  0.06167600  0.83207800  0.66836700  1
  O  O22  1  0.25087500  0.75130600  0.99966300  1
  O  O23  1  0.75087500  0.24869400  0.50033700  1
  O  O24  1  0.55509700  0.17155700  0.24920200  1
  O  O25  1  0.05509700  0.82844300  0.25079800  1
  O  O26  1  0.74912500  0.24869400  0.00033700  1
  O  O27  1  0.24912500  0.75130600  0.49966300  1
  O  O28  1  0.43832400  0.83207800  0.16836700  1
  O  O29  1  0.93832400  0.16792200  0.33163300  1
  O  O30  1  0.84640300  0.75247400  0.24843300  1
  O  O31  1  0.34640300  0.24752600  0.25156700  1
  O  O32  1  0.75059400  0.74943700  0.99980500  1
  O  O33  1  0.25059400  0.25056300  0.50019500  1
  O  O34  1  0.64907000  0.73838800  0.25533300  1
  O  O35  1  0.14907000  0.26161200  0.24466700  1
  O  O36  1  0.24940600  0.25056300  0.00019500  1
  O  O37  1  0.74940600  0.74943700  0.49980500  1
  O  O38  1  0.94490300  0.17155700  0.74920200  1
  O  O39  1  0.44490300  0.82844300  0.75079800  1
  O  O40  1  0.35093000  0.26161200  0.74466700  1
  O  O41  1  0.85093000  0.73838800  0.75533300  1
  O  O42  1  0.65359700  0.75247400  0.74843300  1
  O  O43  1  0.15359700  0.24752600  0.75156700  1
