# generated using pymatgen
data_TmTiGe
_symmetry_space_group_name_H-M   'P 1'
_cell_length_a   4.02628000
_cell_length_b   4.02628000
_cell_length_c   7.57948800
_cell_angle_alpha   90.00000000
_cell_angle_beta   90.00000000
_cell_angle_gamma   90.00000000
_symmetry_Int_Tables_number   1
_chemical_formula_structural   TmTiGe
_chemical_formula_sum   'Tm2 Ti2 Ge2'
_cell_volume   122.87055424
_cell_formula_units_Z   2
loop_
 _symmetry_equiv_pos_site_id
 _symmetry_equiv_pos_as_xyz
  1  'x, y, z'
loop_
 _atom_site_type_symbol
 _atom_site_label
 _atom_site_symmetry_multiplicity
 _atom_site_fract_x
 _atom_site_fract_y
 _atom_site_fract_z
 _atom_site_occupancy
  Tm  Tm0  1  0.00000000  0.50000000  0.34197900  1
  Tm  Tm1  1  0.50000000  0.00000000  0.65802100  1
  Ti  Ti2  1  0.50000000  0.50000000  0.00000000  1
  Ti  Ti3  1  0.00000000  0.00000000  0.00000000  1
  Ge  Ge4  1  0.50000000  0.00000000  0.24936800  1
  Ge  Ge5  1  0.00000000  0.50000000  0.75063200  1
