# generated using pymatgen
data_Na2Eu2B2O7
_symmetry_space_group_name_H-M   'P 1'
_cell_length_a   6.46350300
_cell_length_b   10.90968462
_cell_length_c   10.53151470
_cell_angle_alpha   117.62542087
_cell_angle_beta   90.00000000
_cell_angle_gamma   90.00000000
_symmetry_Int_Tables_number   1
_chemical_formula_structural   Na2Eu2B2O7
_chemical_formula_sum   'Na8 Eu8 B8 O28'
_cell_volume   657.96637582
_cell_formula_units_Z   4
loop_
 _symmetry_equiv_pos_site_id
 _symmetry_equiv_pos_as_xyz
  1  'x, y, z'
loop_
 _atom_site_type_symbol
 _atom_site_label
 _atom_site_symmetry_multiplicity
 _atom_site_fract_x
 _atom_site_fract_y
 _atom_site_fract_z
 _atom_site_occupancy
  Na  Na0  1  0.26274900  0.88966000  0.95305200  1
  Na  Na1  1  0.73725100  0.11034000  0.04694800  1
  Na  Na2  1  0.76274900  0.11034000  0.54694800  1
  Na  Na3  1  0.23725100  0.88966000  0.45305200  1
  Na  Na4  1  0.94258500  0.97726800  0.73768700  1
  Na  Na5  1  0.05741500  0.02273200  0.26231300  1
  Na  Na6  1  0.44258500  0.02273200  0.76231300  1
  Na  Na7  1  0.55741500  0.97726800  0.23768700  1
  Eu  Eu8  1  0.95769100  0.48290000  0.68156700  1
  Eu  Eu9  1  0.04230900  0.51710000  0.31843300  1
  Eu  Eu10  1  0.45769100  0.51710000  0.81843300  1
  Eu  Eu11  1  0.54230900  0.48290000  0.18156700  1
  Eu  Eu12  1  0.58340800  0.68550900  0.59021200  1
  Eu  Eu13  1  0.41659200  0.31449100  0.40978800  1
  Eu  Eu14  1  0.08340800  0.31449100  0.90978800  1
  Eu  Eu15  1  0.91659200  0.68550900  0.09021200  1
  B  B16  1  0.74903700  0.81719500  0.91948800  1
  B  B17  1  0.25096300  0.18280500  0.08051200  1
  B  B18  1  0.24903700  0.18280500  0.58051200  1
  B  B19  1  0.75096300  0.81719500  0.41948800  1
  B  B20  1  0.65284300  0.29059200  0.85008100  1
  B  B21  1  0.34715700  0.70940800  0.14991900  1
  B  B22  1  0.15284300  0.70940800  0.64991900  1
  B  B23  1  0.84715700  0.29059200  0.35008100  1
  O  O24  1  0.75686200  0.34698500  0.77217000  1
  O  O25  1  0.24313800  0.65301500  0.22783000  1
  O  O26  1  0.25686200  0.65301500  0.72783000  1
  O  O27  1  0.74313800  0.34698500  0.27217000  1
  O  O28  1  0.96324800  0.65240800  0.58887700  1
  O  O29  1  0.03675200  0.34759200  0.41112300  1
  O  O30  1  0.46324800  0.34759200  0.91112300  1
  O  O31  1  0.53675200  0.65240800  0.08887700  1
  O  O32  1  0.65116900  0.87346200  0.84214800  1
  O  O33  1  0.34883100  0.12653800  0.15785200  1
  O  O34  1  0.15116900  0.12653800  0.65785200  1
  O  O35  1  0.84883100  0.87346200  0.34214800  1
  O  O36  1  0.62217900  0.47369300  0.59612200  1
  O  O37  1  0.37782100  0.52630700  0.40387800  1
  O  O38  1  0.12217900  0.52630700  0.90387800  1
  O  O39  1  0.87782100  0.47369300  0.09612200  1
  O  O40  1  0.76233600  0.67260600  0.86590400  1
  O  O41  1  0.23766400  0.32739400  0.13409600  1
  O  O42  1  0.26233600  0.32739400  0.63409600  1
  O  O43  1  0.73766400  0.67260600  0.36590400  1
  O  O44  1  0.24156800  0.81717200  0.63626400  1
  O  O45  1  0.75843200  0.18282800  0.36373600  1
  O  O46  1  0.74156800  0.18282800  0.86373600  1
  O  O47  1  0.25843200  0.81717200  0.13626400  1
  O  O48  1  0.66361100  0.89729800  0.55336900  1
  O  O49  1  0.33638900  0.10270200  0.44663100  1
  O  O50  1  0.16361100  0.10270200  0.94663100  1
  O  O51  1  0.83638900  0.89729800  0.05336900  1
