# generated using pymatgen
data_Y2Cr2C3
_symmetry_space_group_name_H-M   'P 1'
_cell_length_a   5.49667730
_cell_length_b   5.49667730
_cell_length_c   5.58001429
_cell_angle_alpha   75.01528876
_cell_angle_beta   75.01528876
_cell_angle_gamma   35.85268923
_symmetry_Int_Tables_number   1
_chemical_formula_structural   Y2Cr2C3
_chemical_formula_sum   'Y2 Cr2 C3'
_cell_volume   95.02853697
_cell_formula_units_Z   1
loop_
 _symmetry_equiv_pos_site_id
 _symmetry_equiv_pos_as_xyz
  1  'x, y, z'
loop_
 _atom_site_type_symbol
 _atom_site_label
 _atom_site_symmetry_multiplicity
 _atom_site_fract_x
 _atom_site_fract_y
 _atom_site_fract_z
 _atom_site_occupancy
  Y  Y0  1  0.39422600  0.39422600  0.31764300  1
  Y  Y1  1  0.60577400  0.60577400  0.68235700  1
  Cr  Cr2  1  0.15667800  0.15667800  0.10887800  1
  Cr  Cr3  1  0.84332200  0.84332200  0.89112200  1
  C  C4  1  0.71404400  0.71404400  0.22841200  1
  C  C5  1  0.28595600  0.28595600  0.77158800  1
  C  C6  1  0.00000000  0.00000000  0.00000000  1
