# generated using pymatgen
data_BaNp(PO4)2
_symmetry_space_group_name_H-M   'P 1'
_cell_length_a   6.96080238
_cell_length_b   6.96080238
_cell_length_c   9.53736893
_cell_angle_alpha   78.28849753
_cell_angle_beta   78.28849753
_cell_angle_gamma   45.97047195
_symmetry_Int_Tables_number   1
_chemical_formula_structural   BaNp(PO4)2
_chemical_formula_sum   'Ba2 Np2 P4 O16'
_cell_volume   324.07313869
_cell_formula_units_Z   2
loop_
 _symmetry_equiv_pos_site_id
 _symmetry_equiv_pos_as_xyz
  1  'x, y, z'
loop_
 _atom_site_type_symbol
 _atom_site_label
 _atom_site_symmetry_multiplicity
 _atom_site_fract_x
 _atom_site_fract_y
 _atom_site_fract_z
 _atom_site_occupancy
  Ba  Ba0  1  0.00000000  0.50000000  0.00000000  1
  Ba  Ba1  1  0.50000000  0.00000000  0.50000000  1
  Np  Np2  1  0.18177400  0.81822600  0.25000000  1
  Np  Np3  1  0.81822600  0.18177400  0.75000000  1
  P  P4  1  0.64829700  0.17631000  0.11103600  1
  P  P5  1  0.82369000  0.35170300  0.38896400  1
  P  P6  1  0.35170300  0.82369000  0.88896400  1
  P  P7  1  0.17631000  0.64829700  0.61103600  1
  O  O8  1  0.79187600  0.90450200  0.20552100  1
  O  O9  1  0.09549800  0.20812400  0.29447900  1
  O  O10  1  0.20812400  0.09549800  0.79447900  1
  O  O11  1  0.90450200  0.79187600  0.70552100  1
  O  O12  1  0.37194500  0.41236400  0.18401000  1
  O  O13  1  0.58763600  0.62805500  0.31599000  1
  O  O14  1  0.62805500  0.58763600  0.81599000  1
  O  O15  1  0.41236400  0.37194500  0.68401000  1
  O  O16  1  0.84570700  0.21574700  0.09006900  1
  O  O17  1  0.78425300  0.15429300  0.40993100  1
  O  O18  1  0.15429300  0.78425300  0.90993100  1
  O  O19  1  0.21574700  0.84570700  0.59006900  1
  O  O20  1  0.59640000  0.15963500  0.96423400  1
  O  O21  1  0.84036500  0.40360000  0.53576600  1
  O  O22  1  0.40360000  0.84036500  0.03576600  1
  O  O23  1  0.15963500  0.59640000  0.46423400  1
