# generated using pymatgen
data_RbGd2CuS4
_symmetry_space_group_name_H-M   'P 1'
_cell_length_a   7.24108826
_cell_length_b   7.24108826
_cell_length_c   13.86110600
_cell_angle_alpha   90.00000000
_cell_angle_beta   90.00000000
_cell_angle_gamma   147.74773149
_symmetry_Int_Tables_number   1
_chemical_formula_structural   RbGd2CuS4
_chemical_formula_sum   'Rb2 Gd4 Cu2 S8'
_cell_volume   387.84701533
_cell_formula_units_Z   2
loop_
 _symmetry_equiv_pos_site_id
 _symmetry_equiv_pos_as_xyz
  1  'x, y, z'
loop_
 _atom_site_type_symbol
 _atom_site_label
 _atom_site_symmetry_multiplicity
 _atom_site_fract_x
 _atom_site_fract_y
 _atom_site_fract_z
 _atom_site_occupancy
  Rb  Rb0  1  0.10663300  0.89336700  0.25000000  1
  Rb  Rb1  1  0.89336700  0.10663300  0.75000000  1
  Gd  Gd2  1  0.36595100  0.63404900  0.43873600  1
  Gd  Gd3  1  0.63404900  0.36595100  0.56126400  1
  Gd  Gd4  1  0.36595100  0.63404900  0.06126400  1
  Gd  Gd5  1  0.63404900  0.36595100  0.93873600  1
  Cu  Cu6  1  0.16554600  0.83445400  0.75000000  1
  Cu  Cu7  1  0.83445400  0.16554600  0.25000000  1
  S  S8  1  0.00000000  0.00000000  0.50000000  1
  S  S9  1  0.00000000  0.00000000  0.00000000  1
  S  S10  1  0.74077800  0.25922200  0.10962100  1
  S  S11  1  0.25922200  0.74077800  0.89037900  1
  S  S12  1  0.57660300  0.42339700  0.75000000  1
  S  S13  1  0.74077800  0.25922200  0.39037900  1
  S  S14  1  0.42339700  0.57660300  0.25000000  1
  S  S15  1  0.25922200  0.74077800  0.60962100  1
