# generated using pymatgen
data_Y5(SiB4)2
_symmetry_space_group_name_H-M   'P 1'
_cell_length_a   7.24509800
_cell_length_b   7.24509800
_cell_length_c   8.11132100
_cell_angle_alpha   90.00000000
_cell_angle_beta   90.00000000
_cell_angle_gamma   90.00000000
_symmetry_Int_Tables_number   1
_chemical_formula_structural   Y5(SiB4)2
_chemical_formula_sum   'Y10 Si4 B16'
_cell_volume   425.77496039
_cell_formula_units_Z   2
loop_
 _symmetry_equiv_pos_site_id
 _symmetry_equiv_pos_as_xyz
  1  'x, y, z'
loop_
 _atom_site_type_symbol
 _atom_site_label
 _atom_site_symmetry_multiplicity
 _atom_site_fract_x
 _atom_site_fract_y
 _atom_site_fract_z
 _atom_site_occupancy
  Y  Y0  1  0.68054400  0.18054400  0.22419500  1
  Y  Y1  1  0.31945600  0.81945600  0.77580500  1
  Y  Y2  1  0.31945600  0.81945600  0.22419500  1
  Y  Y3  1  0.81945600  0.68054400  0.22419500  1
  Y  Y4  1  0.81945600  0.68054400  0.77580500  1
  Y  Y5  1  0.68054400  0.18054400  0.77580500  1
  Y  Y6  1  0.18054400  0.31945600  0.77580500  1
  Y  Y7  1  0.18054400  0.31945600  0.22419500  1
  Y  Y8  1  0.00000000  0.00000000  0.50000000  1
  Y  Y9  1  0.50000000  0.50000000  0.50000000  1
  Si  Si10  1  0.11485900  0.61485900  0.50000000  1
  Si  Si11  1  0.88514100  0.38514100  0.50000000  1
  Si  Si12  1  0.38514100  0.11485900  0.50000000  1
  Si  Si13  1  0.61485900  0.88514100  0.50000000  1
  B  B14  1  0.17246300  0.03917700  0.00000000  1
  B  B15  1  0.82753700  0.96082300  0.00000000  1
  B  B16  1  0.96082300  0.17246300  0.00000000  1
  B  B17  1  0.32753700  0.53917700  0.00000000  1
  B  B18  1  0.03917700  0.82753700  0.00000000  1
  B  B19  1  0.67246300  0.46082300  0.00000000  1
  B  B20  1  0.53917700  0.67246300  0.00000000  1
  B  B21  1  0.46082300  0.32753700  0.00000000  1
  B  B22  1  0.09012200  0.59012200  0.00000000  1
  B  B23  1  0.90987800  0.40987800  0.00000000  1
  B  B24  1  0.40987800  0.09012200  0.00000000  1
  B  B25  1  0.59012200  0.90987800  0.00000000  1
  B  B26  1  0.00000000  0.00000000  0.16180300  1
  B  B27  1  0.00000000  0.00000000  0.83819700  1
  B  B28  1  0.50000000  0.50000000  0.83819700  1
  B  B29  1  0.50000000  0.50000000  0.16180300  1
