# generated using pymatgen
data_Ba2CaMnV2F14
_symmetry_space_group_name_H-M   'P 1'
_cell_length_a   7.51604988
_cell_length_b   7.51604988
_cell_length_c   15.29559933
_cell_angle_alpha   88.55204274
_cell_angle_beta   88.55204274
_cell_angle_gamma   42.72325758
_symmetry_Int_Tables_number   1
_chemical_formula_structural   Ba2CaMnV2F14
_chemical_formula_sum   'Ba4 Ca2 Mn2 V4 F28'
_cell_volume   586.01510101
_cell_formula_units_Z   2
loop_
 _symmetry_equiv_pos_site_id
 _symmetry_equiv_pos_as_xyz
  1  'x, y, z'
loop_
 _atom_site_type_symbol
 _atom_site_label
 _atom_site_symmetry_multiplicity
 _atom_site_fract_x
 _atom_site_fract_y
 _atom_site_fract_z
 _atom_site_occupancy
  Ba  Ba0  1  0.64531100  0.73376100  0.87729400  1
  Ba  Ba1  1  0.35468900  0.26623900  0.12270600  1
  Ba  Ba2  1  0.26623900  0.35468900  0.62270600  1
  Ba  Ba3  1  0.73376100  0.64531100  0.37729400  1
  Ca  Ca4  1  0.95153900  0.04846100  0.75000000  1
  Ca  Ca5  1  0.04846100  0.95153900  0.25000000  1
  Mn  Mn6  1  0.00000000  0.00000000  0.50000000  1
  Mn  Mn7  1  0.00000000  0.00000000  0.00000000  1
  V  V8  1  0.62281700  0.61877400  0.62351500  1
  V  V9  1  0.37718300  0.38122600  0.37648500  1
  V  V10  1  0.38122600  0.37718300  0.87648500  1
  V  V11  1  0.61877400  0.62281700  0.12351500  1
  F  F12  1  0.40621500  0.76438800  0.51607100  1
  F  F13  1  0.59378500  0.23561200  0.48392900  1
  F  F14  1  0.23561200  0.59378500  0.98392900  1
  F  F15  1  0.76438800  0.40621500  0.01607100  1
  F  F16  1  0.69237500  0.81281700  0.58996400  1
  F  F17  1  0.30762500  0.18718300  0.41003600  1
  F  F18  1  0.18718300  0.30762500  0.91003600  1
  F  F19  1  0.81281700  0.69237500  0.08996400  1
  F  F20  1  0.66804200  0.07150200  0.95308000  1
  F  F21  1  0.33195800  0.92849800  0.04692000  1
  F  F22  1  0.92849800  0.33195800  0.54692000  1
  F  F23  1  0.07150200  0.66804200  0.45308000  1
  F  F24  1  0.55038200  0.12411300  0.77699900  1
  F  F25  1  0.44961800  0.87588700  0.22300100  1
  F  F26  1  0.87588700  0.44961800  0.72300100  1
  F  F27  1  0.12411300  0.55038200  0.27699900  1
  F  F28  1  0.84908800  0.03692800  0.12258800  1
  F  F29  1  0.15091200  0.96307200  0.87741200  1
  F  F30  1  0.96307200  0.15091200  0.37741200  1
  F  F31  1  0.03692800  0.84908800  0.62258800  1
  F  F32  1  0.34277900  0.90530400  0.70275900  1
  F  F33  1  0.65722100  0.09469600  0.29724100  1
  F  F34  1  0.09469600  0.65722100  0.79724100  1
  F  F35  1  0.90530400  0.34277900  0.20275900  1
  F  F36  1  0.59339000  0.38839000  0.65637800  1
  F  F37  1  0.40661000  0.61161000  0.34362200  1
  F  F38  1  0.61161000  0.40661000  0.84362200  1
  F  F39  1  0.38839000  0.59339000  0.15637800  1
