# generated using pymatgen
data_BaScCuS3
_symmetry_space_group_name_H-M   'P 1'
_cell_length_a   7.03194976
_cell_length_b   7.03194976
_cell_length_c   9.81874900
_cell_angle_alpha   90.00000000
_cell_angle_beta   90.00000000
_cell_angle_gamma   147.70659641
_symmetry_Int_Tables_number   1
_chemical_formula_structural   BaScCuS3
_chemical_formula_sum   'Ba2 Sc2 Cu2 S6'
_cell_volume   259.39183262
_cell_formula_units_Z   2
loop_
 _symmetry_equiv_pos_site_id
 _symmetry_equiv_pos_as_xyz
  1  'x, y, z'
loop_
 _atom_site_type_symbol
 _atom_site_label
 _atom_site_symmetry_multiplicity
 _atom_site_fract_x
 _atom_site_fract_y
 _atom_site_fract_z
 _atom_site_occupancy
  Ba  Ba0  1  0.25373200  0.74626800  0.25000000  1
  Ba  Ba1  1  0.74626800  0.25373200  0.75000000  1
  Sc  Sc2  1  0.00000000  0.00000000  0.50000000  1
  Sc  Sc3  1  0.00000000  0.00000000  0.00000000  1
  Cu  Cu4  1  0.53268400  0.46731600  0.25000000  1
  Cu  Cu5  1  0.46731600  0.53268400  0.75000000  1
  S  S6  1  0.62577100  0.37422900  0.44650900  1
  S  S7  1  0.37422900  0.62577100  0.55349100  1
  S  S8  1  0.62577100  0.37422900  0.05349100  1
  S  S9  1  0.37422900  0.62577100  0.94650900  1
  S  S10  1  0.93590100  0.06409900  0.25000000  1
  S  S11  1  0.06409900  0.93590100  0.75000000  1
