# generated using pymatgen
data_K6MnS4
_symmetry_space_group_name_H-M   'P 1'
_cell_length_a   9.90996437
_cell_length_b   9.90996437
_cell_length_c   7.75550500
_cell_angle_alpha   90.00000000
_cell_angle_beta   90.00000000
_cell_angle_gamma   120.00000246
_symmetry_Int_Tables_number   1
_chemical_formula_structural   K6MnS4
_chemical_formula_sum   'K12 Mn2 S8'
_cell_volume   659.60644282
_cell_formula_units_Z   2
loop_
 _symmetry_equiv_pos_site_id
 _symmetry_equiv_pos_as_xyz
  1  'x, y, z'
loop_
 _atom_site_type_symbol
 _atom_site_label
 _atom_site_symmetry_multiplicity
 _atom_site_fract_x
 _atom_site_fract_y
 _atom_site_fract_z
 _atom_site_occupancy
  K  K0  1  0.53018400  0.06036800  0.36657700  1
  K  K1  1  0.46981600  0.53018400  0.86657700  1
  K  K2  1  0.93963200  0.46981600  0.36657700  1
  K  K3  1  0.53018400  0.46981600  0.36657700  1
  K  K4  1  0.14657200  0.85342800  0.54172600  1
  K  K5  1  0.29314400  0.14657200  0.04172600  1
  K  K6  1  0.06036800  0.53018400  0.86657700  1
  K  K7  1  0.85342800  0.70685600  0.04172600  1
  K  K8  1  0.85342800  0.14657200  0.04172600  1
  K  K9  1  0.70685600  0.85342800  0.54172600  1
  K  K10  1  0.14657200  0.29314400  0.54172600  1
  K  K11  1  0.46981600  0.93963200  0.86657700  1
  Mn  Mn12  1  0.66666700  0.33333300  0.75259500  1
  Mn  Mn13  1  0.33333300  0.66666700  0.25259500  1
  S  S14  1  0.80301100  0.19698900  0.65359900  1
  S  S15  1  0.60602300  0.80301100  0.15359900  1
  S  S16  1  0.19698900  0.39397700  0.15359900  1
  S  S17  1  0.80301100  0.60602300  0.65359900  1
  S  S18  1  0.39397700  0.19698900  0.65359900  1
  S  S19  1  0.19698900  0.80301100  0.15359900  1
  S  S20  1  0.66666700  0.33333300  0.06939600  1
  S  S21  1  0.33333300  0.66666700  0.56939600  1
