# generated using pymatgen
data_Na5H4BrO4
_symmetry_space_group_name_H-M   'P 1'
_cell_length_a   6.58904900
_cell_length_b   11.82613500
_cell_length_c   18.90535100
_cell_angle_alpha   90.00000000
_cell_angle_beta   90.00000000
_cell_angle_gamma   90.00000000
_symmetry_Int_Tables_number   1
_chemical_formula_structural   Na5H4BrO4
_chemical_formula_sum   'Na40 H32 Br8 O32'
_cell_volume   1473.16134450
_cell_formula_units_Z   8
loop_
 _symmetry_equiv_pos_site_id
 _symmetry_equiv_pos_as_xyz
  1  'x, y, z'
loop_
 _atom_site_type_symbol
 _atom_site_label
 _atom_site_symmetry_multiplicity
 _atom_site_fract_x
 _atom_site_fract_y
 _atom_site_fract_z
 _atom_site_occupancy
  Na  Na0  1  0.00000000  0.50000000  0.00000000  1
  Na  Na1  1  0.50000000  0.00000000  0.50000000  1
  Na  Na2  1  0.00000000  0.50000000  0.50000000  1
  Na  Na3  1  0.50000000  0.00000000  0.00000000  1
  Na  Na4  1  0.64880700  0.98232900  0.25000000  1
  Na  Na5  1  0.85119300  0.48232900  0.25000000  1
  Na  Na6  1  0.35119300  0.01767100  0.75000000  1
  Na  Na7  1  0.14880700  0.51767100  0.75000000  1
  Na  Na8  1  0.10792200  0.94866000  0.25000000  1
  Na  Na9  1  0.39207800  0.44866000  0.25000000  1
  Na  Na10  1  0.89207800  0.05134000  0.75000000  1
  Na  Na11  1  0.60792200  0.55134000  0.75000000  1
  Na  Na12  1  0.54233200  0.68746300  0.25000000  1
  Na  Na13  1  0.95766800  0.18746300  0.25000000  1
  Na  Na14  1  0.45766800  0.31253700  0.75000000  1
  Na  Na15  1  0.04233200  0.81253700  0.75000000  1
  Na  Na16  1  0.86641400  0.84582900  0.12478600  1
  Na  Na17  1  0.63358600  0.34582900  0.37521400  1
  Na  Na18  1  0.13358600  0.15417100  0.62478600  1
  Na  Na19  1  0.36641400  0.65417100  0.87521400  1
  Na  Na20  1  0.13358600  0.15417100  0.87521400  1
  Na  Na21  1  0.36641400  0.65417100  0.62478600  1
  Na  Na22  1  0.86641400  0.84582900  0.37521400  1
  Na  Na23  1  0.63358600  0.34582900  0.12478600  1
  Na  Na24  1  0.62380600  0.73441400  0.00458000  1
  Na  Na25  1  0.87619400  0.23441400  0.49542000  1
  Na  Na26  1  0.37619400  0.26558600  0.50458000  1
  Na  Na27  1  0.12380600  0.76558600  0.99542000  1
  Na  Na28  1  0.37619400  0.26558600  0.99542000  1
  Na  Na29  1  0.12380600  0.76558600  0.50458000  1
  Na  Na30  1  0.62380600  0.73441400  0.49542000  1
  Na  Na31  1  0.87619400  0.23441400  0.00458000  1
  Na  Na32  1  0.25492400  0.60321300  0.12430900  1
  Na  Na33  1  0.24507600  0.10321300  0.37569100  1
  Na  Na34  1  0.74507600  0.39678700  0.62430900  1
  Na  Na35  1  0.75492400  0.89678700  0.87569100  1
  Na  Na36  1  0.74507600  0.39678700  0.87569100  1
  Na  Na37  1  0.75492400  0.89678700  0.62430900  1
  Na  Na38  1  0.25492400  0.60321300  0.37569100  1
  Na  Na39  1  0.24507600  0.10321300  0.12430900  1
  H  H40  1  0.13197200  0.68011900  0.25000000  1
  H  H41  1  0.36802800  0.18011900  0.25000000  1
  H  H42  1  0.86802800  0.31988100  0.75000000  1
  H  H43  1  0.63197200  0.81988100  0.75000000  1
  H  H44  1  0.89461700  0.73125400  0.25000000  1
  H  H45  1  0.60538300  0.23125400  0.25000000  1
  H  H46  1  0.10538300  0.26874600  0.75000000  1
  H  H47  1  0.39461700  0.76874600  0.75000000  1
  H  H48  1  0.87122900  0.62152500  0.11561500  1
  H  H49  1  0.62877100  0.12152500  0.38438500  1
  H  H50  1  0.12877100  0.37847500  0.61561500  1
  H  H51  1  0.37122900  0.87847500  0.88438500  1
  H  H52  1  0.12877100  0.37847500  0.88438500  1
  H  H53  1  0.37122900  0.87847500  0.61561500  1
  H  H54  1  0.87122900  0.62152500  0.38438500  1
  H  H55  1  0.62877100  0.12152500  0.11561500  1
  H  H56  1  0.62931000  0.56891100  0.12046000  1
  H  H57  1  0.87069000  0.06891100  0.37954000  1
  H  H58  1  0.37069000  0.43108900  0.62046000  1
  H  H59  1  0.12931000  0.93108900  0.87954000  1
  H  H60  1  0.37069000  0.43108900  0.87954000  1
  H  H61  1  0.12931000  0.93108900  0.62046000  1
  H  H62  1  0.62931000  0.56891100  0.37954000  1
  H  H63  1  0.87069000  0.06891100  0.12046000  1
  H  H64  1  0.88031200  0.97303400  0.00319300  1
  H  H65  1  0.61968800  0.47303400  0.49680700  1
  H  H66  1  0.11968800  0.02696600  0.50319300  1
  H  H67  1  0.38031200  0.52696600  0.99680700  1
  H  H68  1  0.11968800  0.02696600  0.99680700  1
  H  H69  1  0.38031200  0.52696600  0.50319300  1
  H  H70  1  0.88031200  0.97303400  0.49680700  1
  H  H71  1  0.61968800  0.47303400  0.00319300  1
  Br  Br72  1  0.37565900  0.85032600  0.13093000  1
  Br  Br73  1  0.12434100  0.35032600  0.36907000  1
  Br  Br74  1  0.62434100  0.14967400  0.63093000  1
  Br  Br75  1  0.87565900  0.64967400  0.86907000  1
  Br  Br76  1  0.62434100  0.14967400  0.86907000  1
  Br  Br77  1  0.87565900  0.64967400  0.63093000  1
  Br  Br78  1  0.37565900  0.85032600  0.36907000  1
  Br  Br79  1  0.12434100  0.35032600  0.13093000  1
  O  O80  1  0.15640400  0.59878700  0.25000000  1
  O  O81  1  0.34359600  0.09878700  0.25000000  1
  O  O82  1  0.84359600  0.40121300  0.75000000  1
  O  O83  1  0.65640400  0.90121300  0.75000000  1
  O  O84  1  0.83958800  0.80766200  0.25000000  1
  O  O85  1  0.66041200  0.30766200  0.25000000  1
  O  O86  1  0.16041200  0.19233800  0.75000000  1
  O  O87  1  0.33958800  0.69233800  0.75000000  1
  O  O88  1  0.91011200  0.65930100  0.07181500  1
  O  O89  1  0.58988800  0.15930100  0.42818500  1
  O  O90  1  0.08988800  0.34069900  0.57181500  1
  O  O91  1  0.41011200  0.84069900  0.92818500  1
  O  O92  1  0.08988800  0.34069900  0.92818500  1
  O  O93  1  0.41011200  0.84069900  0.57181500  1
  O  O94  1  0.91011200  0.65930100  0.42818500  1
  O  O95  1  0.58988800  0.15930100  0.07181500  1
  O  O96  1  0.59202700  0.53979400  0.16682700  1
  O  O97  1  0.90797300  0.03979400  0.33317300  1
  O  O98  1  0.40797300  0.46020600  0.66682700  1
  O  O99  1  0.09202700  0.96020600  0.83317300  1
  O  O100  1  0.40797300  0.46020600  0.83317300  1
  O  O101  1  0.09202700  0.96020600  0.66682700  1
  O  O102  1  0.59202700  0.53979400  0.33317300  1
  O  O103  1  0.90797300  0.03979400  0.16682700  1
  O  O104  1  0.84159200  0.89372100  0.99984200  1
  O  O105  1  0.65840800  0.39372100  0.50015800  1
  O  O106  1  0.15840800  0.10627900  0.49984200  1
  O  O107  1  0.34159200  0.60627900  0.00015800  1
  O  O108  1  0.15840800  0.10627900  0.00015800  1
  O  O109  1  0.34159200  0.60627900  0.49984200  1
  O  O110  1  0.84159200  0.89372100  0.50015800  1
  O  O111  1  0.65840800  0.39372100  0.99984200  1
