# generated using pymatgen
data_RbLaSiS4
_symmetry_space_group_name_H-M   'P 1'
_cell_length_a   6.63314100
_cell_length_b   6.69579800
_cell_length_c   17.56937600
_cell_angle_alpha   90.00000000
_cell_angle_beta   90.00000000
_cell_angle_gamma   90.00000000
_symmetry_Int_Tables_number   1
_chemical_formula_structural   RbLaSiS4
_chemical_formula_sum   'Rb4 La4 Si4 S16'
_cell_volume   780.32929184
_cell_formula_units_Z   4
loop_
 _symmetry_equiv_pos_site_id
 _symmetry_equiv_pos_as_xyz
  1  'x, y, z'
loop_
 _atom_site_type_symbol
 _atom_site_label
 _atom_site_symmetry_multiplicity
 _atom_site_fract_x
 _atom_site_fract_y
 _atom_site_fract_z
 _atom_site_occupancy
  Rb  Rb0  1  0.46457500  0.75000000  0.21644300  1
  Rb  Rb1  1  0.96457500  0.25000000  0.28355700  1
  Rb  Rb2  1  0.53542500  0.25000000  0.78355700  1
  Rb  Rb3  1  0.03542500  0.75000000  0.71644300  1
  La  La4  1  0.28675400  0.75000000  0.47513600  1
  La  La5  1  0.78675400  0.25000000  0.02486400  1
  La  La6  1  0.71324600  0.25000000  0.52486400  1
  La  La7  1  0.21324600  0.75000000  0.97513600  1
  Si  Si8  1  0.28469000  0.25000000  0.08800100  1
  Si  Si9  1  0.71531000  0.75000000  0.91199900  1
  Si  Si10  1  0.21531000  0.25000000  0.58800100  1
  Si  Si11  1  0.78469000  0.75000000  0.41199900  1
  S  S12  1  0.90919200  0.49984200  0.89331800  1
  S  S13  1  0.40919200  0.50015800  0.60668200  1
  S  S14  1  0.09080800  0.99984200  0.10668200  1
  S  S15  1  0.59080800  0.00015800  0.39331800  1
  S  S16  1  0.40919200  0.99984200  0.60668200  1
  S  S17  1  0.09080800  0.50015800  0.10668200  1
  S  S18  1  0.90919200  0.00015800  0.89331800  1
  S  S19  1  0.59080800  0.49984200  0.39331800  1
  S  S20  1  0.03803500  0.75000000  0.33901800  1
  S  S21  1  0.53803500  0.25000000  0.16098200  1
  S  S22  1  0.96196500  0.25000000  0.66098200  1
  S  S23  1  0.46196500  0.75000000  0.83901800  1
  S  S24  1  0.62959600  0.75000000  0.02945000  1
  S  S25  1  0.12959600  0.25000000  0.47055000  1
  S  S26  1  0.37040400  0.25000000  0.97055000  1
  S  S27  1  0.87040400  0.75000000  0.52945000  1
