# generated using pymatgen
data_K2Zn(SnSe3)2
_symmetry_space_group_name_H-M   'P 1'
_cell_length_a   8.39939400
_cell_length_b   8.39939400
_cell_length_c   19.90874800
_cell_angle_alpha   90.00000000
_cell_angle_beta   90.00000000
_cell_angle_gamma   90.00000000
_symmetry_Int_Tables_number   1
_chemical_formula_structural   K2Zn(SnSe3)2
_chemical_formula_sum   'K8 Zn4 Sn8 Se24'
_cell_volume   1404.55857921
_cell_formula_units_Z   4
loop_
 _symmetry_equiv_pos_site_id
 _symmetry_equiv_pos_as_xyz
  1  'x, y, z'
loop_
 _atom_site_type_symbol
 _atom_site_label
 _atom_site_symmetry_multiplicity
 _atom_site_fract_x
 _atom_site_fract_y
 _atom_site_fract_z
 _atom_site_occupancy
  K  K0  1  0.50000000  0.00000000  0.17677900  1
  K  K1  1  0.50000000  0.00000000  0.67677900  1
  K  K2  1  0.00000000  0.50000000  0.82322100  1
  K  K3  1  0.00000000  0.50000000  0.32322100  1
  K  K4  1  0.00000000  0.50000000  0.02564000  1
  K  K5  1  0.00000000  0.50000000  0.52564000  1
  K  K6  1  0.50000000  0.00000000  0.97436000  1
  K  K7  1  0.50000000  0.00000000  0.47436000  1
  Zn  Zn8  1  0.50000000  0.50000000  0.00000000  1
  Zn  Zn9  1  0.50000000  0.50000000  0.50000000  1
  Zn  Zn10  1  0.00000000  0.00000000  0.50000000  1
  Zn  Zn11  1  0.00000000  0.00000000  0.00000000  1
  Sn  Sn12  1  0.50000000  0.50000000  0.16171100  1
  Sn  Sn13  1  0.50000000  0.50000000  0.66171100  1
  Sn  Sn14  1  0.00000000  0.00000000  0.66171100  1
  Sn  Sn15  1  0.00000000  0.00000000  0.16171100  1
  Sn  Sn16  1  0.00000000  0.00000000  0.83828900  1
  Sn  Sn17  1  0.00000000  0.00000000  0.33828900  1
  Sn  Sn18  1  0.50000000  0.50000000  0.33828900  1
  Sn  Sn19  1  0.50000000  0.50000000  0.83828900  1
  Se  Se20  1  0.34515400  0.32391400  0.08145900  1
  Se  Se21  1  0.65484600  0.32391400  0.58145900  1
  Se  Se22  1  0.34515400  0.67608600  0.58145900  1
  Se  Se23  1  0.65484600  0.67608600  0.08145900  1
  Se  Se24  1  0.82391400  0.84515400  0.58145900  1
  Se  Se25  1  0.17608600  0.84515400  0.08145900  1
  Se  Se26  1  0.82391400  0.15484600  0.08145900  1
  Se  Se27  1  0.17608600  0.15484600  0.58145900  1
  Se  Se28  1  0.15484600  0.17608600  0.91854100  1
  Se  Se29  1  0.84515400  0.17608600  0.41854100  1
  Se  Se30  1  0.15484600  0.82391400  0.41854100  1
  Se  Se31  1  0.84515400  0.82391400  0.91854100  1
  Se  Se32  1  0.67608600  0.65484600  0.41854100  1
  Se  Se33  1  0.32391400  0.65484600  0.91854100  1
  Se  Se34  1  0.67608600  0.34515400  0.91854100  1
  Se  Se35  1  0.32391400  0.34515400  0.41854100  1
  Se  Se36  1  0.66245000  0.33755000  0.25000000  1
  Se  Se37  1  0.33755000  0.33755000  0.75000000  1
  Se  Se38  1  0.66245000  0.66245000  0.75000000  1
  Se  Se39  1  0.33755000  0.66245000  0.25000000  1
  Se  Se40  1  0.83755000  0.16245000  0.75000000  1
  Se  Se41  1  0.16245000  0.16245000  0.25000000  1
  Se  Se42  1  0.83755000  0.83755000  0.25000000  1
  Se  Se43  1  0.16245000  0.83755000  0.75000000  1
