# generated using pymatgen
data_PrCo9Si4
_symmetry_space_group_name_H-M   'P 1'
_cell_length_a   7.95958411
_cell_length_b   7.95958411
_cell_length_c   7.95958411
_cell_angle_alpha   121.55980369
_cell_angle_beta   121.55980369
_cell_angle_gamma   87.31892664
_symmetry_Int_Tables_number   1
_chemical_formula_structural   PrCo9Si4
_chemical_formula_sum   'Pr2 Co18 Si8'
_cell_volume   347.75858404
_cell_formula_units_Z   2
loop_
 _symmetry_equiv_pos_site_id
 _symmetry_equiv_pos_as_xyz
  1  'x, y, z'
loop_
 _atom_site_type_symbol
 _atom_site_label
 _atom_site_symmetry_multiplicity
 _atom_site_fract_x
 _atom_site_fract_y
 _atom_site_fract_z
 _atom_site_occupancy
  Pr  Pr0  1  0.75000000  0.75000000  0.00000000  1
  Pr  Pr1  1  0.25000000  0.25000000  0.00000000  1
  Co  Co2  1  0.69065500  0.44935700  0.50000000  1
  Co  Co3  1  0.44935700  0.94935700  0.75870200  1
  Co  Co4  1  0.19065500  0.69065500  0.24129800  1
  Co  Co5  1  0.55064300  0.05064300  0.24129800  1
  Co  Co6  1  0.94935700  0.19065500  0.50000000  1
  Co  Co7  1  0.19930500  0.93060400  0.12990900  1
  Co  Co8  1  0.80069500  0.06939600  0.87009100  1
  Co  Co9  1  0.43060400  0.69930500  0.12990900  1
  Co  Co10  1  0.56939600  0.30069500  0.87009100  1
  Co  Co11  1  0.69930500  0.56939600  0.26870100  1
  Co  Co12  1  0.30069500  0.43060400  0.73129900  1
  Co  Co13  1  0.93060400  0.80069500  0.73129900  1
  Co  Co14  1  0.30934500  0.55064300  0.50000000  1
  Co  Co15  1  0.80934500  0.30934500  0.75870200  1
  Co  Co16  1  0.00000000  0.50000000  0.50000000  1
  Co  Co17  1  0.50000000  0.00000000  0.50000000  1
  Co  Co18  1  0.06939600  0.19930500  0.26870100  1
  Co  Co19  1  0.05064300  0.80934500  0.50000000  1
  Si  Si20  1  0.29043200  0.79043200  0.83752400  1
  Si  Si21  1  0.04709200  0.54709200  0.83752400  1
  Si  Si22  1  0.54709200  0.70956800  0.50000000  1
  Si  Si23  1  0.79043200  0.95290800  0.50000000  1
  Si  Si24  1  0.45290800  0.29043200  0.50000000  1
  Si  Si25  1  0.95290800  0.45290800  0.16247600  1
  Si  Si26  1  0.70956800  0.20956800  0.16247600  1
  Si  Si27  1  0.20956800  0.04709200  0.50000000  1
