# generated using pymatgen
data_U2(Al3Ir)3
_symmetry_space_group_name_H-M   'P 1'
_cell_length_a   7.60078477
_cell_length_b   7.60078477
_cell_length_c   9.40160900
_cell_angle_alpha   90.00000000
_cell_angle_beta   90.00000000
_cell_angle_gamma   119.55527497
_symmetry_Int_Tables_number   1
_chemical_formula_structural   U2(Al3Ir)3
_chemical_formula_sum   'U4 Al18 Ir6'
_cell_volume   472.47465685
_cell_formula_units_Z   2
loop_
 _symmetry_equiv_pos_site_id
 _symmetry_equiv_pos_as_xyz
  1  'x, y, z'
loop_
 _atom_site_type_symbol
 _atom_site_label
 _atom_site_symmetry_multiplicity
 _atom_site_fract_x
 _atom_site_fract_y
 _atom_site_fract_z
 _atom_site_occupancy
  U  U0  1  0.99573000  0.66892500  0.75000000  1
  U  U1  1  0.00427000  0.33107500  0.25000000  1
  U  U2  1  0.66892500  0.99573000  0.75000000  1
  U  U3  1  0.33107500  0.00427000  0.25000000  1
  Al  Al4  1  0.12746200  0.12746200  0.75000000  1
  Al  Al5  1  0.87253800  0.87253800  0.25000000  1
  Al  Al6  1  0.00255400  0.33479100  0.57380400  1
  Al  Al7  1  0.99744600  0.66520900  0.42619600  1
  Al  Al8  1  0.99744600  0.66520900  0.07380400  1
  Al  Al9  1  0.33479100  0.00255400  0.92619600  1
  Al  Al10  1  0.00255400  0.33479100  0.92619600  1
  Al  Al11  1  0.66520900  0.99744600  0.07380400  1
  Al  Al12  1  0.66520900  0.99744600  0.42619600  1
  Al  Al13  1  0.33479100  0.00255400  0.57380400  1
  Al  Al14  1  0.33497700  0.33497700  0.05618400  1
  Al  Al15  1  0.66502300  0.66502300  0.94381600  1
  Al  Al16  1  0.66502300  0.66502300  0.55618400  1
  Al  Al17  1  0.33497700  0.33497700  0.44381600  1
  Al  Al18  1  0.33884900  0.54626100  0.75000000  1
  Al  Al19  1  0.66115100  0.45373900  0.25000000  1
  Al  Al20  1  0.54626100  0.33884900  0.75000000  1
  Al  Al21  1  0.45373900  0.66115100  0.25000000  1
  Ir  Ir22  1  0.67281300  0.32718700  0.50000000  1
  Ir  Ir23  1  0.32718700  0.67281300  0.50000000  1
  Ir  Ir24  1  0.32718700  0.67281300  0.00000000  1
  Ir  Ir25  1  0.67281300  0.32718700  0.00000000  1
  Ir  Ir26  1  0.00000000  0.00000000  0.50000000  1
  Ir  Ir27  1  0.00000000  0.00000000  0.00000000  1
