# generated using pymatgen
data_Li2InFe(P2O7)2
_symmetry_space_group_name_H-M   'P 1'
_cell_length_a   7.07922269
_cell_length_b   9.75198007
_cell_length_c   9.77632963
_cell_angle_alpha   60.79167334
_cell_angle_beta   99.32767128
_cell_angle_gamma   80.20041762
_symmetry_Int_Tables_number   1
_chemical_formula_structural   Li2InFe(P2O7)2
_chemical_formula_sum   'Li4 In2 Fe2 P8 O28'
_cell_volume   556.43567936
_cell_formula_units_Z   2
loop_
 _symmetry_equiv_pos_site_id
 _symmetry_equiv_pos_as_xyz
  1  'x, y, z'
loop_
 _atom_site_type_symbol
 _atom_site_label
 _atom_site_symmetry_multiplicity
 _atom_site_fract_x
 _atom_site_fract_y
 _atom_site_fract_z
 _atom_site_occupancy
  Li  Li0  1  0.17712400  0.82474200  0.51721500  1
  Li  Li1  1  0.17712600  0.32473600  0.01722500  1
  Li  Li2  1  0.83415200  0.26652200  0.58298400  1
  Li  Li3  1  0.83415200  0.76652600  0.08298800  1
  In  In4  1  0.76231800  0.10280400  0.38229500  1
  In  In5  1  0.76231500  0.60280500  0.88229600  1
  Fe  Fe6  1  0.22965000  0.63480100  0.34986200  1
  Fe  Fe7  1  0.22956200  0.13486800  0.84983200  1
  P  P8  1  0.57817300  0.77630000  0.48570400  1
  P  P9  1  0.57817500  0.27629500  0.98570000  1
  P  P10  1  0.41459700  0.24453100  0.53406200  1
  P  P11  1  0.41459500  0.74456000  0.03404700  1
  P  P12  1  0.97890700  0.03081800  0.13412300  1
  P  P13  1  0.97890100  0.53083500  0.63411900  1
  P  P14  1  0.02921500  0.88488300  0.78429600  1
  P  P15  1  0.02921400  0.38488400  0.28429600  1
  O  O16  1  0.01798900  0.85590900  0.16792900  1
  O  O17  1  0.01798300  0.35591200  0.66792900  1
  O  O18  1  0.99492100  0.91058200  0.61317100  1
  O  O19  1  0.99492100  0.41058400  0.11316900  1
  O  O20  1  0.56410800  0.77190300  0.64295400  1
  O  O21  1  0.56410800  0.27189400  0.14295400  1
  O  O22  1  0.40777200  0.41238700  0.51101100  1
  O  O23  1  0.40772900  0.91243700  0.01095800  1
  O  O24  1  0.74481200  0.61310800  0.53006700  1
  O  O25  1  0.74481300  0.11310500  0.03005900  1
  O  O26  1  0.25838000  0.26974900  0.37627400  1
  O  O27  1  0.25837700  0.76975400  0.87627100  1
  O  O28  1  0.09876600  0.63227200  0.52811100  1
  O  O29  1  0.09876300  0.13227200  0.02810600  1
  O  O30  1  0.89610300  0.29201700  0.38111300  1
  O  O31  1  0.89609800  0.79202300  0.88111000  1
  O  O32  1  0.63356900  0.92603700  0.36801700  1
  O  O33  1  0.63357000  0.42603600  0.86801700  1
  O  O34  1  0.36066300  0.13155300  0.68651800  1
  O  O35  1  0.36067600  0.63154200  0.18650100  1
  O  O36  1  0.38160300  0.76392200  0.40678900  1
  O  O37  1  0.38158500  0.26394500  0.90676100  1
  O  O38  1  0.61948000  0.16487600  0.53132600  1
  O  O39  1  0.61947500  0.66487600  0.03132800  1
  O  O40  1  0.00242300  0.03274200  0.29229000  1
  O  O41  1  0.00242500  0.53273500  0.79229600  1
  O  O42  1  0.01534000  0.04517100  0.78165800  1
  O  O43  1  0.01537200  0.54515200  0.28167200  1
