# generated using pymatgen
data_Sm9Al5S21
_symmetry_space_group_name_H-M   'P 1'
_cell_length_a   11.61313658
_cell_length_b   11.61313658
_cell_length_c   11.61313697
_cell_angle_alpha   94.80150992
_cell_angle_beta   94.80150992
_cell_angle_gamma   94.80151593
_symmetry_Int_Tables_number   1
_chemical_formula_structural   Sm9Al5S21
_chemical_formula_sum   'Sm18 Al10 S42'
_cell_volume   1548.72886446
_cell_formula_units_Z   2
loop_
 _symmetry_equiv_pos_site_id
 _symmetry_equiv_pos_as_xyz
  1  'x, y, z'
loop_
 _atom_site_type_symbol
 _atom_site_label
 _atom_site_symmetry_multiplicity
 _atom_site_fract_x
 _atom_site_fract_y
 _atom_site_fract_z
 _atom_site_occupancy
  Sm  Sm0  1  0.11596100  0.87796000  0.74031600  1
  Sm  Sm1  1  0.45688400  0.22331200  0.07610200  1
  Sm  Sm2  1  0.76936600  0.54901200  0.40016000  1
  Sm  Sm3  1  0.40016000  0.76936600  0.54901200  1
  Sm  Sm4  1  0.74031600  0.11596100  0.87796000  1
  Sm  Sm5  1  0.07610200  0.45688400  0.22331200  1
  Sm  Sm6  1  0.22331200  0.07610200  0.45688400  1
  Sm  Sm7  1  0.54901200  0.40016000  0.76936600  1
  Sm  Sm8  1  0.87796000  0.74031600  0.11596100  1
  Sm  Sm9  1  0.20686600  0.43791500  0.58295900  1
  Sm  Sm10  1  0.54852300  0.78153500  0.92914400  1
  Sm  Sm11  1  0.87481200  0.10317700  0.24422500  1
  Sm  Sm12  1  0.92914400  0.54852300  0.78153500  1
  Sm  Sm13  1  0.24422500  0.87481200  0.10317700  1
  Sm  Sm14  1  0.58295900  0.20686600  0.43791500  1
  Sm  Sm15  1  0.10317700  0.24422500  0.87481200  1
  Sm  Sm16  1  0.43791500  0.58295900  0.20686600  1
  Sm  Sm17  1  0.78153500  0.92914400  0.54852300  1
  Al  Al18  1  0.72220400  0.38937700  0.04746800  1
  Al  Al19  1  0.04746800  0.72220400  0.38937700  1
  Al  Al20  1  0.38937700  0.04746800  0.72220400  1
  Al  Al21  1  0.88438500  0.22626000  0.54848500  1
  Al  Al22  1  0.22626000  0.54848500  0.88438500  1
  Al  Al23  1  0.54848500  0.88438500  0.22626000  1
  Al  Al24  1  0.85521800  0.85521800  0.85521800  1
  Al  Al25  1  0.17399200  0.17399200  0.17399200  1
  Al  Al26  1  0.67354700  0.67354700  0.67354700  1
  Al  Al27  1  0.35523400  0.35523400  0.35523400  1
  S  S28  1  0.84208400  0.50863300  0.17321000  1
  S  S29  1  0.17321000  0.84208400  0.50863300  1
  S  S30  1  0.50863300  0.17321000  0.84208400  1
  S  S31  1  0.67458600  0.00711200  0.34198400  1
  S  S32  1  0.00711200  0.34198400  0.67458600  1
  S  S33  1  0.34198400  0.67458600  0.00711200  1
  S  S34  1  0.54330800  0.44751800  0.01239700  1
  S  S35  1  0.87020700  0.78220200  0.35764400  1
  S  S36  1  0.20681000  0.10401900  0.69631000  1
  S  S37  1  0.69631000  0.20681000  0.10401900  1
  S  S38  1  0.01239700  0.54330800  0.44751800  1
  S  S39  1  0.35764400  0.87020700  0.78220200  1
  S  S40  1  0.78220200  0.35764400  0.87020700  1
  S  S41  1  0.10401900  0.69631000  0.20681000  1
  S  S42  1  0.44751800  0.01239700  0.54330800  1
  S  S43  1  0.96562900  0.06924800  0.47700200  1
  S  S44  1  0.29825900  0.38707100  0.81124300  1
  S  S45  1  0.62972900  0.72372600  0.15864300  1
  S  S46  1  0.81124300  0.29825900  0.38707100  1
  S  S47  1  0.15864300  0.62972900  0.72372600  1
  S  S48  1  0.47700200  0.96562900  0.06924800  1
  S  S49  1  0.72372600  0.15864300  0.62972900  1
  S  S50  1  0.06924800  0.47700200  0.96562900  1
  S  S51  1  0.38707100  0.81124300  0.29825900  1
  S  S52  1  0.55207900  0.40502900  0.31077700  1
  S  S53  1  0.89086300  0.75556600  0.66618300  1
  S  S54  1  0.23738400  0.09724200  0.00118300  1
  S  S55  1  0.00118300  0.23738400  0.09724200  1
  S  S56  1  0.31077700  0.55207900  0.40502900  1
  S  S57  1  0.66618300  0.89086300  0.75556600  1
  S  S58  1  0.75556600  0.66618300  0.89086300  1
  S  S59  1  0.09724200  0.00118300  0.23738400  1
  S  S60  1  0.40502900  0.31077700  0.55207900  1
  S  S61  1  0.15044500  0.28596200  0.37437800  1
  S  S62  1  0.48743700  0.62396400  0.72434600  1
  S  S63  1  0.79264400  0.94289900  0.03384800  1
  S  S64  1  0.72434600  0.48743700  0.62396400  1
  S  S65  1  0.03384800  0.79264400  0.94289900  1
  S  S66  1  0.37437800  0.15044500  0.28596200  1
  S  S67  1  0.94289900  0.03384800  0.79264400  1
  S  S68  1  0.28596200  0.37437800  0.15044500  1
  S  S69  1  0.62396400  0.72434600  0.48743700  1
