# generated using pymatgen
data_NaGdSiO4
_symmetry_space_group_name_H-M   'P 1'
_cell_length_a   8.77864779
_cell_length_b   8.77864779
_cell_length_c   8.77864779
_cell_angle_alpha   95.40626186
_cell_angle_beta   95.40626186
_cell_angle_gamma   144.24919412
_symmetry_Int_Tables_number   1
_chemical_formula_structural   NaGdSiO4
_chemical_formula_sum   'Na4 Gd4 Si4 O16'
_cell_volume   376.18535771
_cell_formula_units_Z   4
loop_
 _symmetry_equiv_pos_site_id
 _symmetry_equiv_pos_as_xyz
  1  'x, y, z'
loop_
 _atom_site_type_symbol
 _atom_site_label
 _atom_site_symmetry_multiplicity
 _atom_site_fract_x
 _atom_site_fract_y
 _atom_site_fract_z
 _atom_site_occupancy
  Na  Na0  1  0.39297900  0.08660900  0.47958800  1
  Na  Na1  1  0.08660900  0.60702100  0.69363000  1
  Na  Na2  1  0.91339100  0.39297900  0.30637000  1
  Na  Na3  1  0.60702100  0.91339100  0.52041200  1
  Gd  Gd4  1  0.87910900  0.80907500  0.68818400  1
  Gd  Gd5  1  0.80907500  0.12089000  0.92996500  1
  Gd  Gd6  1  0.19092600  0.87910900  0.07003500  1
  Gd  Gd7  1  0.12089100  0.19092500  0.31181600  1
  Si  Si8  1  0.26217600  0.40166800  0.66384300  1
  Si  Si9  1  0.40166800  0.73782400  0.13949200  1
  Si  Si10  1  0.59833300  0.26217600  0.86050800  1
  Si  Si11  1  0.73782400  0.59833300  0.33615700  1
  O  O12  1  0.43576200  0.28332200  0.23286900  1
  O  O13  1  0.28332200  0.05045300  0.84756000  1
  O  O14  1  0.20289300  0.43576200  0.15244000  1
  O  O15  1  0.05045300  0.20289300  0.76713100  1
  O  O16  1  0.56423800  0.71667800  0.76713100  1
  O  O17  1  0.71667800  0.94954700  0.15244000  1
  O  O18  1  0.79710700  0.56423800  0.84756000  1
  O  O19  1  0.94954700  0.79710700  0.23286900  1
  O  O20  1  0.30493100  0.26782500  0.57275500  1
  O  O21  1  0.26782500  0.69506900  0.96289400  1
  O  O22  1  0.73217500  0.30493100  0.03710600  1
  O  O23  1  0.69507000  0.73217500  0.42724500  1
  O  O24  1  0.12118900  0.39634800  0.51753600  1
  O  O25  1  0.39634800  0.87881100  0.27515900  1
  O  O26  1  0.60365200  0.12118800  0.72484100  1
  O  O27  1  0.87881100  0.60365200  0.48246400  1
