# generated using pymatgen
data_NaVTeO5
_symmetry_space_group_name_H-M   'P 1'
_cell_length_a   11.75827400
_cell_length_b   5.93747100
_cell_length_c   6.91382200
_cell_angle_alpha   76.78066218
_cell_angle_beta   90.00000000
_cell_angle_gamma   90.00000000
_symmetry_Int_Tables_number   1
_chemical_formula_structural   NaVTeO5
_chemical_formula_sum   'Na4 V4 Te4 O20'
_cell_volume   469.89413056
_cell_formula_units_Z   4
loop_
 _symmetry_equiv_pos_site_id
 _symmetry_equiv_pos_as_xyz
  1  'x, y, z'
loop_
 _atom_site_type_symbol
 _atom_site_label
 _atom_site_symmetry_multiplicity
 _atom_site_fract_x
 _atom_site_fract_y
 _atom_site_fract_z
 _atom_site_occupancy
  Na  Na0  1  0.71872600  0.83314600  0.18002000  1
  Na  Na1  1  0.21872600  0.16685400  0.31998000  1
  Na  Na2  1  0.28127400  0.16685400  0.81998000  1
  Na  Na3  1  0.78127400  0.83314600  0.68002000  1
  V  V4  1  0.87465100  0.33648200  0.41265800  1
  V  V5  1  0.37465100  0.66351800  0.08734200  1
  V  V6  1  0.12534900  0.66351800  0.58734200  1
  V  V7  1  0.62534900  0.33648200  0.91265800  1
  Te  Te8  1  0.05891000  0.75785700  0.09488100  1
  Te  Te9  1  0.55891000  0.24214300  0.40511900  1
  Te  Te10  1  0.94109000  0.24214300  0.90511900  1
  Te  Te11  1  0.44109000  0.75785700  0.59488100  1
  O  O12  1  0.90870100  0.88158000  0.02085000  1
  O  O13  1  0.40870100  0.11842000  0.47915000  1
  O  O14  1  0.09129900  0.11842000  0.97915000  1
  O  O15  1  0.59129900  0.88158000  0.52085000  1
  O  O16  1  0.97891400  0.43812100  0.22026300  1
  O  O17  1  0.47891400  0.56187900  0.27973700  1
  O  O18  1  0.02108600  0.56187900  0.77973700  1
  O  O19  1  0.52108600  0.43812100  0.72026300  1
  O  O20  1  0.78479100  0.14809900  0.34014300  1
  O  O21  1  0.28479100  0.85190100  0.15985700  1
  O  O22  1  0.21520900  0.85190100  0.65985700  1
  O  O23  1  0.71520900  0.14809900  0.84014300  1
  O  O24  1  0.55623100  0.17331000  0.14221900  1
  O  O25  1  0.05623100  0.82669000  0.35778100  1
  O  O26  1  0.44376900  0.82669000  0.85778100  1
  O  O27  1  0.94376900  0.17331000  0.64221900  1
  O  O28  1  0.69988200  0.55833300  0.95907900  1
  O  O29  1  0.19988200  0.44166700  0.54092100  1
  O  O30  1  0.30011800  0.44166700  0.04092100  1
  O  O31  1  0.80011800  0.55833300  0.45907900  1
