# generated using pymatgen
data_La2HfSe5
_symmetry_space_group_name_H-M   'P 1'
_cell_length_a   7.84286500
_cell_length_b   8.45702900
_cell_length_c   12.31580200
_cell_angle_alpha   90.00000000
_cell_angle_beta   90.00000000
_cell_angle_gamma   90.00000000
_symmetry_Int_Tables_number   1
_chemical_formula_structural   La2HfSe5
_chemical_formula_sum   'La8 Hf4 Se20'
_cell_volume   816.87434658
_cell_formula_units_Z   4
loop_
 _symmetry_equiv_pos_site_id
 _symmetry_equiv_pos_as_xyz
  1  'x, y, z'
loop_
 _atom_site_type_symbol
 _atom_site_label
 _atom_site_symmetry_multiplicity
 _atom_site_fract_x
 _atom_site_fract_y
 _atom_site_fract_z
 _atom_site_occupancy
  La  La0  1  0.96954800  0.00201900  0.17736100  1
  La  La1  1  0.53045200  0.49798100  0.67736100  1
  La  La2  1  0.03045200  0.50201900  0.82263900  1
  La  La3  1  0.46954800  0.99798100  0.32263900  1
  La  La4  1  0.03045200  0.99798100  0.82263900  1
  La  La5  1  0.46954800  0.50201900  0.32263900  1
  La  La6  1  0.96954800  0.49798100  0.17736100  1
  La  La7  1  0.53045200  0.00201900  0.67736100  1
  Hf  Hf8  1  0.42430400  0.75000000  0.00688400  1
  Hf  Hf9  1  0.07569600  0.75000000  0.50688400  1
  Hf  Hf10  1  0.57569600  0.25000000  0.99311600  1
  Hf  Hf11  1  0.92430400  0.25000000  0.49311600  1
  Se  Se12  1  0.83760100  0.96391500  0.41586500  1
  Se  Se13  1  0.66239900  0.53608500  0.91586500  1
  Se  Se14  1  0.16239900  0.46391500  0.58413500  1
  Se  Se15  1  0.33760100  0.03608500  0.08413500  1
  Se  Se16  1  0.16239900  0.03608500  0.58413500  1
  Se  Se17  1  0.33760100  0.46391500  0.08413500  1
  Se  Se18  1  0.83760100  0.53608500  0.41586500  1
  Se  Se19  1  0.66239900  0.96391500  0.91586500  1
  Se  Se20  1  0.65842800  0.75000000  0.17995400  1
  Se  Se21  1  0.84157200  0.75000000  0.67995400  1
  Se  Se22  1  0.34157200  0.25000000  0.82004600  1
  Se  Se23  1  0.15842800  0.25000000  0.32004600  1
  Se  Se24  1  0.44115000  0.75000000  0.50656100  1
  Se  Se25  1  0.05885000  0.75000000  0.00656100  1
  Se  Se26  1  0.55885000  0.25000000  0.49343900  1
  Se  Se27  1  0.94115000  0.25000000  0.99343900  1
  Se  Se28  1  0.18074400  0.75000000  0.29544400  1
  Se  Se29  1  0.31925600  0.75000000  0.79544400  1
  Se  Se30  1  0.81925600  0.25000000  0.70455600  1
  Se  Se31  1  0.68074400  0.25000000  0.20455600  1
