# generated using pymatgen
data_YbBiAu
_symmetry_space_group_name_H-M   'P 1'
_cell_length_a   4.84393769
_cell_length_b   4.84393769
_cell_length_c   7.79485100
_cell_angle_alpha   90.00000000
_cell_angle_beta   90.00000000
_cell_angle_gamma   119.99999571
_symmetry_Int_Tables_number   1
_chemical_formula_structural   YbBiAu
_chemical_formula_sum   'Yb2 Bi2 Au2'
_cell_volume   158.39284651
_cell_formula_units_Z   2
loop_
 _symmetry_equiv_pos_site_id
 _symmetry_equiv_pos_as_xyz
  1  'x, y, z'
loop_
 _atom_site_type_symbol
 _atom_site_label
 _atom_site_symmetry_multiplicity
 _atom_site_fract_x
 _atom_site_fract_y
 _atom_site_fract_z
 _atom_site_occupancy
  Yb  Yb0  1  0.00000000  0.00000000  0.26074100  1
  Yb  Yb1  1  0.00000000  0.00000000  0.76074100  1
  Bi  Bi2  1  0.33333300  0.66666700  0.03833200  1
  Bi  Bi3  1  0.66666700  0.33333300  0.53833200  1
  Au  Au4  1  0.33333300  0.66666700  0.43192700  1
  Au  Au5  1  0.66666700  0.33333300  0.93192700  1
