# generated using pymatgen
data_PrGeRh
_symmetry_space_group_name_H-M   'P 1'
_cell_length_a   4.49114000
_cell_length_b   7.25936000
_cell_length_c   7.57945400
_cell_angle_alpha   90.00000000
_cell_angle_beta   90.00000000
_cell_angle_gamma   90.00000000
_symmetry_Int_Tables_number   1
_chemical_formula_structural   PrGeRh
_chemical_formula_sum   'Pr4 Ge4 Rh4'
_cell_volume   247.11143856
_cell_formula_units_Z   4
loop_
 _symmetry_equiv_pos_site_id
 _symmetry_equiv_pos_as_xyz
  1  'x, y, z'
loop_
 _atom_site_type_symbol
 _atom_site_label
 _atom_site_symmetry_multiplicity
 _atom_site_fract_x
 _atom_site_fract_y
 _atom_site_fract_z
 _atom_site_occupancy
  Pr  Pr0  1  0.25000000  0.98335300  0.79973600  1
  Pr  Pr1  1  0.25000000  0.48335300  0.70026400  1
  Pr  Pr2  1  0.75000000  0.01664700  0.20026400  1
  Pr  Pr3  1  0.75000000  0.51664700  0.29973600  1
  Ge  Ge4  1  0.25000000  0.81283300  0.41325800  1
  Ge  Ge5  1  0.25000000  0.31283300  0.08674200  1
  Ge  Ge6  1  0.75000000  0.18716700  0.58674200  1
  Ge  Ge7  1  0.75000000  0.68716700  0.91325800  1
  Rh  Rh8  1  0.25000000  0.19293900  0.41503800  1
  Rh  Rh9  1  0.25000000  0.69293900  0.08496200  1
  Rh  Rh10  1  0.75000000  0.80706100  0.58496200  1
  Rh  Rh11  1  0.75000000  0.30706100  0.91503800  1
