# generated using pymatgen
data_Hf2HC
_symmetry_space_group_name_H-M   'P 1'
_cell_length_a   5.54532841
_cell_length_b   5.54532841
_cell_length_c   5.54532851
_cell_angle_alpha   34.71200082
_cell_angle_beta   34.71200082
_cell_angle_gamma   34.71199405
_symmetry_Int_Tables_number   1
_chemical_formula_structural   Hf2HC
_chemical_formula_sum   'Hf2 H1 C1'
_cell_volume   49.34874291
_cell_formula_units_Z   1
loop_
 _symmetry_equiv_pos_site_id
 _symmetry_equiv_pos_as_xyz
  1  'x, y, z'
loop_
 _atom_site_type_symbol
 _atom_site_label
 _atom_site_symmetry_multiplicity
 _atom_site_fract_x
 _atom_site_fract_y
 _atom_site_fract_z
 _atom_site_occupancy
  Hf  Hf0  1  0.24429300  0.24429300  0.24429300  1
  Hf  Hf1  1  0.75570700  0.75570700  0.75570700  1
  H  H2  1  0.00000000  0.00000000  0.00000000  1
  C  C3  1  0.50000000  0.50000000  0.50000000  1
