# generated using pymatgen
data_LiGa(SeO3)2
_symmetry_space_group_name_H-M   'P 1'
_cell_length_a   9.09429516
_cell_length_b   9.09429516
_cell_length_c   9.09429516
_cell_angle_alpha   107.66507236
_cell_angle_beta   107.66507236
_cell_angle_gamma   113.14724687
_symmetry_Int_Tables_number   1
_chemical_formula_structural   LiGa(SeO3)2
_chemical_formula_sum   'Li4 Ga4 Se8 O24'
_cell_volume   577.20915075
_cell_formula_units_Z   4
loop_
 _symmetry_equiv_pos_site_id
 _symmetry_equiv_pos_as_xyz
  1  'x, y, z'
loop_
 _atom_site_type_symbol
 _atom_site_label
 _atom_site_symmetry_multiplicity
 _atom_site_fract_x
 _atom_site_fract_y
 _atom_site_fract_z
 _atom_site_occupancy
  Li  Li0  1  0.68922800  0.87500000  0.31422800  1
  Li  Li1  1  0.56077200  0.37500000  0.68577200  1
  Li  Li2  1  0.62500000  0.31077200  0.18577200  1
  Li  Li3  1  0.12500000  0.43922800  0.81422800  1
  Ga  Ga4  1  0.41267400  0.87500000  0.03767400  1
  Ga  Ga5  1  0.83732600  0.37500000  0.96232600  1
  Ga  Ga6  1  0.62500000  0.58732600  0.46232600  1
  Ga  Ga7  1  0.12500000  0.16267400  0.53767400  1
  Se  Se8  1  0.85577000  0.13455100  0.17175200  1
  Se  Se9  1  0.28720100  0.61544900  0.22121900  1
  Se  Se10  1  0.96279900  0.68401800  0.82824800  1
  Se  Se11  1  0.39423000  0.06598200  0.77878100  1
  Se  Se12  1  0.31598200  0.14423000  0.27878100  1
  Se  Se13  1  0.38455100  0.60577000  0.67175200  1
  Se  Se14  1  0.86544900  0.03720100  0.72121900  1
  Se  Se15  1  0.93401800  0.71279900  0.32824800  1
  O  O16  1  0.68024200  0.04770100  0.22097700  1
  O  O17  1  0.42327600  0.70229900  0.13254100  1
  O  O18  1  0.82672400  0.45926500  0.77902300  1
  O  O19  1  0.56975800  0.29073500  0.86745900  1
  O  O20  1  0.54073500  0.31975800  0.36745900  1
  O  O21  1  0.29770100  0.43024200  0.72097700  1
  O  O22  1  0.95229900  0.17327600  0.63254100  1
  O  O23  1  0.70926500  0.57672400  0.27902300  1
  O  O24  1  0.84021900  0.31609600  0.15845500  1
  O  O25  1  0.09235900  0.43390400  0.02412300  1
  O  O26  1  0.15764100  0.68176400  0.84154400  1
  O  O27  1  0.40978100  0.06823600  0.97587700  1
  O  O28  1  0.31823600  0.15978100  0.47587700  1
  O  O29  1  0.56609600  0.59021900  0.65845500  1
  O  O30  1  0.68390400  0.84235900  0.52412300  1
  O  O31  1  0.93176400  0.90764100  0.34154400  1
  O  O32  1  0.04260900  0.25504800  0.37755900  1
  O  O33  1  0.37251000  0.49495200  0.28756000  1
  O  O34  1  0.87749000  0.66505000  0.62244100  1
  O  O35  1  0.20739100  0.08495000  0.71244000  1
  O  O36  1  0.33495000  0.95739100  0.21244000  1
  O  O37  1  0.50504800  0.79260900  0.87755900  1
  O  O38  1  0.74495200  0.12251000  0.78756000  1
  O  O39  1  0.91505000  0.62749000  0.12244100  1
