# generated using pymatgen
data_PRu
_symmetry_space_group_name_H-M   'P 1'
_cell_length_a   3.17921900
_cell_length_b   5.55742400
_cell_length_c   6.19558900
_cell_angle_alpha   90.00000000
_cell_angle_beta   90.00000000
_cell_angle_gamma   90.00000000
_symmetry_Int_Tables_number   1
_chemical_formula_structural   PRu
_chemical_formula_sum   'P4 Ru4'
_cell_volume   109.46532670
_cell_formula_units_Z   4
loop_
 _symmetry_equiv_pos_site_id
 _symmetry_equiv_pos_as_xyz
  1  'x, y, z'
loop_
 _atom_site_type_symbol
 _atom_site_label
 _atom_site_symmetry_multiplicity
 _atom_site_fract_x
 _atom_site_fract_y
 _atom_site_fract_z
 _atom_site_occupancy
  P  P0  1  0.25000000  0.69006700  0.06472700  1
  P  P1  1  0.75000000  0.30993300  0.93527300  1
  P  P2  1  0.25000000  0.19006700  0.43527300  1
  P  P3  1  0.75000000  0.80993300  0.56472700  1
  Ru  Ru4  1  0.25000000  0.49054700  0.70696600  1
  Ru  Ru5  1  0.75000000  0.50945300  0.29303400  1
  Ru  Ru6  1  0.25000000  0.99054700  0.79303400  1
  Ru  Ru7  1  0.75000000  0.00945300  0.20696500  1
