# generated using pymatgen
data_PrZrF7
_symmetry_space_group_name_H-M   'P 1'
_cell_length_a   5.88540300
_cell_length_b   6.35311100
_cell_length_c   8.55117776
_cell_angle_alpha   78.53472364
_cell_angle_beta   90.00000000
_cell_angle_gamma   90.00000000
_symmetry_Int_Tables_number   1
_chemical_formula_structural   PrZrF7
_chemical_formula_sum   'Pr2 Zr2 F14'
_cell_volume   313.35364907
_cell_formula_units_Z   2
loop_
 _symmetry_equiv_pos_site_id
 _symmetry_equiv_pos_as_xyz
  1  'x, y, z'
loop_
 _atom_site_type_symbol
 _atom_site_label
 _atom_site_symmetry_multiplicity
 _atom_site_fract_x
 _atom_site_fract_y
 _atom_site_fract_z
 _atom_site_occupancy
  Pr  Pr0  1  0.19960400  0.65738400  0.31255400  1
  Pr  Pr1  1  0.69960400  0.34261600  0.68744600  1
  Zr  Zr2  1  0.20834200  0.81151200  0.77577200  1
  Zr  Zr3  1  0.70834200  0.18848800  0.22422800  1
  F  F4  1  0.38468500  0.44888600  0.52622500  1
  F  F5  1  0.88468500  0.55111400  0.47377500  1
  F  F6  1  0.92055400  0.93236700  0.23086100  1
  F  F7  1  0.42055400  0.06763300  0.76913900  1
  F  F8  1  0.44808700  0.97054300  0.23873400  1
  F  F9  1  0.94808700  0.02945700  0.76126600  1
  F  F10  1  0.50028600  0.44823100  0.21386000  1
  F  F11  1  0.00028600  0.55176900  0.78614000  1
  F  F12  1  0.20559000  0.75676800  0.01904100  1
  F  F13  1  0.70559000  0.24323200  0.98095900  1
  F  F14  1  0.21351000  0.85796900  0.53226900  1
  F  F15  1  0.71351000  0.14203100  0.46773100  1
  F  F16  1  0.99570000  0.37367000  0.21691500  1
  F  F17  1  0.49570000  0.62633000  0.78308500  1
