# generated using pymatgen
data_TmInCu4
_symmetry_space_group_name_H-M   'P 1'
_cell_length_a   5.08643404
_cell_length_b   5.08643404
_cell_length_c   5.08643404
_cell_angle_alpha   60.00000000
_cell_angle_beta   60.00000000
_cell_angle_gamma   60.00000000
_symmetry_Int_Tables_number   1
_chemical_formula_structural   TmInCu4
_chemical_formula_sum   'Tm1 In1 Cu4'
_cell_volume   93.05190156
_cell_formula_units_Z   1
loop_
 _symmetry_equiv_pos_site_id
 _symmetry_equiv_pos_as_xyz
  1  'x, y, z'
loop_
 _atom_site_type_symbol
 _atom_site_label
 _atom_site_symmetry_multiplicity
 _atom_site_fract_x
 _atom_site_fract_y
 _atom_site_fract_z
 _atom_site_occupancy
  Tm  Tm0  1  0.25000000  0.25000000  0.25000000  1
  In  In1  1  0.00000000  0.00000000  0.00000000  1
  Cu  Cu2  1  0.62506600  0.62506600  0.62506600  1
  Cu  Cu3  1  0.62506600  0.62506600  0.12480200  1
  Cu  Cu4  1  0.62506600  0.12480200  0.62506600  1
  Cu  Cu5  1  0.12480200  0.62506600  0.62506600  1
