# generated using pymatgen
data_Cs2(PSe2)3
_symmetry_space_group_name_H-M   'P 1'
_cell_length_a   10.84843000
_cell_length_b   11.17113300
_cell_length_c   15.61266154
_cell_angle_alpha   53.98437230
_cell_angle_beta   90.00000000
_cell_angle_gamma   90.00000000
_symmetry_Int_Tables_number   1
_chemical_formula_structural   Cs2(PSe2)3
_chemical_formula_sum   'Cs8 P12 Se24'
_cell_volume   1530.42698585
_cell_formula_units_Z   4
loop_
 _symmetry_equiv_pos_site_id
 _symmetry_equiv_pos_as_xyz
  1  'x, y, z'
loop_
 _atom_site_type_symbol
 _atom_site_label
 _atom_site_symmetry_multiplicity
 _atom_site_fract_x
 _atom_site_fract_y
 _atom_site_fract_z
 _atom_site_occupancy
  Cs  Cs0  1  0.99896700  0.75592800  0.25402800  1
  Cs  Cs1  1  0.00103300  0.24407200  0.74597200  1
  Cs  Cs2  1  0.49896700  0.24407200  0.24597200  1
  Cs  Cs3  1  0.50103300  0.75592800  0.75402800  1
  Cs  Cs4  1  0.99959600  0.34523500  0.17841600  1
  Cs  Cs5  1  0.00040400  0.65476500  0.82158400  1
  Cs  Cs6  1  0.49959600  0.65476500  0.32158400  1
  Cs  Cs7  1  0.50040400  0.34523500  0.67841600  1
  P  P8  1  0.95084600  0.99581000  0.43811800  1
  P  P9  1  0.04915400  0.00419000  0.56188200  1
  P  P10  1  0.45084600  0.00419000  0.06188200  1
  P  P11  1  0.54915400  0.99581000  0.93811800  1
  P  P12  1  0.68319700  0.85262200  0.44307700  1
  P  P13  1  0.31680300  0.14737800  0.55692300  1
  P  P14  1  0.18319700  0.14737800  0.05692300  1
  P  P15  1  0.81680300  0.85262200  0.94307700  1
  P  P16  1  0.70085200  0.63966300  0.05563900  1
  P  P17  1  0.29914800  0.36033700  0.94436100  1
  P  P18  1  0.20085200  0.36033700  0.44436100  1
  P  P19  1  0.79914800  0.63966300  0.55563900  1
  Se  Se20  1  0.49268500  0.79865000  0.48940100  1
  Se  Se21  1  0.50731500  0.20135000  0.51059900  1
  Se  Se22  1  0.99268500  0.20135000  0.01059900  1
  Se  Se23  1  0.00731500  0.79865000  0.98940100  1
  Se  Se24  1  0.78803400  0.50197200  0.50071300  1
  Se  Se25  1  0.21196600  0.49802800  0.49928700  1
  Se  Se26  1  0.28803400  0.49802800  0.99928700  1
  Se  Se27  1  0.71196600  0.50197200  0.00071300  1
  Se  Se28  1  0.50287000  0.74703800  0.01414900  1
  Se  Se29  1  0.49713000  0.25296200  0.98585100  1
  Se  Se30  1  0.00287000  0.25296200  0.48585100  1
  Se  Se31  1  0.99713000  0.74703800  0.51414900  1
  Se  Se32  1  0.73476100  0.95879100  0.28025900  1
  Se  Se33  1  0.26523900  0.04120900  0.71974100  1
  Se  Se34  1  0.23476100  0.04120900  0.21974100  1
  Se  Se35  1  0.76523900  0.95879100  0.78025900  1
  Se  Se36  1  0.74285600  0.98455700  0.00458600  1
  Se  Se37  1  0.25714400  0.01544300  0.99541400  1
  Se  Se38  1  0.24285600  0.01544300  0.49541400  1
  Se  Se39  1  0.75714400  0.98455700  0.50458600  1
  Se  Se40  1  0.74503000  0.53319500  0.22040400  1
  Se  Se41  1  0.25497000  0.46680500  0.77959600  1
  Se  Se42  1  0.24503000  0.46680500  0.27959600  1
  Se  Se43  1  0.75497000  0.53319500  0.72040400  1
