# generated using pymatgen
data_Eu3Sb4Se9
_symmetry_space_group_name_H-M   'P 1'
_cell_length_a   4.20361600
_cell_length_b   17.31468200
_cell_length_c   25.30238300
_cell_angle_alpha   90.00000000
_cell_angle_beta   90.00000000
_cell_angle_gamma   90.00000000
_symmetry_Int_Tables_number   1
_chemical_formula_structural   Eu3Sb4Se9
_chemical_formula_sum   'Eu12 Sb16 Se36'
_cell_volume   1841.61558447
_cell_formula_units_Z   4
loop_
 _symmetry_equiv_pos_site_id
 _symmetry_equiv_pos_as_xyz
  1  'x, y, z'
loop_
 _atom_site_type_symbol
 _atom_site_label
 _atom_site_symmetry_multiplicity
 _atom_site_fract_x
 _atom_site_fract_y
 _atom_site_fract_z
 _atom_site_occupancy
  Eu  Eu0  1  0.25000000  0.12296500  0.44524000  1
  Eu  Eu1  1  0.25000000  0.62296500  0.05476000  1
  Eu  Eu2  1  0.75000000  0.87703500  0.55476000  1
  Eu  Eu3  1  0.75000000  0.37703500  0.94524000  1
  Eu  Eu4  1  0.25000000  0.32661500  0.32616300  1
  Eu  Eu5  1  0.25000000  0.82661500  0.17383700  1
  Eu  Eu6  1  0.75000000  0.67338500  0.67383700  1
  Eu  Eu7  1  0.75000000  0.17338500  0.82616300  1
  Eu  Eu8  1  0.25000000  0.05828800  0.26475200  1
  Eu  Eu9  1  0.25000000  0.55828800  0.23524800  1
  Eu  Eu10  1  0.75000000  0.94171200  0.73524800  1
  Eu  Eu11  1  0.75000000  0.44171200  0.76475200  1
  Sb  Sb12  1  0.25000000  0.16838500  0.99392400  1
  Sb  Sb13  1  0.25000000  0.66838500  0.50607600  1
  Sb  Sb14  1  0.75000000  0.83161500  0.00607600  1
  Sb  Sb15  1  0.75000000  0.33161500  0.49392400  1
  Sb  Sb16  1  0.25000000  0.47184000  0.60689000  1
  Sb  Sb17  1  0.25000000  0.97184000  0.89311000  1
  Sb  Sb18  1  0.75000000  0.52816000  0.39311000  1
  Sb  Sb19  1  0.75000000  0.02816000  0.10689000  1
  Sb  Sb20  1  0.25000000  0.09078600  0.60687700  1
  Sb  Sb21  1  0.25000000  0.59078600  0.89312300  1
  Sb  Sb22  1  0.75000000  0.90921400  0.39312300  1
  Sb  Sb23  1  0.75000000  0.40921400  0.10687700  1
  Sb  Sb24  1  0.25000000  0.25367600  0.67791400  1
  Sb  Sb25  1  0.25000000  0.75367600  0.82208600  1
  Sb  Sb26  1  0.75000000  0.74632400  0.32208600  1
  Sb  Sb27  1  0.75000000  0.24632400  0.17791400  1
  Se  Se28  1  0.25000000  0.25137400  0.90781600  1
  Se  Se29  1  0.25000000  0.75137400  0.59218400  1
  Se  Se30  1  0.75000000  0.74862600  0.09218400  1
  Se  Se31  1  0.75000000  0.24862600  0.40781600  1
  Se  Se32  1  0.25000000  0.44679100  0.86149500  1
  Se  Se33  1  0.25000000  0.94679100  0.63850500  1
  Se  Se34  1  0.75000000  0.55320900  0.13850500  1
  Se  Se35  1  0.75000000  0.05320900  0.36149500  1
  Se  Se36  1  0.25000000  0.04154300  0.80121900  1
  Se  Se37  1  0.25000000  0.54154300  0.69878100  1
  Se  Se38  1  0.75000000  0.95845700  0.19878100  1
  Se  Se39  1  0.75000000  0.45845700  0.30121900  1
  Se  Se40  1  0.25000000  0.29618600  0.77687300  1
  Se  Se41  1  0.25000000  0.79618600  0.72312700  1
  Se  Se42  1  0.75000000  0.70381400  0.22312700  1
  Se  Se43  1  0.75000000  0.20381400  0.27687300  1
  Se  Se44  1  0.25000000  0.43712400  0.43065100  1
  Se  Se45  1  0.25000000  0.93712400  0.06934900  1
  Se  Se46  1  0.75000000  0.56287600  0.56934900  1
  Se  Se47  1  0.75000000  0.06287600  0.93065100  1
  Se  Se48  1  0.25000000  0.44085400  0.03607700  1
  Se  Se49  1  0.25000000  0.94085400  0.46392300  1
  Se  Se50  1  0.75000000  0.55914600  0.96392300  1
  Se  Se51  1  0.75000000  0.05914600  0.53607700  1
  Se  Se52  1  0.25000000  0.25185500  0.53535500  1
  Se  Se53  1  0.25000000  0.75185500  0.96464500  1
  Se  Se54  1  0.75000000  0.74814500  0.46464500  1
  Se  Se55  1  0.75000000  0.24814500  0.03535500  1
  Se  Se56  1  0.25000000  0.36489100  0.19648900  1
  Se  Se57  1  0.25000000  0.86489100  0.30351100  1
  Se  Se58  1  0.75000000  0.63510900  0.80351100  1
  Se  Se59  1  0.75000000  0.13510900  0.69648900  1
  Se  Se60  1  0.25000000  0.13744500  0.15264600  1
  Se  Se61  1  0.25000000  0.63744500  0.34735400  1
  Se  Se62  1  0.75000000  0.86255500  0.84735400  1
  Se  Se63  1  0.75000000  0.36255500  0.65264600  1
