# generated using pymatgen
data_Yb2(GePt3)3
_symmetry_space_group_name_H-M   'P 1'
_cell_length_a   7.76538821
_cell_length_b   7.76538821
_cell_length_c   10.05836882
_cell_angle_alpha   67.35736487
_cell_angle_beta   67.35736487
_cell_angle_gamma   60.25945925
_symmetry_Int_Tables_number   1
_chemical_formula_structural   Yb2(GePt3)3
_chemical_formula_sum   'Yb4 Ge6 Pt18'
_cell_volume   471.59047861
_cell_formula_units_Z   2
loop_
 _symmetry_equiv_pos_site_id
 _symmetry_equiv_pos_as_xyz
  1  'x, y, z'
loop_
 _atom_site_type_symbol
 _atom_site_label
 _atom_site_symmetry_multiplicity
 _atom_site_fract_x
 _atom_site_fract_y
 _atom_site_fract_z
 _atom_site_occupancy
  Yb  Yb0  1  0.41556900  0.24509900  0.75057000  1
  Yb  Yb1  1  0.58443100  0.75490100  0.24943000  1
  Yb  Yb2  1  0.75490100  0.58443100  0.74943000  1
  Yb  Yb3  1  0.24509900  0.41556900  0.25057000  1
  Ge  Ge4  1  0.50000000  0.00000000  0.50000000  1
  Ge  Ge5  1  0.00000000  0.50000000  0.00000000  1
  Ge  Ge6  1  0.63914500  0.18146100  0.99779400  1
  Ge  Ge7  1  0.36085500  0.81853900  0.00220600  1
  Ge  Ge8  1  0.81853900  0.36085500  0.50220600  1
  Ge  Ge9  1  0.18146100  0.63914500  0.49779400  1
  Pt  Pt10  1  0.29460800  0.91615900  0.75703700  1
  Pt  Pt11  1  0.70539200  0.08384100  0.24296300  1
  Pt  Pt12  1  0.08384100  0.70539200  0.74296300  1
  Pt  Pt13  1  0.91615900  0.29460800  0.25703700  1
  Pt  Pt14  1  0.47712100  0.64094200  0.57722300  1
  Pt  Pt15  1  0.52287900  0.35905800  0.42277700  1
  Pt  Pt16  1  0.35905800  0.52287900  0.92277700  1
  Pt  Pt17  1  0.64094200  0.47712100  0.07722300  1
  Pt  Pt18  1  0.86633900  0.13366100  0.75000000  1
  Pt  Pt19  1  0.13366100  0.86633900  0.25000000  1
  Pt  Pt20  1  0.80504400  0.98019300  0.56850400  1
  Pt  Pt21  1  0.19495600  0.01980700  0.43149600  1
  Pt  Pt22  1  0.01980700  0.19495600  0.93149600  1
  Pt  Pt23  1  0.98019300  0.80504400  0.06850400  1
  Pt  Pt24  1  0.69406200  0.85929900  0.92213900  1
  Pt  Pt25  1  0.30593800  0.14070100  0.07786100  1
  Pt  Pt26  1  0.14070100  0.30593800  0.57786100  1
  Pt  Pt27  1  0.85929900  0.69406200  0.42213900  1
