# generated using pymatgen
data_Ba2CdP4(H3O8)2
_symmetry_space_group_name_H-M   'P 1'
_cell_length_a   10.42923000
_cell_length_b   5.50831500
_cell_length_c   12.36904974
_cell_angle_alpha   79.77467274
_cell_angle_beta   90.00000000
_cell_angle_gamma   90.00000000
_symmetry_Int_Tables_number   1
_chemical_formula_structural   Ba2CdP4(H3O8)2
_chemical_formula_sum   'Ba4 Cd2 P8 H12 O32'
_cell_volume   699.28495708
_cell_formula_units_Z   2
loop_
 _symmetry_equiv_pos_site_id
 _symmetry_equiv_pos_as_xyz
  1  'x, y, z'
loop_
 _atom_site_type_symbol
 _atom_site_label
 _atom_site_symmetry_multiplicity
 _atom_site_fract_x
 _atom_site_fract_y
 _atom_site_fract_z
 _atom_site_occupancy
  Ba  Ba0  1  0.34701600  0.85907400  0.81966000  1
  Ba  Ba1  1  0.84701600  0.14092600  0.68034000  1
  Ba  Ba2  1  0.65298400  0.14092600  0.18034000  1
  Ba  Ba3  1  0.15298400  0.85907400  0.31966000  1
  Cd  Cd4  1  0.50000000  0.00000000  0.50000000  1
  Cd  Cd5  1  0.00000000  0.00000000  0.00000000  1
  P  P6  1  0.30453700  0.23612100  0.05408500  1
  P  P7  1  0.80453700  0.76387900  0.44591500  1
  P  P8  1  0.69546300  0.76387900  0.94591500  1
  P  P9  1  0.19546300  0.23612100  0.55408500  1
  P  P10  1  0.00840500  0.58786000  0.80171600  1
  P  P11  1  0.50840500  0.41214000  0.69828400  1
  P  P12  1  0.99159500  0.41214000  0.19828400  1
  P  P13  1  0.49159500  0.58786000  0.30171600  1
  H  H14  1  0.46597700  0.28962200  0.93780100  1
  H  H15  1  0.96597700  0.71037800  0.56219900  1
  H  H16  1  0.53402300  0.71037800  0.06219900  1
  H  H17  1  0.03402300  0.28962200  0.43780100  1
  H  H18  1  0.18509400  0.56358100  0.05801500  1
  H  H19  1  0.68509400  0.43641900  0.44198500  1
  H  H20  1  0.81490600  0.43641900  0.94198500  1
  H  H21  1  0.31490600  0.56358100  0.55801500  1
  H  H22  1  0.17486100  0.38144100  0.74680600  1
  H  H23  1  0.67486100  0.61855900  0.75319400  1
  H  H24  1  0.82513900  0.61855900  0.25319400  1
  H  H25  1  0.32513900  0.38144100  0.24680600  1
  O  O26  1  0.45203500  0.23596100  0.02085400  1
  O  O27  1  0.95203500  0.76403900  0.47914600  1
  O  O28  1  0.54796500  0.76403900  0.97914600  1
  O  O29  1  0.04796500  0.23596100  0.52085400  1
  O  O30  1  0.26555200  0.51963700  0.01863900  1
  O  O31  1  0.76555200  0.48036300  0.48136100  1
  O  O32  1  0.73444800  0.48036300  0.98136100  1
  O  O33  1  0.23444800  0.51963700  0.51863900  1
  O  O34  1  0.30034200  0.16743800  0.17913900  1
  O  O35  1  0.80034200  0.83256200  0.32086100  1
  O  O36  1  0.69965800  0.83256200  0.82086100  1
  O  O37  1  0.19965800  0.16743800  0.67913900  1
  O  O38  1  0.22879900  0.07084800  0.99022600  1
  O  O39  1  0.72879900  0.92915200  0.50977400  1
  O  O40  1  0.77120100  0.92915200  0.00977400  1
  O  O41  1  0.27120100  0.07084800  0.49022600  1
  O  O42  1  0.15683700  0.52108400  0.78927700  1
  O  O43  1  0.65683700  0.47891600  0.71072300  1
  O  O44  1  0.84316300  0.47891600  0.21072300  1
  O  O45  1  0.34316300  0.52108400  0.28927700  1
  O  O46  1  0.94089700  0.36794800  0.87675500  1
  O  O47  1  0.44089700  0.63205200  0.62324500  1
  O  O48  1  0.05910300  0.63205200  0.12324500  1
  O  O49  1  0.55910300  0.36794800  0.37675500  1
  O  O50  1  0.94512900  0.62741800  0.68733500  1
  O  O51  1  0.44512900  0.37258200  0.81266500  1
  O  O52  1  0.05487100  0.37258200  0.31266500  1
  O  O53  1  0.55487100  0.62741800  0.18733500  1
  O  O54  1  0.00860900  0.82876100  0.84782100  1
  O  O55  1  0.50860900  0.17123900  0.65217900  1
  O  O56  1  0.99139100  0.17123900  0.15217900  1
  O  O57  1  0.49139100  0.82876100  0.34782100  1
