# generated using pymatgen
data_GdAu2
_symmetry_space_group_name_H-M   'P 1'
_cell_length_a   5.29180528
_cell_length_b   5.29180528
_cell_length_c   5.29180528
_cell_angle_alpha   137.96122467
_cell_angle_beta   137.96122467
_cell_angle_gamma   60.96238995
_symmetry_Int_Tables_number   1
_chemical_formula_structural   GdAu2
_chemical_formula_sum   'Gd1 Au2'
_cell_volume   65.72029137
_cell_formula_units_Z   1
loop_
 _symmetry_equiv_pos_site_id
 _symmetry_equiv_pos_as_xyz
  1  'x, y, z'
loop_
 _atom_site_type_symbol
 _atom_site_label
 _atom_site_symmetry_multiplicity
 _atom_site_fract_x
 _atom_site_fract_y
 _atom_site_fract_z
 _atom_site_occupancy
  Gd  Gd0  1  0.00000000  0.00000000  0.00000000  1
  Au  Au1  1  0.66473600  0.66473600  0.00000000  1
  Au  Au2  1  0.33526400  0.33526400  0.00000000  1
