# generated using pymatgen
data_Cs8(Re4S9)3
_symmetry_space_group_name_H-M   'P 1'
_cell_length_a   17.85006700
_cell_length_b   10.36764200
_cell_length_c   13.93971210
_cell_angle_alpha   79.68354995
_cell_angle_beta   90.00000000
_cell_angle_gamma   90.00000000
_symmetry_Int_Tables_number   1
_chemical_formula_structural   Cs8(Re4S9)3
_chemical_formula_sum   'Cs16 Re24 S54'
_cell_volume   2538.02166540
_cell_formula_units_Z   2
loop_
 _symmetry_equiv_pos_site_id
 _symmetry_equiv_pos_as_xyz
  1  'x, y, z'
loop_
 _atom_site_type_symbol
 _atom_site_label
 _atom_site_symmetry_multiplicity
 _atom_site_fract_x
 _atom_site_fract_y
 _atom_site_fract_z
 _atom_site_occupancy
  Cs  Cs0  1  0.47318400  0.02370600  0.04815800  1
  Cs  Cs1  1  0.02624100  0.52826400  0.54553600  1
  Cs  Cs2  1  0.52624100  0.47173600  0.45446400  1
  Cs  Cs3  1  0.97318400  0.97629400  0.95184200  1
  Cs  Cs4  1  0.15297700  0.05555600  0.14423900  1
  Cs  Cs5  1  0.34437700  0.55283200  0.64016100  1
  Cs  Cs6  1  0.84437700  0.44716800  0.35983900  1
  Cs  Cs7  1  0.65297700  0.94444400  0.85576100  1
  Cs  Cs8  1  0.12655800  0.50535100  0.85136400  1
  Cs  Cs9  1  0.37431400  0.00566700  0.35203000  1
  Cs  Cs10  1  0.87431400  0.99433300  0.64797000  1
  Cs  Cs11  1  0.62655800  0.49464900  0.14863600  1
  Cs  Cs12  1  0.47346700  0.41258100  0.95482000  1
  Cs  Cs13  1  0.02771900  0.94432000  0.43158500  1
  Cs  Cs14  1  0.52771900  0.05568000  0.56841500  1
  Cs  Cs15  1  0.97346700  0.58741900  0.04518000  1
  Re  Re16  1  0.28434800  0.13593800  0.64391600  1
  Re  Re17  1  0.21535200  0.63508700  0.14426500  1
  Re  Re18  1  0.71535200  0.36491300  0.85573500  1
  Re  Re19  1  0.78434800  0.86406200  0.35608400  1
  Re  Re20  1  0.30072700  0.41497200  0.36183400  1
  Re  Re21  1  0.19939700  0.91581300  0.86175700  1
  Re  Re22  1  0.69939700  0.08418700  0.13824300  1
  Re  Re23  1  0.80072700  0.58502800  0.63816600  1
  Re  Re24  1  0.14852800  0.10937500  0.72648000  1
  Re  Re25  1  0.35108800  0.60922100  0.22651000  1
  Re  Re26  1  0.85108800  0.39077900  0.77349000  1
  Re  Re27  1  0.64852800  0.89062500  0.27352000  1
  Re  Re28  1  0.16683500  0.44109100  0.28020500  1
  Re  Re29  1  0.33346100  0.94420600  0.77993700  1
  Re  Re30  1  0.83346100  0.05579400  0.22006300  1
  Re  Re31  1  0.66683500  0.55890900  0.71979500  1
  Re  Re32  1  0.28478000  0.40588400  0.17379500  1
  Re  Re33  1  0.21527000  0.90628500  0.67394300  1
  Re  Re34  1  0.71527000  0.09371500  0.32605700  1
  Re  Re35  1  0.78478000  0.59411600  0.82620500  1
  Re  Re36  1  0.26679100  0.14746000  0.83116300  1
  Re  Re37  1  0.23250000  0.64614000  0.33110500  1
  Re  Re38  1  0.73250000  0.35386000  0.66889500  1
  Re  Re39  1  0.76679100  0.85254000  0.16883700  1
  S  S40  1  0.35768700  0.61609200  0.39746400  1
  S  S41  1  0.14193400  0.11618400  0.89780900  1
  S  S42  1  0.64193400  0.88381600  0.10219100  1
  S  S43  1  0.85768700  0.38390800  0.60253600  1
  S  S44  1  0.17191100  0.09450800  0.55719200  1
  S  S45  1  0.32803200  0.59435600  0.05712300  1
  S  S46  1  0.82803200  0.40564400  0.94287700  1
  S  S47  1  0.67191100  0.90549200  0.44280800  1
  S  S48  1  0.20593300  0.82136900  0.42421000  1
  S  S49  1  0.29341000  0.32165600  0.92469200  1
  S  S50  1  0.79341000  0.67834400  0.07530800  1
  S  S51  1  0.70593300  0.17863100  0.57579000  1
  S  S52  1  0.31910800  0.24317000  0.07199700  1
  S  S53  1  0.17850500  0.74546800  0.57143000  1
  S  S54  1  0.67850500  0.25453200  0.42857000  1
  S  S55  1  0.81910800  0.75683000  0.92800300  1
  S  S56  1  0.38886100  0.16133300  0.75204500  1
  S  S57  1  0.11019300  0.65822500  0.25156600  1
  S  S58  1  0.61019300  0.34177500  0.74843400  1
  S  S59  1  0.88886100  0.83866700  0.24795500  1
  S  S60  1  0.09405200  0.88928300  0.75486500  1
  S  S61  1  0.40607000  0.38957400  0.25468900  1
  S  S62  1  0.90607000  0.61042600  0.74531100  1
  S  S63  1  0.59405200  0.11071700  0.24513500  1
  S  S64  1  0.19037800  0.45950100  0.44828000  1
  S  S65  1  0.30942400  0.96199300  0.94826600  1
  S  S66  1  0.80942400  0.03800700  0.05173400  1
  S  S67  1  0.69037800  0.54049900  0.55172000  1
  S  S68  1  0.15887000  0.43471500  0.10824500  1
  S  S69  1  0.34065600  0.93503800  0.60771200  1
  S  S70  1  0.84065600  0.06496200  0.39228800  1
  S  S71  1  0.65887000  0.56528500  0.89175500  1
  S  S72  1  0.35637500  0.27220800  0.50646500  1
  S  S73  1  0.14427700  0.77356900  0.00677100  1
  S  S74  1  0.64427700  0.22643100  0.99322900  1
  S  S75  1  0.85637500  0.72779200  0.49353500  1
  S  S76  1  0.47615000  0.71507600  0.18869900  1
  S  S77  1  0.02360000  0.21555000  0.68840700  1
  S  S78  1  0.52360000  0.78445000  0.31159300  1
  S  S79  1  0.97615000  0.28492400  0.81130100  1
  S  S80  1  0.46048900  0.85530100  0.82241100  1
  S  S81  1  0.04776500  0.32319800  0.33570200  1
  S  S82  1  0.54776500  0.67680200  0.66429800  1
  S  S83  1  0.96048900  0.14469900  0.17758900  1
  S  S84  1  0.23639800  0.23806400  0.30453100  1
  S  S85  1  0.26505900  0.73960300  0.80451800  1
  S  S86  1  0.76505900  0.26039700  0.19548200  1
  S  S87  1  0.73639800  0.76193600  0.69546900  1
  S  S88  1  0.21792600  0.31315800  0.70002500  1
  S  S89  1  0.28111800  0.81275800  0.20050700  1
  S  S90  1  0.78111800  0.18724200  0.79949300  1
  S  S91  1  0.71792600  0.68684200  0.29997500  1
  S  S92  1  0.47430700  0.67447100  0.78032000  1
  S  S93  1  0.97430700  0.32552900  0.21968000  1
