# generated using pymatgen
data_Rb3Dy(PO4)2
_symmetry_space_group_name_H-M   'P 1'
_cell_length_a   5.74820117
_cell_length_b   5.74820117
_cell_length_c   8.24121500
_cell_angle_alpha   90.00000000
_cell_angle_beta   90.00000000
_cell_angle_gamma   119.99999045
_symmetry_Int_Tables_number   1
_chemical_formula_structural   Rb3Dy(PO4)2
_chemical_formula_sum   'Rb3 Dy1 P2 O8'
_cell_volume   235.82282377
_cell_formula_units_Z   1
loop_
 _symmetry_equiv_pos_site_id
 _symmetry_equiv_pos_as_xyz
  1  'x, y, z'
loop_
 _atom_site_type_symbol
 _atom_site_label
 _atom_site_symmetry_multiplicity
 _atom_site_fract_x
 _atom_site_fract_y
 _atom_site_fract_z
 _atom_site_occupancy
  Rb  Rb0  1  0.33333300  0.66666700  0.75823400  1
  Rb  Rb1  1  0.66666700  0.33333300  0.24176600  1
  Rb  Rb2  1  0.00000000  0.00000000  0.00000000  1
  Dy  Dy3  1  0.00000000  0.00000000  0.50000000  1
  P  P4  1  0.33333300  0.66666700  0.27624300  1
  P  P5  1  0.66666700  0.33333300  0.72375700  1
  O  O6  1  0.33333300  0.66666700  0.09040700  1
  O  O7  1  0.66666700  0.33333300  0.90959300  1
  O  O8  1  0.18554900  0.81445100  0.34165000  1
  O  O9  1  0.81445100  0.18554900  0.65835000  1
  O  O10  1  0.18554900  0.37109900  0.34165000  1
  O  O11  1  0.81445100  0.62890100  0.65835000  1
  O  O12  1  0.62890100  0.81445100  0.34165000  1
  O  O13  1  0.37109900  0.18554900  0.65835000  1
