# generated using pymatgen
data_NaGaCl4
_symmetry_space_group_name_H-M   'P 1'
_cell_length_a   6.33805200
_cell_length_b   10.07279800
_cell_length_c   10.51048800
_cell_angle_alpha   90.00000000
_cell_angle_beta   90.00000000
_cell_angle_gamma   90.00000000
_symmetry_Int_Tables_number   1
_chemical_formula_structural   NaGaCl4
_chemical_formula_sum   'Na4 Ga4 Cl16'
_cell_volume   671.00970788
_cell_formula_units_Z   4
loop_
 _symmetry_equiv_pos_site_id
 _symmetry_equiv_pos_as_xyz
  1  'x, y, z'
loop_
 _atom_site_type_symbol
 _atom_site_label
 _atom_site_symmetry_multiplicity
 _atom_site_fract_x
 _atom_site_fract_y
 _atom_site_fract_z
 _atom_site_occupancy
  Na  Na0  1  0.94079600  0.96230400  0.37173300  1
  Na  Na1  1  0.55920400  0.03769600  0.87173300  1
  Na  Na2  1  0.44079600  0.53769600  0.62826700  1
  Na  Na3  1  0.05920400  0.46230400  0.12826700  1
  Ga  Ga4  1  0.03675900  0.76428000  0.78757100  1
  Ga  Ga5  1  0.46324100  0.23572000  0.28757100  1
  Ga  Ga6  1  0.53675900  0.73572000  0.21242900  1
  Ga  Ga7  1  0.96324100  0.26428000  0.71242900  1
  Cl  Cl8  1  0.17136200  0.77152000  0.59354300  1
  Cl  Cl9  1  0.32863800  0.22848000  0.09354300  1
  Cl  Cl10  1  0.67136200  0.72848000  0.40645700  1
  Cl  Cl11  1  0.82863800  0.27152000  0.90645700  1
  Cl  Cl12  1  0.13598900  0.93765100  0.89999700  1
  Cl  Cl13  1  0.36401100  0.06234900  0.39999700  1
  Cl  Cl14  1  0.63598900  0.56234900  0.10000300  1
  Cl  Cl15  1  0.86401100  0.43765100  0.60000300  1
  Cl  Cl16  1  0.68890400  0.75863100  0.78346600  1
  Cl  Cl17  1  0.81109600  0.24136900  0.28346600  1
  Cl  Cl18  1  0.18890400  0.74136900  0.21653400  1
  Cl  Cl19  1  0.31109600  0.25863100  0.71653400  1
  Cl  Cl20  1  0.17374900  0.58213100  0.87248000  1
  Cl  Cl21  1  0.32625100  0.41786900  0.37248000  1
  Cl  Cl22  1  0.67374900  0.91786900  0.12752000  1
  Cl  Cl23  1  0.82625100  0.08213100  0.62752000  1
