# generated using pymatgen
data_KGaGeS4
_symmetry_space_group_name_H-M   'P 1'
_cell_length_a   16.27618200
_cell_length_b   6.99864100
_cell_length_c   7.27420515
_cell_angle_alpha   68.53283540
_cell_angle_beta   90.00000000
_cell_angle_gamma   90.00000000
_symmetry_Int_Tables_number   1
_chemical_formula_structural   KGaGeS4
_chemical_formula_sum   'K4 Ga4 Ge4 S16'
_cell_volume   771.13010487
_cell_formula_units_Z   4
loop_
 _symmetry_equiv_pos_site_id
 _symmetry_equiv_pos_as_xyz
  1  'x, y, z'
loop_
 _atom_site_type_symbol
 _atom_site_label
 _atom_site_symmetry_multiplicity
 _atom_site_fract_x
 _atom_site_fract_y
 _atom_site_fract_z
 _atom_site_occupancy
  K  K0  1  0.39589200  0.97593800  0.17908100  1
  K  K1  1  0.89589200  0.02406200  0.82091900  1
  K  K2  1  0.60368300  0.52077400  0.81944800  1
  K  K3  1  0.10368300  0.47922600  0.18055200  1
  Ga  Ga4  1  0.58444200  0.16517000  0.47474100  1
  Ga  Ga5  1  0.08444200  0.83483000  0.52525900  1
  Ga  Ga6  1  0.27389900  0.59473400  0.71830500  1
  Ga  Ga7  1  0.77389900  0.40526600  0.28169500  1
  Ge  Ge8  1  0.41976200  0.33655700  0.52786400  1
  Ge  Ge9  1  0.91976200  0.66344300  0.47213600  1
  Ge  Ge10  1  0.72391200  0.90873700  0.27084300  1
  Ge  Ge11  1  0.22391200  0.09126300  0.72915700  1
  S  S12  1  0.59398600  0.88799200  0.37613700  1
  S  S13  1  0.09398600  0.11200800  0.62386300  1
  S  S14  1  0.40996700  0.60527300  0.62171800  1
  S  S15  1  0.90996700  0.39472700  0.37828200  1
  S  S16  1  0.79929200  0.77417800  0.55302500  1
  S  S17  1  0.29929200  0.22582200  0.44697500  1
  S  S18  1  0.20191500  0.72784200  0.43518500  1
  S  S19  1  0.70191500  0.27215800  0.56481500  1
  S  S20  1  0.76227200  0.22504200  0.07316100  1
  S  S21  1  0.26227200  0.77495800  0.92683900  1
  S  S22  1  0.23850100  0.26622200  0.92932300  1
  S  S23  1  0.73850100  0.73377800  0.07067700  1
  S  S24  1  0.99564300  0.90894500  0.25393800  1
  S  S25  1  0.49564300  0.09105500  0.74606200  1
  S  S26  1  0.99683200  0.59063900  0.74454800  1
  S  S27  1  0.49683200  0.40936100  0.25545200  1
