# generated using pymatgen
data_Na2Pd(S4O13)2
_symmetry_space_group_name_H-M   'P 1'
_cell_length_a   16.35622600
_cell_length_b   7.24475700
_cell_length_c   9.61288232
_cell_angle_alpha   78.85107036
_cell_angle_beta   90.00000000
_cell_angle_gamma   90.00000000
_symmetry_Int_Tables_number   1
_chemical_formula_structural   Na2Pd(S4O13)2
_chemical_formula_sum   'Na4 Pd2 S16 O52'
_cell_volume   1117.59943980
_cell_formula_units_Z   2
loop_
 _symmetry_equiv_pos_site_id
 _symmetry_equiv_pos_as_xyz
  1  'x, y, z'
loop_
 _atom_site_type_symbol
 _atom_site_label
 _atom_site_symmetry_multiplicity
 _atom_site_fract_x
 _atom_site_fract_y
 _atom_site_fract_z
 _atom_site_occupancy
  Na  Na0  1  0.12295800  0.74361500  0.11231100  1
  Na  Na1  1  0.62295800  0.25638500  0.38768900  1
  Na  Na2  1  0.87704200  0.25638500  0.88768900  1
  Na  Na3  1  0.37704200  0.74361500  0.61231100  1
  Pd  Pd4  1  0.50000000  0.00000000  0.00000000  1
  Pd  Pd5  1  0.00000000  0.00000000  0.50000000  1
  S  S6  1  0.11438000  0.21187600  0.25579000  1
  S  S7  1  0.61438000  0.78812400  0.24421000  1
  S  S8  1  0.88562000  0.78812400  0.74421000  1
  S  S9  1  0.38562000  0.21187600  0.75579000  1
  S  S10  1  0.29266200  0.15881300  0.29674800  1
  S  S11  1  0.79266200  0.84118700  0.20325200  1
  S  S12  1  0.70733800  0.84118700  0.70325200  1
  S  S13  1  0.20733800  0.15881300  0.79674800  1
  S  S14  1  0.40931500  0.45915900  0.30138600  1
  S  S15  1  0.90931500  0.54084100  0.19861400  1
  S  S16  1  0.59068500  0.54084100  0.69861400  1
  S  S17  1  0.09068500  0.45915900  0.80138600  1
  S  S18  1  0.35024400  0.70697000  0.03878600  1
  S  S19  1  0.85024400  0.29303000  0.46121400  1
  S  S20  1  0.64975600  0.29303000  0.96121400  1
  S  S21  1  0.14975600  0.70697000  0.53878600  1
  O  O22  1  0.12882200  0.39386800  0.16989300  1
  O  O23  1  0.62882200  0.60613200  0.33010700  1
  O  O24  1  0.87117800  0.60613200  0.83010700  1
  O  O25  1  0.37117800  0.39386800  0.66989300  1
  O  O26  1  0.05954400  0.22198700  0.37763600  1
  O  O27  1  0.55954400  0.77801300  0.12236400  1
  O  O28  1  0.94045600  0.77801300  0.62236400  1
  O  O29  1  0.44045600  0.22198700  0.87763600  1
  O  O30  1  0.10202500  0.05308700  0.18929300  1
  O  O31  1  0.60202500  0.94691300  0.31070700  1
  O  O32  1  0.89797500  0.94691300  0.81070700  1
  O  O33  1  0.39797500  0.05308700  0.68929300  1
  O  O34  1  0.20356600  0.15685500  0.35731400  1
  O  O35  1  0.70356600  0.84314500  0.14268600  1
  O  O36  1  0.79643400  0.84314500  0.64268600  1
  O  O37  1  0.29643400  0.15685500  0.85731400  1
  O  O38  1  0.33628200  0.01245800  0.38748800  1
  O  O39  1  0.83628200  0.98754200  0.11251200  1
  O  O40  1  0.66371800  0.98754200  0.61251200  1
  O  O41  1  0.16371800  0.01245800  0.88748800  1
  O  O42  1  0.29446300  0.18496800  0.14639400  1
  O  O43  1  0.79446300  0.81503200  0.35360600  1
  O  O44  1  0.70553700  0.81503200  0.85360600  1
  O  O45  1  0.20553700  0.18496800  0.64639400  1
  O  O46  1  0.32015300  0.36341600  0.34249300  1
  O  O47  1  0.82015300  0.63658400  0.15750700  1
  O  O48  1  0.67984700  0.63658400  0.65750700  1
  O  O49  1  0.17984700  0.36341600  0.84249300  1
  O  O50  1  0.47142600  0.31797700  0.32967500  1
  O  O51  1  0.97142600  0.68202300  0.17032500  1
  O  O52  1  0.52857400  0.68202300  0.67032500  1
  O  O53  1  0.02857400  0.31797700  0.82967500  1
  O  O54  1  0.40894100  0.61888300  0.36831500  1
  O  O55  1  0.90894100  0.38111700  0.13168500  1
  O  O56  1  0.59105900  0.38111700  0.63168400  1
  O  O57  1  0.09105900  0.61888300  0.86831600  1
  O  O58  1  0.40582000  0.51667400  0.13416400  1
  O  O59  1  0.90582000  0.48332600  0.36583600  1
  O  O60  1  0.59418000  0.48332600  0.86583600  1
  O  O61  1  0.09418000  0.51667400  0.63416400  1
  O  O62  1  0.27021600  0.68833800  0.10123500  1
  O  O63  1  0.77021600  0.31166200  0.39876500  1
  O  O64  1  0.72978400  0.31166200  0.89876500  1
  O  O65  1  0.22978400  0.68833800  0.60123500  1
  O  O66  1  0.36241600  0.67356700  0.89818300  1
  O  O67  1  0.86241600  0.32643300  0.60181700  1
  O  O68  1  0.63758400  0.32643300  0.10181700  1
  O  O69  1  0.13758400  0.67356700  0.39818300  1
  O  O70  1  0.39314500  0.87324200  0.07446000  1
  O  O71  1  0.89314500  0.12675800  0.42554000  1
  O  O72  1  0.60685500  0.12675800  0.92554000  1
  O  O73  1  0.10685500  0.87324200  0.57446000  1
