# generated using pymatgen
data_CsGaNiF6
_symmetry_space_group_name_H-M   'P 1'
_cell_length_a   7.36855019
_cell_length_b   7.36855019
_cell_length_c   7.36855019
_cell_angle_alpha   120.31294787
_cell_angle_beta   119.84283141
_cell_angle_gamma   89.86562735
_symmetry_Int_Tables_number   1
_chemical_formula_structural   CsGaNiF6
_chemical_formula_sum   'Cs2 Ga2 Ni2 F12'
_cell_volume   282.55896168
_cell_formula_units_Z   2
loop_
 _symmetry_equiv_pos_site_id
 _symmetry_equiv_pos_as_xyz
  1  'x, y, z'
loop_
 _atom_site_type_symbol
 _atom_site_label
 _atom_site_symmetry_multiplicity
 _atom_site_fract_x
 _atom_site_fract_y
 _atom_site_fract_z
 _atom_site_occupancy
  Cs  Cs0  1  0.87167300  0.62167300  0.25000000  1
  Cs  Cs1  1  0.12832700  0.37832700  0.75000000  1
  Ga  Ga2  1  0.50000000  0.00000000  0.50000000  1
  Ga  Ga3  1  0.00000000  0.00000000  0.00000000  1
  Ni  Ni4  1  0.50000000  0.00000000  0.00000000  1
  Ni  Ni5  1  0.50000000  0.50000000  0.50000000  1
  F  F6  1  0.81406100  0.06406100  0.75000000  1
  F  F7  1  0.42546900  0.67546900  0.75000000  1
  F  F8  1  0.82857300  0.69157400  0.76287900  1
  F  F9  1  0.42869500  0.06569400  0.73712100  1
  F  F10  1  0.82857300  0.06569400  0.13699900  1
  F  F11  1  0.42869500  0.69157400  0.36300100  1
  F  F12  1  0.18593900  0.93593900  0.25000000  1
  F  F13  1  0.57453100  0.32453100  0.25000000  1
  F  F14  1  0.17142700  0.30842600  0.23712100  1
  F  F15  1  0.57130500  0.93430600  0.26287900  1
  F  F16  1  0.17142700  0.93430600  0.86300100  1
  F  F17  1  0.57130500  0.30842600  0.63699900  1
