# generated using pymatgen
data_Tb3Ge3Ru2
_symmetry_space_group_name_H-M   'P 1'
_cell_length_a   5.86852588
_cell_length_b   5.86852588
_cell_length_c   14.05542600
_cell_angle_alpha   90.00000000
_cell_angle_beta   90.00000000
_cell_angle_gamma   136.92246312
_symmetry_Int_Tables_number   1
_chemical_formula_structural   Tb3Ge3Ru2
_chemical_formula_sum   'Tb6 Ge6 Ru4'
_cell_volume   330.60908916
_cell_formula_units_Z   2
loop_
 _symmetry_equiv_pos_site_id
 _symmetry_equiv_pos_as_xyz
  1  'x, y, z'
loop_
 _atom_site_type_symbol
 _atom_site_label
 _atom_site_symmetry_multiplicity
 _atom_site_fract_x
 _atom_site_fract_y
 _atom_site_fract_z
 _atom_site_occupancy
  Tb  Tb0  1  0.92144300  0.07855700  0.38651100  1
  Tb  Tb1  1  0.07855700  0.92144300  0.61348900  1
  Tb  Tb2  1  0.92144300  0.07855700  0.11348900  1
  Tb  Tb3  1  0.07855700  0.92144300  0.88651100  1
  Tb  Tb4  1  0.64675900  0.35324100  0.25000000  1
  Tb  Tb5  1  0.35324100  0.64675900  0.75000000  1
  Ge  Ge6  1  0.61821100  0.38178900  0.45847100  1
  Ge  Ge7  1  0.38178900  0.61821100  0.54152900  1
  Ge  Ge8  1  0.61821100  0.38178900  0.04152900  1
  Ge  Ge9  1  0.38178900  0.61821100  0.95847100  1
  Ge  Ge10  1  0.33313500  0.66686500  0.25000000  1
  Ge  Ge11  1  0.66686500  0.33313500  0.75000000  1
  Ru  Ru12  1  0.78616400  0.21383600  0.91935300  1
  Ru  Ru13  1  0.21383600  0.78616400  0.08064700  1
  Ru  Ru14  1  0.78616400  0.21383600  0.58064700  1
  Ru  Ru15  1  0.21383600  0.78616400  0.41935300  1
