# generated using pymatgen
data_Dy2B6Os
_symmetry_space_group_name_H-M   'P 1'
_cell_length_a   3.66470200
_cell_length_b   9.16789100
_cell_length_c   11.54407000
_cell_angle_alpha   90.00000000
_cell_angle_beta   90.00000000
_cell_angle_gamma   90.00000000
_symmetry_Int_Tables_number   1
_chemical_formula_structural   Dy2B6Os
_chemical_formula_sum   'Dy8 B24 Os4'
_cell_volume   387.85291328
_cell_formula_units_Z   4
loop_
 _symmetry_equiv_pos_site_id
 _symmetry_equiv_pos_as_xyz
  1  'x, y, z'
loop_
 _atom_site_type_symbol
 _atom_site_label
 _atom_site_symmetry_multiplicity
 _atom_site_fract_x
 _atom_site_fract_y
 _atom_site_fract_z
 _atom_site_occupancy
  Dy  Dy0  1  0.00000000  0.32223300  0.41361400  1
  Dy  Dy1  1  0.00000000  0.67776700  0.58638600  1
  Dy  Dy2  1  0.00000000  0.82223300  0.08638600  1
  Dy  Dy3  1  0.00000000  0.17776700  0.91361400  1
  Dy  Dy4  1  0.00000000  0.94491800  0.37336500  1
  Dy  Dy5  1  0.00000000  0.05508200  0.62663500  1
  Dy  Dy6  1  0.00000000  0.44491800  0.12663500  1
  Dy  Dy7  1  0.00000000  0.55508200  0.87336500  1
  B  B8  1  0.50000000  0.55428100  0.43298600  1
  B  B9  1  0.50000000  0.44571900  0.56701400  1
  B  B10  1  0.50000000  0.05428100  0.06701400  1
  B  B11  1  0.50000000  0.94571900  0.93298600  1
  B  B12  1  0.50000000  0.74827200  0.42049900  1
  B  B13  1  0.50000000  0.25172800  0.57950100  1
  B  B14  1  0.50000000  0.24827200  0.07950100  1
  B  B15  1  0.50000000  0.75172800  0.92049900  1
  B  B16  1  0.50000000  0.79143100  0.26762000  1
  B  B17  1  0.50000000  0.20856900  0.73238000  1
  B  B18  1  0.50000000  0.29143100  0.23238000  1
  B  B19  1  0.50000000  0.70856900  0.76762000  1
  B  B20  1  0.50000000  0.63276300  0.18576200  1
  B  B21  1  0.50000000  0.36723700  0.81423800  1
  B  B22  1  0.50000000  0.13276300  0.31423800  1
  B  B23  1  0.50000000  0.86723700  0.68576200  1
  B  B24  1  0.50000000  0.98440400  0.21307400  1
  B  B25  1  0.50000000  0.01559600  0.78692600  1
  B  B26  1  0.50000000  0.48440400  0.28692600  1
  B  B27  1  0.50000000  0.51559600  0.71307400  1
  B  B28  1  0.50000000  0.61118900  0.03083400  1
  B  B29  1  0.50000000  0.38881100  0.96916600  1
  B  B30  1  0.50000000  0.11118800  0.46916600  1
  B  B31  1  0.50000000  0.88881100  0.53083400  1
  Os  Os32  1  0.00000000  0.63824800  0.32161200  1
  Os  Os33  1  0.00000000  0.36175200  0.67838800  1
  Os  Os34  1  0.00000000  0.13824800  0.17838800  1
  Os  Os35  1  0.00000000  0.86175200  0.82161200  1
