# generated using pymatgen
data_La2(Al3Rh)3
_symmetry_space_group_name_H-M   'P 1'
_cell_length_a   7.66177336
_cell_length_b   7.66177336
_cell_length_c   9.66035300
_cell_angle_alpha   90.00000000
_cell_angle_beta   90.00000000
_cell_angle_gamma   119.28886658
_symmetry_Int_Tables_number   1
_chemical_formula_structural   La2(Al3Rh)3
_chemical_formula_sum   'La4 Al18 Rh6'
_cell_volume   494.59523712
_cell_formula_units_Z   2
loop_
 _symmetry_equiv_pos_site_id
 _symmetry_equiv_pos_as_xyz
  1  'x, y, z'
loop_
 _atom_site_type_symbol
 _atom_site_label
 _atom_site_symmetry_multiplicity
 _atom_site_fract_x
 _atom_site_fract_y
 _atom_site_fract_z
 _atom_site_occupancy
  La  La0  1  0.99606400  0.67003600  0.25000000  1
  La  La1  1  0.00393600  0.32996400  0.75000000  1
  La  La2  1  0.67003600  0.99606400  0.25000000  1
  La  La3  1  0.32996400  0.00393600  0.75000000  1
  Al  Al4  1  0.13118200  0.13118200  0.25000000  1
  Al  Al5  1  0.86881800  0.86881800  0.75000000  1
  Al  Al6  1  0.00529200  0.33523500  0.07276000  1
  Al  Al7  1  0.99470800  0.66476500  0.92724000  1
  Al  Al8  1  0.99470800  0.66476500  0.57276000  1
  Al  Al9  1  0.33523500  0.00529200  0.42724000  1
  Al  Al10  1  0.00529200  0.33523500  0.42724000  1
  Al  Al11  1  0.66476500  0.99470800  0.57276000  1
  Al  Al12  1  0.66476500  0.99470800  0.92724000  1
  Al  Al13  1  0.33523500  0.00529200  0.07276000  1
  Al  Al14  1  0.33539600  0.33539600  0.54558700  1
  Al  Al15  1  0.66460400  0.66460400  0.45441300  1
  Al  Al16  1  0.66460400  0.66460400  0.04558700  1
  Al  Al17  1  0.33539600  0.33539600  0.95441300  1
  Al  Al18  1  0.33857000  0.54449300  0.25000000  1
  Al  Al19  1  0.66143000  0.45550700  0.75000000  1
  Al  Al20  1  0.54449300  0.33857000  0.25000000  1
  Al  Al21  1  0.45550700  0.66143000  0.75000000  1
  Rh  Rh22  1  0.67044100  0.32955900  0.00000000  1
  Rh  Rh23  1  0.32955900  0.67044100  0.00000000  1
  Rh  Rh24  1  0.32955900  0.67044100  0.50000000  1
  Rh  Rh25  1  0.67044100  0.32955900  0.50000000  1
  Rh  Rh26  1  0.00000000  0.00000000  0.00000000  1
  Rh  Rh27  1  0.00000000  0.00000000  0.50000000  1
