# generated using pymatgen
data_Dy2(GaNi)5
_symmetry_space_group_name_H-M   'P 1'
_cell_length_a   4.06593700
_cell_length_b   8.85740700
_cell_length_c   15.42910810
_cell_angle_alpha   89.79989468
_cell_angle_beta   90.00000000
_cell_angle_gamma   90.00000000
_symmetry_Int_Tables_number   1
_chemical_formula_structural   Dy2(GaNi)5
_chemical_formula_sum   'Dy6 Ga15 Ni15'
_cell_volume   555.65524652
_cell_formula_units_Z   3
loop_
 _symmetry_equiv_pos_site_id
 _symmetry_equiv_pos_as_xyz
  1  'x, y, z'
loop_
 _atom_site_type_symbol
 _atom_site_label
 _atom_site_symmetry_multiplicity
 _atom_site_fract_x
 _atom_site_fract_y
 _atom_site_fract_z
 _atom_site_occupancy
  Dy  Dy0  1  0.00000000  0.99930400  0.33683600  1
  Dy  Dy1  1  0.00000000  0.50429300  0.83563900  1
  Dy  Dy2  1  0.00000000  0.50568000  0.16848400  1
  Dy  Dy3  1  0.00000000  0.00319500  0.66385500  1
  Dy  Dy4  1  0.50000000  0.99219800  0.00056300  1
  Dy  Dy5  1  0.50000000  0.49748000  0.49638800  1
  Ga  Ga6  1  0.50000000  0.00983300  0.50126400  1
  Ga  Ga7  1  0.50000000  0.50809700  0.00066100  1
  Ga  Ga8  1  0.50000000  0.74685100  0.25585500  1
  Ga  Ga9  1  0.50000000  0.25208600  0.75176400  1
  Ga  Ga10  1  0.50000000  0.24894900  0.24798700  1
  Ga  Ga11  1  0.50000000  0.75160300  0.74788500  1
  Ga  Ga12  1  0.00000000  0.14527900  0.85385300  1
  Ga  Ga13  1  0.00000000  0.14542100  0.14709000  1
  Ga  Ga14  1  0.00000000  0.64745500  0.64680700  1
  Ga  Ga15  1  0.00000000  0.78150500  0.49427700  1
  Ga  Ga16  1  0.00000000  0.29515000  0.00062300  1
  Ga  Ga17  1  0.00000000  0.84951200  0.14016600  1
  Ga  Ga18  1  0.00000000  0.35173000  0.63780100  1
  Ga  Ga19  1  0.00000000  0.36209700  0.36227100  1
  Ga  Ga20  1  0.00000000  0.85118100  0.86179900  1
  Ni  Ni21  1  0.50000000  0.99500600  0.18505500  1
  Ni  Ni22  1  0.50000000  0.49874600  0.68358300  1
  Ni  Ni23  1  0.50000000  0.22498900  0.40470500  1
  Ni  Ni24  1  0.50000000  0.72560300  0.90643800  1
  Ni  Ni25  1  0.50000000  0.77907100  0.41030300  1
  Ni  Ni26  1  0.50000000  0.27725500  0.90959200  1
  Ni  Ni27  1  0.50000000  0.49507900  0.31553700  1
  Ni  Ni28  1  0.50000000  0.99833100  0.81492300  1
  Ni  Ni29  1  0.50000000  0.72509800  0.09449400  1
  Ni  Ni30  1  0.50000000  0.22757800  0.59353800  1
  Ni  Ni31  1  0.50000000  0.27728600  0.09098400  1
  Ni  Ni32  1  0.50000000  0.77803300  0.58962700  1
  Ni  Ni33  1  0.00000000  0.19969200  0.49931600  1
  Ni  Ni34  1  0.00000000  0.70036000  0.00037800  1
  Ni  Ni35  1  0.00000000  0.64917500  0.34965700  1
