# generated using pymatgen
data_Mg3BeAl8O16
_symmetry_space_group_name_H-M   'P 1'
_cell_length_a   5.74035949
_cell_length_b   5.74035949
_cell_length_c   18.50777400
_cell_angle_alpha   90.00000000
_cell_angle_beta   90.00000000
_cell_angle_gamma   119.99999414
_symmetry_Int_Tables_number   1
_chemical_formula_structural   Mg3BeAl8O16
_chemical_formula_sum   'Mg6 Be2 Al16 O32'
_cell_volume   528.15698417
_cell_formula_units_Z   2
loop_
 _symmetry_equiv_pos_site_id
 _symmetry_equiv_pos_as_xyz
  1  'x, y, z'
loop_
 _atom_site_type_symbol
 _atom_site_label
 _atom_site_symmetry_multiplicity
 _atom_site_fract_x
 _atom_site_fract_y
 _atom_site_fract_z
 _atom_site_occupancy
  Mg  Mg0  1  0.00000000  0.00000000  0.00008700  1
  Mg  Mg1  1  0.00000000  0.00000000  0.50008700  1
  Mg  Mg2  1  0.00000000  0.00000000  0.20060000  1
  Mg  Mg3  1  0.00000000  0.00000000  0.70060000  1
  Mg  Mg4  1  0.66666700  0.33333300  0.26657100  1
  Mg  Mg5  1  0.33333300  0.66666700  0.76657100  1
  Be  Be6  1  0.66666700  0.33333300  0.00371700  1
  Be  Be7  1  0.33333300  0.66666700  0.50371700  1
  Al  Al8  1  0.49829500  0.99659000  0.60638200  1
  Al  Al9  1  0.99659000  0.49829500  0.10638200  1
  Al  Al10  1  0.66588500  0.83294300  0.36077200  1
  Al  Al11  1  0.83294300  0.66588500  0.86077200  1
  Al  Al12  1  0.83294300  0.16705700  0.86077200  1
  Al  Al13  1  0.16705700  0.83294300  0.36077200  1
  Al  Al14  1  0.16705700  0.33411500  0.36077200  1
  Al  Al15  1  0.33411500  0.16705700  0.86077200  1
  Al  Al16  1  0.66666700  0.33333300  0.45024200  1
  Al  Al17  1  0.33333300  0.66666700  0.95024200  1
  Al  Al18  1  0.49829500  0.50170500  0.60638200  1
  Al  Al19  1  0.50170500  0.49829500  0.10638200  1
  Al  Al20  1  0.50170500  0.00341000  0.10638200  1
  Al  Al21  1  0.00341000  0.50170500  0.60638200  1
  Al  Al22  1  0.33333300  0.66666700  0.23279700  1
  Al  Al23  1  0.66666700  0.33333300  0.73279700  1
  O  O24  1  0.62849100  0.81424500  0.16541400  1
  O  O25  1  0.37150900  0.18575500  0.66541400  1
  O  O26  1  0.81424500  0.18575500  0.66541400  1
  O  O27  1  0.18575500  0.37150900  0.16541400  1
  O  O28  1  0.81424500  0.62849100  0.66541400  1
  O  O29  1  0.18575500  0.81424500  0.16541400  1
  O  O30  1  0.33333300  0.66666700  0.66145300  1
  O  O31  1  0.66666700  0.33333300  0.16145300  1
  O  O32  1  0.62898500  0.81449300  0.54740800  1
  O  O33  1  0.81449300  0.62898500  0.04740800  1
  O  O34  1  0.81449300  0.18550700  0.04740800  1
  O  O35  1  0.18550700  0.81449300  0.54740800  1
  O  O36  1  0.18550700  0.37101500  0.54740800  1
  O  O37  1  0.37101500  0.18550700  0.04740800  1
  O  O38  1  0.66666700  0.33333300  0.54793800  1
  O  O39  1  0.33333300  0.66666700  0.04793800  1
  O  O40  1  0.83807000  0.67613900  0.41724300  1
  O  O41  1  0.16193000  0.83807000  0.91724300  1
  O  O42  1  0.67613900  0.83807000  0.91724300  1
  O  O43  1  0.32386100  0.16193000  0.41724300  1
  O  O44  1  0.83807000  0.16193000  0.41724300  1
  O  O45  1  0.16193000  0.32386100  0.91724300  1
  O  O46  1  0.00000000  0.00000000  0.80875700  1
  O  O47  1  0.00000000  0.00000000  0.30875700  1
  O  O48  1  0.51951600  0.03903200  0.80017500  1
  O  O49  1  0.48048400  0.51951600  0.30017500  1
  O  O50  1  0.03903200  0.51951600  0.30017500  1
  O  O51  1  0.96096800  0.48048400  0.80017500  1
  O  O52  1  0.51951600  0.48048400  0.80017500  1
  O  O53  1  0.48048400  0.96096800  0.30017500  1
  O  O54  1  0.66666700  0.33333300  0.91655600  1
  O  O55  1  0.33333300  0.66666700  0.41655600  1
