# generated using pymatgen
data_Rb3V5O14
_symmetry_space_group_name_H-M   'P 1'
_cell_length_a   8.79865274
_cell_length_b   8.79865274
_cell_length_c   5.55443200
_cell_angle_alpha   90.00000000
_cell_angle_beta   90.00000000
_cell_angle_gamma   120.00000553
_symmetry_Int_Tables_number   1
_chemical_formula_structural   Rb3V5O14
_chemical_formula_sum   'Rb3 V5 O14'
_cell_volume   372.39394977
_cell_formula_units_Z   1
loop_
 _symmetry_equiv_pos_site_id
 _symmetry_equiv_pos_as_xyz
  1  'x, y, z'
loop_
 _atom_site_type_symbol
 _atom_site_label
 _atom_site_symmetry_multiplicity
 _atom_site_fract_x
 _atom_site_fract_y
 _atom_site_fract_z
 _atom_site_occupancy
  Rb  Rb0  1  0.00000000  0.61273200  0.17798500  1
  Rb  Rb1  1  0.61273200  0.00000000  0.17798500  1
  Rb  Rb2  1  0.38726800  0.38726800  0.17798500  1
  V  V3  1  0.77013300  0.77013300  0.67426700  1
  V  V4  1  0.00000000  0.22986700  0.67426700  1
  V  V5  1  0.22986700  0.00000000  0.67426700  1
  V  V6  1  0.33333300  0.66666700  0.65712500  1
  V  V7  1  0.66666700  0.33333300  0.65712500  1
  O  O8  1  0.16934700  0.45968400  0.54831600  1
  O  O9  1  0.29033700  0.83065300  0.54831600  1
  O  O10  1  0.54031600  0.70966300  0.54831600  1
  O  O11  1  0.70966300  0.54031600  0.54831600  1
  O  O12  1  0.83065300  0.29033700  0.54831600  1
  O  O13  1  0.45968400  0.16934700  0.54831600  1
  O  O14  1  0.00000000  0.83172100  0.61602400  1
  O  O15  1  0.83172100  0.00000000  0.61602400  1
  O  O16  1  0.16827900  0.16827900  0.61602400  1
  O  O17  1  0.74508900  0.74508900  0.96665700  1
  O  O18  1  0.00000000  0.25491100  0.96665700  1
  O  O19  1  0.25491100  0.00000000  0.96665700  1
  O  O20  1  0.33333300  0.66666700  0.95622000  1
  O  O21  1  0.66666700  0.33333300  0.95622000  1
