# generated using pymatgen
data_Ca2Al3H3O8
_symmetry_space_group_name_H-M   'P 1'
_cell_length_a   7.85472382
_cell_length_b   7.85472382
_cell_length_c   12.55094300
_cell_angle_alpha   90.00000000
_cell_angle_beta   90.00000000
_cell_angle_gamma   110.76314503
_symmetry_Int_Tables_number   1
_chemical_formula_structural   Ca2Al3H3O8
_chemical_formula_sum   'Ca8 Al12 H12 O32'
_cell_volume   724.06047910
_cell_formula_units_Z   4
loop_
 _symmetry_equiv_pos_site_id
 _symmetry_equiv_pos_as_xyz
  1  'x, y, z'
loop_
 _atom_site_type_symbol
 _atom_site_label
 _atom_site_symmetry_multiplicity
 _atom_site_fract_x
 _atom_site_fract_y
 _atom_site_fract_z
 _atom_site_occupancy
  Ca  Ca0  1  0.64170200  0.35829800  0.50000000  1
  Ca  Ca1  1  0.14170200  0.85829800  0.00000000  1
  Ca  Ca2  1  0.35829800  0.64170200  0.50000000  1
  Ca  Ca3  1  0.85829800  0.14170200  0.00000000  1
  Ca  Ca4  1  0.28803600  0.28803600  0.84942400  1
  Ca  Ca5  1  0.71196400  0.71196400  0.15057600  1
  Ca  Ca6  1  0.21196400  0.21196400  0.34942400  1
  Ca  Ca7  1  0.78803600  0.78803600  0.65057600  1
  Al  Al8  1  0.25953900  0.01410500  0.62905100  1
  Al  Al9  1  0.98589500  0.74046100  0.37094900  1
  Al  Al10  1  0.48589500  0.24046100  0.12905100  1
  Al  Al11  1  0.75953900  0.51410500  0.87094900  1
  Al  Al12  1  0.74046100  0.98589500  0.37094900  1
  Al  Al13  1  0.01410500  0.25953900  0.62905100  1
  Al  Al14  1  0.51410500  0.75953900  0.87094900  1
  Al  Al15  1  0.24046100  0.48589500  0.12905100  1
  Al  Al16  1  0.63905000  0.13905000  0.75000000  1
  Al  Al17  1  0.86095000  0.36095000  0.25000000  1
  Al  Al18  1  0.36095000  0.86095000  0.25000000  1
  Al  Al19  1  0.13905000  0.63905000  0.75000000  1
  H  H20  1  0.51463500  0.16829300  0.95160800  1
  H  H21  1  0.83170700  0.48536500  0.04839200  1
  H  H22  1  0.33170700  0.98536500  0.45160800  1
  H  H23  1  0.01463500  0.66829300  0.54839200  1
  H  H24  1  0.48536500  0.83170700  0.04839200  1
  H  H25  1  0.16829300  0.51463500  0.95160800  1
  H  H26  1  0.66829300  0.01463500  0.54839200  1
  H  H27  1  0.98536500  0.33170700  0.45160800  1
  H  H28  1  0.48284300  0.48284300  0.67838500  1
  H  H29  1  0.51715700  0.51715700  0.32161500  1
  H  H30  1  0.01715700  0.01715700  0.17838500  1
  H  H31  1  0.98284300  0.98284300  0.82161500  1
  O  O32  1  0.71620100  0.27517600  0.86695300  1
  O  O33  1  0.72482400  0.28379900  0.13304700  1
  O  O34  1  0.22482400  0.78379900  0.36695300  1
  O  O35  1  0.21620100  0.77517600  0.63304700  1
  O  O36  1  0.28379900  0.72482400  0.13304700  1
  O  O37  1  0.27517600  0.71620100  0.86695300  1
  O  O38  1  0.77517600  0.21620100  0.63304700  1
  O  O39  1  0.78379900  0.22482400  0.36695300  1
  O  O40  1  0.41780100  0.14131300  0.72441500  1
  O  O41  1  0.85868700  0.58219900  0.27558500  1
  O  O42  1  0.35868700  0.08219900  0.22441500  1
  O  O43  1  0.91780100  0.64131300  0.77558500  1
  O  O44  1  0.58219900  0.85868700  0.27558500  1
  O  O45  1  0.14131300  0.41780100  0.72441500  1
  O  O46  1  0.64131300  0.91780100  0.77558500  1
  O  O47  1  0.08219900  0.35868700  0.22441500  1
  O  O48  1  0.35383000  0.09328400  0.49817000  1
  O  O49  1  0.90671600  0.64617000  0.50183000  1
  O  O50  1  0.40671600  0.14617000  0.99817000  1
  O  O51  1  0.85383000  0.59328400  0.00183000  1
  O  O52  1  0.64617000  0.90671600  0.50183000  1
  O  O53  1  0.09328400  0.35383000  0.49817000  1
  O  O54  1  0.59328400  0.85383000  0.00183000  1
  O  O55  1  0.14617000  0.40671600  0.99817000  1
  O  O56  1  0.05233800  0.05233800  0.64404600  1
  O  O57  1  0.94766200  0.94766200  0.35595400  1
  O  O58  1  0.44766200  0.44766200  0.14404600  1
  O  O59  1  0.55233800  0.55233800  0.85595400  1
  O  O60  1  0.03555100  0.03555100  0.88975100  1
  O  O61  1  0.96444900  0.96444900  0.11024900  1
  O  O62  1  0.46444900  0.46444900  0.38975100  1
  O  O63  1  0.53555100  0.53555100  0.61024900  1
