# generated using pymatgen
data_TbMgSn
_symmetry_space_group_name_H-M   'P 1'
_cell_length_a   8.57352083
_cell_length_b   8.57352083
_cell_length_c   8.57352083
_cell_angle_alpha   150.14177337
_cell_angle_beta   150.14177337
_cell_angle_gamma   42.73333492
_symmetry_Int_Tables_number   1
_chemical_formula_structural   TbMgSn
_chemical_formula_sum   'Tb2 Mg2 Sn2'
_cell_volume   155.80601454
_cell_formula_units_Z   2
loop_
 _symmetry_equiv_pos_site_id
 _symmetry_equiv_pos_as_xyz
  1  'x, y, z'
loop_
 _atom_site_type_symbol
 _atom_site_label
 _atom_site_symmetry_multiplicity
 _atom_site_fract_x
 _atom_site_fract_y
 _atom_site_fract_z
 _atom_site_occupancy
  Tb  Tb0  1  0.66662800  0.66662800  0.00000000  1
  Tb  Tb1  1  0.33337200  0.33337200  0.00000000  1
  Mg  Mg2  1  0.00000000  0.50000000  0.50000000  1
  Mg  Mg3  1  0.50000000  0.00000000  0.50000000  1
  Sn  Sn4  1  0.86424500  0.86424500  0.00000000  1
  Sn  Sn5  1  0.13575500  0.13575500  0.00000000  1
