# generated using pymatgen
data_Hf6Al2Pt
_symmetry_space_group_name_H-M   'P 1'
_cell_length_a   7.96990458
_cell_length_b   7.96990458
_cell_length_c   3.33945600
_cell_angle_alpha   90.00000000
_cell_angle_beta   90.00000000
_cell_angle_gamma   120.00000482
_symmetry_Int_Tables_number   1
_chemical_formula_structural   Hf6Al2Pt
_chemical_formula_sum   'Hf6 Al2 Pt1'
_cell_volume   183.70144816
_cell_formula_units_Z   1
loop_
 _symmetry_equiv_pos_site_id
 _symmetry_equiv_pos_as_xyz
  1  'x, y, z'
loop_
 _atom_site_type_symbol
 _atom_site_label
 _atom_site_symmetry_multiplicity
 _atom_site_fract_x
 _atom_site_fract_y
 _atom_site_fract_z
 _atom_site_occupancy
  Hf  Hf0  1  0.00000000  0.73153900  0.50000000  1
  Hf  Hf1  1  0.26846100  0.26846100  0.50000000  1
  Hf  Hf2  1  0.73153900  0.00000000  0.50000000  1
  Hf  Hf3  1  0.00000000  0.39821400  0.00000000  1
  Hf  Hf4  1  0.60178600  0.60178600  0.00000000  1
  Hf  Hf5  1  0.39821400  0.00000000  0.00000000  1
  Al  Al6  1  0.33333300  0.66666700  0.50000000  1
  Al  Al7  1  0.66666700  0.33333300  0.50000000  1
  Pt  Pt8  1  0.00000000  0.00000000  0.00000000  1
