# generated using pymatgen
data_Na3TmCl6
_symmetry_space_group_name_H-M   'P 1'
_cell_length_a   6.95607680
_cell_length_b   7.25521800
_cell_length_c   10.23579902
_cell_angle_alpha   90.00000000
_cell_angle_beta   90.22392797
_cell_angle_gamma   90.00000000
_symmetry_Int_Tables_number   1
_chemical_formula_structural   Na3TmCl6
_chemical_formula_sum   'Na6 Tm2 Cl12'
_cell_volume   516.57486131
_cell_formula_units_Z   2
loop_
 _symmetry_equiv_pos_site_id
 _symmetry_equiv_pos_as_xyz
  1  'x, y, z'
loop_
 _atom_site_type_symbol
 _atom_site_label
 _atom_site_symmetry_multiplicity
 _atom_site_fract_x
 _atom_site_fract_y
 _atom_site_fract_z
 _atom_site_occupancy
  Na  Na0  1  0.00000000  0.00000000  0.50000000  1
  Na  Na1  1  0.50000000  0.50000000  0.00000000  1
  Na  Na2  1  0.98531900  0.55916400  0.25721600  1
  Na  Na3  1  0.01468100  0.44083600  0.74278400  1
  Na  Na4  1  0.51468100  0.05916400  0.24278400  1
  Na  Na5  1  0.48531900  0.94083600  0.75721600  1
  Tm  Tm6  1  0.00000000  0.00000000  0.00000000  1
  Tm  Tm7  1  0.50000000  0.50000000  0.50000000  1
  Cl  Cl8  1  0.83168100  0.30243300  0.07779900  1
  Cl  Cl9  1  0.16831900  0.69756700  0.92220100  1
  Cl  Cl10  1  0.66831900  0.80243300  0.42220100  1
  Cl  Cl11  1  0.33168100  0.19756700  0.57779900  1
  Cl  Cl12  1  0.13199900  0.93314300  0.23762500  1
  Cl  Cl13  1  0.86800100  0.06685700  0.76237500  1
  Cl  Cl14  1  0.36800100  0.43314300  0.26237500  1
  Cl  Cl15  1  0.63199900  0.56685700  0.73762500  1
  Cl  Cl16  1  0.68858300  0.82084500  0.06308000  1
  Cl  Cl17  1  0.31141700  0.17915500  0.93692000  1
  Cl  Cl18  1  0.81141700  0.32084500  0.43692000  1
  Cl  Cl19  1  0.18858300  0.67915500  0.56308000  1
