# generated using pymatgen
data_Dy2Mn(GeO3)4
_symmetry_space_group_name_H-M   'P 1'
_cell_length_a   10.03003747
_cell_length_b   10.03003747
_cell_length_c   5.03363600
_cell_angle_alpha   90.00000000
_cell_angle_beta   90.00000000
_cell_angle_gamma   90.65823831
_symmetry_Int_Tables_number   1
_chemical_formula_structural   Dy2Mn(GeO3)4
_chemical_formula_sum   'Dy4 Mn2 Ge8 O24'
_cell_volume   506.35867766
_cell_formula_units_Z   2
loop_
 _symmetry_equiv_pos_site_id
 _symmetry_equiv_pos_as_xyz
  1  'x, y, z'
loop_
 _atom_site_type_symbol
 _atom_site_label
 _atom_site_symmetry_multiplicity
 _atom_site_fract_x
 _atom_site_fract_y
 _atom_site_fract_z
 _atom_site_occupancy
  Dy  Dy0  1  0.00000000  0.50000000  0.50000000  1
  Dy  Dy1  1  0.50000000  0.00000000  0.50000000  1
  Dy  Dy2  1  0.75000000  0.75000000  0.50000000  1
  Dy  Dy3  1  0.25000000  0.25000000  0.50000000  1
  Mn  Mn4  1  0.50000000  0.50000000  0.50000000  1
  Mn  Mn5  1  0.00000000  0.00000000  0.50000000  1
  Ge  Ge6  1  0.74664700  0.47856100  0.99561300  1
  Ge  Ge7  1  0.25335300  0.52143900  0.00438700  1
  Ge  Ge8  1  0.24664700  0.97856100  0.00438700  1
  Ge  Ge9  1  0.75335300  0.02143900  0.99561300  1
  Ge  Ge10  1  0.47856100  0.74664700  0.00438700  1
  Ge  Ge11  1  0.52143900  0.25335300  0.99561300  1
  Ge  Ge12  1  0.97856100  0.24664700  0.99561300  1
  Ge  Ge13  1  0.02143900  0.75335300  0.00438700  1
  O  O14  1  0.36939800  0.63060200  0.83324300  1
  O  O15  1  0.87299900  0.37299900  0.83202600  1
  O  O16  1  0.62700100  0.12700100  0.83202600  1
  O  O17  1  0.13060200  0.86939800  0.83324300  1
  O  O18  1  0.63060200  0.36939800  0.16675700  1
  O  O19  1  0.12700100  0.62700100  0.16797400  1
  O  O20  1  0.37299900  0.87299900  0.16797400  1
  O  O21  1  0.86939800  0.13060200  0.16675700  1
  O  O22  1  0.56345200  0.66849400  0.26113500  1
  O  O23  1  0.06306900  0.32937500  0.25188800  1
  O  O24  1  0.43693100  0.17062500  0.25188800  1
  O  O25  1  0.93654800  0.83150600  0.26113500  1
  O  O26  1  0.43654800  0.33150600  0.73886500  1
  O  O27  1  0.93693100  0.67062500  0.74811200  1
  O  O28  1  0.56306900  0.82937500  0.74811200  1
  O  O29  1  0.06345200  0.16849400  0.73886500  1
  O  O30  1  0.66849400  0.56345200  0.73886500  1
  O  O31  1  0.32937500  0.06306900  0.74811200  1
  O  O32  1  0.17062500  0.43693100  0.74811200  1
  O  O33  1  0.83150600  0.93654800  0.73886500  1
  O  O34  1  0.33150600  0.43654800  0.26113500  1
  O  O35  1  0.67062500  0.93693100  0.25188800  1
  O  O36  1  0.82937500  0.56306900  0.25188800  1
  O  O37  1  0.16849400  0.06345200  0.26113500  1
