# generated using pymatgen
data_K(Nb2Cl5)4
_symmetry_space_group_name_H-M   'P 1'
_cell_length_a   18.14294100
_cell_length_b   9.44018900
_cell_length_c   13.65813815
_cell_angle_alpha   89.93368555
_cell_angle_beta   90.00000000
_cell_angle_gamma   90.00000000
_symmetry_Int_Tables_number   1
_chemical_formula_structural   K(Nb2Cl5)4
_chemical_formula_sum   'K3 Nb24 Cl60'
_cell_volume   2339.26588809
_cell_formula_units_Z   3
loop_
 _symmetry_equiv_pos_site_id
 _symmetry_equiv_pos_as_xyz
  1  'x, y, z'
loop_
 _atom_site_type_symbol
 _atom_site_label
 _atom_site_symmetry_multiplicity
 _atom_site_fract_x
 _atom_site_fract_y
 _atom_site_fract_z
 _atom_site_occupancy
  K  K0  1  0.50000000  0.32107100  0.25512100  1
  K  K1  1  0.50000000  0.32109100  0.74498900  1
  K  K2  1  0.00000000  0.67919500  0.74451800  1
  Nb  Nb3  1  0.22047000  0.35282700  0.39135700  1
  Nb  Nb4  1  0.27805600  0.64824500  0.39120400  1
  Nb  Nb5  1  0.77953000  0.35282700  0.39135700  1
  Nb  Nb6  1  0.72194400  0.64824500  0.39120400  1
  Nb  Nb7  1  0.27833400  0.64742000  0.60823500  1
  Nb  Nb8  1  0.22096400  0.35279000  0.60832100  1
  Nb  Nb9  1  0.72166600  0.64742000  0.60823500  1
  Nb  Nb10  1  0.77903600  0.35279000  0.60832100  1
  Nb  Nb11  1  0.00000000  0.94316900  0.00148300  1
  Nb  Nb12  1  0.50000000  0.05368300  0.99996800  1
  Nb  Nb13  1  0.08257400  0.16261300  0.11002100  1
  Nb  Nb14  1  0.41799500  0.83683500  0.10893500  1
  Nb  Nb15  1  0.91742600  0.16261300  0.11002100  1
  Nb  Nb16  1  0.58200500  0.83683500  0.10893500  1
  Nb  Nb17  1  0.41799500  0.83694400  0.89110100  1
  Nb  Nb18  1  0.08217100  0.16315300  0.89091500  1
  Nb  Nb19  1  0.58200500  0.83694400  0.89110100  1
  Nb  Nb20  1  0.91782900  0.16315300  0.89091500  1
  Nb  Nb21  1  0.35565500  0.42066800  0.49978100  1
  Nb  Nb22  1  0.14268100  0.58016200  0.49889000  1
  Nb  Nb23  1  0.64434500  0.42066800  0.49978100  1
  Nb  Nb24  1  0.85731900  0.58016200  0.49889000  1
  Nb  Nb25  1  0.00000000  0.38088400  0.00128300  1
  Nb  Nb26  1  0.50000000  0.62179800  0.00009800  1
  Cl  Cl27  1  0.00000000  0.15300100  0.25236500  1
  Cl  Cl28  1  0.50000000  0.84851100  0.25320600  1
  Cl  Cl29  1  0.50000000  0.84864700  0.74680600  1
  Cl  Cl30  1  0.00000000  0.15173800  0.74729400  1
  Cl  Cl31  1  0.24999700  0.50005800  0.24815000  1
  Cl  Cl32  1  0.75000300  0.50005800  0.24815000  1
  Cl  Cl33  1  0.25000100  0.49975200  0.75199300  1
  Cl  Cl34  1  0.74999900  0.49975200  0.75199300  1
  Cl  Cl35  1  0.34268100  0.23306100  0.37393600  1
  Cl  Cl36  1  0.15727600  0.76546000  0.37334800  1
  Cl  Cl37  1  0.65731900  0.23306100  0.37393600  1
  Cl  Cl38  1  0.84272400  0.76546000  0.37334800  1
  Cl  Cl39  1  0.15700100  0.76700400  0.62597700  1
  Cl  Cl40  1  0.34284700  0.23303200  0.62623600  1
  Cl  Cl41  1  0.84299900  0.76700400  0.62597700  1
  Cl  Cl42  1  0.65715300  0.23303200  0.62623600  1
  Cl  Cl43  1  0.00000000  0.66311000  0.99603000  1
  Cl  Cl44  1  0.50000000  0.33624100  0.99998000  1
  Cl  Cl45  1  0.09117900  0.42176300  0.37516800  1
  Cl  Cl46  1  0.40887900  0.58008900  0.37625200  1
  Cl  Cl47  1  0.90882100  0.42176300  0.37516800  1
  Cl  Cl48  1  0.59112100  0.58008900  0.37625200  1
  Cl  Cl49  1  0.40892000  0.57955300  0.62354100  1
  Cl  Cl50  1  0.09071500  0.42001500  0.62367200  1
  Cl  Cl51  1  0.59108000  0.57955300  0.62354100  1
  Cl  Cl52  1  0.90928500  0.42001500  0.62367200  1
  Cl  Cl53  1  0.18128000  0.15791500  0.50029300  1
  Cl  Cl54  1  0.31881600  0.84193400  0.50004100  1
  Cl  Cl55  1  0.81872000  0.15791500  0.50029300  1
  Cl  Cl56  1  0.68118400  0.84193400  0.50004100  1
  Cl  Cl57  1  0.19041700  0.16617100  0.99966200  1
  Cl  Cl58  1  0.30931500  0.83348000  0.99999700  1
  Cl  Cl59  1  0.80958300  0.16617100  0.99966200  1
  Cl  Cl60  1  0.69068500  0.83348000  0.99999700  1
  Cl  Cl61  1  0.09521300  0.42092400  0.12467000  1
  Cl  Cl62  1  0.40401800  0.57701300  0.12398200  1
  Cl  Cl63  1  0.90478700  0.42092400  0.12467000  1
  Cl  Cl64  1  0.59598200  0.57701300  0.12398200  1
  Cl  Cl65  1  0.40406900  0.57721500  0.87615900  1
  Cl  Cl66  1  0.09559600  0.42218900  0.87609100  1
  Cl  Cl67  1  0.59593100  0.57721500  0.87615900  1
  Cl  Cl68  1  0.90440400  0.42218900  0.87609100  1
  Cl  Cl69  1  0.00000000  0.68663100  0.50364700  1
  Cl  Cl70  1  0.50000000  0.31171400  0.50002800  1
  Cl  Cl71  1  0.09640200  0.90422400  0.12555300  1
  Cl  Cl72  1  0.40218300  0.09702700  0.12470000  1
  Cl  Cl73  1  0.90359800  0.90422400  0.12555300  1
  Cl  Cl74  1  0.59781700  0.09702700  0.12470000  1
  Cl  Cl75  1  0.40214600  0.09717200  0.87516500  1
  Cl  Cl76  1  0.09763500  0.90351900  0.87569100  1
  Cl  Cl77  1  0.59785400  0.09717200  0.87516500  1
  Cl  Cl78  1  0.90236500  0.90351900  0.87569100  1
  Cl  Cl79  1  0.18613400  0.16334300  0.25074300  1
  Cl  Cl80  1  0.31419600  0.83691900  0.25009600  1
  Cl  Cl81  1  0.81386600  0.16334300  0.25074300  1
  Cl  Cl82  1  0.68580400  0.83691900  0.25009600  1
  Cl  Cl83  1  0.31418300  0.83634800  0.74957900  1
  Cl  Cl84  1  0.18581800  0.16356900  0.74962600  1
  Cl  Cl85  1  0.68581700  0.83634800  0.74957900  1
  Cl  Cl86  1  0.81418200  0.16356900  0.74962600  1
