# generated using pymatgen
data_Th5Pb4
_symmetry_space_group_name_H-M   'P 1'
_cell_length_a   9.82838827
_cell_length_b   9.82838827
_cell_length_c   6.64749600
_cell_angle_alpha   90.00000000
_cell_angle_beta   90.00000000
_cell_angle_gamma   120.00000183
_symmetry_Int_Tables_number   1
_chemical_formula_structural   Th5Pb4
_chemical_formula_sum   'Th10 Pb8'
_cell_volume   556.10054202
_cell_formula_units_Z   2
loop_
 _symmetry_equiv_pos_site_id
 _symmetry_equiv_pos_as_xyz
  1  'x, y, z'
loop_
 _atom_site_type_symbol
 _atom_site_label
 _atom_site_symmetry_multiplicity
 _atom_site_fract_x
 _atom_site_fract_y
 _atom_site_fract_z
 _atom_site_occupancy
  Th  Th0  1  0.66666700  0.33333300  0.50000000  1
  Th  Th1  1  0.33333300  0.66666700  0.50000000  1
  Th  Th2  1  0.33333300  0.66666700  0.00000000  1
  Th  Th3  1  0.66666700  0.33333300  0.00000000  1
  Th  Th4  1  0.71581300  0.71581300  0.25000000  1
  Th  Th5  1  0.28418700  0.00000000  0.25000000  1
  Th  Th6  1  0.00000000  0.28418700  0.25000000  1
  Th  Th7  1  0.28418700  0.28418700  0.75000000  1
  Th  Th8  1  0.71581300  0.00000000  0.75000000  1
  Th  Th9  1  0.00000000  0.71581300  0.75000000  1
  Pb  Pb10  1  0.00000000  0.00000000  0.50000000  1
  Pb  Pb11  1  0.00000000  0.00000000  0.00000000  1
  Pb  Pb12  1  0.37774200  0.37774200  0.25000000  1
  Pb  Pb13  1  0.62225800  0.00000000  0.25000000  1
  Pb  Pb14  1  0.00000000  0.62225800  0.25000000  1
  Pb  Pb15  1  0.62225800  0.62225800  0.75000000  1
  Pb  Pb16  1  0.37774200  0.00000000  0.75000000  1
  Pb  Pb17  1  0.00000000  0.37774200  0.75000000  1
