# generated using pymatgen
data_Li3B7O12
_symmetry_space_group_name_H-M   'P 1'
_cell_length_a   6.56194900
_cell_length_b   7.99006280
_cell_length_c   8.63073494
_cell_angle_alpha   91.30905330
_cell_angle_beta   104.72996305
_cell_angle_gamma   99.10114824
_symmetry_Int_Tables_number   1
_chemical_formula_structural   Li3B7O12
_chemical_formula_sum   'Li6 B14 O24'
_cell_volume   431.18795004
_cell_formula_units_Z   2
loop_
 _symmetry_equiv_pos_site_id
 _symmetry_equiv_pos_as_xyz
  1  'x, y, z'
loop_
 _atom_site_type_symbol
 _atom_site_label
 _atom_site_symmetry_multiplicity
 _atom_site_fract_x
 _atom_site_fract_y
 _atom_site_fract_z
 _atom_site_occupancy
  Li  Li0  1  0.77868800  0.19677900  0.96685400  1
  Li  Li1  1  0.22131200  0.80322100  0.03314600  1
  Li  Li2  1  0.48265700  0.92217600  0.69575000  1
  Li  Li3  1  0.51734300  0.07782400  0.30425000  1
  Li  Li4  1  0.01090400  0.30510000  0.68267200  1
  Li  Li5  1  0.98909600  0.69490000  0.31732800  1
  B  B6  1  0.75446600  0.87039100  0.04139800  1
  B  B7  1  0.24553400  0.12960900  0.95860200  1
  B  B8  1  0.78467100  0.85941000  0.50938600  1
  B  B9  1  0.21532900  0.14059000  0.49061400  1
  B  B10  1  0.43801500  0.27310100  0.77095500  1
  B  B11  1  0.56198500  0.72689900  0.22904500  1
  B  B12  1  0.04156300  0.70738000  0.69102900  1
  B  B13  1  0.95843700  0.29262000  0.30897100  1
  B  B14  1  0.38318900  0.57103300  0.71441700  1
  B  B15  1  0.61681100  0.42896700  0.28558300  1
  B  B16  1  0.90528500  0.95965700  0.79868400  1
  B  B17  1  0.09471500  0.04034300  0.20131600  1
  B  B18  1  0.73058000  0.49558700  0.73077600  1
  B  B19  1  0.26942000  0.50441300  0.26922400  1
  O  O20  1  0.06677000  0.46726300  0.28622400  1
  O  O21  1  0.93323000  0.53273700  0.71377600  1
  O  O22  1  0.63996700  0.86145100  0.36248200  1
  O  O23  1  0.36003300  0.13854900  0.63751800  1
  O  O24  1  0.03484800  0.82663700  0.81977000  1
  O  O25  1  0.96515200  0.17336300  0.18023000  1
  O  O26  1  0.04724300  0.13075700  0.85015700  1
  O  O27  1  0.95275700  0.86924300  0.14984300  1
  O  O28  1  0.26905600  0.70141800  0.69517300  1
  O  O29  1  0.73094400  0.29858200  0.30482700  1
  O  O30  1  0.77227100  0.96600300  0.63347900  1
  O  O31  1  0.22772900  0.03399700  0.36652100  1
  O  O32  1  0.94040800  0.75910900  0.53015700  1
  O  O33  1  0.05959200  0.24089100  0.46984300  1
  O  O34  1  0.73959600  0.94169200  0.89514900  1
  O  O35  1  0.26040400  0.05830800  0.10485100  1
  O  O36  1  0.31235600  0.41130300  0.75222200  1
  O  O37  1  0.68764400  0.58869700  0.24777800  1
  O  O38  1  0.43415500  0.19458700  0.92362800  1
  O  O39  1  0.56584500  0.80541300  0.07637200  1
  O  O40  1  0.66811000  0.33893200  0.78411700  1
  O  O41  1  0.33189000  0.66106800  0.21588300  1
  O  O42  1  0.58908800  0.60969700  0.69256300  1
  O  O43  1  0.41091200  0.39030300  0.30743700  1
