# generated using pymatgen
data_CaY2(GeO3)4
_symmetry_space_group_name_H-M   'P 1'
_cell_length_a   10.13563693
_cell_length_b   10.13563693
_cell_length_c   5.11646200
_cell_angle_alpha   90.00000000
_cell_angle_beta   90.00000000
_cell_angle_gamma   90.12987726
_symmetry_Int_Tables_number   1
_chemical_formula_structural   CaY2(GeO3)4
_chemical_formula_sum   'Ca2 Y4 Ge8 O24'
_cell_volume   525.61860281
_cell_formula_units_Z   2
loop_
 _symmetry_equiv_pos_site_id
 _symmetry_equiv_pos_as_xyz
  1  'x, y, z'
loop_
 _atom_site_type_symbol
 _atom_site_label
 _atom_site_symmetry_multiplicity
 _atom_site_fract_x
 _atom_site_fract_y
 _atom_site_fract_z
 _atom_site_occupancy
  Ca  Ca0  1  0.50000000  0.50000000  0.50000000  1
  Ca  Ca1  1  0.00000000  0.00000000  0.50000000  1
  Y  Y2  1  0.00000000  0.50000000  0.50000000  1
  Y  Y3  1  0.50000000  0.00000000  0.50000000  1
  Y  Y4  1  0.75000000  0.75000000  0.50000000  1
  Y  Y5  1  0.25000000  0.25000000  0.50000000  1
  Ge  Ge6  1  0.75087200  0.02113300  0.99798900  1
  Ge  Ge7  1  0.24912800  0.97886700  0.00201100  1
  Ge  Ge8  1  0.25087200  0.52113300  0.00201100  1
  Ge  Ge9  1  0.74912800  0.47886700  0.99798900  1
  Ge  Ge10  1  0.02113300  0.75087200  0.00201100  1
  Ge  Ge11  1  0.97886700  0.24912800  0.99798900  1
  Ge  Ge12  1  0.52113300  0.25087200  0.99798900  1
  Ge  Ge13  1  0.47886700  0.74912800  0.00201100  1
  O  O14  1  0.56671900  0.67762800  0.25468000  1
  O  O15  1  0.05844300  0.32718300  0.25898200  1
  O  O16  1  0.44155700  0.17281700  0.25898200  1
  O  O17  1  0.93328100  0.82237200  0.25468000  1
  O  O18  1  0.43328100  0.32237200  0.74532000  1
  O  O19  1  0.94155700  0.67281700  0.74101800  1
  O  O20  1  0.55844300  0.82718300  0.74101800  1
  O  O21  1  0.06671900  0.17762800  0.74532000  1
  O  O22  1  0.67762800  0.56671900  0.74532000  1
  O  O23  1  0.32718300  0.05844300  0.74101800  1
  O  O24  1  0.17281700  0.44155700  0.74101800  1
  O  O25  1  0.82237200  0.93328100  0.74532000  1
  O  O26  1  0.32237200  0.43328100  0.25468000  1
  O  O27  1  0.67281700  0.94155700  0.25898200  1
  O  O28  1  0.82718300  0.55844300  0.25898200  1
  O  O29  1  0.17762800  0.06671900  0.25468000  1
  O  O30  1  0.87123500  0.12876500  0.15319200  1
  O  O31  1  0.37596200  0.87596200  0.16162600  1
  O  O32  1  0.12403800  0.62403800  0.16162600  1
  O  O33  1  0.62876500  0.37123500  0.15319200  1
  O  O34  1  0.12876500  0.87123500  0.84680800  1
  O  O35  1  0.62403800  0.12403800  0.83837400  1
  O  O36  1  0.87596200  0.37596200  0.83837400  1
  O  O37  1  0.37123500  0.62876500  0.84680800  1
