# generated using pymatgen
data_K18Na46Tl31
_symmetry_space_group_name_H-M   'P 1'
_cell_length_a   11.39128372
_cell_length_b   11.39128372
_cell_length_c   30.46779700
_cell_angle_alpha   90.00000000
_cell_angle_beta   90.00000000
_cell_angle_gamma   119.99999836
_symmetry_Int_Tables_number   1
_chemical_formula_structural   K18Na46Tl31
_chemical_formula_sum   'K18 Na46 Tl31'
_cell_volume   3423.86813196
_cell_formula_units_Z   1
loop_
 _symmetry_equiv_pos_site_id
 _symmetry_equiv_pos_as_xyz
  1  'x, y, z'
loop_
 _atom_site_type_symbol
 _atom_site_label
 _atom_site_symmetry_multiplicity
 _atom_site_fract_x
 _atom_site_fract_y
 _atom_site_fract_z
 _atom_site_occupancy
  K  K0  1  0.93032900  0.46516500  0.81005500  1
  K  K1  1  0.53483500  0.46516500  0.81005500  1
  K  K2  1  0.53483500  0.06967100  0.81005500  1
  K  K3  1  0.40204800  0.20102400  0.68961900  1
  K  K4  1  0.79897600  0.20102400  0.68961900  1
  K  K5  1  0.79897600  0.59795200  0.68961900  1
  K  K6  1  0.40204800  0.20102400  0.31038100  1
  K  K7  1  0.79897600  0.20102400  0.31038100  1
  K  K8  1  0.79897600  0.59795200  0.31038100  1
  K  K9  1  0.93032900  0.46516500  0.18994500  1
  K  K10  1  0.53483500  0.46516500  0.18994500  1
  K  K11  1  0.53483500  0.06967100  0.18994500  1
  K  K12  1  0.58319300  0.79159600  0.50000000  1
  K  K13  1  0.20840400  0.79159600  0.50000000  1
  K  K14  1  0.20840400  0.41680700  0.50000000  1
  K  K15  1  0.75056500  0.87528300  0.00000000  1
  K  K16  1  0.12471700  0.87528300  0.00000000  1
  K  K17  1  0.12471700  0.24943500  0.00000000  1
  Na  Na18  1  0.00116400  0.50058200  0.40366600  1
  Na  Na19  1  0.49941800  0.50058200  0.40366600  1
  Na  Na20  1  0.49941800  0.99883600  0.40366600  1
  Na  Na21  1  0.33274900  0.16637400  0.09618500  1
  Na  Na22  1  0.83362600  0.16637400  0.09618500  1
  Na  Na23  1  0.83362600  0.66725100  0.09618500  1
  Na  Na24  1  0.33274900  0.16637400  0.90381500  1
  Na  Na25  1  0.83362600  0.16637400  0.90381500  1
  Na  Na26  1  0.83362600  0.66725100  0.90381500  1
  Na  Na27  1  0.00116400  0.50058200  0.59633400  1
  Na  Na28  1  0.49941800  0.50058200  0.59633400  1
  Na  Na29  1  0.49941800  0.99883600  0.59633400  1
  Na  Na30  1  0.33333300  0.66666700  0.78891500  1
  Na  Na31  1  0.00000000  0.00000000  0.71097100  1
  Na  Na32  1  0.00000000  0.00000000  0.28902900  1
  Na  Na33  1  0.33333300  0.66666700  0.21108500  1
  Na  Na34  1  0.02257600  0.51128800  0.05914000  1
  Na  Na35  1  0.48871200  0.51128800  0.05914000  1
  Na  Na36  1  0.48871200  0.97742400  0.05914000  1
  Na  Na37  1  0.30926900  0.15463500  0.43998800  1
  Na  Na38  1  0.84536500  0.15463500  0.43998800  1
  Na  Na39  1  0.84536500  0.69073100  0.43998800  1
  Na  Na40  1  0.30926900  0.15463500  0.56001200  1
  Na  Na41  1  0.84536500  0.15463500  0.56001200  1
  Na  Na42  1  0.84536500  0.69073100  0.56001200  1
  Na  Na43  1  0.02257600  0.51128800  0.94086000  1
  Na  Na44  1  0.48871200  0.51128800  0.94086000  1
  Na  Na45  1  0.48871200  0.97742400  0.94086000  1
  Na  Na46  1  0.66667900  0.83333900  0.74989800  1
  Na  Na47  1  0.16666100  0.83333900  0.74989800  1
  Na  Na48  1  0.16666100  0.33332100  0.74989800  1
  Na  Na49  1  0.66667900  0.83333900  0.25010200  1
  Na  Na50  1  0.16666100  0.83333900  0.25010200  1
  Na  Na51  1  0.16666100  0.33332100  0.25010200  1
  Na  Na52  1  0.67509500  0.83754700  0.63349700  1
  Na  Na53  1  0.16245300  0.83754700  0.63349700  1
  Na  Na54  1  0.16245300  0.32490500  0.63349700  1
  Na  Na55  1  0.65928500  0.82964300  0.86638800  1
  Na  Na56  1  0.17035700  0.82964300  0.86638800  1
  Na  Na57  1  0.17035700  0.34071500  0.86638800  1
  Na  Na58  1  0.65928500  0.82964300  0.13361200  1
  Na  Na59  1  0.17035700  0.82964300  0.13361200  1
  Na  Na60  1  0.17035700  0.34071500  0.13361200  1
  Na  Na61  1  0.67509500  0.83754700  0.36650300  1
  Na  Na62  1  0.16245300  0.83754700  0.36650300  1
  Na  Na63  1  0.16245300  0.32490500  0.36650300  1
  Tl  Tl64  1  0.33333300  0.66666700  0.60675900  1
  Tl  Tl65  1  0.00000000  0.00000000  0.89445900  1
  Tl  Tl66  1  0.00000000  0.00000000  0.10554100  1
  Tl  Tl67  1  0.33333300  0.66666700  0.39324100  1
  Tl  Tl68  1  0.86332000  0.43166000  0.50000000  1
  Tl  Tl69  1  0.56834000  0.43166000  0.50000000  1
  Tl  Tl70  1  0.56834000  0.13668000  0.50000000  1
  Tl  Tl71  1  0.47124600  0.23562300  0.00000000  1
  Tl  Tl72  1  0.76437700  0.23562300  0.00000000  1
  Tl  Tl73  1  0.76437700  0.52875400  0.00000000  1
  Tl  Tl74  1  0.19734800  0.09867400  0.19483400  1
  Tl  Tl75  1  0.90132600  0.09867400  0.19483400  1
  Tl  Tl76  1  0.90132600  0.80265200  0.19483400  1
  Tl  Tl77  1  0.13541600  0.56770800  0.30419900  1
  Tl  Tl78  1  0.43229200  0.56770800  0.30419900  1
  Tl  Tl79  1  0.43229200  0.86458400  0.30419900  1
  Tl  Tl80  1  0.13541600  0.56770800  0.69580100  1
  Tl  Tl81  1  0.43229200  0.56770800  0.69580100  1
  Tl  Tl82  1  0.43229200  0.86458400  0.69580100  1
  Tl  Tl83  1  0.19734800  0.09867400  0.80516600  1
  Tl  Tl84  1  0.90132600  0.09867400  0.80516600  1
  Tl  Tl85  1  0.90132600  0.80265200  0.80516600  1
  Tl  Tl86  1  0.66666700  0.33333300  0.41130300  1
  Tl  Tl87  1  0.66666700  0.33333300  0.08902300  1
  Tl  Tl88  1  0.66666700  0.33333300  0.91097700  1
  Tl  Tl89  1  0.66666700  0.33333300  0.58869700  1
  Tl  Tl90  1  0.33333300  0.66666700  0.89771000  1
  Tl  Tl91  1  0.00000000  0.00000000  0.60226500  1
  Tl  Tl92  1  0.00000000  0.00000000  0.39773500  1
  Tl  Tl93  1  0.33333300  0.66666700  0.10229000  1
  Tl  Tl94  1  0.33333300  0.66666700  0.00000000  1
