# generated using pymatgen
data_Be3Cd4Si3SO12
_symmetry_space_group_name_H-M   'P 1'
_cell_length_a   8.56042000
_cell_length_b   8.56042000
_cell_length_c   8.56042000
_cell_angle_alpha   90.00000000
_cell_angle_beta   90.00000000
_cell_angle_gamma   90.00000000
_symmetry_Int_Tables_number   1
_chemical_formula_structural   Be3Cd4Si3SO12
_chemical_formula_sum   'Be6 Cd8 Si6 S2 O24'
_cell_volume   627.31434527
_cell_formula_units_Z   2
loop_
 _symmetry_equiv_pos_site_id
 _symmetry_equiv_pos_as_xyz
  1  'x, y, z'
loop_
 _atom_site_type_symbol
 _atom_site_label
 _atom_site_symmetry_multiplicity
 _atom_site_fract_x
 _atom_site_fract_y
 _atom_site_fract_z
 _atom_site_occupancy
  Be  Be0  1  0.25000000  0.50000000  0.00000000  1
  Be  Be1  1  0.50000000  0.00000000  0.75000000  1
  Be  Be2  1  0.50000000  0.00000000  0.25000000  1
  Be  Be3  1  0.00000000  0.25000000  0.50000000  1
  Be  Be4  1  0.00000000  0.75000000  0.50000000  1
  Be  Be5  1  0.75000000  0.50000000  0.00000000  1
  Cd  Cd6  1  0.32940600  0.67059400  0.32940600  1
  Cd  Cd7  1  0.67059400  0.32940600  0.32940600  1
  Cd  Cd8  1  0.82940600  0.82940600  0.17059400  1
  Cd  Cd9  1  0.17059400  0.82940600  0.82940600  1
  Cd  Cd10  1  0.82940600  0.17059400  0.82940600  1
  Cd  Cd11  1  0.67059400  0.67059400  0.67059400  1
  Cd  Cd12  1  0.17059400  0.17059400  0.17059400  1
  Cd  Cd13  1  0.32940600  0.32940600  0.67059400  1
  Si  Si14  1  0.75000000  0.00000000  0.50000000  1
  Si  Si15  1  0.50000000  0.75000000  0.00000000  1
  Si  Si16  1  0.50000000  0.25000000  0.00000000  1
  Si  Si17  1  0.25000000  0.00000000  0.50000000  1
  Si  Si18  1  0.00000000  0.50000000  0.25000000  1
  Si  Si19  1  0.00000000  0.50000000  0.75000000  1
  S  S20  1  0.00000000  0.00000000  0.00000000  1
  S  S21  1  0.50000000  0.50000000  0.50000000  1
  O  O22  1  0.85598600  0.42922600  0.85615100  1
  O  O23  1  0.85598600  0.57077400  0.14384900  1
  O  O24  1  0.42922600  0.85615100  0.85598600  1
  O  O25  1  0.57077400  0.85615100  0.14401400  1
  O  O26  1  0.85615100  0.85598600  0.42922600  1
  O  O27  1  0.14384900  0.14401400  0.42922600  1
  O  O28  1  0.35598600  0.35615100  0.92922600  1
  O  O29  1  0.14401400  0.42922600  0.14384900  1
  O  O30  1  0.14401400  0.57077400  0.85615100  1
  O  O31  1  0.57077400  0.14384900  0.85598600  1
  O  O32  1  0.42922600  0.14384900  0.14401400  1
  O  O33  1  0.85615100  0.14401400  0.57077400  1
  O  O34  1  0.14384900  0.85598600  0.57077400  1
  O  O35  1  0.92922600  0.35598600  0.35615100  1
  O  O36  1  0.35615100  0.92922600  0.35598600  1
  O  O37  1  0.64384900  0.07077400  0.35598600  1
  O  O38  1  0.92922600  0.64401400  0.64384900  1
  O  O39  1  0.64384900  0.92922600  0.64401400  1
  O  O40  1  0.07077400  0.64401400  0.35615100  1
  O  O41  1  0.07077400  0.35598600  0.64384900  1
  O  O42  1  0.35615100  0.07077400  0.64401400  1
  O  O43  1  0.35598600  0.64384900  0.07077400  1
  O  O44  1  0.64401400  0.35615100  0.07077400  1
  O  O45  1  0.64401400  0.64384900  0.92922600  1
