# generated using pymatgen
data_Er2PbS4
_symmetry_space_group_name_H-M   'P 1'
_cell_length_a   14.87322664
_cell_length_b   14.87322664
_cell_length_c   12.13303200
_cell_angle_alpha   90.00000000
_cell_angle_beta   90.00000000
_cell_angle_gamma   149.09016109
_symmetry_Int_Tables_number   1
_chemical_formula_structural   Er2PbS4
_chemical_formula_sum   'Er16 Pb8 S32'
_cell_volume   1378.73136722
_cell_formula_units_Z   8
loop_
 _symmetry_equiv_pos_site_id
 _symmetry_equiv_pos_as_xyz
  1  'x, y, z'
loop_
 _atom_site_type_symbol
 _atom_site_label
 _atom_site_symmetry_multiplicity
 _atom_site_fract_x
 _atom_site_fract_y
 _atom_site_fract_z
 _atom_site_occupancy
  Er  Er0  1  0.06915000  0.93085000  0.58707800  1
  Er  Er1  1  0.93085000  0.06915000  0.08707800  1
  Er  Er2  1  0.67418900  0.32581100  0.06524200  1
  Er  Er3  1  0.32581100  0.67418900  0.56524200  1
  Er  Er4  1  0.56963000  0.43037000  0.57885500  1
  Er  Er5  1  0.43037000  0.56963000  0.07885500  1
  Er  Er6  1  0.17511700  0.82488300  0.06775300  1
  Er  Er7  1  0.82488300  0.17511700  0.56775300  1
  Er  Er8  1  0.93090700  0.56902800  0.71361800  1
  Er  Er9  1  0.43097200  0.06909300  0.71361800  1
  Er  Er10  1  0.06909300  0.43097200  0.21361800  1
  Er  Er11  1  0.56902800  0.93090700  0.21361800  1
  Er  Er12  1  0.82671300  0.67383200  0.23141100  1
  Er  Er13  1  0.32616800  0.17328700  0.23141100  1
  Er  Er14  1  0.17328700  0.32616800  0.73141100  1
  Er  Er15  1  0.67383200  0.82671300  0.73141100  1
  Pb  Pb16  1  0.53845600  0.46154400  0.88136100  1
  Pb  Pb17  1  0.46154400  0.53845600  0.38136100  1
  Pb  Pb18  1  0.04646900  0.95353100  0.93389900  1
  Pb  Pb19  1  0.95353100  0.04646900  0.43389900  1
  Pb  Pb20  1  0.95831400  0.54124800  0.40295900  1
  Pb  Pb21  1  0.45875200  0.04168600  0.40295900  1
  Pb  Pb22  1  0.04168600  0.45875200  0.90295900  1
  Pb  Pb23  1  0.54124800  0.95831400  0.90295900  1
  S  S24  1  0.86249800  0.63937900  0.02198000  1
  S  S25  1  0.36062100  0.13750200  0.02198000  1
  S  S26  1  0.13750200  0.36062100  0.52198000  1
  S  S27  1  0.63937900  0.86249800  0.52198000  1
  S  S28  1  0.66369200  0.33630800  0.55997600  1
  S  S29  1  0.33630800  0.66369200  0.05997600  1
  S  S30  1  0.98200300  0.51467900  0.11873000  1
  S  S31  1  0.48532100  0.01799700  0.11873000  1
  S  S32  1  0.01799700  0.48532100  0.61873000  1
  S  S33  1  0.51467900  0.98200300  0.61873000  1
  S  S34  1  0.01940200  0.98059800  0.16347800  1
  S  S35  1  0.98059800  0.01940200  0.66347800  1
  S  S36  1  0.83494900  0.65981200  0.73180500  1
  S  S37  1  0.34018800  0.16505100  0.73180500  1
  S  S38  1  0.16505100  0.34018800  0.23180500  1
  S  S39  1  0.65981200  0.83494900  0.23180500  1
  S  S40  1  0.20874200  0.79125800  0.85459900  1
  S  S41  1  0.79125800  0.20874200  0.35459900  1
  S  S42  1  0.51538900  0.48461100  0.18318900  1
  S  S43  1  0.48461100  0.51538900  0.68318900  1
  S  S44  1  0.63931200  0.36068800  0.27397700  1
  S  S45  1  0.36068800  0.63931200  0.77397700  1
  S  S46  1  0.16302200  0.83697800  0.56194700  1
  S  S47  1  0.83697800  0.16302200  0.06194700  1
  S  S48  1  0.70868900  0.29131100  0.85389100  1
  S  S49  1  0.29131100  0.70868900  0.35389100  1
  S  S50  1  0.79240100  0.71193900  0.44151200  1
  S  S51  1  0.28806100  0.20759900  0.44151200  1
  S  S52  1  0.20759900  0.28806100  0.94151200  1
  S  S53  1  0.71193900  0.79240100  0.94151200  1
  S  S54  1  0.13944600  0.86055400  0.27642400  1
  S  S55  1  0.86055400  0.13944600  0.77642400  1
