# generated using pymatgen
data_Al3Pt5
_symmetry_space_group_name_H-M   'P 1'
_cell_length_a   4.00528500
_cell_length_b   5.46790800
_cell_length_c   10.89304400
_cell_angle_alpha   90.00000000
_cell_angle_beta   90.00000000
_cell_angle_gamma   90.00000000
_symmetry_Int_Tables_number   1
_chemical_formula_structural   Al3Pt5
_chemical_formula_sum   'Al6 Pt10'
_cell_volume   238.56343576
_cell_formula_units_Z   2
loop_
 _symmetry_equiv_pos_site_id
 _symmetry_equiv_pos_as_xyz
  1  'x, y, z'
loop_
 _atom_site_type_symbol
 _atom_site_label
 _atom_site_symmetry_multiplicity
 _atom_site_fract_x
 _atom_site_fract_y
 _atom_site_fract_z
 _atom_site_occupancy
  Al  Al0  1  0.50000000  0.18142500  0.63991800  1
  Al  Al1  1  0.50000000  0.81857500  0.36008200  1
  Al  Al2  1  0.50000000  0.68142500  0.86008200  1
  Al  Al3  1  0.50000000  0.31857500  0.13991800  1
  Al  Al4  1  0.00000000  0.50000000  0.50000000  1
  Al  Al5  1  0.00000000  0.00000000  0.00000000  1
  Pt  Pt6  1  0.50000000  0.29292200  0.39275300  1
  Pt  Pt7  1  0.50000000  0.70707800  0.60724700  1
  Pt  Pt8  1  0.50000000  0.79292200  0.10724700  1
  Pt  Pt9  1  0.50000000  0.20707800  0.89275300  1
  Pt  Pt10  1  0.00000000  0.42860900  0.73091800  1
  Pt  Pt11  1  0.00000000  0.57139100  0.26908200  1
  Pt  Pt12  1  0.00000000  0.92860900  0.76908200  1
  Pt  Pt13  1  0.00000000  0.07139100  0.23091800  1
  Pt  Pt14  1  0.00000000  0.50000000  0.00000000  1
  Pt  Pt15  1  0.00000000  0.00000000  0.50000000  1
