# generated using pymatgen
data_Nd8Sb2S15
_symmetry_space_group_name_H-M   'P 1'
_cell_length_a   14.90958860
_cell_length_b   14.90958860
_cell_length_c   14.90958860
_cell_angle_alpha   116.26025769
_cell_angle_beta   116.26025769
_cell_angle_gamma   96.60947937
_symmetry_Int_Tables_number   1
_chemical_formula_structural   Nd8Sb2S15
_chemical_formula_sum   'Nd32 Sb8 S60'
_cell_volume   2458.34659059
_cell_formula_units_Z   4
loop_
 _symmetry_equiv_pos_site_id
 _symmetry_equiv_pos_as_xyz
  1  'x, y, z'
loop_
 _atom_site_type_symbol
 _atom_site_label
 _atom_site_symmetry_multiplicity
 _atom_site_fract_x
 _atom_site_fract_y
 _atom_site_fract_z
 _atom_site_occupancy
  Nd  Nd0  1  0.41651300  0.04727300  0.32926200  1
  Nd  Nd1  1  0.21801100  0.54727300  0.63076000  1
  Nd  Nd2  1  0.83725100  0.66651300  0.86924000  1
  Nd  Nd3  1  0.33725100  0.46801100  0.17073800  1
  Nd  Nd4  1  0.71801100  0.08725100  0.67073800  1
  Nd  Nd5  1  0.91651300  0.58725100  0.36924000  1
  Nd  Nd6  1  0.79727300  0.96801100  0.13076000  1
  Nd  Nd7  1  0.29727300  0.16651300  0.82926200  1
  Nd  Nd8  1  0.33915900  0.16560900  0.13435500  1
  Nd  Nd9  1  0.53125400  0.66560900  0.82645000  1
  Nd  Nd10  1  0.95480400  0.58915900  0.67355000  1
  Nd  Nd11  1  0.45480400  0.78125400  0.36564500  1
  Nd  Nd12  1  0.03125400  0.20480400  0.86564500  1
  Nd  Nd13  1  0.83915900  0.70480400  0.17355000  1
  Nd  Nd14  1  0.91560900  0.28125400  0.32645000  1
  Nd  Nd15  1  0.41560900  0.08915900  0.63435500  1
  Nd  Nd16  1  0.43140600  0.77640400  0.07004900  1
  Nd  Nd17  1  0.20635600  0.27640400  0.34499800  1
  Nd  Nd18  1  0.11135700  0.68140600  0.15500200  1
  Nd  Nd19  1  0.61135700  0.45635600  0.42995100  1
  Nd  Nd20  1  0.70635600  0.36135700  0.92995100  1
  Nd  Nd21  1  0.93140600  0.86135700  0.65500200  1
  Nd  Nd22  1  0.52640400  0.95635600  0.84499800  1
  Nd  Nd23  1  0.02640400  0.18140600  0.57004900  1
  Nd  Nd24  1  0.14913800  0.85661100  0.00652800  1
  Nd  Nd25  1  0.35008300  0.35661100  0.70747200  1
  Nd  Nd26  1  0.89261000  0.39913800  0.79252800  1
  Nd  Nd27  1  0.39261000  0.60008300  0.49347200  1
  Nd  Nd28  1  0.85008300  0.14261000  0.99347200  1
  Nd  Nd29  1  0.64913800  0.64261000  0.29252800  1
  Nd  Nd30  1  0.60661100  0.10008300  0.20747200  1
  Nd  Nd31  1  0.10661100  0.89913800  0.50652800  1
  Sb  Sb32  1  0.25641800  0.86847800  0.81974100  1
  Sb  Sb33  1  0.54873700  0.36847800  0.61206000  1
  Sb  Sb34  1  0.18667700  0.50641800  0.88794000  1
  Sb  Sb35  1  0.68667700  0.79873700  0.68025900  1
  Sb  Sb36  1  0.04873700  0.43667700  0.18025900  1
  Sb  Sb37  1  0.75641800  0.93667700  0.38794000  1
  Sb  Sb38  1  0.61847800  0.29873700  0.11206000  1
  Sb  Sb39  1  0.11847800  0.00641800  0.31974100  1
  S  S40  1  0.24929100  0.24929100  0.00000000  1
  S  S41  1  0.74929100  0.74929100  0.00000000  1
  S  S42  1  0.99929100  0.49929100  0.50000000  1
  S  S43  1  0.49929100  0.99929100  0.50000000  1
  S  S44  1  0.15792100  0.97452900  0.89073800  1
  S  S45  1  0.58379100  0.47452900  0.81660700  1
  S  S46  1  0.01718300  0.40792100  0.68339300  1
  S  S47  1  0.51718300  0.83379100  0.60926200  1
  S  S48  1  0.08379100  0.26718300  0.10926200  1
  S  S49  1  0.65792100  0.76718300  0.18339300  1
  S  S50  1  0.72452900  0.33379100  0.31660700  1
  S  S51  1  0.22452900  0.90792100  0.39073800  1
  S  S52  1  0.37731500  0.57634100  0.85380100  1
  S  S53  1  0.22254000  0.07634100  0.19902700  1
  S  S54  1  0.27351300  0.62731500  0.30097300  1
  S  S55  1  0.77351300  0.47254000  0.64619900  1
  S  S56  1  0.72254000  0.52351300  0.14619900  1
  S  S57  1  0.87731500  0.02351300  0.80097300  1
  S  S58  1  0.32634100  0.97254000  0.69902700  1
  S  S59  1  0.82634100  0.12731500  0.35380100  1
  S  S60  1  0.37870600  0.96633900  0.09391500  1
  S  S61  1  0.37242400  0.46633900  0.58763300  1
  S  S62  1  0.03479200  0.62870600  0.91236700  1
  S  S63  1  0.53479200  0.62242400  0.40608500  1
  S  S64  1  0.87242400  0.28479200  0.90608500  1
  S  S65  1  0.87870600  0.78479200  0.41236700  1
  S  S66  1  0.71633900  0.12242400  0.08763300  1
  S  S67  1  0.21633900  0.12870600  0.59391500  1
  S  S68  1  0.02842300  0.83774700  0.11269200  1
  S  S69  1  0.22505500  0.33774700  0.80932400  1
  S  S70  1  0.66573100  0.27842300  0.69067600  1
  S  S71  1  0.16573100  0.47505500  0.38730800  1
  S  S72  1  0.72505500  0.91573100  0.88730800  1
  S  S73  1  0.52842300  0.41573100  0.19067600  1
  S  S74  1  0.58774700  0.97505500  0.30932400  1
  S  S75  1  0.08774700  0.77842300  0.61269200  1
  S  S76  1  0.37737900  0.72876100  0.69560700  1
  S  S77  1  0.53315400  0.22876100  0.35138300  1
  S  S78  1  0.43177100  0.62737900  0.14861700  1
  S  S79  1  0.93177100  0.78315400  0.80439300  1
  S  S80  1  0.03315400  0.68177100  0.30439300  1
  S  S81  1  0.87737900  0.18177100  0.64861700  1
  S  S82  1  0.47876100  0.28315400  0.85138300  1
  S  S83  1  0.97876100  0.12737900  0.19560700  1
  S  S84  1  0.29892500  0.80848100  0.17622500  1
  S  S85  1  0.13225600  0.30848100  0.50955700  1
  S  S86  1  0.87270000  0.54892500  0.99044300  1
  S  S87  1  0.37270000  0.38225600  0.32377500  1
  S  S88  1  0.63225600  0.12270000  0.82377500  1
  S  S89  1  0.79892500  0.62270000  0.49044300  1
  S  S90  1  0.55848100  0.88225600  0.00955700  1
  S  S91  1  0.05848100  0.04892500  0.67622500  1
  S  S92  1  0.19876700  0.71016300  0.83298400  1
  S  S93  1  0.37717900  0.21016300  0.51139600  1
  S  S94  1  0.11578300  0.44876700  0.98860400  1
  S  S95  1  0.61578300  0.62717900  0.66701600  1
  S  S96  1  0.87717900  0.36578300  0.16701600  1
  S  S97  1  0.69876700  0.86578300  0.48860400  1
  S  S98  1  0.46016300  0.12717900  0.01139600  1
  S  S99  1  0.96016300  0.94876700  0.33298400  1
