# generated using pymatgen
data_Ga5Ir3
_symmetry_space_group_name_H-M   'P 1'
_cell_length_a   5.87855400
_cell_length_b   5.87855400
_cell_length_c   14.42385200
_cell_angle_alpha   90.00000000
_cell_angle_beta   90.00000000
_cell_angle_gamma   90.00000000
_symmetry_Int_Tables_number   1
_chemical_formula_structural   Ga5Ir3
_chemical_formula_sum   'Ga20 Ir12'
_cell_volume   498.45078172
_cell_formula_units_Z   4
loop_
 _symmetry_equiv_pos_site_id
 _symmetry_equiv_pos_as_xyz
  1  'x, y, z'
loop_
 _atom_site_type_symbol
 _atom_site_label
 _atom_site_symmetry_multiplicity
 _atom_site_fract_x
 _atom_site_fract_y
 _atom_site_fract_z
 _atom_site_occupancy
  Ga  Ga0  1  0.23031400  0.34933800  0.05165000  1
  Ga  Ga1  1  0.76968600  0.65066200  0.05165000  1
  Ga  Ga2  1  0.34933800  0.76968600  0.94835000  1
  Ga  Ga3  1  0.73031400  0.15066200  0.55165000  1
  Ga  Ga4  1  0.65066200  0.23031400  0.94835000  1
  Ga  Ga5  1  0.26968600  0.84933800  0.55165000  1
  Ga  Ga6  1  0.84933800  0.73031400  0.44835000  1
  Ga  Ga7  1  0.15066200  0.26968600  0.44835000  1
  Ga  Ga8  1  0.34227900  0.30347800  0.65128700  1
  Ga  Ga9  1  0.65772100  0.69652200  0.65128700  1
  Ga  Ga10  1  0.30347800  0.65772100  0.34871300  1
  Ga  Ga11  1  0.84227900  0.19652200  0.15128700  1
  Ga  Ga12  1  0.69652200  0.34227900  0.34871300  1
  Ga  Ga13  1  0.15772100  0.80347800  0.15128700  1
  Ga  Ga14  1  0.80347800  0.84227900  0.84871300  1
  Ga  Ga15  1  0.19652200  0.15772100  0.84871300  1
  Ga  Ga16  1  0.32920600  0.17079400  0.25000000  1
  Ga  Ga17  1  0.67079400  0.82920600  0.25000000  1
  Ga  Ga18  1  0.17079400  0.67079400  0.75000000  1
  Ga  Ga19  1  0.82920600  0.32920600  0.75000000  1
  Ir  Ir20  1  0.00000000  0.00000000  0.32865400  1
  Ir  Ir21  1  0.00000000  0.00000000  0.67134600  1
  Ir  Ir22  1  0.50000000  0.50000000  0.82865400  1
  Ir  Ir23  1  0.50000000  0.50000000  0.17134600  1
  Ir  Ir24  1  0.00000000  0.50000000  0.58630900  1
  Ir  Ir25  1  0.50000000  0.00000000  0.41369100  1
  Ir  Ir26  1  0.50000000  0.00000000  0.08630900  1
  Ir  Ir27  1  0.00000000  0.50000000  0.91369100  1
  Ir  Ir28  1  0.00000000  0.50000000  0.25000000  1
  Ir  Ir29  1  0.50000000  0.00000000  0.75000000  1
  Ir  Ir30  1  0.00000000  0.00000000  0.00000000  1
  Ir  Ir31  1  0.50000000  0.50000000  0.50000000  1
