# generated using pymatgen
data_Er4BClO7
_symmetry_space_group_name_H-M   'P 1'
_cell_length_a   8.00802100
_cell_length_b   8.54741600
_cell_length_c   12.19452331
_cell_angle_alpha   60.25707683
_cell_angle_beta   90.00000000
_cell_angle_gamma   90.00000000
_symmetry_Int_Tables_number   1
_chemical_formula_structural   Er4BClO7
_chemical_formula_sum   'Er16 B4 Cl4 O28'
_cell_volume   724.72745775
_cell_formula_units_Z   4
loop_
 _symmetry_equiv_pos_site_id
 _symmetry_equiv_pos_as_xyz
  1  'x, y, z'
loop_
 _atom_site_type_symbol
 _atom_site_label
 _atom_site_symmetry_multiplicity
 _atom_site_fract_x
 _atom_site_fract_y
 _atom_site_fract_z
 _atom_site_occupancy
  Er  Er0  1  0.62499500  0.79781700  0.22103100  1
  Er  Er1  1  0.87500500  0.79781700  0.72103100  1
  Er  Er2  1  0.37500500  0.20218300  0.77896900  1
  Er  Er3  1  0.12499500  0.20218300  0.27896900  1
  Er  Er4  1  0.61782700  0.42450600  0.90890300  1
  Er  Er5  1  0.88217300  0.42450600  0.40890300  1
  Er  Er6  1  0.38217300  0.57549400  0.09109700  1
  Er  Er7  1  0.11782700  0.57549400  0.59109700  1
  Er  Er8  1  0.63855000  0.56954900  0.58101300  1
  Er  Er9  1  0.86145000  0.56954900  0.08101300  1
  Er  Er10  1  0.36145000  0.43045100  0.41898700  1
  Er  Er11  1  0.13855000  0.43045100  0.91898700  1
  Er  Er12  1  0.61443000  0.18190600  0.27946000  1
  Er  Er13  1  0.88557000  0.18190600  0.77946000  1
  Er  Er14  1  0.38557000  0.81809400  0.72054000  1
  Er  Er15  1  0.11443000  0.81809400  0.22054000  1
  B  B16  1  0.86878600  0.86833200  0.41431000  1
  B  B17  1  0.63121400  0.86833200  0.91431000  1
  B  B18  1  0.13121400  0.13166800  0.58569000  1
  B  B19  1  0.36878600  0.13166800  0.08569000  1
  Cl  Cl20  1  0.85010500  0.11846000  0.03197100  1
  Cl  Cl21  1  0.64989500  0.11846000  0.53197100  1
  Cl  Cl22  1  0.14989500  0.88154000  0.96802900  1
  Cl  Cl23  1  0.35010500  0.88154000  0.46802900  1
  O  O24  1  0.62237500  0.54142800  0.40228800  1
  O  O25  1  0.87762500  0.54142800  0.90228800  1
  O  O26  1  0.37762500  0.45857200  0.59771200  1
  O  O27  1  0.12237500  0.45857200  0.09771200  1
  O  O28  1  0.63685600  0.30839800  0.77509800  1
  O  O29  1  0.86314400  0.30839800  0.27509800  1
  O  O30  1  0.36314400  0.69160200  0.22490200  1
  O  O31  1  0.13685600  0.69160200  0.72490200  1
  O  O32  1  0.61767300  0.68007400  0.71661900  1
  O  O33  1  0.88232700  0.68007400  0.21661900  1
  O  O34  1  0.38232700  0.31992600  0.28338100  1
  O  O35  1  0.11767300  0.31992600  0.78338100  1
  O  O36  1  0.62145500  0.42518200  0.09328300  1
  O  O37  1  0.87854500  0.42518200  0.59328300  1
  O  O38  1  0.37854500  0.57481800  0.90671700  1
  O  O39  1  0.12145500  0.57481800  0.40671700  1
  O  O40  1  0.88991500  0.77324900  0.54401200  1
  O  O41  1  0.61008500  0.77324900  0.04401200  1
  O  O42  1  0.11008500  0.22675100  0.45598800  1
  O  O43  1  0.38991500  0.22675100  0.95598800  1
  O  O44  1  0.00343900  0.93679400  0.33431400  1
  O  O45  1  0.49656100  0.93679400  0.83431400  1
  O  O46  1  0.99656100  0.06320600  0.66568600  1
  O  O47  1  0.50343900  0.06320600  0.16568600  1
  O  O48  1  0.70924700  0.88474800  0.36680300  1
  O  O49  1  0.79075300  0.88474800  0.86680300  1
  O  O50  1  0.29075300  0.11525200  0.63319700  1
  O  O51  1  0.20924700  0.11525200  0.13319700  1
