# generated using pymatgen
data_Y4MgPt
_symmetry_space_group_name_H-M   'P 1'
_cell_length_a   9.80696011
_cell_length_b   9.80696011
_cell_length_c   9.80696011
_cell_angle_alpha   60.00000000
_cell_angle_beta   60.00000000
_cell_angle_gamma   60.00000000
_symmetry_Int_Tables_number   1
_chemical_formula_structural   Y4MgPt
_chemical_formula_sum   'Y16 Mg4 Pt4'
_cell_volume   666.94224828
_cell_formula_units_Z   4
loop_
 _symmetry_equiv_pos_site_id
 _symmetry_equiv_pos_as_xyz
  1  'x, y, z'
loop_
 _atom_site_type_symbol
 _atom_site_label
 _atom_site_symmetry_multiplicity
 _atom_site_fract_x
 _atom_site_fract_y
 _atom_site_fract_z
 _atom_site_occupancy
  Y  Y0  1  0.59977300  0.59977300  0.59977300  1
  Y  Y1  1  0.59977300  0.59977300  0.20068200  1
  Y  Y2  1  0.59977300  0.20068200  0.59977300  1
  Y  Y3  1  0.20068200  0.59977300  0.59977300  1
  Y  Y4  1  0.06157300  0.43842700  0.43842700  1
  Y  Y5  1  0.43842700  0.06157300  0.06157300  1
  Y  Y6  1  0.43842700  0.06157300  0.43842700  1
  Y  Y7  1  0.06157300  0.43842700  0.06157300  1
  Y  Y8  1  0.43842700  0.43842700  0.06157300  1
  Y  Y9  1  0.06157300  0.06157300  0.43842700  1
  Y  Y10  1  0.18439100  0.81560900  0.81560900  1
  Y  Y11  1  0.81560900  0.18439100  0.18439100  1
  Y  Y12  1  0.81560900  0.18439100  0.81560900  1
  Y  Y13  1  0.18439100  0.81560900  0.18439100  1
  Y  Y14  1  0.81560900  0.81560900  0.18439100  1
  Y  Y15  1  0.18439100  0.18439100  0.81560900  1
  Mg  Mg16  1  0.83015400  0.83015400  0.83015400  1
  Mg  Mg17  1  0.83015400  0.83015400  0.50953700  1
  Mg  Mg18  1  0.83015400  0.50953700  0.83015400  1
  Mg  Mg19  1  0.50953700  0.83015400  0.83015400  1
  Pt  Pt20  1  0.39247900  0.39247900  0.39247900  1
  Pt  Pt21  1  0.39247900  0.39247900  0.82256400  1
  Pt  Pt22  1  0.39247900  0.82256400  0.39247900  1
  Pt  Pt23  1  0.82256400  0.39247900  0.39247900  1
