# generated using pymatgen
data_Rb2Fe2As2O9
_symmetry_space_group_name_H-M   'P 1'
_cell_length_a   5.88347300
_cell_length_b   8.70303300
_cell_length_c   19.10946400
_cell_angle_alpha   90.00000000
_cell_angle_beta   90.00000000
_cell_angle_gamma   90.00000000
_symmetry_Int_Tables_number   1
_chemical_formula_structural   Rb2Fe2As2O9
_chemical_formula_sum   'Rb8 Fe8 As8 O36'
_cell_volume   978.48213499
_cell_formula_units_Z   4
loop_
 _symmetry_equiv_pos_site_id
 _symmetry_equiv_pos_as_xyz
  1  'x, y, z'
loop_
 _atom_site_type_symbol
 _atom_site_label
 _atom_site_symmetry_multiplicity
 _atom_site_fract_x
 _atom_site_fract_y
 _atom_site_fract_z
 _atom_site_occupancy
  Rb  Rb0  1  0.25000000  0.88867100  0.13849900  1
  Rb  Rb1  1  0.25000000  0.38867100  0.36150100  1
  Rb  Rb2  1  0.75000000  0.11132900  0.86150100  1
  Rb  Rb3  1  0.75000000  0.61132900  0.63849900  1
  Rb  Rb4  1  0.25000000  0.00631200  0.72492700  1
  Rb  Rb5  1  0.25000000  0.50631200  0.77507300  1
  Rb  Rb6  1  0.75000000  0.99368800  0.27507300  1
  Rb  Rb7  1  0.75000000  0.49368800  0.22492700  1
  Fe  Fe8  1  0.25000000  0.28480700  0.56162100  1
  Fe  Fe9  1  0.25000000  0.78480700  0.93837900  1
  Fe  Fe10  1  0.75000000  0.71519300  0.43837900  1
  Fe  Fe11  1  0.75000000  0.21519300  0.06162100  1
  Fe  Fe12  1  0.00000000  0.00000000  0.50000000  1
  Fe  Fe13  1  0.50000000  0.50000000  0.00000000  1
  Fe  Fe14  1  0.50000000  0.00000000  0.50000000  1
  Fe  Fe15  1  0.00000000  0.50000000  0.00000000  1
  As  As16  1  0.25000000  0.81836700  0.35969400  1
  As  As17  1  0.25000000  0.31836700  0.14030600  1
  As  As18  1  0.75000000  0.18163300  0.64030600  1
  As  As19  1  0.75000000  0.68163300  0.85969400  1
  As  As20  1  0.25000000  0.67827500  0.55611700  1
  As  As21  1  0.25000000  0.17827500  0.94388300  1
  As  As22  1  0.75000000  0.32172500  0.44388300  1
  As  As23  1  0.75000000  0.82172500  0.05611700  1
  O  O24  1  0.25000000  0.05777900  0.56239400  1
  O  O25  1  0.25000000  0.55777900  0.93760600  1
  O  O26  1  0.75000000  0.94222100  0.43760600  1
  O  O27  1  0.75000000  0.44222100  0.06239400  1
  O  O28  1  0.25000000  0.96071200  0.42584800  1
  O  O29  1  0.25000000  0.46071200  0.07415200  1
  O  O30  1  0.75000000  0.03928800  0.57415200  1
  O  O31  1  0.75000000  0.53928800  0.92584800  1
  O  O32  1  0.00756000  0.76751300  0.52153500  1
  O  O33  1  0.49244000  0.26751300  0.97846500  1
  O  O34  1  0.50756000  0.23248700  0.47846500  1
  O  O35  1  0.99244000  0.73248700  0.02153500  1
  O  O36  1  0.99244000  0.23248700  0.47846500  1
  O  O37  1  0.50756000  0.73248700  0.02153500  1
  O  O38  1  0.49244000  0.76751300  0.52153500  1
  O  O39  1  0.00756000  0.26751300  0.97846500  1
  O  O40  1  0.25000000  0.49320300  0.52606500  1
  O  O41  1  0.25000000  0.99320300  0.97393500  1
  O  O42  1  0.75000000  0.50679700  0.47393500  1
  O  O43  1  0.75000000  0.00679700  0.02606500  1
  O  O44  1  0.00988400  0.70263300  0.36816100  1
  O  O45  1  0.49011600  0.20263300  0.13183900  1
  O  O46  1  0.50988400  0.29736700  0.63183900  1
  O  O47  1  0.99011600  0.79736700  0.86816100  1
  O  O48  1  0.99011600  0.29736700  0.63183900  1
  O  O49  1  0.50988400  0.79736700  0.86816100  1
  O  O50  1  0.49011600  0.70263300  0.36816100  1
  O  O51  1  0.00988400  0.20263300  0.13183900  1
  O  O52  1  0.25000000  0.69163300  0.64416700  1
  O  O53  1  0.25000000  0.19163300  0.85583300  1
  O  O54  1  0.75000000  0.30836700  0.35583300  1
  O  O55  1  0.75000000  0.80836700  0.14416700  1
  O  O56  1  0.25000000  0.90922400  0.28229500  1
  O  O57  1  0.25000000  0.40922400  0.21770500  1
  O  O58  1  0.75000000  0.09077600  0.71770500  1
  O  O59  1  0.75000000  0.59077600  0.78229500  1
