# generated using pymatgen
data_YGaPd2
_symmetry_space_group_name_H-M   'P 1'
_cell_length_a   5.61930800
_cell_length_b   7.18459600
_cell_length_c   7.40791700
_cell_angle_alpha   90.00000000
_cell_angle_beta   90.00000000
_cell_angle_gamma   90.00000000
_symmetry_Int_Tables_number   1
_chemical_formula_structural   YGaPd2
_chemical_formula_sum   'Y4 Ga4 Pd8'
_cell_volume   299.07581632
_cell_formula_units_Z   4
loop_
 _symmetry_equiv_pos_site_id
 _symmetry_equiv_pos_as_xyz
  1  'x, y, z'
loop_
 _atom_site_type_symbol
 _atom_site_label
 _atom_site_symmetry_multiplicity
 _atom_site_fract_x
 _atom_site_fract_y
 _atom_site_fract_z
 _atom_site_occupancy
  Y  Y0  1  0.35550700  0.75000000  0.03186000  1
  Y  Y1  1  0.14449300  0.75000000  0.53186000  1
  Y  Y2  1  0.64449300  0.25000000  0.96814000  1
  Y  Y3  1  0.85550700  0.25000000  0.46814000  1
  Ga  Ga4  1  0.64370600  0.75000000  0.38566100  1
  Ga  Ga5  1  0.85629400  0.75000000  0.88566100  1
  Ga  Ga6  1  0.35629400  0.25000000  0.61433900  1
  Ga  Ga7  1  0.14370600  0.25000000  0.11433900  1
  Pd  Pd8  1  0.91027100  0.55129500  0.18288800  1
  Pd  Pd9  1  0.58972900  0.94870500  0.68288800  1
  Pd  Pd10  1  0.08972900  0.05129500  0.81711200  1
  Pd  Pd11  1  0.41027100  0.44870500  0.31711200  1
  Pd  Pd12  1  0.08972900  0.44870500  0.81711200  1
  Pd  Pd13  1  0.41027100  0.05129500  0.31711200  1
  Pd  Pd14  1  0.91027100  0.94870500  0.18288800  1
  Pd  Pd15  1  0.58972900  0.55129500  0.68288800  1
