# generated using pymatgen
data_Rb2CdP2O7
_symmetry_space_group_name_H-M   'P 1'
_cell_length_a   10.06426300
_cell_length_b   5.47822500
_cell_length_c   15.91657604
_cell_angle_alpha   87.81607561
_cell_angle_beta   90.00000000
_cell_angle_gamma   90.00000000
_symmetry_Int_Tables_number   1
_chemical_formula_structural   Rb2CdP2O7
_chemical_formula_sum   'Rb8 Cd4 P8 O28'
_cell_volume   876.91182355
_cell_formula_units_Z   4
loop_
 _symmetry_equiv_pos_site_id
 _symmetry_equiv_pos_as_xyz
  1  'x, y, z'
loop_
 _atom_site_type_symbol
 _atom_site_label
 _atom_site_symmetry_multiplicity
 _atom_site_fract_x
 _atom_site_fract_y
 _atom_site_fract_z
 _atom_site_occupancy
  Rb  Rb0  1  0.15486200  0.22250300  0.92426900  1
  Rb  Rb1  1  0.65486200  0.77749700  0.57573100  1
  Rb  Rb2  1  0.84513800  0.77749700  0.07573100  1
  Rb  Rb3  1  0.34513800  0.22250300  0.42426900  1
  Rb  Rb4  1  0.02172500  0.23929700  0.61056300  1
  Rb  Rb5  1  0.52172500  0.76070300  0.88943700  1
  Rb  Rb6  1  0.97827500  0.76070300  0.38943700  1
  Rb  Rb7  1  0.47827500  0.23929700  0.11056300  1
  Cd  Cd8  1  0.38745700  0.24214600  0.68658300  1
  Cd  Cd9  1  0.88745700  0.75785400  0.81341700  1
  Cd  Cd10  1  0.61254300  0.75785400  0.31341700  1
  Cd  Cd11  1  0.11254300  0.24214600  0.18658300  1
  P  P12  1  0.22633100  0.74484600  0.77049200  1
  P  P13  1  0.72633100  0.25515400  0.72950800  1
  P  P14  1  0.77366900  0.25515400  0.22950800  1
  P  P15  1  0.27366900  0.74484600  0.27049200  1
  P  P16  1  0.25684500  0.74475100  0.58610800  1
  P  P17  1  0.75684500  0.25524900  0.91389200  1
  P  P18  1  0.74315500  0.25524900  0.41389200  1
  P  P19  1  0.24315500  0.74475100  0.08610800  1
  O  O20  1  0.29775600  0.47443300  0.58102400  1
  O  O21  1  0.79775600  0.52556700  0.91897600  1
  O  O22  1  0.70224400  0.52556700  0.41897600  1
  O  O23  1  0.20224400  0.47443300  0.08102400  1
  O  O24  1  0.37601500  0.91617700  0.59703200  1
  O  O25  1  0.87601500  0.08382300  0.90296800  1
  O  O26  1  0.62398500  0.08382300  0.40296800  1
  O  O27  1  0.12398500  0.91617700  0.09703200  1
  O  O28  1  0.29606800  0.98973800  0.78475800  1
  O  O29  1  0.79606800  0.01026200  0.71524200  1
  O  O30  1  0.70393200  0.01026200  0.21524200  1
  O  O31  1  0.20393200  0.98973800  0.28475800  1
  O  O32  1  0.16624600  0.75722700  0.67444100  1
  O  O33  1  0.66624600  0.24277300  0.82555900  1
  O  O34  1  0.83375400  0.24277300  0.32555900  1
  O  O35  1  0.33375400  0.75722700  0.17444100  1
  O  O36  1  0.32221900  0.52811900  0.78035800  1
  O  O37  1  0.82221900  0.47188100  0.71964200  1
  O  O38  1  0.67778100  0.47188100  0.21964200  1
  O  O39  1  0.17778100  0.52811900  0.28035800  1
  O  O40  1  0.10424000  0.71273500  0.82754400  1
  O  O41  1  0.60424000  0.28726500  0.67245600  1
  O  O42  1  0.89576000  0.28726500  0.17245600  1
  O  O43  1  0.39576000  0.71273500  0.32754400  1
  O  O44  1  0.15892100  0.82556800  0.51812500  1
  O  O45  1  0.65892100  0.17443200  0.98187500  1
  O  O46  1  0.84107900  0.17443200  0.48187500  1
  O  O47  1  0.34107900  0.82556800  0.01812500  1
