# generated using pymatgen
data_CsSm(PO3)4
_symmetry_space_group_name_H-M   'P 1'
_cell_length_a   13.25412519
_cell_length_b   13.25412519
_cell_length_c   13.25148096
_cell_angle_alpha   70.53220971
_cell_angle_beta   70.53220971
_cell_angle_gamma   109.48414639
_symmetry_Int_Tables_number   1
_chemical_formula_structural   CsSm(PO3)4
_chemical_formula_sum   'Cs6 Sm6 P24 O72'
_cell_volume   1791.89328747
_cell_formula_units_Z   6
loop_
 _symmetry_equiv_pos_site_id
 _symmetry_equiv_pos_as_xyz
  1  'x, y, z'
loop_
 _atom_site_type_symbol
 _atom_site_label
 _atom_site_symmetry_multiplicity
 _atom_site_fract_x
 _atom_site_fract_y
 _atom_site_fract_z
 _atom_site_occupancy
  Cs  Cs0  1  0.00062000  0.73809100  0.99857200  1
  Cs  Cs1  1  0.26264800  0.76343000  0.23814100  1
  Cs  Cs2  1  0.49902100  0.49853000  0.26346000  1
  Cs  Cs3  1  0.73809100  0.00062000  0.49857200  1
  Cs  Cs4  1  0.49853000  0.49902100  0.76346000  1
  Cs  Cs5  1  0.76343000  0.26264800  0.73814100  1
  Sm  Sm6  1  0.87910500  0.62775700  0.74800700  1
  Sm  Sm7  1  0.62775700  0.87910500  0.24800700  1
  Sm  Sm8  1  0.37381900  0.74906300  0.87474800  1
  Sm  Sm9  1  0.12519900  0.24802700  0.62716200  1
  Sm  Sm10  1  0.74906300  0.37381900  0.37474800  1
  Sm  Sm11  1  0.24802700  0.12519900  0.12716200  1
  P  P12  1  0.74132500  0.41993700  0.08553400  1
  P  P13  1  0.00673500  0.82782800  0.41492800  1
  P  P14  1  0.75911600  0.67392100  0.32037000  1
  P  P15  1  0.49259100  0.07896900  0.18110800  1
  P  P16  1  0.82782800  0.00673500  0.91492800  1
  P  P17  1  0.41993700  0.74132500  0.58553400  1
  P  P18  1  0.07896900  0.49259100  0.68110800  1
  P  P19  1  0.67392100  0.75911600  0.82037000  1
  P  P20  1  0.17295900  0.67994600  0.74060500  1
  P  P21  1  0.57996100  0.82136400  0.00565900  1
  P  P22  1  0.92210600  0.91526800  0.75786400  1
  P  P23  1  0.32612300  0.58552300  0.49413000  1
  P  P24  1  0.25802300  0.18001400  0.82700000  1
  P  P25  1  0.99432500  0.32031200  0.42044400  1
  P  P26  1  0.24061600  0.41350100  0.07936400  1
  P  P27  1  0.50550300  0.08553000  0.67305000  1
  P  P28  1  0.08553000  0.50550300  0.17305000  1
  P  P29  1  0.41350100  0.24061600  0.57936400  1
  P  P30  1  0.32031200  0.99432500  0.92044400  1
  P  P31  1  0.18001400  0.25802200  0.32700000  1
  P  P32  1  0.91526800  0.92210600  0.25786400  1
  P  P33  1  0.58552300  0.32612300  0.99413000  1
  P  P34  1  0.67994600  0.17295900  0.24060500  1
  P  P35  1  0.82136400  0.57996100  0.50565900  1
  O  O36  1  0.71810700  0.43825100  0.19494000  1
  O  O37  1  0.13266900  0.91236900  0.30357200  1
  O  O38  1  0.78211200  0.58699300  0.28022800  1
  O  O39  1  0.36683200  0.06241200  0.21782600  1
  O  O40  1  0.91236900  0.13266900  0.80357200  1
  O  O41  1  0.43825100  0.71810700  0.69494000  1
  O  O42  1  0.06241200  0.36683200  0.71782600  1
  O  O43  1  0.58699300  0.78211200  0.78022800  1
  O  O44  1  0.08492300  0.71825600  0.71982500  1
  O  O45  1  0.56174600  0.77960300  0.13307700  1
  O  O46  1  0.93564200  0.80339600  0.78403100  1
  O  O47  1  0.41321800  0.69516400  0.36700500  1
  O  O48  1  0.28404600  0.21977200  0.91272300  1
  O  O49  1  0.86720100  0.28034400  0.43769800  1
  O  O50  1  0.21972800  0.30477900  0.06189200  1
  O  O51  1  0.63315900  0.19494700  0.58710700  1
  O  O52  1  0.19494700  0.63315900  0.08710700  1
  O  O53  1  0.30477900  0.21972800  0.56189200  1
  O  O54  1  0.28034400  0.86720100  0.93769800  1
  O  O55  1  0.21977200  0.28404600  0.41272300  1
  O  O56  1  0.80339600  0.93564200  0.28403100  1
  O  O57  1  0.69516400  0.41321800  0.86700500  1
  O  O58  1  0.71825600  0.08492300  0.21982500  1
  O  O59  1  0.77960300  0.56174600  0.63307700  1
  O  O60  1  0.60922200  0.37237300  0.08783400  1
  O  O61  1  0.96011000  0.69718700  0.41179200  1
  O  O62  1  0.89094500  0.80311300  0.23692500  1
  O  O63  1  0.54080100  0.12888000  0.26219800  1
  O  O64  1  0.69718700  0.96011000  0.91179200  1
  O  O65  1  0.37237300  0.60922200  0.58783400  1
  O  O66  1  0.12888000  0.54080100  0.76219800  1
  O  O67  1  0.80311300  0.89094500  0.73692500  1
  O  O68  1  0.30295800  0.76270900  0.60925200  1
  O  O69  1  0.62777900  0.73691600  0.96004100  1
  O  O70  1  0.87183800  0.91182500  0.89106900  1
  O  O71  1  0.19704600  0.58814700  0.54027500  1
  O  O72  1  0.39124900  0.26251300  0.69722500  1
  O  O73  1  0.03999400  0.23694000  0.37212700  1
  O  O74  1  0.10917000  0.41216200  0.12820200  1
  O  O75  1  0.46017500  0.08779500  0.80299600  1
  O  O76  1  0.08779500  0.46017500  0.30299600  1
  O  O77  1  0.41216200  0.10917000  0.62820200  1
  O  O78  1  0.23694000  0.03999400  0.87212700  1
  O  O79  1  0.26251300  0.39124900  0.19722500  1
  O  O80  1  0.91182500  0.87183800  0.39106900  1
  O  O81  1  0.58814700  0.19704600  0.04027500  1
  O  O82  1  0.76270900  0.30295800  0.10925200  1
  O  O83  1  0.73691600  0.62777900  0.46004100  1
  O  O84  1  0.84180900  0.52579200  0.95870200  1
  O  O85  1  0.98158600  0.79869200  0.54288100  1
  O  O86  1  0.65753000  0.69905200  0.31678800  1
  O  O87  1  0.51621600  0.97475900  0.18333200  1
  O  O88  1  0.79869200  0.98158600  0.04288100  1
  O  O89  1  0.52579200  0.84180900  0.45870200  1
  O  O90  1  0.97475900  0.51621600  0.68333200  1
  O  O91  1  0.69905200  0.65753000  0.81678800  1
  O  O92  1  0.20018400  0.68404800  0.84143200  1
  O  O93  1  0.47447100  0.81651400  0.98382300  1
  O  O94  1  0.02473200  0.04284300  0.65793400  1
  O  O95  1  0.30113500  0.45880600  0.51561700  1
  O  O96  1  0.15815500  0.18276100  0.79923400  1
  O  O97  1  0.01570200  0.31686700  0.52564600  1
  O  O98  1  0.34167300  0.54178700  0.97487800  1
  O  O99  1  0.48433200  0.95848900  0.69972600  1
  O  O100  1  0.95848900  0.48433200  0.19972600  1
  O  O101  1  0.54178700  0.34167300  0.47487800  1
  O  O102  1  0.31686700  0.01570200  0.02564600  1
  O  O103  1  0.18276100  0.15815500  0.29923400  1
  O  O104  1  0.04284300  0.02473200  0.15793400  1
  O  O105  1  0.45880600  0.30113500  0.01561700  1
  O  O106  1  0.68404800  0.20018400  0.34143200  1
  O  O107  1  0.81651400  0.47447100  0.48382300  1
