# generated using pymatgen
data_YVB4
_symmetry_space_group_name_H-M   'P 1'
_cell_length_a   3.45298800
_cell_length_b   6.00896000
_cell_length_c   11.63958900
_cell_angle_alpha   90.00000000
_cell_angle_beta   90.00000000
_cell_angle_gamma   90.00000000
_symmetry_Int_Tables_number   1
_chemical_formula_structural   YVB4
_chemical_formula_sum   'Y4 V4 B16'
_cell_volume   241.50828145
_cell_formula_units_Z   4
loop_
 _symmetry_equiv_pos_site_id
 _symmetry_equiv_pos_as_xyz
  1  'x, y, z'
loop_
 _atom_site_type_symbol
 _atom_site_label
 _atom_site_symmetry_multiplicity
 _atom_site_fract_x
 _atom_site_fract_y
 _atom_site_fract_z
 _atom_site_occupancy
  Y  Y0  1  0.00000000  0.62429400  0.34845000  1
  Y  Y1  1  0.00000000  0.37570600  0.65155000  1
  Y  Y2  1  0.00000000  0.12429400  0.15155000  1
  Y  Y3  1  0.00000000  0.87570600  0.84845000  1
  V  V4  1  0.00000000  0.62699200  0.08266800  1
  V  V5  1  0.00000000  0.37300800  0.91733200  1
  V  V6  1  0.00000000  0.12699200  0.41733200  1
  V  V7  1  0.00000000  0.87300800  0.58266800  1
  B  B8  1  0.50000000  0.78618900  0.18546100  1
  B  B9  1  0.50000000  0.21381100  0.81453900  1
  B  B10  1  0.50000000  0.28618900  0.31453900  1
  B  B11  1  0.50000000  0.71381100  0.68546100  1
  B  B12  1  0.50000000  0.86400800  0.03255800  1
  B  B13  1  0.50000000  0.13599200  0.96744200  1
  B  B14  1  0.50000000  0.36400800  0.46744200  1
  B  B15  1  0.50000000  0.63599200  0.53255800  1
  B  B16  1  0.50000000  0.88558600  0.45251500  1
  B  B17  1  0.50000000  0.11441400  0.54748500  1
  B  B18  1  0.50000000  0.38558600  0.04748500  1
  B  B19  1  0.50000000  0.61441400  0.95251500  1
  B  B20  1  0.50000000  0.97762400  0.30776900  1
  B  B21  1  0.50000000  0.02237600  0.69223100  1
  B  B22  1  0.50000000  0.47762400  0.19223100  1
  B  B23  1  0.50000000  0.52237600  0.80776900  1
