# generated using pymatgen
data_Ba3In2WO9
_symmetry_space_group_name_H-M   'P 1'
_cell_length_a   10.36183087
_cell_length_b   10.36183087
_cell_length_c   10.36183087
_cell_angle_alpha   146.48722643
_cell_angle_beta   131.82128726
_cell_angle_gamma   59.96213997
_symmetry_Int_Tables_number   1
_chemical_formula_structural   Ba3In2WO9
_chemical_formula_sum   'Ba6 In4 W2 O18'
_cell_volume   453.59000987
_cell_formula_units_Z   2
loop_
 _symmetry_equiv_pos_site_id
 _symmetry_equiv_pos_as_xyz
  1  'x, y, z'
loop_
 _atom_site_type_symbol
 _atom_site_label
 _atom_site_symmetry_multiplicity
 _atom_site_fract_x
 _atom_site_fract_y
 _atom_site_fract_z
 _atom_site_occupancy
  Ba  Ba0  1  0.58019400  0.83891700  0.74127700  1
  Ba  Ba1  1  0.26572500  0.50000000  0.76572500  1
  Ba  Ba2  1  0.90235900  0.16108300  0.74127700  1
  Ba  Ba3  1  0.09764100  0.83891700  0.25872300  1
  Ba  Ba4  1  0.73427500  0.50000000  0.23427500  1
  Ba  Ba5  1  0.41980600  0.16108300  0.25872300  1
  In  In6  1  0.33068900  0.33068900  0.00000000  1
  In  In7  1  0.00000000  0.00000000  0.00000000  1
  In  In8  1  0.66931100  0.66931100  0.00000000  1
  In  In9  1  0.50000000  0.00000000  0.50000000  1
  W  W10  1  0.16750600  0.66750600  0.50000000  1
  W  W11  1  0.83249400  0.33249400  0.50000000  1
  O  O12  1  0.59794000  0.32969200  0.26824700  1
  O  O13  1  0.24147300  0.00000000  0.24147300  1
  O  O14  1  0.93855500  0.67030800  0.26824700  1
  O  O15  1  0.90919100  0.63934100  0.73015000  1
  O  O16  1  0.58699000  0.33627300  0.74928300  1
  O  O17  1  0.24460500  0.98129200  0.73668700  1
  O  O18  1  0.75539500  0.49208300  0.73668700  1
  O  O19  1  0.41301000  0.16229300  0.74928300  1
  O  O20  1  0.09080900  0.82095900  0.73015000  1
  O  O21  1  0.06144500  0.32969200  0.73175300  1
  O  O22  1  0.75852700  0.00000000  0.75852700  1
  O  O23  1  0.40206000  0.67030800  0.73175300  1
  O  O24  1  0.75539500  0.01870800  0.26331300  1
  O  O25  1  0.41301000  0.66372700  0.25071700  1
  O  O26  1  0.09080900  0.36065900  0.26985000  1
  O  O27  1  0.90919100  0.17904100  0.26985000  1
  O  O28  1  0.58699000  0.83770700  0.25071700  1
  O  O29  1  0.24460500  0.50791700  0.26331300  1
