# generated using pymatgen
data_Ca65Ga24Sn19
_symmetry_space_group_name_H-M   'P 1'
_cell_length_a   11.48769487
_cell_length_b   11.48769487
_cell_length_c   28.16072439
_cell_angle_alpha   90.00000000
_cell_angle_beta   90.00000000
_cell_angle_gamma   120.00000000
_symmetry_Int_Tables_number   1
_chemical_formula_structural   Ca65Ga24Sn19
_chemical_formula_sum   'Ca65 Ga24 Sn19'
_cell_volume   3218.40160937
_cell_formula_units_Z   1
loop_
 _symmetry_equiv_pos_site_id
 _symmetry_equiv_pos_as_xyz
  1  'x, y, z'
loop_
 _atom_site_type_symbol
 _atom_site_label
 _atom_site_symmetry_multiplicity
 _atom_site_fract_x
 _atom_site_fract_y
 _atom_site_fract_z
 _atom_site_occupancy
  Ca  Ca0  1  0.33353513  0.33379183  0.83354292  1
  Ca  Ca1  1  0.01454943  0.66666700  0.16666700  1
  Ca  Ca2  1  0.66640930  0.99954117  0.49979008  1
  Ca  Ca3  1  0.55504454  0.44495546  0.94575810  1
  Ca  Ca4  1  0.22739022  0.77260978  0.27186212  1
  Ca  Ca5  1  0.88909094  0.11090906  0.61094274  1
  Ca  Ca6  1  0.66620817  0.66646487  0.83354292  1
  Ca  Ca7  1  0.33333300  0.98545057  0.16666700  1
  Ca  Ca8  1  0.00045883  0.33359070  0.49979008  1
  Ca  Ca9  1  0.55504454  0.11008808  0.94575810  1
  Ca  Ca10  1  0.22739022  0.45478145  0.27186212  1
  Ca  Ca11  1  0.88909094  0.77818188  0.61094274  1
  Ca  Ca12  1  0.33353513  0.99974230  0.83354292  1
  Ca  Ca13  1  0.01454943  0.34788343  0.16666700  1
  Ca  Ca14  1  0.66640930  0.66686813  0.49979008  1
  Ca  Ca15  1  0.66620817  0.99974230  0.83354292  1
  Ca  Ca16  1  0.33333300  0.34788343  0.16666700  1
  Ca  Ca17  1  0.00045883  0.66686813  0.49979008  1
  Ca  Ca18  1  0.77757606  0.55515112  0.72239026  1
  Ca  Ca19  1  0.43927578  0.87855255  0.06147188  1
  Ca  Ca20  1  0.11162246  0.22324492  0.38757490  1
  Ca  Ca21  1  0.77757606  0.22242394  0.72239026  1
  Ca  Ca22  1  0.43927578  0.56072422  0.06147188  1
  Ca  Ca23  1  0.11162246  0.88837754  0.38757490  1
  Ca  Ca24  1  0.44484888  0.22242394  0.72239026  1
  Ca  Ca25  1  0.12144745  0.56072422  0.06147188  1
  Ca  Ca26  1  0.77675508  0.88837754  0.38757490  1
  Ca  Ca27  1  0.00025770  0.33379183  0.83354292  1
  Ca  Ca28  1  0.65211657  0.66666700  0.16666700  1
  Ca  Ca29  1  0.33313187  0.99954117  0.49979008  1
  Ca  Ca30  1  0.00025770  0.66646487  0.83354292  1
  Ca  Ca31  1  0.65211657  0.98545057  0.16666700  1
  Ca  Ca32  1  0.33313187  0.33359070  0.49979008  1
  Ca  Ca33  1  0.88991192  0.44495546  0.94575810  1
  Ca  Ca34  1  0.54521855  0.77260978  0.27186212  1
  Ca  Ca35  1  0.22181812  0.11090906  0.61094274  1
  Ca  Ca36  1  0.33333300  0.66666700  0.66666700  1
  Ca  Ca37  1  -0.00000000  -0.00000000  0.00150521  1
  Ca  Ca38  1  0.66666700  0.33333300  0.33182779  1
  Ca  Ca39  1  0.15962552  0.84037448  0.71012197  1
  Ca  Ca40  1  0.82694550  0.17305450  0.04432569  1
  Ca  Ca41  1  0.49274883  0.50725117  0.37589179  1
  Ca  Ca42  1  0.15962552  0.31925004  0.71012197  1
  Ca  Ca43  1  0.82694550  0.65389199  0.04432569  1
  Ca  Ca44  1  0.49274883  0.98549766  0.37589179  1
  Ca  Ca45  1  -0.00000000  0.00000000  0.86975366  1
  Ca  Ca46  1  0.66666700  0.33333300  0.20360478  1
  Ca  Ca47  1  0.33333300  0.66666700  0.53618532  1
  Ca  Ca48  1  0.68074996  0.84037448  0.71012197  1
  Ca  Ca49  1  0.34610801  0.17305450  0.04432569  1
  Ca  Ca50  1  0.01450234  0.50725117  0.37589179  1
  Ca  Ca51  1  0.17391817  0.82608183  0.95744121  1
  Ca  Ca52  1  0.83972050  0.16027950  0.28900831  1
  Ca  Ca53  1  0.50704148  0.49295852  0.62321103  1
  Ca  Ca54  1  0.17391817  0.34783534  0.95744121  1
  Ca  Ca55  1  0.83972050  0.67944201  0.28900831  1
  Ca  Ca56  1  0.50704148  0.01408296  0.62321103  1
  Ca  Ca57  1  0.33333300  0.66666700  0.79714868  1
  Ca  Ca58  1  -0.00000000  -0.00000000  0.12972822  1
  Ca  Ca59  1  0.66666700  0.33333300  0.46357934  1
  Ca  Ca60  1  0.65216466  0.82608183  0.95744121  1
  Ca  Ca61  1  0.32055799  0.16027950  0.28900831  1
  Ca  Ca62  1  0.98591704  0.49295852  0.62321103  1
  Ca  Ca63  1  -0.00000000  0.00000000  0.49911690  1
  Ca  Ca64  1  0.66666700  0.33333300  0.83421610  1
  Ga  Ga65  1  0.92127723  0.07872277  0.76963742  1
  Ga  Ga66  1  0.58763106  0.41236894  0.10314841  1
  Ga  Ga67  1  0.25457021  0.74542979  0.43670460  1
  Ga  Ga68  1  0.92127723  0.84255546  0.76963742  1
  Ga  Ga69  1  0.58763106  0.17526212  0.10314841  1
  Ga  Ga70  1  0.25457021  0.50913943  0.43670460  1
  Ga  Ga71  1  -0.00000000  -0.00000000  0.69061989  1
  Ga  Ga72  1  0.66666700  0.33333300  0.02443960  1
  Ga  Ga73  1  0.33333300  0.66666700  0.35744763  1
  Ga  Ga74  1  0.15744454  0.07872277  0.76963742  1
  Ga  Ga75  1  0.82473788  0.41236894  0.10314841  1
  Ga  Ga76  1  0.49086057  0.74542979  0.43670460  1
  Ga  Ga77  1  0.41209679  0.58790321  0.89662840  1
  Ga  Ga78  1  0.07903594  0.92096406  0.23018459  1
  Ga  Ga79  1  0.74538877  0.25461123  0.56369658  1
  Ga  Ga80  1  0.41209679  0.82419357  0.89662840  1
  Ga  Ga81  1  0.07903594  0.15807088  0.23018459  1
  Ga  Ga82  1  0.74538877  0.49077854  0.56369658  1
  Ga  Ga83  1  0.33333300  0.66666700  0.97588637  1
  Ga  Ga84  1  0.00000000  -0.00000000  0.30889340  1
  Ga  Ga85  1  0.66666700  0.33333300  0.64271311  1
  Ga  Ga86  1  0.17580643  0.58790321  0.89662840  1
  Ga  Ga87  1  0.84192912  0.92096406  0.23018459  1
  Ga  Ga88  1  0.50922146  0.25461123  0.56369658  1
  Sn  Sn89  1  0.47800073  0.95600045  0.73868810  1
  Sn  Sn90  1  0.14118759  0.28237619  0.06952392  1
  Sn  Sn91  1  0.81176085  0.62352170  0.40689399  1
  Sn  Sn92  1  0.85490615  0.14509385  0.92643901  1
  Sn  Sn93  1  0.52547841  0.47452159  0.26381008  1
  Sn  Sn94  1  0.18866627  0.81133373  0.59464490  1
  Sn  Sn95  1  0.04399955  0.52199927  0.73868810  1
  Sn  Sn96  1  0.71762381  0.85881241  0.06952392  1
  Sn  Sn97  1  0.37647830  0.18823915  0.40689399  1
  Sn  Sn98  1  0.85490615  0.70981130  0.92643901  1
  Sn  Sn99  1  0.52547841  0.05095781  0.26381008  1
  Sn  Sn100  1  0.18866627  0.37733255  0.59464490  1
  Sn  Sn101  1  0.47800073  0.52199927  0.73868810  1
  Sn  Sn102  1  0.14118759  0.85881241  0.06952392  1
  Sn  Sn103  1  0.81176085  0.18823915  0.40689399  1
  Sn  Sn104  1  0.29018870  0.14509385  0.92643901  1
  Sn  Sn105  1  0.94904219  0.47452159  0.26381008  1
  Sn  Sn106  1  0.62266745  0.81133373  0.59464490  1
  Sn  Sn107  1  0.33333300  0.66666700  0.16666700  1
