# generated using pymatgen
data_CsTi8F33
_symmetry_space_group_name_H-M   'P 1'
_cell_length_a   8.93400004
_cell_length_b   8.93400004
_cell_length_c   19.58664600
_cell_angle_alpha   90.00000000
_cell_angle_beta   90.00000000
_cell_angle_gamma   120.00000027
_symmetry_Int_Tables_number   1
_chemical_formula_structural   CsTi8F33
_chemical_formula_sum   'Cs2 Ti16 F66'
_cell_volume   1353.88758092
_cell_formula_units_Z   2
loop_
 _symmetry_equiv_pos_site_id
 _symmetry_equiv_pos_as_xyz
  1  'x, y, z'
loop_
 _atom_site_type_symbol
 _atom_site_label
 _atom_site_symmetry_multiplicity
 _atom_site_fract_x
 _atom_site_fract_y
 _atom_site_fract_z
 _atom_site_occupancy
  Cs  Cs0  1  0.33333300  0.66666700  0.43503200  1
  Cs  Cs1  1  0.66666700  0.33333300  0.93503200  1
  Ti  Ti2  1  0.66666700  0.33333300  0.37235900  1
  Ti  Ti3  1  0.33333300  0.66666700  0.87235900  1
  Ti  Ti4  1  0.66732100  0.99235900  0.25054800  1
  Ti  Ti5  1  0.32503800  0.33267900  0.25054800  1
  Ti  Ti6  1  0.00764100  0.67496200  0.25054800  1
  Ti  Ti7  1  0.67496200  0.00764100  0.75054800  1
  Ti  Ti8  1  0.99235900  0.66732100  0.75054800  1
  Ti  Ti9  1  0.33267900  0.32503800  0.75054800  1
  Ti  Ti10  1  0.33598600  0.99256700  0.62220600  1
  Ti  Ti11  1  0.65658100  0.66401400  0.62220600  1
  Ti  Ti12  1  0.00743300  0.34341900  0.62220600  1
  Ti  Ti13  1  0.34341900  0.00743300  0.12220600  1
  Ti  Ti14  1  0.99256700  0.33598600  0.12220600  1
  Ti  Ti15  1  0.66401400  0.65658100  0.12220600  1
  Ti  Ti16  1  0.00000000  0.00000000  0.50222800  1
  Ti  Ti17  1  0.00000000  0.00000000  0.00222800  1
  F  F18  1  0.72865200  0.19979700  0.30069100  1
  F  F19  1  0.47114500  0.27134800  0.30069100  1
  F  F20  1  0.80020300  0.52885500  0.30069100  1
  F  F21  1  0.52885500  0.80020300  0.80069100  1
  F  F22  1  0.19979700  0.72865200  0.80069100  1
  F  F23  1  0.27134800  0.47114500  0.80069100  1
  F  F24  1  0.53117300  0.06558300  0.18479200  1
  F  F25  1  0.53441100  0.46882700  0.18479200  1
  F  F26  1  0.93441700  0.46558900  0.18479200  1
  F  F27  1  0.46558900  0.93441700  0.68479200  1
  F  F28  1  0.06558300  0.53117300  0.68479200  1
  F  F29  1  0.46882700  0.53441100  0.68479200  1
  F  F30  1  0.86468500  0.13959700  0.19033800  1
  F  F31  1  0.27491200  0.13531500  0.19033800  1
  F  F32  1  0.86040300  0.72508800  0.19033800  1
  F  F33  1  0.72508800  0.86040300  0.69033800  1
  F  F34  1  0.13959700  0.86468500  0.69033800  1
  F  F35  1  0.13531500  0.27491200  0.69033800  1
  F  F36  1  0.19603600  0.06564800  0.57386200  1
  F  F37  1  0.86961300  0.80396400  0.57386200  1
  F  F38  1  0.93435200  0.13038700  0.57386200  1
  F  F39  1  0.13038700  0.93435200  0.07386200  1
  F  F40  1  0.06564800  0.19603600  0.07386200  1
  F  F41  1  0.80396400  0.86961300  0.07386200  1
  F  F42  1  0.61007300  0.80745800  0.18464500  1
  F  F43  1  0.19738500  0.38992700  0.18464500  1
  F  F44  1  0.19254200  0.80261500  0.18464500  1
  F  F45  1  0.80261500  0.19254200  0.68464500  1
  F  F46  1  0.80745800  0.61007300  0.68464500  1
  F  F47  1  0.38992700  0.19738500  0.68464500  1
  F  F48  1  0.46706600  0.87913200  0.29546200  1
  F  F49  1  0.41206600  0.53293400  0.29546200  1
  F  F50  1  0.12086800  0.58793400  0.29546200  1
  F  F51  1  0.58793400  0.12086800  0.79546200  1
  F  F52  1  0.87913200  0.46706600  0.79546200  1
  F  F53  1  0.53293400  0.41206600  0.79546200  1
  F  F54  1  0.52226800  0.11280600  0.57200900  1
  F  F55  1  0.59053800  0.47773200  0.57200900  1
  F  F56  1  0.88719400  0.40946200  0.57200900  1
  F  F57  1  0.40946200  0.88719400  0.07200900  1
  F  F58  1  0.11280600  0.52226800  0.07200900  1
  F  F59  1  0.47773200  0.59053800  0.07200900  1
  F  F60  1  0.86746900  0.40632100  0.41453500  1
  F  F61  1  0.53885200  0.13253100  0.41453500  1
  F  F62  1  0.59367900  0.46114800  0.41453500  1
  F  F63  1  0.46114800  0.59367900  0.91453500  1
  F  F64  1  0.40632100  0.86746900  0.91453500  1
  F  F65  1  0.13253100  0.53885200  0.91453500  1
  F  F66  1  0.24421100  0.79711100  0.57442300  1
  F  F67  1  0.55290000  0.75578900  0.57442300  1
  F  F68  1  0.20288900  0.44710000  0.57442300  1
  F  F69  1  0.44710000  0.20288900  0.07442300  1
  F  F70  1  0.79711100  0.24421100  0.07442300  1
  F  F71  1  0.75578900  0.55290000  0.07442300  1
  F  F72  1  0.78534700  0.92609900  0.30158000  1
  F  F73  1  0.14075200  0.21465300  0.30158000  1
  F  F74  1  0.07390100  0.85924800  0.30158000  1
  F  F75  1  0.85924800  0.07390100  0.80158000  1
  F  F76  1  0.92609900  0.78534700  0.80158000  1
  F  F77  1  0.21465300  0.14075200  0.80158000  1
  F  F78  1  0.12857900  0.20049600  0.45995200  1
  F  F79  1  0.07191800  0.87142100  0.45995200  1
  F  F80  1  0.79950400  0.92808200  0.45995200  1
  F  F81  1  0.92808200  0.79950400  0.95995200  1
  F  F82  1  0.20049600  0.12857900  0.95995200  1
  F  F83  1  0.87142100  0.07191800  0.95995200  1
