# generated using pymatgen
data_Zn3MoN4
_symmetry_space_group_name_H-M   'P 1'
_cell_length_a   6.57129300
_cell_length_b   5.68791200
_cell_length_c   5.36753700
_cell_angle_alpha   90.00000000
_cell_angle_beta   90.00000000
_cell_angle_gamma   90.00000000
_symmetry_Int_Tables_number   1
_chemical_formula_structural   Zn3MoN4
_chemical_formula_sum   'Zn6 Mo2 N8'
_cell_volume   200.62208859
_cell_formula_units_Z   2
loop_
 _symmetry_equiv_pos_site_id
 _symmetry_equiv_pos_as_xyz
  1  'x, y, z'
loop_
 _atom_site_type_symbol
 _atom_site_label
 _atom_site_symmetry_multiplicity
 _atom_site_fract_x
 _atom_site_fract_y
 _atom_site_fract_z
 _atom_site_occupancy
  Zn  Zn0  1  0.25148600  0.83214500  0.73097900  1
  Zn  Zn1  1  0.24851400  0.16785500  0.23097900  1
  Zn  Zn2  1  0.74851400  0.83214500  0.73097900  1
  Zn  Zn3  1  0.75148600  0.16785500  0.23097900  1
  Zn  Zn4  1  0.00000000  0.33408300  0.72971200  1
  Zn  Zn5  1  0.50000000  0.66591700  0.22971200  1
  Mo  Mo6  1  0.00000000  0.67029100  0.22930800  1
  Mo  Mo7  1  0.50000000  0.32970900  0.72930800  1
  N  N8  1  0.76336200  0.82651000  0.11360100  1
  N  N9  1  0.73663800  0.17349000  0.61360100  1
  N  N10  1  0.23663800  0.82651000  0.11360100  1
  N  N11  1  0.26336200  0.17349000  0.61360100  1
  N  N12  1  0.00000000  0.35772600  0.11305200  1
  N  N13  1  0.50000000  0.64227400  0.61305200  1
  N  N14  1  0.00000000  0.67148600  0.57802700  1
  N  N15  1  0.50000000  0.32851400  0.07802700  1
