# generated using pymatgen
data_La3Sn7
_symmetry_space_group_name_H-M   'P 1'
_cell_length_a   13.29850246
_cell_length_b   13.29850246
_cell_length_c   4.73260600
_cell_angle_alpha   90.00000000
_cell_angle_beta   90.00000000
_cell_angle_gamma   159.94270127
_symmetry_Int_Tables_number   1
_chemical_formula_structural   La3Sn7
_chemical_formula_sum   'La3 Sn7'
_cell_volume   287.04430389
_cell_formula_units_Z   1
loop_
 _symmetry_equiv_pos_site_id
 _symmetry_equiv_pos_as_xyz
  1  'x, y, z'
loop_
 _atom_site_type_symbol
 _atom_site_label
 _atom_site_symmetry_multiplicity
 _atom_site_fract_x
 _atom_site_fract_y
 _atom_site_fract_z
 _atom_site_occupancy
  La  La0  1  0.18492100  0.81507900  0.00000000  1
  La  La1  1  0.81507900  0.18492100  0.00000000  1
  La  La2  1  0.00000000  0.00000000  0.00000000  1
  Sn  Sn3  1  0.28823600  0.71176400  0.50000000  1
  Sn  Sn4  1  0.71176400  0.28823600  0.50000000  1
  Sn  Sn5  1  0.40534100  0.59465900  0.00000000  1
  Sn  Sn6  1  0.59465900  0.40534100  0.00000000  1
  Sn  Sn7  1  0.09565600  0.90434400  0.50000000  1
  Sn  Sn8  1  0.90434400  0.09565600  0.50000000  1
  Sn  Sn9  1  0.50000000  0.50000000  0.50000000  1
