# generated using pymatgen
data_Sc2Al3Ru
_symmetry_space_group_name_H-M   'P 1'
_cell_length_a   5.30207643
_cell_length_b   5.30207643
_cell_length_c   8.55175800
_cell_angle_alpha   90.00000000
_cell_angle_beta   90.00000000
_cell_angle_gamma   120.00000531
_symmetry_Int_Tables_number   1
_chemical_formula_structural   Sc2Al3Ru
_chemical_formula_sum   'Sc4 Al6 Ru2'
_cell_volume   208.19868301
_cell_formula_units_Z   2
loop_
 _symmetry_equiv_pos_site_id
 _symmetry_equiv_pos_as_xyz
  1  'x, y, z'
loop_
 _atom_site_type_symbol
 _atom_site_label
 _atom_site_symmetry_multiplicity
 _atom_site_fract_x
 _atom_site_fract_y
 _atom_site_fract_z
 _atom_site_occupancy
  Sc  Sc0  1  0.33333300  0.66666700  0.05547900  1
  Sc  Sc1  1  0.66666700  0.33333300  0.55547900  1
  Sc  Sc2  1  0.33333300  0.66666700  0.44452100  1
  Sc  Sc3  1  0.66666700  0.33333300  0.94452100  1
  Al  Al4  1  0.83487900  0.66975700  0.25000000  1
  Al  Al5  1  0.16512100  0.83487900  0.75000000  1
  Al  Al6  1  0.66975700  0.83487900  0.75000000  1
  Al  Al7  1  0.33024300  0.16512100  0.25000000  1
  Al  Al8  1  0.83487900  0.16512100  0.25000000  1
  Al  Al9  1  0.16512100  0.33024300  0.75000000  1
  Ru  Ru10  1  0.00000000  0.00000000  0.50000000  1
  Ru  Ru11  1  0.00000000  0.00000000  0.00000000  1
