# generated using pymatgen
data_Ba2CdAs2
_symmetry_space_group_name_H-M   'P 1'
_cell_length_a   9.13142823
_cell_length_b   9.13142823
_cell_length_c   8.17218800
_cell_angle_alpha   90.00000000
_cell_angle_beta   90.00000000
_cell_angle_gamma   150.45839987
_symmetry_Int_Tables_number   1
_chemical_formula_structural   Ba2CdAs2
_chemical_formula_sum   'Ba4 Cd2 As4'
_cell_volume   335.97847391
_cell_formula_units_Z   2
loop_
 _symmetry_equiv_pos_site_id
 _symmetry_equiv_pos_as_xyz
  1  'x, y, z'
loop_
 _atom_site_type_symbol
 _atom_site_label
 _atom_site_symmetry_multiplicity
 _atom_site_fract_x
 _atom_site_fract_y
 _atom_site_fract_z
 _atom_site_occupancy
  Ba  Ba0  1  0.29569600  0.70430400  0.89194600  1
  Ba  Ba1  1  0.70430400  0.29569600  0.39194600  1
  Ba  Ba2  1  0.46228400  0.53771600  0.23115200  1
  Ba  Ba3  1  0.53771600  0.46228400  0.73115200  1
  Cd  Cd4  1  0.09424500  0.90575500  0.08079500  1
  Cd  Cd5  1  0.90575500  0.09424500  0.58079500  1
  As  As6  1  0.06033400  0.93966600  0.42956800  1
  As  As7  1  0.93966600  0.06033400  0.92956800  1
  As  As8  1  0.32840300  0.67159700  0.50056000  1
  As  As9  1  0.67159700  0.32840300  0.00056000  1
