# generated using pymatgen
data_EuCu2
_symmetry_space_group_name_H-M   'P 1'
_cell_length_a   5.63140261
_cell_length_b   5.63140261
_cell_length_c   5.63140261
_cell_angle_alpha   133.97728068
_cell_angle_beta   100.61438024
_cell_angle_gamma   96.97457432
_symmetry_Int_Tables_number   1
_chemical_formula_structural   EuCu2
_chemical_formula_sum   'Eu2 Cu4'
_cell_volume   118.20650286
_cell_formula_units_Z   2
loop_
 _symmetry_equiv_pos_site_id
 _symmetry_equiv_pos_as_xyz
  1  'x, y, z'
loop_
 _atom_site_type_symbol
 _atom_site_label
 _atom_site_symmetry_multiplicity
 _atom_site_fract_x
 _atom_site_fract_y
 _atom_site_fract_z
 _atom_site_occupancy
  Eu  Eu0  1  0.71021600  0.46021600  0.25000000  1
  Eu  Eu1  1  0.28978400  0.53978400  0.75000000  1
  Cu  Cu2  1  0.88725000  0.83561200  0.05163700  1
  Cu  Cu3  1  0.11275000  0.16438800  0.94836300  1
  Cu  Cu4  1  0.71602500  0.16438800  0.55163700  1
  Cu  Cu5  1  0.28397500  0.83561200  0.44836300  1
