# generated using pymatgen
data_U2B6Mo
_symmetry_space_group_name_H-M   'P 1'
_cell_length_a   3.69632100
_cell_length_b   9.26424300
_cell_length_c   11.35156000
_cell_angle_alpha   90.00000000
_cell_angle_beta   90.00000000
_cell_angle_gamma   90.00000000
_symmetry_Int_Tables_number   1
_chemical_formula_structural   U2B6Mo
_chemical_formula_sum   'U8 B24 Mo4'
_cell_volume   388.71846107
_cell_formula_units_Z   4
loop_
 _symmetry_equiv_pos_site_id
 _symmetry_equiv_pos_as_xyz
  1  'x, y, z'
loop_
 _atom_site_type_symbol
 _atom_site_label
 _atom_site_symmetry_multiplicity
 _atom_site_fract_x
 _atom_site_fract_y
 _atom_site_fract_z
 _atom_site_occupancy
  U  U0  1  0.00000000  0.33481400  0.40773700  1
  U  U1  1  0.00000000  0.66518600  0.59226300  1
  U  U2  1  0.00000000  0.83481400  0.09226300  1
  U  U3  1  0.00000000  0.16518600  0.90773700  1
  U  U4  1  0.00000000  0.95587700  0.39444900  1
  U  U5  1  0.00000000  0.04412300  0.60555100  1
  U  U6  1  0.00000000  0.45587700  0.10555100  1
  U  U7  1  0.00000000  0.54412300  0.89444900  1
  B  B8  1  0.50000000  0.54948100  0.43325900  1
  B  B9  1  0.50000000  0.45051900  0.56674100  1
  B  B10  1  0.50000000  0.04948100  0.06674100  1
  B  B11  1  0.50000000  0.95051900  0.93325900  1
  B  B12  1  0.50000000  0.74281100  0.42421000  1
  B  B13  1  0.50000000  0.25718900  0.57579000  1
  B  B14  1  0.50000000  0.24281100  0.07579000  1
  B  B15  1  0.50000000  0.75718900  0.92421000  1
  B  B16  1  0.50000000  0.80303200  0.27264600  1
  B  B17  1  0.50000000  0.19696800  0.72735400  1
  B  B18  1  0.50000000  0.30303200  0.22735400  1
  B  B19  1  0.50000000  0.69696800  0.77264600  1
  B  B20  1  0.50000000  0.64400400  0.18725900  1
  B  B21  1  0.50000000  0.35599600  0.81274100  1
  B  B22  1  0.50000000  0.14400400  0.31274100  1
  B  B23  1  0.50000000  0.85599600  0.68725900  1
  B  B24  1  0.50000000  0.98486200  0.21838500  1
  B  B25  1  0.50000000  0.01513800  0.78161500  1
  B  B26  1  0.50000000  0.48486200  0.28161500  1
  B  B27  1  0.50000000  0.51513800  0.71838500  1
  B  B28  1  0.50000000  0.64191800  0.03920700  1
  B  B29  1  0.50000000  0.35808200  0.96079300  1
  B  B30  1  0.50000000  0.14191800  0.46079300  1
  B  B31  1  0.50000000  0.85808200  0.53920700  1
  Mo  Mo32  1  0.00000000  0.64443800  0.32009500  1
  Mo  Mo33  1  0.00000000  0.35556200  0.67990500  1
  Mo  Mo34  1  0.00000000  0.14443800  0.17990500  1
  Mo  Mo35  1  0.00000000  0.85556200  0.82009500  1
