# generated using pymatgen
data_K3NbO8
_symmetry_space_group_name_H-M   'P 1'
_cell_length_a   6.33835331
_cell_length_b   6.33835331
_cell_length_c   6.33835331
_cell_angle_alpha   113.80429838
_cell_angle_beta   113.80429838
_cell_angle_gamma   101.11460678
_symmetry_Int_Tables_number   1
_chemical_formula_structural   K3NbO8
_chemical_formula_sum   'K3 Nb1 O8'
_cell_volume   192.96115530
_cell_formula_units_Z   1
loop_
 _symmetry_equiv_pos_site_id
 _symmetry_equiv_pos_as_xyz
  1  'x, y, z'
loop_
 _atom_site_type_symbol
 _atom_site_label
 _atom_site_symmetry_multiplicity
 _atom_site_fract_x
 _atom_site_fract_y
 _atom_site_fract_z
 _atom_site_occupancy
  K  K0  1  0.25000000  0.75000000  0.50000000  1
  K  K1  1  0.75000000  0.25000000  0.50000000  1
  K  K2  1  0.50000000  0.50000000  0.00000000  1
  Nb  Nb3  1  0.00000000  0.00000000  0.00000000  1
  O  O4  1  0.80814700  0.80814700  0.57434200  1
  O  O5  1  0.19185300  0.76619500  0.00000000  1
  O  O6  1  0.76619500  0.19185300  0.00000000  1
  O  O7  1  0.23380500  0.23380500  0.42565800  1
  O  O8  1  0.32784800  0.32784800  0.28295900  1
  O  O9  1  0.67215200  0.95511100  0.00000000  1
  O  O10  1  0.95511100  0.67215200  0.00000000  1
  O  O11  1  0.04488900  0.04488900  0.71704100  1
