# generated using pymatgen
data_Rb3MnBr5
_symmetry_space_group_name_H-M   'P 1'
_cell_length_a   10.19834068
_cell_length_b   10.19834068
_cell_length_c   10.19834068
_cell_angle_alpha   124.86168550
_cell_angle_beta   124.86168550
_cell_angle_gamma   81.76725376
_symmetry_Int_Tables_number   1
_chemical_formula_structural   Rb3MnBr5
_chemical_formula_sum   'Rb6 Mn2 Br10'
_cell_volume   687.09348064
_cell_formula_units_Z   2
loop_
 _symmetry_equiv_pos_site_id
 _symmetry_equiv_pos_as_xyz
  1  'x, y, z'
loop_
 _atom_site_type_symbol
 _atom_site_label
 _atom_site_symmetry_multiplicity
 _atom_site_fract_x
 _atom_site_fract_y
 _atom_site_fract_z
 _atom_site_occupancy
  Rb  Rb0  1  0.25000000  0.25000000  0.00000000  1
  Rb  Rb1  1  0.75000000  0.75000000  0.00000000  1
  Rb  Rb2  1  0.16712700  0.66712700  0.83425300  1
  Rb  Rb3  1  0.83287300  0.33287300  0.16574700  1
  Rb  Rb4  1  0.66712700  0.83287300  0.50000000  1
  Rb  Rb5  1  0.33287300  0.16712700  0.50000000  1
  Mn  Mn6  1  0.75000000  0.25000000  0.50000000  1
  Mn  Mn7  1  0.25000000  0.75000000  0.50000000  1
  Br  Br8  1  0.79770500  0.29770500  0.79260300  1
  Br  Br9  1  0.20229500  0.70229500  0.20739700  1
  Br  Br10  1  0.50510200  0.00510200  0.20739700  1
  Br  Br11  1  0.29770500  0.50510200  0.50000000  1
  Br  Br12  1  0.99489800  0.20229500  0.50000000  1
  Br  Br13  1  0.49489800  0.99489800  0.79260300  1
  Br  Br14  1  0.70229500  0.49489800  0.50000000  1
  Br  Br15  1  0.00510200  0.79770500  0.50000000  1
  Br  Br16  1  0.00000000  0.00000000  0.00000000  1
  Br  Br17  1  0.50000000  0.50000000  0.00000000  1
