# generated using pymatgen
data_Sm3Ti3(SeO4)2
_symmetry_space_group_name_H-M   'P 1'
_cell_length_a   3.90281000
_cell_length_b   9.87437400
_cell_length_c   13.53819451
_cell_angle_alpha   68.74634753
_cell_angle_beta   90.00000000
_cell_angle_gamma   90.00000000
_symmetry_Int_Tables_number   1
_chemical_formula_structural   Sm3Ti3(SeO4)2
_chemical_formula_sum   'Sm6 Ti6 Se4 O16'
_cell_volume   486.24656142
_cell_formula_units_Z   2
loop_
 _symmetry_equiv_pos_site_id
 _symmetry_equiv_pos_as_xyz
  1  'x, y, z'
loop_
 _atom_site_type_symbol
 _atom_site_label
 _atom_site_symmetry_multiplicity
 _atom_site_fract_x
 _atom_site_fract_y
 _atom_site_fract_z
 _atom_site_occupancy
  Sm  Sm0  1  0.25000000  0.41749700  0.91436800  1
  Sm  Sm1  1  0.75000000  0.58250300  0.08563200  1
  Sm  Sm2  1  0.75000000  0.40868600  0.41096700  1
  Sm  Sm3  1  0.25000000  0.59131400  0.58903300  1
  Sm  Sm4  1  0.25000000  0.95220300  0.16005500  1
  Sm  Sm5  1  0.75000000  0.04779700  0.83994500  1
  Ti  Ti6  1  0.25000000  0.19099600  0.60384200  1
  Ti  Ti7  1  0.75000000  0.68610300  0.76963600  1
  Ti  Ti8  1  0.25000000  0.04485700  0.41225200  1
  Ti  Ti9  1  0.75000000  0.95514300  0.58774800  1
  Ti  Ti10  1  0.75000000  0.80900400  0.39615800  1
  Ti  Ti11  1  0.25000000  0.31389700  0.23036400  1
  Se  Se12  1  0.25000000  0.60986000  0.25353600  1
  Se  Se13  1  0.75000000  0.39014000  0.74646400  1
  Se  Se14  1  0.25000000  0.83636300  0.98405000  1
  Se  Se15  1  0.75000000  0.16363700  0.01595000  1
  O  O16  1  0.25000000  0.39019500  0.52940900  1
  O  O17  1  0.75000000  0.60980500  0.47059100  1
  O  O18  1  0.75000000  0.17789600  0.57154100  1
  O  O19  1  0.25000000  0.82210400  0.42845900  1
  O  O20  1  0.25000000  0.25027200  0.39085100  1
  O  O21  1  0.75000000  0.74972800  0.60914900  1
  O  O22  1  0.25000000  0.12121700  0.25116000  1
  O  O23  1  0.75000000  0.87878300  0.74884000  1
  O  O24  1  0.25000000  0.44112200  0.08379700  1
  O  O25  1  0.75000000  0.55887800  0.91620300  1
  O  O26  1  0.25000000  0.64143900  0.76233700  1
  O  O27  1  0.25000000  0.00549700  0.57423700  1
  O  O28  1  0.25000000  0.12089000  0.74675300  1
  O  O29  1  0.75000000  0.87911000  0.25324700  1
  O  O30  1  0.75000000  0.35856100  0.23766300  1
  O  O31  1  0.75000000  0.99450300  0.42576300  1
