# generated using pymatgen
data_CeTl(PSe3)2
_symmetry_space_group_name_H-M   'P 1'
_cell_length_a   7.86523600
_cell_length_b   12.00814200
_cell_length_c   12.50621743
_cell_angle_alpha   70.30858664
_cell_angle_beta   90.00000000
_cell_angle_gamma   90.00000000
_symmetry_Int_Tables_number   1
_chemical_formula_structural   CeTl(PSe3)2
_chemical_formula_sum   'Ce4 Tl4 P8 Se24'
_cell_volume   1112.09934167
_cell_formula_units_Z   4
loop_
 _symmetry_equiv_pos_site_id
 _symmetry_equiv_pos_as_xyz
  1  'x, y, z'
loop_
 _atom_site_type_symbol
 _atom_site_label
 _atom_site_symmetry_multiplicity
 _atom_site_fract_x
 _atom_site_fract_y
 _atom_site_fract_z
 _atom_site_occupancy
  Ce  Ce0  1  0.89583700  0.40537600  0.34924500  1
  Ce  Ce1  1  0.39583700  0.09462400  0.65075500  1
  Ce  Ce2  1  0.10416300  0.59462400  0.65075500  1
  Ce  Ce3  1  0.60416300  0.90537600  0.34924500  1
  Tl  Tl4  1  0.08975600  0.12477800  0.12820500  1
  Tl  Tl5  1  0.58975600  0.37522200  0.87179500  1
  Tl  Tl6  1  0.91024400  0.87522200  0.87179500  1
  Tl  Tl7  1  0.41024400  0.62477800  0.12820500  1
  P  P8  1  0.90261600  0.25387900  0.67776300  1
  P  P9  1  0.40261600  0.24612100  0.32223700  1
  P  P10  1  0.09738400  0.74612100  0.32223700  1
  P  P11  1  0.59738400  0.75387900  0.67776300  1
  P  P12  1  0.61815300  0.23219500  0.20806700  1
  P  P13  1  0.11815300  0.26780500  0.79193300  1
  P  P14  1  0.38184700  0.76780500  0.79193300  1
  P  P15  1  0.88184700  0.73219500  0.20806700  1
  Se  Se16  1  0.71488800  0.41500800  0.12755500  1
  Se  Se17  1  0.21488800  0.08499200  0.87244500  1
  Se  Se18  1  0.28511200  0.58499200  0.87244500  1
  Se  Se19  1  0.78511200  0.91500800  0.12755500  1
  Se  Se20  1  0.81402900  0.13173500  0.32966900  1
  Se  Se21  1  0.31402900  0.36826500  0.67033100  1
  Se  Se22  1  0.18597100  0.86826500  0.67033100  1
  Se  Se23  1  0.68597100  0.63173500  0.32966900  1
  Se  Se24  1  0.20801700  0.36196000  0.21110700  1
  Se  Se25  1  0.70801700  0.13804000  0.78889300  1
  Se  Se26  1  0.79198300  0.63804000  0.78889300  1
  Se  Se27  1  0.29198300  0.86196000  0.21110700  1
  Se  Se28  1  0.52687100  0.31520300  0.44759000  1
  Se  Se29  1  0.02687100  0.18479700  0.55241000  1
  Se  Se30  1  0.47312900  0.68479700  0.55241000  1
  Se  Se31  1  0.97312900  0.81520300  0.44759000  1
  Se  Se32  1  0.80783900  0.43598500  0.58998200  1
  Se  Se33  1  0.30783900  0.06401500  0.41001800  1
  Se  Se34  1  0.19216100  0.56401500  0.41001800  1
  Se  Se35  1  0.69216100  0.93598500  0.58998200  1
  Se  Se36  1  0.51901500  0.12792300  0.10883900  1
  Se  Se37  1  0.01901500  0.37207700  0.89116100  1
  Se  Se38  1  0.48098500  0.87207700  0.89116100  1
  Se  Se39  1  0.98098500  0.62792300  0.10883900  1
