# generated using pymatgen
data_Tb(ClO4)3
_symmetry_space_group_name_H-M   'P 1'
_cell_length_a   9.44575767
_cell_length_b   9.44575767
_cell_length_c   5.70442600
_cell_angle_alpha   90.00000000
_cell_angle_beta   90.00000000
_cell_angle_gamma   119.99999766
_symmetry_Int_Tables_number   1
_chemical_formula_structural   Tb(ClO4)3
_chemical_formula_sum   'Tb2 Cl6 O24'
_cell_volume   440.77422593
_cell_formula_units_Z   2
loop_
 _symmetry_equiv_pos_site_id
 _symmetry_equiv_pos_as_xyz
  1  'x, y, z'
loop_
 _atom_site_type_symbol
 _atom_site_label
 _atom_site_symmetry_multiplicity
 _atom_site_fract_x
 _atom_site_fract_y
 _atom_site_fract_z
 _atom_site_occupancy
  Tb  Tb0  1  0.66666700  0.33333300  0.25000000  1
  Tb  Tb1  1  0.33333300  0.66666700  0.75000000  1
  Cl  Cl2  1  0.09076200  0.38851800  0.25000000  1
  Cl  Cl3  1  0.90923800  0.61148200  0.75000000  1
  Cl  Cl4  1  0.61148200  0.70224400  0.25000000  1
  Cl  Cl5  1  0.38851800  0.29775600  0.75000000  1
  Cl  Cl6  1  0.29775600  0.90923800  0.25000000  1
  Cl  Cl7  1  0.70224400  0.09076200  0.75000000  1
  O  O8  1  0.14488500  0.49583200  0.04310600  1
  O  O9  1  0.85511500  0.50416800  0.95689400  1
  O  O10  1  0.50416800  0.64905300  0.04310600  1
  O  O11  1  0.85511500  0.50416800  0.54310600  1
  O  O12  1  0.49583200  0.35094700  0.95689400  1
  O  O13  1  0.14488500  0.49583200  0.45689400  1
  O  O14  1  0.35094700  0.85511500  0.04310600  1
  O  O15  1  0.49583200  0.35094700  0.54310600  1
  O  O16  1  0.64905300  0.14488500  0.95689400  1
  O  O17  1  0.50416800  0.64905300  0.45689400  1
  O  O18  1  0.64905300  0.14488500  0.54310600  1
  O  O19  1  0.35094700  0.85511500  0.45689400  1
  O  O20  1  0.15290700  0.27877800  0.25000000  1
  O  O21  1  0.84709300  0.72122200  0.75000000  1
  O  O22  1  0.72122200  0.87412800  0.25000000  1
  O  O23  1  0.27877800  0.12587200  0.75000000  1
  O  O24  1  0.12587200  0.84709300  0.25000000  1
  O  O25  1  0.87412800  0.15290700  0.75000000  1
  O  O26  1  0.38527000  0.08753700  0.25000000  1
  O  O27  1  0.61473000  0.91246300  0.75000000  1
  O  O28  1  0.91246300  0.29773300  0.25000000  1
  O  O29  1  0.08753700  0.70226700  0.75000000  1
  O  O30  1  0.70226700  0.61473000  0.25000000  1
  O  O31  1  0.29773300  0.38527000  0.75000000  1
