# generated using pymatgen
data_Nb3B4
_symmetry_space_group_name_H-M   'P 1'
_cell_length_a   7.44591129
_cell_length_b   7.44591129
_cell_length_c   7.44591129
_cell_angle_alpha   155.51902572
_cell_angle_beta   154.20319805
_cell_angle_gamma   35.86086272
_symmetry_Int_Tables_number   1
_chemical_formula_structural   Nb3B4
_chemical_formula_sum   'Nb3 B4'
_cell_volume   74.35275895
_cell_formula_units_Z   1
loop_
 _symmetry_equiv_pos_site_id
 _symmetry_equiv_pos_as_xyz
  1  'x, y, z'
loop_
 _atom_site_type_symbol
 _atom_site_label
 _atom_site_symmetry_multiplicity
 _atom_site_fract_x
 _atom_site_fract_y
 _atom_site_fract_z
 _atom_site_occupancy
  Nb  Nb0  1  0.00000000  0.50000000  0.50000000  1
  Nb  Nb1  1  0.18514000  0.18514000  0.00000000  1
  Nb  Nb2  1  0.81486000  0.81486000  0.00000000  1
  B  B3  1  0.36771400  0.36771400  0.00000000  1
  B  B4  1  0.63228600  0.63228600  0.00000000  1
  B  B5  1  0.43568400  0.93568400  0.50000000  1
  B  B6  1  0.56431600  0.06431600  0.50000000  1
