# generated using pymatgen
data_Na5Cu3As4HO16
_symmetry_space_group_name_H-M   'P 1'
_cell_length_a   5.39283445
_cell_length_b   8.65793010
_cell_length_c   9.47408485
_cell_angle_alpha   63.70410851
_cell_angle_beta   89.38138310
_cell_angle_gamma   74.23789199
_symmetry_Int_Tables_number   1
_chemical_formula_structural   Na5Cu3As4HO16
_chemical_formula_sum   'Na5 Cu3 As4 H1 O16'
_cell_volume   378.57629757
_cell_formula_units_Z   1
loop_
 _symmetry_equiv_pos_site_id
 _symmetry_equiv_pos_as_xyz
  1  'x, y, z'
loop_
 _atom_site_type_symbol
 _atom_site_label
 _atom_site_symmetry_multiplicity
 _atom_site_fract_x
 _atom_site_fract_y
 _atom_site_fract_z
 _atom_site_occupancy
  Na  Na0  1  0.34041900  0.35663200  0.63683600  1
  Na  Na1  1  0.65958100  0.64336800  0.36316400  1
  Na  Na2  1  0.70295800  0.54821200  0.73591200  1
  Na  Na3  1  0.29704200  0.45178800  0.26408800  1
  Na  Na4  1  0.00000000  0.00000000  0.00000000  1
  Cu  Cu5  1  0.83265800  0.25301600  0.20632600  1
  Cu  Cu6  1  0.16734200  0.74698400  0.79367400  1
  Cu  Cu7  1  0.50000000  0.00000000  0.50000000  1
  As  As8  1  0.26016100  0.31087700  0.97910400  1
  As  As9  1  0.73983900  0.68912300  0.02089600  1
  As  As10  1  0.93516100  0.17583100  0.57400900  1
  As  As11  1  0.06483900  0.82416900  0.42599100  1
  H  H12  1  0.50000000  0.00000000  0.00000000  1
  O  O13  1  0.93093700  0.33125200  0.98947600  1
  O  O14  1  0.06906300  0.66874800  0.01052400  1
  O  O15  1  0.77122600  0.80025500  0.49772000  1
  O  O16  1  0.22877400  0.19974500  0.50228000  1
  O  O17  1  0.27668600  0.50280200  0.80946400  1
  O  O18  1  0.72331400  0.49719800  0.19053600  1
  O  O19  1  0.57485000  0.74231100  0.84793300  1
  O  O20  1  0.42515000  0.25768900  0.15206700  1
  O  O21  1  0.97542400  0.99114700  0.75527400  1
  O  O22  1  0.02457600  0.00885300  0.24472600  1
  O  O23  1  0.78576500  0.36426700  0.59435900  1
  O  O24  1  0.21423500  0.63573300  0.40564100  1
  O  O25  1  0.73791200  0.16127900  0.43419000  1
  O  O26  1  0.26208800  0.83872100  0.56581000  1
  O  O27  1  0.36961600  0.15067300  0.90933600  1
  O  O28  1  0.63038400  0.84932700  0.09066400  1
