# generated using pymatgen
data_Ca3MoN3
_symmetry_space_group_name_H-M   'P 1'
_cell_length_a   7.50813059
_cell_length_b   7.50813059
_cell_length_c   5.09638200
_cell_angle_alpha   90.00000000
_cell_angle_beta   90.00000000
_cell_angle_gamma   120.00000523
_symmetry_Int_Tables_number   1
_chemical_formula_structural   Ca3MoN3
_chemical_formula_sum   'Ca6 Mo2 N6'
_cell_volume   248.80334672
_cell_formula_units_Z   2
loop_
 _symmetry_equiv_pos_site_id
 _symmetry_equiv_pos_as_xyz
  1  'x, y, z'
loop_
 _atom_site_type_symbol
 _atom_site_label
 _atom_site_symmetry_multiplicity
 _atom_site_fract_x
 _atom_site_fract_y
 _atom_site_fract_z
 _atom_site_occupancy
  Ca  Ca0  1  0.89728600  0.64926400  0.25000000  1
  Ca  Ca1  1  0.75197800  0.10271400  0.25000000  1
  Ca  Ca2  1  0.35073600  0.24802200  0.25000000  1
  Ca  Ca3  1  0.10271400  0.35073600  0.75000000  1
  Ca  Ca4  1  0.24802200  0.89728600  0.75000000  1
  Ca  Ca5  1  0.64926400  0.75197800  0.75000000  1
  Mo  Mo6  1  0.66666700  0.33333300  0.75000000  1
  Mo  Mo7  1  0.33333300  0.66666700  0.25000000  1
  N  N8  1  0.88562700  0.60571800  0.75000000  1
  N  N9  1  0.72009200  0.11437300  0.75000000  1
  N  N10  1  0.39428200  0.27990800  0.75000000  1
  N  N11  1  0.11437300  0.39428200  0.25000000  1
  N  N12  1  0.27990800  0.88562700  0.25000000  1
  N  N13  1  0.60571800  0.72009200  0.25000000  1
