# generated using pymatgen
data_Tb11Sn10
_symmetry_space_group_name_H-M   'P 1'
_cell_length_a   11.93251496
_cell_length_b   11.93251496
_cell_length_c   11.93251496
_cell_angle_alpha   121.27645571
_cell_angle_beta   121.27645571
_cell_angle_gamma   87.80297646
_symmetry_Int_Tables_number   1
_chemical_formula_structural   Tb11Sn10
_chemical_formula_sum   'Tb22 Sn20'
_cell_volume   1177.26248064
_cell_formula_units_Z   2
loop_
 _symmetry_equiv_pos_site_id
 _symmetry_equiv_pos_as_xyz
  1  'x, y, z'
loop_
 _atom_site_type_symbol
 _atom_site_label
 _atom_site_symmetry_multiplicity
 _atom_site_fract_x
 _atom_site_fract_y
 _atom_site_fract_z
 _atom_site_occupancy
  Tb  Tb0  1  0.81113500  0.06301400  0.25187900  1
  Tb  Tb1  1  0.81113500  0.55925600  0.74812100  1
  Tb  Tb2  1  0.06301400  0.81113500  0.25187900  1
  Tb  Tb3  1  0.55925600  0.81113500  0.74812100  1
  Tb  Tb4  1  0.18886500  0.93698600  0.74812100  1
  Tb  Tb5  1  0.18886500  0.44074400  0.25187900  1
  Tb  Tb6  1  0.93698600  0.18886500  0.74812100  1
  Tb  Tb7  1  0.44074400  0.18886500  0.25187900  1
  Tb  Tb8  1  0.17442500  0.17442500  0.34885100  1
  Tb  Tb9  1  0.82557500  0.82557500  0.65114900  1
  Tb  Tb10  1  0.17442500  0.82557500  0.00000000  1
  Tb  Tb11  1  0.82557500  0.17442500  0.00000000  1
  Tb  Tb12  1  0.66308900  0.66308900  0.00000000  1
  Tb  Tb13  1  0.33691100  0.33691100  0.00000000  1
  Tb  Tb14  1  0.60209900  0.93124700  0.32914700  1
  Tb  Tb15  1  0.60209900  0.27295200  0.67085300  1
  Tb  Tb16  1  0.93124700  0.60209900  0.32914700  1
  Tb  Tb17  1  0.27295200  0.60209900  0.67085300  1
  Tb  Tb18  1  0.39790100  0.06875300  0.67085300  1
  Tb  Tb19  1  0.39790100  0.72704800  0.32914700  1
  Tb  Tb20  1  0.06875300  0.39790100  0.67085300  1
  Tb  Tb21  1  0.72704800  0.39790100  0.32914700  1
  Sn  Sn22  1  0.35664000  0.00000000  0.35664000  1
  Sn  Sn23  1  0.64336000  0.00000000  0.64336000  1
  Sn  Sn24  1  0.00000000  0.64336000  0.64336000  1
  Sn  Sn25  1  0.00000000  0.35664000  0.35664000  1
  Sn  Sn26  1  0.88831600  0.88831600  0.00000000  1
  Sn  Sn27  1  0.11168400  0.11168400  0.00000000  1
  Sn  Sn28  1  0.37057300  0.37057300  0.74114500  1
  Sn  Sn29  1  0.62942700  0.62942700  0.25885500  1
  Sn  Sn30  1  0.37057300  0.62942700  0.00000000  1
  Sn  Sn31  1  0.62942700  0.37057300  0.00000000  1
  Sn  Sn32  1  0.75000000  0.25000000  0.50000000  1
  Sn  Sn33  1  0.25000000  0.75000000  0.50000000  1
  Sn  Sn34  1  0.88302400  0.88302400  0.41403800  1
  Sn  Sn35  1  0.46898600  0.46898600  0.58596200  1
  Sn  Sn36  1  0.88302400  0.46898600  0.00000000  1
  Sn  Sn37  1  0.46898600  0.88302400  0.00000000  1
  Sn  Sn38  1  0.11697600  0.11697600  0.58596200  1
  Sn  Sn39  1  0.53101400  0.53101400  0.41403800  1
  Sn  Sn40  1  0.11697600  0.53101400  0.00000000  1
  Sn  Sn41  1  0.53101400  0.11697600  0.00000000  1
