# generated using pymatgen
data_NaMn3Ag(PO4)3
_symmetry_space_group_name_H-M   'P 1'
_cell_length_a   8.86081872
_cell_length_b   8.86081872
_cell_length_c   6.67831188
_cell_angle_alpha   73.06988043
_cell_angle_beta   73.06988043
_cell_angle_gamma   93.34298287
_symmetry_Int_Tables_number   1
_chemical_formula_structural   NaMn3Ag(PO4)3
_chemical_formula_sum   'Na2 Mn6 Ag2 P6 O24'
_cell_volume   473.97381142
_cell_formula_units_Z   2
loop_
 _symmetry_equiv_pos_site_id
 _symmetry_equiv_pos_as_xyz
  1  'x, y, z'
loop_
 _atom_site_type_symbol
 _atom_site_label
 _atom_site_symmetry_multiplicity
 _atom_site_fract_x
 _atom_site_fract_y
 _atom_site_fract_z
 _atom_site_occupancy
  Na  Na0  1  0.50000000  0.50000000  0.00000000  1
  Na  Na1  1  0.50000000  0.50000000  0.50000000  1
  Mn  Mn2  1  0.26792000  0.73208000  0.25000000  1
  Mn  Mn3  1  0.73208000  0.26792000  0.75000000  1
  Mn  Mn4  1  0.38071200  0.06255100  0.36513600  1
  Mn  Mn5  1  0.61928800  0.93744900  0.63486400  1
  Mn  Mn6  1  0.93744900  0.61928800  0.13486400  1
  Mn  Mn7  1  0.06255100  0.38071200  0.86513600  1
  Ag  Ag8  1  0.98886300  0.01113700  0.25000000  1
  Ag  Ag9  1  0.01113700  0.98886300  0.75000000  1
  P  P10  1  0.65298400  0.87406100  0.12805600  1
  P  P11  1  0.34701600  0.12593900  0.87194400  1
  P  P12  1  0.12593900  0.34701600  0.37194400  1
  P  P13  1  0.87406100  0.65298400  0.62805600  1
  P  P14  1  0.71489600  0.28510400  0.25000000  1
  P  P15  1  0.28510400  0.71489600  0.75000000  1
  O  O16  1  0.59799500  0.95258100  0.31338200  1
  O  O17  1  0.40200500  0.04741900  0.68661800  1
  O  O18  1  0.04741900  0.40200500  0.18661800  1
  O  O19  1  0.95258100  0.59799500  0.81338200  1
  O  O20  1  0.32775500  0.99846700  0.09981900  1
  O  O21  1  0.67224500  0.00153300  0.90018100  1
  O  O22  1  0.00153300  0.67224500  0.40018100  1
  O  O23  1  0.99846700  0.32775500  0.59981900  1
  O  O24  1  0.52836700  0.72761800  0.17718500  1
  O  O25  1  0.47163300  0.27238200  0.82281500  1
  O  O26  1  0.27238200  0.47163300  0.32281500  1
  O  O27  1  0.72761800  0.52836700  0.67718500  1
  O  O28  1  0.54092600  0.26344000  0.24443600  1
  O  O29  1  0.45907400  0.73656000  0.75556400  1
  O  O30  1  0.73656000  0.45907400  0.25556400  1
  O  O31  1  0.26344000  0.54092600  0.74443600  1
  O  O32  1  0.73971800  0.17279500  0.46250300  1
  O  O33  1  0.26028200  0.82720500  0.53749700  1
  O  O34  1  0.82720500  0.26028200  0.03749700  1
  O  O35  1  0.17279500  0.73971800  0.96250300  1
  O  O36  1  0.82181500  0.82641200  0.12050100  1
  O  O37  1  0.17818500  0.17358800  0.87949900  1
  O  O38  1  0.17358800  0.17818500  0.37949900  1
  O  O39  1  0.82641200  0.82181500  0.62050100  1
