# generated using pymatgen
data_SrMnN2
_symmetry_space_group_name_H-M   'P 1'
_cell_length_a   7.57313300
_cell_length_b   5.75197900
_cell_length_c   5.95860727
_cell_angle_alpha   65.92878411
_cell_angle_beta   90.00000000
_cell_angle_gamma   90.00000000
_symmetry_Int_Tables_number   1
_chemical_formula_structural   SrMnN2
_chemical_formula_sum   'Sr4 Mn4 N8'
_cell_volume   236.98838451
_cell_formula_units_Z   4
loop_
 _symmetry_equiv_pos_site_id
 _symmetry_equiv_pos_as_xyz
  1  'x, y, z'
loop_
 _atom_site_type_symbol
 _atom_site_label
 _atom_site_symmetry_multiplicity
 _atom_site_fract_x
 _atom_site_fract_y
 _atom_site_fract_z
 _atom_site_occupancy
  Sr  Sr0  1  0.07399300  0.32306200  0.31917500  1
  Sr  Sr1  1  0.57399300  0.17693800  0.68082500  1
  Sr  Sr2  1  0.92600700  0.67693800  0.68082500  1
  Sr  Sr3  1  0.42600700  0.82306200  0.31917500  1
  Mn  Mn4  1  0.63424300  0.41632400  0.10172000  1
  Mn  Mn5  1  0.13424300  0.08367600  0.89828000  1
  Mn  Mn6  1  0.36575700  0.58367600  0.89828000  1
  Mn  Mn7  1  0.86575700  0.91632400  0.10172000  1
  N  N8  1  0.08433400  0.91293200  0.23684300  1
  N  N9  1  0.58433400  0.58706800  0.76315700  1
  N  N10  1  0.91566600  0.08706800  0.76315700  1
  N  N11  1  0.41566600  0.41293200  0.23684300  1
  N  N12  1  0.70944500  0.10605700  0.16829000  1
  N  N13  1  0.20944500  0.39394300  0.83171000  1
  N  N14  1  0.29055500  0.89394300  0.83171000  1
  N  N15  1  0.79055500  0.60605700  0.16829000  1
