# generated using pymatgen
data_EuMgPd
_symmetry_space_group_name_H-M   'P 1'
_cell_length_a   4.39391500
_cell_length_b   7.52855900
_cell_length_c   8.64282400
_cell_angle_alpha   90.00000000
_cell_angle_beta   90.00000000
_cell_angle_gamma   90.00000000
_symmetry_Int_Tables_number   1
_chemical_formula_structural   EuMgPd
_chemical_formula_sum   'Eu4 Mg4 Pd4'
_cell_volume   285.90330696
_cell_formula_units_Z   4
loop_
 _symmetry_equiv_pos_site_id
 _symmetry_equiv_pos_as_xyz
  1  'x, y, z'
loop_
 _atom_site_type_symbol
 _atom_site_label
 _atom_site_symmetry_multiplicity
 _atom_site_fract_x
 _atom_site_fract_y
 _atom_site_fract_z
 _atom_site_occupancy
  Eu  Eu0  1  0.25000000  0.03002200  0.32303200  1
  Eu  Eu1  1  0.25000000  0.53002200  0.17696800  1
  Eu  Eu2  1  0.75000000  0.96997800  0.67696800  1
  Eu  Eu3  1  0.75000000  0.46997800  0.82303200  1
  Mg  Mg4  1  0.25000000  0.13719200  0.93768200  1
  Mg  Mg5  1  0.25000000  0.63719200  0.56231800  1
  Mg  Mg6  1  0.75000000  0.86280800  0.06231800  1
  Mg  Mg7  1  0.75000000  0.36280800  0.43768200  1
  Pd  Pd8  1  0.25000000  0.27407400  0.62212200  1
  Pd  Pd9  1  0.25000000  0.77407400  0.87787800  1
  Pd  Pd10  1  0.75000000  0.72592600  0.37787800  1
  Pd  Pd11  1  0.75000000  0.22592600  0.12212200  1
