# generated using pymatgen
data_GeI2
_symmetry_space_group_name_H-M   'P 1'
_cell_length_a   4.30463100
_cell_length_b   4.30463006
_cell_length_c   23.37038200
_cell_angle_alpha   90.00000212
_cell_angle_beta   90.00000000
_cell_angle_gamma   119.99999956
_symmetry_Int_Tables_number   1
_chemical_formula_structural   GeI2
_chemical_formula_sum   'Ge3 I6'
_cell_volume   375.03189782
_cell_formula_units_Z   3
loop_
 _symmetry_equiv_pos_site_id
 _symmetry_equiv_pos_as_xyz
  1  'x, y, z'
loop_
 _atom_site_type_symbol
 _atom_site_label
 _atom_site_symmetry_multiplicity
 _atom_site_fract_x
 _atom_site_fract_y
 _atom_site_fract_z
 _atom_site_occupancy
  Ge  Ge0  1  0.00000000  0.00000000  0.00000000  1
  Ge  Ge1  1  0.33333400  0.66666600  0.33214600  1
  Ge  Ge2  1  0.66666600  0.33333400  0.66785400  1
  I  I3  1  0.99999900  0.00000000  0.25752400  1
  I  I4  1  0.00000000  0.00000000  0.74247600  1
  I  I5  1  0.33333400  0.66666600  0.07461600  1
  I  I6  1  0.66666600  0.33333400  0.92538400  1
  I  I7  1  0.33333400  0.66666600  0.59322300  1
  I  I8  1  0.66666600  0.33333400  0.40677700  1
