# generated using pymatgen
data_LaCeIn6
_symmetry_space_group_name_H-M   'P 1'
_cell_length_a   4.74329900
_cell_length_b   4.74329900
_cell_length_c   9.54074400
_cell_angle_alpha   90.00000000
_cell_angle_beta   90.00000000
_cell_angle_gamma   90.00000000
_symmetry_Int_Tables_number   1
_chemical_formula_structural   LaCeIn6
_chemical_formula_sum   'La1 Ce1 In6'
_cell_volume   214.65610592
_cell_formula_units_Z   1
loop_
 _symmetry_equiv_pos_site_id
 _symmetry_equiv_pos_as_xyz
  1  'x, y, z'
loop_
 _atom_site_type_symbol
 _atom_site_label
 _atom_site_symmetry_multiplicity
 _atom_site_fract_x
 _atom_site_fract_y
 _atom_site_fract_z
 _atom_site_occupancy
  La  La0  1  0.00000000  0.00000000  0.50000000  1
  Ce  Ce1  1  0.00000000  0.00000000  0.00000000  1
  In  In2  1  0.50000000  0.50000000  0.00000000  1
  In  In3  1  0.50000000  0.50000000  0.50000000  1
  In  In4  1  0.50000000  0.00000000  0.24806100  1
  In  In5  1  0.50000000  0.00000000  0.75193900  1
  In  In6  1  0.00000000  0.50000000  0.24806100  1
  In  In7  1  0.00000000  0.50000000  0.75193900  1
