# generated using pymatgen
data_KFeBr4
_symmetry_space_group_name_H-M   'P 1'
_cell_length_a   7.84304800
_cell_length_b   10.47045600
_cell_length_c   10.52608900
_cell_angle_alpha   90.00000000
_cell_angle_beta   90.00000000
_cell_angle_gamma   90.00000000
_symmetry_Int_Tables_number   1
_chemical_formula_structural   KFeBr4
_chemical_formula_sum   'K4 Fe4 Br16'
_cell_volume   864.40547061
_cell_formula_units_Z   4
loop_
 _symmetry_equiv_pos_site_id
 _symmetry_equiv_pos_as_xyz
  1  'x, y, z'
loop_
 _atom_site_type_symbol
 _atom_site_label
 _atom_site_symmetry_multiplicity
 _atom_site_fract_x
 _atom_site_fract_y
 _atom_site_fract_z
 _atom_site_occupancy
  K  K0  1  0.32093900  0.25000000  0.25000000  1
  K  K1  1  0.67906100  0.75000000  0.75000000  1
  K  K2  1  0.17906100  0.75000000  0.25000000  1
  K  K3  1  0.82093900  0.25000000  0.75000000  1
  Fe  Fe4  1  0.25000000  0.00000000  0.67916800  1
  Fe  Fe5  1  0.75000000  0.00000000  0.32083200  1
  Fe  Fe6  1  0.25000000  0.50000000  0.82083200  1
  Fe  Fe7  1  0.75000000  0.50000000  0.17916800  1
  Br  Br8  1  0.16302600  0.17534500  0.55459600  1
  Br  Br9  1  0.83697400  0.82465500  0.44540400  1
  Br  Br10  1  0.33697400  0.82465500  0.55459600  1
  Br  Br11  1  0.33697400  0.67534500  0.94540400  1
  Br  Br12  1  0.66302600  0.17534500  0.44540400  1
  Br  Br13  1  0.66302600  0.32465500  0.05459600  1
  Br  Br14  1  0.16302600  0.32465500  0.94540400  1
  Br  Br15  1  0.83697400  0.67534500  0.05459600  1
  Br  Br16  1  0.98586100  0.04362100  0.18641600  1
  Br  Br17  1  0.01413900  0.95637900  0.81358400  1
  Br  Br18  1  0.51413900  0.95637900  0.18641600  1
  Br  Br19  1  0.51413900  0.54362100  0.31358400  1
  Br  Br20  1  0.48586100  0.04362100  0.81358400  1
  Br  Br21  1  0.48586100  0.45637900  0.68641600  1
  Br  Br22  1  0.98586100  0.45637900  0.31358400  1
  Br  Br23  1  0.01413900  0.54362100  0.68641600  1
