# generated using pymatgen
data_Tm(Al5Fe)2
_symmetry_space_group_name_H-M   'P 1'
_cell_length_a   6.73760613
_cell_length_b   6.73760613
_cell_length_c   8.94977500
_cell_angle_alpha   90.00000000
_cell_angle_beta   90.00000000
_cell_angle_gamma   97.07067032
_symmetry_Int_Tables_number   1
_chemical_formula_structural   Tm(Al5Fe)2
_chemical_formula_sum   'Tm2 Al20 Fe4'
_cell_volume   403.18833377
_cell_formula_units_Z   2
loop_
 _symmetry_equiv_pos_site_id
 _symmetry_equiv_pos_as_xyz
  1  'x, y, z'
loop_
 _atom_site_type_symbol
 _atom_site_label
 _atom_site_symmetry_multiplicity
 _atom_site_fract_x
 _atom_site_fract_y
 _atom_site_fract_z
 _atom_site_occupancy
  Tm  Tm0  1  0.87480800  0.12519200  0.75000000  1
  Tm  Tm1  1  0.12519200  0.87480800  0.25000000  1
  Al  Al2  1  0.62572100  0.37427900  0.54747200  1
  Al  Al3  1  0.37427900  0.62572100  0.45252800  1
  Al  Al4  1  0.37427900  0.62572100  0.04747200  1
  Al  Al5  1  0.62572100  0.37427900  0.95252800  1
  Al  Al6  1  0.22687000  0.22687000  0.50000000  1
  Al  Al7  1  0.77313000  0.77313000  0.50000000  1
  Al  Al8  1  0.77313000  0.77313000  0.00000000  1
  Al  Al9  1  0.22687000  0.22687000  0.00000000  1
  Al  Al10  1  0.84337200  0.15662800  0.09632300  1
  Al  Al11  1  0.15662800  0.84337200  0.90367700  1
  Al  Al12  1  0.15662800  0.84337200  0.59632300  1
  Al  Al13  1  0.84337200  0.15662800  0.40367700  1
  Al  Al14  1  0.86590700  0.58472400  0.75000000  1
  Al  Al15  1  0.13409300  0.41527600  0.25000000  1
  Al  Al16  1  0.41527600  0.13409300  0.75000000  1
  Al  Al17  1  0.58472400  0.86590700  0.25000000  1
  Al  Al18  1  0.22026100  0.47653700  0.75000000  1
  Al  Al19  1  0.77973900  0.52346300  0.25000000  1
  Al  Al20  1  0.52346300  0.77973900  0.75000000  1
  Al  Al21  1  0.47653700  0.22026100  0.25000000  1
  Fe  Fe22  1  0.00000000  0.50000000  0.50000000  1
  Fe  Fe23  1  0.00000000  0.50000000  0.00000000  1
  Fe  Fe24  1  0.50000000  0.00000000  0.00000000  1
  Fe  Fe25  1  0.50000000  0.00000000  0.50000000  1
