# generated using pymatgen
data_SmGdSe2
_symmetry_space_group_name_H-M   'P 1'
_cell_length_a   7.25074078
_cell_length_b   7.25074078
_cell_length_c   7.25074139
_cell_angle_alpha   33.30690791
_cell_angle_beta   33.30690791
_cell_angle_gamma   33.30690750
_symmetry_Int_Tables_number   1
_chemical_formula_structural   SmGdSe2
_chemical_formula_sum   'Sm1 Gd1 Se2'
_cell_volume   102.34156862
_cell_formula_units_Z   1
loop_
 _symmetry_equiv_pos_site_id
 _symmetry_equiv_pos_as_xyz
  1  'x, y, z'
loop_
 _atom_site_type_symbol
 _atom_site_label
 _atom_site_symmetry_multiplicity
 _atom_site_fract_x
 _atom_site_fract_y
 _atom_site_fract_z
 _atom_site_occupancy
  Sm  Sm0  1  0.50000000  0.50000000  0.50000000  1
  Gd  Gd1  1  0.00000000  0.00000000  0.00000000  1
  Se  Se2  1  0.25069300  0.25069300  0.25069300  1
  Se  Se3  1  0.74930700  0.74930700  0.74930700  1
