# generated using pymatgen
data_K2Se5
_symmetry_space_group_name_H-M   'P 1'
_cell_length_a   6.67338800
_cell_length_b   6.94830900
_cell_length_c   19.81257100
_cell_angle_alpha   90.00000000
_cell_angle_beta   90.00000000
_cell_angle_gamma   90.00000000
_symmetry_Int_Tables_number   1
_chemical_formula_structural   K2Se5
_chemical_formula_sum   'K8 Se20'
_cell_volume   918.68438734
_cell_formula_units_Z   4
loop_
 _symmetry_equiv_pos_site_id
 _symmetry_equiv_pos_as_xyz
  1  'x, y, z'
loop_
 _atom_site_type_symbol
 _atom_site_label
 _atom_site_symmetry_multiplicity
 _atom_site_fract_x
 _atom_site_fract_y
 _atom_site_fract_z
 _atom_site_occupancy
  K  K0  1  0.85177200  0.06786000  0.50699400  1
  K  K1  1  0.35177200  0.43214000  0.49300600  1
  K  K2  1  0.14822800  0.56786000  0.99300600  1
  K  K3  1  0.64822800  0.93214000  0.00699400  1
  K  K4  1  0.08715700  0.82429300  0.31865900  1
  K  K5  1  0.58715700  0.67570700  0.68134100  1
  K  K6  1  0.91284300  0.32429300  0.18134100  1
  K  K7  1  0.41284300  0.17570700  0.81865900  1
  Se  Se8  1  0.46521000  0.72759100  0.19159700  1
  Se  Se9  1  0.96521000  0.77240900  0.80840300  1
  Se  Se10  1  0.53479000  0.22759100  0.30840300  1
  Se  Se11  1  0.03479000  0.27240900  0.69159700  1
  Se  Se12  1  0.24144300  0.93205200  0.12930000  1
  Se  Se13  1  0.74144300  0.56794800  0.87070000  1
  Se  Se14  1  0.75855700  0.43205200  0.37070000  1
  Se  Se15  1  0.25855700  0.06794800  0.62930000  1
  Se  Se16  1  0.90340700  0.83413800  0.15640900  1
  Se  Se17  1  0.40340700  0.66586200  0.84359100  1
  Se  Se18  1  0.09659300  0.33413800  0.34359100  1
  Se  Se19  1  0.59659300  0.16586200  0.65640900  1
  Se  Se20  1  0.06598800  0.58364900  0.63735400  1
  Se  Se21  1  0.56598800  0.91635100  0.36264600  1
  Se  Se22  1  0.93401200  0.08364900  0.86264600  1
  Se  Se23  1  0.43401200  0.41635100  0.13735400  1
  Se  Se24  1  0.87905500  0.57339500  0.53615100  1
  Se  Se25  1  0.37905500  0.92660500  0.46384900  1
  Se  Se26  1  0.12094500  0.07339500  0.96384900  1
  Se  Se27  1  0.62094500  0.42660500  0.03615100  1
