# generated using pymatgen
data_BaMnN2
_symmetry_space_group_name_H-M   'P 1'
_cell_length_a   6.42796473
_cell_length_b   6.42796473
_cell_length_c   7.79473900
_cell_angle_alpha   90.00000000
_cell_angle_beta   90.00000000
_cell_angle_gamma   126.23144914
_symmetry_Int_Tables_number   1
_chemical_formula_structural   BaMnN2
_chemical_formula_sum   'Ba4 Mn4 N8'
_cell_volume   259.79222829
_cell_formula_units_Z   4
loop_
 _symmetry_equiv_pos_site_id
 _symmetry_equiv_pos_as_xyz
  1  'x, y, z'
loop_
 _atom_site_type_symbol
 _atom_site_label
 _atom_site_symmetry_multiplicity
 _atom_site_fract_x
 _atom_site_fract_y
 _atom_site_fract_z
 _atom_site_occupancy
  Ba  Ba0  1  0.84347600  0.15652400  0.55974600  1
  Ba  Ba1  1  0.15652400  0.84347600  0.44025400  1
  Ba  Ba2  1  0.65652400  0.34347600  0.05974600  1
  Ba  Ba3  1  0.34347600  0.65652400  0.94025400  1
  Mn  Mn4  1  0.54972900  0.45027100  0.63376400  1
  Mn  Mn5  1  0.45027100  0.54972900  0.36623600  1
  Mn  Mn6  1  0.95027100  0.04972900  0.13376400  1
  Mn  Mn7  1  0.04972900  0.95027100  0.86623600  1
  N  N8  1  0.88958200  0.11041800  0.91510900  1
  N  N9  1  0.11041800  0.88958200  0.08489100  1
  N  N10  1  0.61041800  0.38958200  0.41510900  1
  N  N11  1  0.38958200  0.61041800  0.58489100  1
  N  N12  1  0.33515000  0.16485000  0.75000000  1
  N  N13  1  0.16485000  0.33515000  0.25000000  1
  N  N14  1  0.66485000  0.83515000  0.25000000  1
  N  N15  1  0.83515000  0.66485000  0.75000000  1
