# generated using pymatgen
data_Rb4Mo5(PO11)2
_symmetry_space_group_name_H-M   'P 1'
_cell_length_a   10.68007587
_cell_length_b   10.68007587
_cell_length_c   17.77937900
_cell_angle_alpha   90.00000000
_cell_angle_beta   90.00000000
_cell_angle_gamma   143.38465573
_symmetry_Int_Tables_number   1
_chemical_formula_structural   Rb4Mo5(PO11)2
_chemical_formula_sum   'Rb8 Mo10 P4 O44'
_cell_volume   1209.57254081
_cell_formula_units_Z   2
loop_
 _symmetry_equiv_pos_site_id
 _symmetry_equiv_pos_as_xyz
  1  'x, y, z'
loop_
 _atom_site_type_symbol
 _atom_site_label
 _atom_site_symmetry_multiplicity
 _atom_site_fract_x
 _atom_site_fract_y
 _atom_site_fract_z
 _atom_site_occupancy
  Rb  Rb0  1  0.04025600  0.04025600  0.00000000  1
  Rb  Rb1  1  0.95974400  0.95974400  0.50000000  1
  Rb  Rb2  1  0.70854100  0.23421600  0.60093300  1
  Rb  Rb3  1  0.23421600  0.70854100  0.39906700  1
  Rb  Rb4  1  0.29145900  0.76578400  0.10093300  1
  Rb  Rb5  1  0.76578400  0.29145900  0.89906700  1
  Rb  Rb6  1  0.08294500  0.91705500  0.75000000  1
  Rb  Rb7  1  0.91705500  0.08294500  0.25000000  1
  Mo  Mo8  1  0.29490300  0.57325200  0.59320300  1
  Mo  Mo9  1  0.57325200  0.29490300  0.40679700  1
  Mo  Mo10  1  0.70509700  0.42674800  0.09320300  1
  Mo  Mo11  1  0.42674800  0.70509700  0.90679700  1
  Mo  Mo12  1  0.26396500  0.73603500  0.75000000  1
  Mo  Mo13  1  0.73603500  0.26396500  0.25000000  1
  Mo  Mo14  1  0.51901000  0.47187700  0.85622700  1
  Mo  Mo15  1  0.47187600  0.51901000  0.14377300  1
  Mo  Mo16  1  0.48099000  0.52812400  0.35622700  1
  Mo  Mo17  1  0.52812300  0.48099000  0.64377300  1
  P  P18  1  0.68998700  0.87267600  0.73456700  1
  P  P19  1  0.87267600  0.68998700  0.26543300  1
  P  P20  1  0.31001300  0.12732400  0.23456700  1
  P  P21  1  0.12732400  0.31001300  0.76543300  1
  O  O22  1  0.77159000  0.83242500  0.68562000  1
  O  O23  1  0.83242500  0.77159000  0.31438000  1
  O  O24  1  0.22841000  0.16757500  0.18562000  1
  O  O25  1  0.16757500  0.22841000  0.81438000  1
  O  O26  1  0.61371500  0.76308000  0.81183000  1
  O  O27  1  0.76308000  0.61371500  0.18817000  1
  O  O28  1  0.38628500  0.23692000  0.31183000  1
  O  O29  1  0.23692000  0.38628500  0.68817000  1
  O  O30  1  0.87706900  0.12293100  0.75000000  1
  O  O31  1  0.12293100  0.87706900  0.25000000  1
  O  O32  1  0.52268500  0.81878900  0.69456700  1
  O  O33  1  0.81878900  0.52268500  0.30543300  1
  O  O34  1  0.47731500  0.18121100  0.19456700  1
  O  O35  1  0.18121100  0.47731500  0.80543300  1
  O  O36  1  0.48244700  0.58259800  0.57494100  1
  O  O37  1  0.58259800  0.48244700  0.42505900  1
  O  O38  1  0.51755300  0.41740200  0.07494100  1
  O  O39  1  0.41740200  0.51755300  0.92505900  1
  O  O40  1  0.07890200  0.35963100  0.53805300  1
  O  O41  1  0.35963100  0.07890200  0.46194700  1
  O  O42  1  0.92109800  0.64036900  0.03805300  1
  O  O43  1  0.64036900  0.92109800  0.96194700  1
  O  O44  1  0.42194100  0.79039600  0.54009700  1
  O  O45  1  0.79039600  0.42194100  0.45990300  1
  O  O46  1  0.57805900  0.20960400  0.04009700  1
  O  O47  1  0.20960400  0.57805900  0.95990300  1
  O  O48  1  0.44343800  0.86186700  0.83747700  1
  O  O49  1  0.86186700  0.44343800  0.16252300  1
  O  O50  1  0.55656200  0.13813300  0.33747700  1
  O  O51  1  0.13813300  0.55656200  0.66252300  1
  O  O52  1  0.38384400  0.96502700  0.71122300  1
  O  O53  1  0.96502700  0.38384400  0.28877700  1
  O  O54  1  0.61615600  0.03497300  0.21122300  1
  O  O55  1  0.03497300  0.61615600  0.78877700  1
  O  O56  1  0.41305300  0.24851300  0.89195500  1
  O  O57  1  0.24851300  0.41305300  0.10804500  1
  O  O58  1  0.58694700  0.75148700  0.39195500  1
  O  O59  1  0.75148700  0.58694700  0.60804500  1
  O  O60  1  0.54467900  0.45532100  0.75000000  1
  O  O61  1  0.45532100  0.54467900  0.25000000  1
  O  O62  1  0.78165300  0.67198400  0.88333000  1
  O  O63  1  0.67198400  0.78165300  0.11667000  1
  O  O64  1  0.21834700  0.32801600  0.38333000  1
  O  O65  1  0.32801600  0.21834700  0.61667000  1
