# generated using pymatgen
data_EuAg(WO4)2
_symmetry_space_group_name_H-M   'P 1'
_cell_length_a   7.55169242
_cell_length_b   7.55169242
_cell_length_c   7.46753430
_cell_angle_alpha   65.51367922
_cell_angle_beta   65.51367922
_cell_angle_gamma   94.10381862
_symmetry_Int_Tables_number   1
_chemical_formula_structural   EuAg(WO4)2
_chemical_formula_sum   'Eu2 Ag2 W4 O16'
_cell_volume   337.13132447
_cell_formula_units_Z   2
loop_
 _symmetry_equiv_pos_site_id
 _symmetry_equiv_pos_as_xyz
  1  'x, y, z'
loop_
 _atom_site_type_symbol
 _atom_site_label
 _atom_site_symmetry_multiplicity
 _atom_site_fract_x
 _atom_site_fract_y
 _atom_site_fract_z
 _atom_site_occupancy
  Eu  Eu0  1  0.69917200  0.30082800  0.00000000  1
  Eu  Eu1  1  0.30082800  0.69917200  0.00000000  1
  Ag  Ag2  1  0.69156800  0.69156800  0.48572700  1
  Ag  Ag3  1  0.30843200  0.30843200  0.51427300  1
  W  W4  1  0.21204100  0.21204100  0.03304200  1
  W  W5  1  0.78795900  0.78795900  0.96695800  1
  W  W6  1  0.83624300  0.16375700  0.50000000  1
  W  W7  1  0.16375700  0.83624300  0.50000000  1
  O  O8  1  0.34599400  0.09990500  0.24552700  1
  O  O9  1  0.65400600  0.90009500  0.75447300  1
  O  O10  1  0.90009500  0.65400600  0.75447300  1
  O  O11  1  0.09990500  0.34599400  0.24552700  1
  O  O12  1  0.68421200  0.21454300  0.36011600  1
  O  O13  1  0.31578800  0.78545700  0.63988400  1
  O  O14  1  0.78545700  0.31578800  0.63988400  1
  O  O15  1  0.21454300  0.68421200  0.36011600  1
  O  O16  1  0.69979600  0.95253100  0.08546300  1
  O  O17  1  0.30020400  0.04746900  0.91453700  1
  O  O18  1  0.04746900  0.30020400  0.91453700  1
  O  O19  1  0.95253100  0.69979600  0.08546300  1
  O  O20  1  0.97805500  0.97805500  0.34299600  1
  O  O21  1  0.02194500  0.02194500  0.65700400  1
  O  O22  1  0.55858000  0.55858000  0.13745200  1
  O  O23  1  0.44142000  0.44142000  0.86254800  1
