# generated using pymatgen
data_Nd3CuSnSe7
_symmetry_space_group_name_H-M   'P 1'
_cell_length_a   10.61803161
_cell_length_b   10.61803161
_cell_length_c   6.39032700
_cell_angle_alpha   90.00000000
_cell_angle_beta   90.00000000
_cell_angle_gamma   119.99999757
_symmetry_Int_Tables_number   1
_chemical_formula_structural   Nd3CuSnSe7
_chemical_formula_sum   'Nd6 Cu2 Sn2 Se14'
_cell_volume   623.93845358
_cell_formula_units_Z   2
loop_
 _symmetry_equiv_pos_site_id
 _symmetry_equiv_pos_as_xyz
  1  'x, y, z'
loop_
 _atom_site_type_symbol
 _atom_site_label
 _atom_site_symmetry_multiplicity
 _atom_site_fract_x
 _atom_site_fract_y
 _atom_site_fract_z
 _atom_site_occupancy
  Nd  Nd0  1  0.64426500  0.86145900  0.95752800  1
  Nd  Nd1  1  0.78280500  0.64426500  0.45752800  1
  Nd  Nd2  1  0.86145900  0.21719500  0.45752800  1
  Nd  Nd3  1  0.13854100  0.78280500  0.95752800  1
  Nd  Nd4  1  0.21719500  0.35573500  0.95752800  1
  Nd  Nd5  1  0.35573500  0.13854100  0.45752800  1
  Cu  Cu6  1  0.00000000  0.00000000  0.51341300  1
  Cu  Cu7  1  0.00000000  0.00000000  0.01341300  1
  Sn  Sn8  1  0.66666700  0.33333300  0.88083900  1
  Sn  Sn9  1  0.33333300  0.66666700  0.38083900  1
  Se  Se10  1  0.48619300  0.56990100  0.20610200  1
  Se  Se11  1  0.91629200  0.48619300  0.70610200  1
  Se  Se12  1  0.56990100  0.08370800  0.70610200  1
  Se  Se13  1  0.43009900  0.91629200  0.20610200  1
  Se  Se14  1  0.33333300  0.66666700  0.77657000  1
  Se  Se15  1  0.66666700  0.33333300  0.27657000  1
  Se  Se16  1  0.08370800  0.51380700  0.20610200  1
  Se  Se17  1  0.51380700  0.43009900  0.70610200  1
  Se  Se18  1  0.25790300  0.10292100  0.99842900  1
  Se  Se19  1  0.15498200  0.25790300  0.49842900  1
  Se  Se20  1  0.10292100  0.84501800  0.49842900  1
  Se  Se21  1  0.89707900  0.15498200  0.99842900  1
  Se  Se22  1  0.84501800  0.74209700  0.99842900  1
  Se  Se23  1  0.74209700  0.89707900  0.49842900  1
