# generated using pymatgen
data_Na3CrO4
_symmetry_space_group_name_H-M   'P 1'
_cell_length_a   5.66152300
_cell_length_b   7.14858000
_cell_length_c   12.35139200
_cell_angle_alpha   90.00000000
_cell_angle_beta   90.00000000
_cell_angle_gamma   90.00000000
_symmetry_Int_Tables_number   1
_chemical_formula_structural   Na3CrO4
_chemical_formula_sum   'Na12 Cr4 O16'
_cell_volume   499.88368539
_cell_formula_units_Z   4
loop_
 _symmetry_equiv_pos_site_id
 _symmetry_equiv_pos_as_xyz
  1  'x, y, z'
loop_
 _atom_site_type_symbol
 _atom_site_label
 _atom_site_symmetry_multiplicity
 _atom_site_fract_x
 _atom_site_fract_y
 _atom_site_fract_z
 _atom_site_occupancy
  Na  Na0  1  0.79659800  0.00059200  0.83669600  1
  Na  Na1  1  0.20340200  0.99940800  0.16330400  1
  Na  Na2  1  0.29659800  0.99940800  0.66330400  1
  Na  Na3  1  0.20340200  0.50059200  0.16330400  1
  Na  Na4  1  0.70340200  0.00059200  0.33669600  1
  Na  Na5  1  0.79659800  0.49940800  0.83669600  1
  Na  Na6  1  0.70340200  0.49940800  0.33669600  1
  Na  Na7  1  0.29659800  0.50059200  0.66330400  1
  Na  Na8  1  0.21186400  0.75000000  0.92419400  1
  Na  Na9  1  0.78813600  0.25000000  0.07580600  1
  Na  Na10  1  0.71186400  0.25000000  0.57580600  1
  Na  Na11  1  0.28813600  0.75000000  0.42419400  1
  Cr  Cr12  1  0.80626600  0.75000000  0.58786200  1
  Cr  Cr13  1  0.19373400  0.25000000  0.41213800  1
  Cr  Cr14  1  0.30626600  0.25000000  0.91213800  1
  Cr  Cr15  1  0.69373400  0.75000000  0.08786200  1
  O  O16  1  0.11155700  0.75000000  0.58839300  1
  O  O17  1  0.88844300  0.25000000  0.41160700  1
  O  O18  1  0.61155700  0.25000000  0.91160700  1
  O  O19  1  0.38844300  0.75000000  0.08839300  1
  O  O20  1  0.70766700  0.55240300  0.65663400  1
  O  O21  1  0.29233300  0.44759700  0.34336600  1
  O  O22  1  0.20766700  0.44759700  0.84336600  1
  O  O23  1  0.29233300  0.05240300  0.34336600  1
  O  O24  1  0.79233300  0.55240300  0.15663400  1
  O  O25  1  0.70766700  0.94759700  0.65663400  1
  O  O26  1  0.79233300  0.94759700  0.15663400  1
  O  O27  1  0.20766700  0.05240300  0.84336600  1
  O  O28  1  0.78768800  0.75000000  0.95449900  1
  O  O29  1  0.21231200  0.25000000  0.04550100  1
  O  O30  1  0.28768800  0.25000000  0.54550100  1
  O  O31  1  0.71231200  0.75000000  0.45449900  1
