# generated using pymatgen
data_SiNi6Ge
_symmetry_space_group_name_H-M   'P 1'
_cell_length_a   3.54200800
_cell_length_b   3.54200800
_cell_length_c   7.04930100
_cell_angle_alpha   90.00000000
_cell_angle_beta   90.00000000
_cell_angle_gamma   90.00000000
_symmetry_Int_Tables_number   1
_chemical_formula_structural   SiNi6Ge
_chemical_formula_sum   'Si1 Ni6 Ge1'
_cell_volume   88.43926621
_cell_formula_units_Z   1
loop_
 _symmetry_equiv_pos_site_id
 _symmetry_equiv_pos_as_xyz
  1  'x, y, z'
loop_
 _atom_site_type_symbol
 _atom_site_label
 _atom_site_symmetry_multiplicity
 _atom_site_fract_x
 _atom_site_fract_y
 _atom_site_fract_z
 _atom_site_occupancy
  Si  Si0  1  0.00000000  0.00000000  0.50000000  1
  Ni  Ni1  1  0.50000000  0.50000000  0.00000000  1
  Ni  Ni2  1  0.50000000  0.50000000  0.50000000  1
  Ni  Ni3  1  0.50000000  0.00000000  0.25728800  1
  Ni  Ni4  1  0.50000000  0.00000000  0.74271200  1
  Ni  Ni5  1  0.00000000  0.50000000  0.25728800  1
  Ni  Ni6  1  0.00000000  0.50000000  0.74271200  1
  Ge  Ge7  1  0.00000000  0.00000000  0.00000000  1
