# generated using pymatgen
data_Ca11Sn3C8
_symmetry_space_group_name_H-M   'P 1'
_cell_length_a   10.72332700
_cell_length_b   13.25063200
_cell_length_c   14.27899588
_cell_angle_alpha   74.31482811
_cell_angle_beta   90.00000000
_cell_angle_gamma   90.00000000
_symmetry_Int_Tables_number   1
_chemical_formula_structural   Ca11Sn3C8
_chemical_formula_sum   'Ca44 Sn12 C32'
_cell_volume   1953.36155757
_cell_formula_units_Z   4
loop_
 _symmetry_equiv_pos_site_id
 _symmetry_equiv_pos_as_xyz
  1  'x, y, z'
loop_
 _atom_site_type_symbol
 _atom_site_label
 _atom_site_symmetry_multiplicity
 _atom_site_fract_x
 _atom_site_fract_y
 _atom_site_fract_z
 _atom_site_occupancy
  Ca  Ca0  1  0.75331300  0.98141200  0.27398600  1
  Ca  Ca1  1  0.25331300  0.01858800  0.22601400  1
  Ca  Ca2  1  0.24668700  0.01858800  0.72601400  1
  Ca  Ca3  1  0.74668700  0.98141200  0.77398600  1
  Ca  Ca4  1  0.27009500  0.97431600  0.48555600  1
  Ca  Ca5  1  0.77009500  0.02568400  0.01444400  1
  Ca  Ca6  1  0.72990500  0.02568400  0.51444400  1
  Ca  Ca7  1  0.22990500  0.97431600  0.98555600  1
  Ca  Ca8  1  0.50424300  0.89220700  0.14636200  1
  Ca  Ca9  1  0.00424300  0.10779300  0.35363800  1
  Ca  Ca10  1  0.49575700  0.10779300  0.85363800  1
  Ca  Ca11  1  0.99575700  0.89220700  0.64636200  1
  Ca  Ca12  1  0.00362200  0.85602100  0.16486600  1
  Ca  Ca13  1  0.50362200  0.14397900  0.33513400  1
  Ca  Ca14  1  0.99637800  0.14397900  0.83513400  1
  Ca  Ca15  1  0.49637800  0.85602100  0.66486600  1
  Ca  Ca16  1  0.70103000  0.73930100  0.03952300  1
  Ca  Ca17  1  0.20103000  0.26069900  0.46047700  1
  Ca  Ca18  1  0.29897000  0.26069900  0.96047700  1
  Ca  Ca19  1  0.79897000  0.73930100  0.53952300  1
  Ca  Ca20  1  0.30218100  0.73449500  0.34237900  1
  Ca  Ca21  1  0.80218100  0.26550500  0.15762100  1
  Ca  Ca22  1  0.69781900  0.26550500  0.65762100  1
  Ca  Ca23  1  0.19781900  0.73449500  0.84237900  1
  Ca  Ca24  1  0.34255700  0.69440100  0.07217100  1
  Ca  Ca25  1  0.84255700  0.30559900  0.42782900  1
  Ca  Ca26  1  0.65744300  0.30559900  0.92782900  1
  Ca  Ca27  1  0.15744300  0.69440100  0.57217100  1
  Ca  Ca28  1  0.00664800  0.60969800  0.09495600  1
  Ca  Ca29  1  0.50664800  0.39030200  0.40504400  1
  Ca  Ca30  1  0.99335200  0.39030200  0.90504400  1
  Ca  Ca31  1  0.49335200  0.60969800  0.59495600  1
  Ca  Ca32  1  0.24798500  0.49550700  0.27007700  1
  Ca  Ca33  1  0.74798500  0.50449300  0.22992300  1
  Ca  Ca34  1  0.75201500  0.50449300  0.72992300  1
  Ca  Ca35  1  0.25201500  0.49550700  0.77007700  1
  Ca  Ca36  1  0.49233900  0.38987400  0.14884200  1
  Ca  Ca37  1  0.99233900  0.61012600  0.35115800  1
  Ca  Ca38  1  0.50766100  0.61012600  0.85115800  1
  Ca  Ca39  1  0.00766100  0.38987400  0.64884200  1
  Ca  Ca40  1  0.16332100  0.29732700  0.17137200  1
  Ca  Ca41  1  0.66332100  0.70267300  0.32862800  1
  Ca  Ca42  1  0.83667900  0.70267300  0.82862800  1
  Ca  Ca43  1  0.33667900  0.29732700  0.67137200  1
  Sn  Sn44  1  0.51855400  0.86552300  0.41562800  1
  Sn  Sn45  1  0.01855400  0.13447700  0.08437200  1
  Sn  Sn46  1  0.48144600  0.13447700  0.58437200  1
  Sn  Sn47  1  0.98144600  0.86552300  0.91562800  1
  Sn  Sn48  1  0.01953500  0.85564400  0.40058600  1
  Sn  Sn49  1  0.51953500  0.14435600  0.09941400  1
  Sn  Sn50  1  0.98046500  0.14435600  0.59941400  1
  Sn  Sn51  1  0.48046500  0.85564400  0.90058600  1
  Sn  Sn52  1  0.24853200  0.49806400  0.00039800  1
  Sn  Sn53  1  0.74853200  0.50193600  0.49960200  1
  Sn  Sn54  1  0.75146800  0.50193600  0.99960200  1
  Sn  Sn55  1  0.25146800  0.49806400  0.50039800  1
  C  C56  1  0.34510300  0.32063900  0.29675100  1
  C  C57  1  0.84510300  0.67936100  0.20324900  1
  C  C58  1  0.65489700  0.67936100  0.70324900  1
  C  C59  1  0.15489700  0.32063900  0.79675100  1
  C  C60  1  0.79512200  0.77425000  0.18349300  1
  C  C61  1  0.29512200  0.22575000  0.31650700  1
  C  C62  1  0.20487800  0.22575000  0.81650700  1
  C  C63  1  0.70487800  0.77425000  0.68349300  1
  C  C64  1  0.73966500  0.86702800  0.15834900  1
  C  C65  1  0.23966500  0.13297200  0.34165100  1
  C  C66  1  0.26033500  0.13297200  0.84165100  1
  C  C67  1  0.76033500  0.86702800  0.65834900  1
  C  C68  1  0.27007700  0.85956800  0.15833200  1
  C  C69  1  0.77007700  0.14043200  0.34166800  1
  C  C70  1  0.72992300  0.14043200  0.84166800  1
  C  C71  1  0.22992300  0.85956800  0.65833200  1
  C  C72  1  0.21069100  0.76818100  0.17979300  1
  C  C73  1  0.71069100  0.23181900  0.32020700  1
  C  C74  1  0.78930900  0.23181900  0.82020700  1
  C  C75  1  0.28930900  0.76818100  0.67979300  1
  C  C76  1  0.15846300  0.67411100  0.20876700  1
  C  C77  1  0.65846300  0.32588900  0.29123300  1
  C  C78  1  0.84153700  0.32588900  0.79123300  1
  C  C79  1  0.34153700  0.67411100  0.70876700  1
  C  C80  1  0.49025700  0.56758900  0.23584600  1
  C  C81  1  0.99025700  0.43241100  0.26415400  1
  C  C82  1  0.50974300  0.43241100  0.76415400  1
  C  C83  1  0.00974300  0.56758900  0.73584600  1
  C  C84  1  0.51679500  0.66401200  0.20145400  1
  C  C85  1  0.01679500  0.33598800  0.29854600  1
  C  C86  1  0.48320500  0.33598800  0.79854600  1
  C  C87  1  0.98320500  0.66401200  0.70145400  1
