# generated using pymatgen
data_Cs3UF6
_symmetry_space_group_name_H-M   'P 1'
_cell_length_a   7.38697730
_cell_length_b   7.38697730
_cell_length_c   7.38697730
_cell_angle_alpha   118.56754038
_cell_angle_beta   118.56754038
_cell_angle_gamma   92.49953276
_symmetry_Int_Tables_number   1
_chemical_formula_structural   Cs3UF6
_chemical_formula_sum   'Cs3 U1 F6'
_cell_volume   290.89836107
_cell_formula_units_Z   1
loop_
 _symmetry_equiv_pos_site_id
 _symmetry_equiv_pos_as_xyz
  1  'x, y, z'
loop_
 _atom_site_type_symbol
 _atom_site_label
 _atom_site_symmetry_multiplicity
 _atom_site_fract_x
 _atom_site_fract_y
 _atom_site_fract_z
 _atom_site_occupancy
  Cs  Cs0  1  0.75000000  0.25000000  0.50000000  1
  Cs  Cs1  1  0.25000000  0.75000000  0.50000000  1
  Cs  Cs2  1  0.50000000  0.50000000  0.00000000  1
  U  U3  1  0.00000000  0.00000000  0.00000000  1
  F  F4  1  0.00000000  0.29524400  0.29524400  1
  F  F5  1  0.00000000  0.70475600  0.70475600  1
  F  F6  1  0.29524400  0.00000000  0.29524400  1
  F  F7  1  0.70475600  0.00000000  0.70475600  1
  F  F8  1  0.22727500  0.22727500  0.00000000  1
  F  F9  1  0.77272500  0.77272500  0.00000000  1
