# generated using pymatgen
data_Fe3P4H12(NO8)2
_symmetry_space_group_name_H-M   'P 1'
_cell_length_a   8.34681900
_cell_length_b   9.49482756
_cell_length_c   9.48248942
_cell_angle_alpha   99.73883947
_cell_angle_beta   90.00000000
_cell_angle_gamma   90.00000000
_symmetry_Int_Tables_number   1
_chemical_formula_structural   Fe3P4H12(NO8)2
_chemical_formula_sum   'Fe6 P8 H24 N4 O32'
_cell_volume   740.67264358
_cell_formula_units_Z   2
loop_
 _symmetry_equiv_pos_site_id
 _symmetry_equiv_pos_as_xyz
  1  'x, y, z'
loop_
 _atom_site_type_symbol
 _atom_site_label
 _atom_site_symmetry_multiplicity
 _atom_site_fract_x
 _atom_site_fract_y
 _atom_site_fract_z
 _atom_site_occupancy
  Fe  Fe0  1  0.36091800  0.13088600  0.99534000  1
  Fe  Fe1  1  0.86091800  0.86911400  0.50466000  1
  Fe  Fe2  1  0.63908200  0.86911400  0.00466000  1
  Fe  Fe3  1  0.13908200  0.13088600  0.49534000  1
  Fe  Fe4  1  0.00000000  0.00000000  0.00000000  1
  Fe  Fe5  1  0.50000000  0.00000000  0.50000000  1
  P  P6  1  0.79916200  0.09404400  0.29002400  1
  P  P7  1  0.29916200  0.90595600  0.20997600  1
  P  P8  1  0.20083800  0.90595600  0.70997600  1
  P  P9  1  0.70083800  0.09404400  0.79002400  1
  P  P10  1  0.05237400  0.29711500  0.23492000  1
  P  P11  1  0.55237400  0.70288500  0.26508000  1
  P  P12  1  0.94762600  0.70288500  0.76508000  1
  P  P13  1  0.44762600  0.29711500  0.73492000  1
  H  H14  1  0.52889200  0.21353600  0.23838600  1
  H  H15  1  0.02889200  0.78646400  0.26161400  1
  H  H16  1  0.47110800  0.78646400  0.76161400  1
  H  H17  1  0.97110800  0.21353600  0.73838600  1
  H  H18  1  0.48204500  0.36706500  0.20155800  1
  H  H19  1  0.98204500  0.63293500  0.29844200  1
  H  H20  1  0.51795500  0.63293500  0.79844200  1
  H  H21  1  0.01795500  0.36706500  0.70155800  1
  H  H22  1  0.71127900  0.54157500  0.05324700  1
  H  H23  1  0.21127900  0.45842500  0.44675300  1
  H  H24  1  0.28872100  0.45842500  0.94675300  1
  H  H25  1  0.78872100  0.54157500  0.55324700  1
  H  H26  1  0.70968000  0.35817700  0.00843500  1
  H  H27  1  0.20968000  0.64182300  0.49156500  1
  H  H28  1  0.29032000  0.64182300  0.99156500  1
  H  H29  1  0.79032000  0.35817700  0.50843500  1
  H  H30  1  0.82329000  0.45831600  0.91430200  1
  H  H31  1  0.32329000  0.54168400  0.58569800  1
  H  H32  1  0.17671000  0.54168400  0.08569800  1
  H  H33  1  0.67671000  0.45831600  0.41430200  1
  H  H34  1  0.87456400  0.44391000  0.08425000  1
  H  H35  1  0.37456400  0.55609000  0.41575000  1
  H  H36  1  0.12543600  0.55609000  0.91575000  1
  H  H37  1  0.62543600  0.44391000  0.58425000  1
  N  N38  1  0.77785000  0.44850300  0.01366700  1
  N  N39  1  0.27785000  0.55149700  0.48633300  1
  N  N40  1  0.22215000  0.55149700  0.98633300  1
  N  N41  1  0.72215000  0.44850300  0.51366700  1
  O  O42  1  0.14436700  0.29843800  0.37526400  1
  O  O43  1  0.64436700  0.70156200  0.12473600  1
  O  O44  1  0.85563300  0.70156200  0.62473600  1
  O  O45  1  0.35563300  0.29843800  0.87526400  1
  O  O46  1  0.86731100  0.24915000  0.26484900  1
  O  O47  1  0.36731100  0.75085000  0.23515100  1
  O  O48  1  0.13268900  0.75085000  0.73515100  1
  O  O49  1  0.63268900  0.24915000  0.76484900  1
  O  O50  1  0.63362500  0.12585300  0.35662700  1
  O  O51  1  0.13362500  0.87414700  0.14337300  1
  O  O52  1  0.36637500  0.87414700  0.64337300  1
  O  O53  1  0.86637500  0.12585300  0.85662700  1
  O  O54  1  0.79644200  0.00164700  0.13959100  1
  O  O55  1  0.29644200  0.99835300  0.36040900  1
  O  O56  1  0.20355800  0.99835300  0.86040900  1
  O  O57  1  0.70355800  0.00164700  0.63959100  1
  O  O58  1  0.11670100  0.18730900  0.10958700  1
  O  O59  1  0.61670100  0.81269100  0.39041300  1
  O  O60  1  0.88329900  0.81269100  0.89041300  1
  O  O61  1  0.38329900  0.18730900  0.60958700  1
  O  O62  1  0.91895900  0.03886400  0.39058100  1
  O  O63  1  0.41895900  0.96113600  0.10941900  1
  O  O64  1  0.08104100  0.96113600  0.60941900  1
  O  O65  1  0.58104100  0.03886400  0.89058100  1
  O  O66  1  0.03169800  0.44782900  0.20063700  1
  O  O67  1  0.53169800  0.55217100  0.29936300  1
  O  O68  1  0.96830200  0.55217100  0.79936300  1
  O  O69  1  0.46830200  0.44782900  0.70063700  1
  O  O70  1  0.48822700  0.26435700  0.16115000  1
  O  O71  1  0.98822700  0.73564300  0.33885000  1
  O  O72  1  0.51177300  0.73564300  0.83885000  1
  O  O73  1  0.01177300  0.26435700  0.66115000  1
