# generated using pymatgen
data_Ba2P2O7
_symmetry_space_group_name_H-M   'P 1'
_cell_length_a   5.69576500
_cell_length_b   9.42273500
_cell_length_c   14.02823100
_cell_angle_alpha   90.00000000
_cell_angle_beta   90.00000000
_cell_angle_gamma   90.00000000
_symmetry_Int_Tables_number   1
_chemical_formula_structural   Ba2P2O7
_chemical_formula_sum   'Ba8 P8 O28'
_cell_volume   752.89072790
_cell_formula_units_Z   4
loop_
 _symmetry_equiv_pos_site_id
 _symmetry_equiv_pos_as_xyz
  1  'x, y, z'
loop_
 _atom_site_type_symbol
 _atom_site_label
 _atom_site_symmetry_multiplicity
 _atom_site_fract_x
 _atom_site_fract_y
 _atom_site_fract_z
 _atom_site_occupancy
  Ba  Ba0  1  0.25000000  0.36022700  0.08266300  1
  Ba  Ba1  1  0.25000000  0.86022700  0.41733700  1
  Ba  Ba2  1  0.75000000  0.63977300  0.91733700  1
  Ba  Ba3  1  0.75000000  0.13977300  0.58266300  1
  Ba  Ba4  1  0.25000000  0.34113100  0.75546900  1
  Ba  Ba5  1  0.25000000  0.84113100  0.74453100  1
  Ba  Ba6  1  0.75000000  0.65886900  0.24453100  1
  Ba  Ba7  1  0.75000000  0.15886900  0.25546900  1
  P  P8  1  0.25000000  0.71808800  0.04261300  1
  P  P9  1  0.25000000  0.21808800  0.45738700  1
  P  P10  1  0.75000000  0.28191200  0.95738700  1
  P  P11  1  0.75000000  0.78191200  0.54261300  1
  P  P12  1  0.25000000  0.95272500  0.18519400  1
  P  P13  1  0.25000000  0.45272500  0.31480600  1
  P  P14  1  0.75000000  0.04727500  0.81480600  1
  P  P15  1  0.75000000  0.54727500  0.68519400  1
  O  O16  1  0.02739700  0.64352700  0.07998600  1
  O  O17  1  0.47260300  0.14352700  0.42001400  1
  O  O18  1  0.52739700  0.35647300  0.92001400  1
  O  O19  1  0.97260300  0.85647300  0.57998600  1
  O  O20  1  0.97260300  0.35647300  0.92001400  1
  O  O21  1  0.52739700  0.85647300  0.57998600  1
  O  O22  1  0.47260300  0.64352700  0.07998600  1
  O  O23  1  0.02739700  0.14352700  0.42001400  1
  O  O24  1  0.25000000  0.72773800  0.93326500  1
  O  O25  1  0.25000000  0.22773800  0.56673500  1
  O  O26  1  0.75000000  0.27226200  0.06673500  1
  O  O27  1  0.75000000  0.77226200  0.43326500  1
  O  O28  1  0.25000000  0.88130300  0.07916200  1
  O  O29  1  0.25000000  0.38130300  0.42083800  1
  O  O30  1  0.75000000  0.11869700  0.92083800  1
  O  O31  1  0.75000000  0.61869700  0.57916200  1
  O  O32  1  0.02662700  0.90434500  0.23775700  1
  O  O33  1  0.47337300  0.40434500  0.26224300  1
  O  O34  1  0.52662700  0.09565500  0.76224300  1
  O  O35  1  0.97337300  0.59565500  0.73775700  1
  O  O36  1  0.97337300  0.09565500  0.76224300  1
  O  O37  1  0.52662700  0.59565500  0.73775700  1
  O  O38  1  0.47337300  0.90434500  0.23775700  1
  O  O39  1  0.02662700  0.40434500  0.26224300  1
  O  O40  1  0.25000000  0.11253200  0.16730500  1
  O  O41  1  0.25000000  0.61253200  0.33269500  1
  O  O42  1  0.75000000  0.88746800  0.83269500  1
  O  O43  1  0.75000000  0.38746800  0.66730500  1
