# generated using pymatgen
data_Dy3Ga2
_symmetry_space_group_name_H-M   'P 1'
_cell_length_a   11.11638146
_cell_length_b   11.11638146
_cell_length_c   11.11638146
_cell_angle_alpha   116.86612098
_cell_angle_beta   116.86612098
_cell_angle_gamma   95.51954954
_symmetry_Int_Tables_number   1
_chemical_formula_structural   Dy3Ga2
_chemical_formula_sum   'Dy24 Ga16'
_cell_volume   1012.27616904
_cell_formula_units_Z   8
loop_
 _symmetry_equiv_pos_site_id
 _symmetry_equiv_pos_as_xyz
  1  'x, y, z'
loop_
 _atom_site_type_symbol
 _atom_site_label
 _atom_site_symmetry_multiplicity
 _atom_site_fract_x
 _atom_site_fract_y
 _atom_site_fract_z
 _atom_site_occupancy
  Dy  Dy0  1  0.14664500  0.64664500  0.50000000  1
  Dy  Dy1  1  0.64664500  0.14664500  0.50000000  1
  Dy  Dy2  1  0.85335500  0.35335500  0.50000000  1
  Dy  Dy3  1  0.35335500  0.85335500  0.50000000  1
  Dy  Dy4  1  0.66837300  0.16837300  0.83674600  1
  Dy  Dy5  1  0.33162700  0.83162700  0.16325400  1
  Dy  Dy6  1  0.16837300  0.33162700  0.50000000  1
  Dy  Dy7  1  0.83162700  0.66837300  0.50000000  1
  Dy  Dy8  1  0.06702200  0.93143900  0.27076600  1
  Dy  Dy9  1  0.66067300  0.79625600  0.72923400  1
  Dy  Dy10  1  0.56702200  0.29625600  0.13558300  1
  Dy  Dy11  1  0.16067300  0.43143900  0.86441700  1
  Dy  Dy12  1  0.79625600  0.06702200  0.13558300  1
  Dy  Dy13  1  0.93143900  0.66067300  0.86441700  1
  Dy  Dy14  1  0.43143900  0.56702200  0.27076600  1
  Dy  Dy15  1  0.29625600  0.16067300  0.72923400  1
  Dy  Dy16  1  0.93297800  0.06856100  0.72923400  1
  Dy  Dy17  1  0.33932700  0.20374400  0.27076600  1
  Dy  Dy18  1  0.43297800  0.70374400  0.86441700  1
  Dy  Dy19  1  0.83932700  0.56856100  0.13558300  1
  Dy  Dy20  1  0.20374400  0.93297800  0.86441700  1
  Dy  Dy21  1  0.06856100  0.33932700  0.13558300  1
  Dy  Dy22  1  0.56856100  0.43297800  0.72923400  1
  Dy  Dy23  1  0.70374400  0.83932700  0.27076600  1
  Ga  Ga24  1  0.75000000  0.75000000  0.00000000  1
  Ga  Ga25  1  0.25000000  0.25000000  0.00000000  1
  Ga  Ga26  1  0.00000000  0.00000000  0.00000000  1
  Ga  Ga27  1  0.50000000  0.50000000  0.00000000  1
  Ga  Ga28  1  0.11719300  0.61719300  0.73438600  1
  Ga  Ga29  1  0.88280700  0.38280700  0.26561400  1
  Ga  Ga30  1  0.61719300  0.88280700  0.50000000  1
  Ga  Ga31  1  0.38280700  0.11719300  0.50000000  1
  Ga  Ga32  1  0.87847900  0.37847900  0.85535000  1
  Ga  Ga33  1  0.52312800  0.02312800  0.14465000  1
  Ga  Ga34  1  0.37847900  0.52312800  0.50000000  1
  Ga  Ga35  1  0.02312800  0.87847900  0.50000000  1
  Ga  Ga36  1  0.12152100  0.62152100  0.14465000  1
  Ga  Ga37  1  0.47687200  0.97687200  0.85535000  1
  Ga  Ga38  1  0.62152100  0.47687200  0.50000000  1
  Ga  Ga39  1  0.97687200  0.12152100  0.50000000  1
