# generated using pymatgen
data_Pr2MoO6
_symmetry_space_group_name_H-M   'P 1'
_cell_length_a   10.30737558
_cell_length_b   10.30737558
_cell_length_c   5.62688823
_cell_angle_alpha   75.16719391
_cell_angle_beta   75.16719391
_cell_angle_gamma   68.66254127
_symmetry_Int_Tables_number   1
_chemical_formula_structural   Pr2MoO6
_chemical_formula_sum   'Pr8 Mo4 O24'
_cell_volume   529.40144839
_cell_formula_units_Z   4
loop_
 _symmetry_equiv_pos_site_id
 _symmetry_equiv_pos_as_xyz
  1  'x, y, z'
loop_
 _atom_site_type_symbol
 _atom_site_label
 _atom_site_symmetry_multiplicity
 _atom_site_fract_x
 _atom_site_fract_y
 _atom_site_fract_z
 _atom_site_occupancy
  Pr  Pr0  1  0.63261400  0.36738600  0.75000000  1
  Pr  Pr1  1  0.36738600  0.63261400  0.25000000  1
  Pr  Pr2  1  0.11064400  0.88935600  0.75000000  1
  Pr  Pr3  1  0.88935600  0.11064400  0.25000000  1
  Pr  Pr4  1  0.71192100  0.94465500  0.88229100  1
  Pr  Pr5  1  0.28807900  0.05534500  0.11770900  1
  Pr  Pr6  1  0.05534500  0.28807900  0.61770900  1
  Pr  Pr7  1  0.94465500  0.71192100  0.38229100  1
  Mo  Mo8  1  0.50915800  0.79726400  0.55949500  1
  Mo  Mo9  1  0.49084200  0.20273600  0.44050500  1
  Mo  Mo10  1  0.20273600  0.49084200  0.94050500  1
  Mo  Mo11  1  0.79726400  0.50915800  0.05949500  1
  O  O12  1  0.68596600  0.16421900  0.58413700  1
  O  O13  1  0.31403400  0.83578100  0.41586300  1
  O  O14  1  0.83578100  0.31403400  0.91586300  1
  O  O15  1  0.16421900  0.68596600  0.08413700  1
  O  O16  1  0.38713700  0.82611600  0.85981500  1
  O  O17  1  0.61286300  0.17388400  0.14018500  1
  O  O18  1  0.17388400  0.61286300  0.64018500  1
  O  O19  1  0.82611600  0.38713700  0.35981500  1
  O  O20  1  0.67509400  0.78698300  0.63598100  1
  O  O21  1  0.32490600  0.21301700  0.36401900  1
  O  O22  1  0.21301700  0.32490600  0.86401900  1
  O  O23  1  0.78698300  0.67509400  0.13598100  1
  O  O24  1  0.47424100  0.07118300  0.73131900  1
  O  O25  1  0.52575900  0.92881700  0.26868100  1
  O  O26  1  0.92881700  0.52575900  0.76868100  1
  O  O27  1  0.07118300  0.47424100  0.23131900  1
  O  O28  1  0.54559700  0.61675700  0.51986700  1
  O  O29  1  0.45440300  0.38324300  0.48013300  1
  O  O30  1  0.38324300  0.45440300  0.98013300  1
  O  O31  1  0.61675700  0.54559700  0.01986700  1
  O  O32  1  0.89090800  0.92369400  0.08071900  1
  O  O33  1  0.10909200  0.07630600  0.91928100  1
  O  O34  1  0.07630600  0.10909200  0.41928100  1
  O  O35  1  0.92369400  0.89090800  0.58071900  1
