# generated using pymatgen
data_Ca(AgO2)2
_symmetry_space_group_name_H-M   'P 1'
_cell_length_a   6.66125153
_cell_length_b   6.66125153
_cell_length_c   6.66125153
_cell_angle_alpha   125.92934270
_cell_angle_beta   125.92934270
_cell_angle_gamma   80.00430120
_symmetry_Int_Tables_number   1
_chemical_formula_structural   Ca(AgO2)2
_chemical_formula_sum   'Ca2 Ag4 O8'
_cell_volume   187.11630328
_cell_formula_units_Z   2
loop_
 _symmetry_equiv_pos_site_id
 _symmetry_equiv_pos_as_xyz
  1  'x, y, z'
loop_
 _atom_site_type_symbol
 _atom_site_label
 _atom_site_symmetry_multiplicity
 _atom_site_fract_x
 _atom_site_fract_y
 _atom_site_fract_z
 _atom_site_occupancy
  Ca  Ca0  1  0.75000000  0.25000000  0.50000000  1
  Ca  Ca1  1  0.00000000  0.00000000  0.00000000  1
  Ag  Ag2  1  0.37500000  0.12500000  0.75000000  1
  Ag  Ag3  1  0.37500000  0.62500000  0.25000000  1
  Ag  Ag4  1  0.87500000  0.62500000  0.25000000  1
  Ag  Ag5  1  0.37500000  0.62500000  0.75000000  1
  O  O6  1  0.04678900  0.99512700  0.64395600  1
  O  O7  1  0.59716700  0.95321100  0.94833800  1
  O  O8  1  0.00487300  0.64882900  0.05166200  1
  O  O9  1  0.39882900  0.84716700  0.14395600  1
  O  O10  1  0.74512700  0.60117100  0.44833800  1
  O  O11  1  0.15283300  0.29678900  0.55166200  1
  O  O12  1  0.35117100  0.40283300  0.35604400  1
  O  O13  1  0.70321100  0.25487300  0.85604400  1
