# generated using pymatgen
data_Y2Fe14C
_symmetry_space_group_name_H-M   'P 1'
_cell_length_a   8.70045400
_cell_length_b   8.70045400
_cell_length_c   11.72441600
_cell_angle_alpha   90.00000000
_cell_angle_beta   90.00000000
_cell_angle_gamma   90.00000000
_symmetry_Int_Tables_number   1
_chemical_formula_structural   Y2Fe14C
_chemical_formula_sum   'Y8 Fe56 C4'
_cell_volume   887.51366765
_cell_formula_units_Z   4
loop_
 _symmetry_equiv_pos_site_id
 _symmetry_equiv_pos_as_xyz
  1  'x, y, z'
loop_
 _atom_site_type_symbol
 _atom_site_label
 _atom_site_symmetry_multiplicity
 _atom_site_fract_x
 _atom_site_fract_y
 _atom_site_fract_z
 _atom_site_occupancy
  Y  Y0  1  0.35768900  0.35768900  0.00000000  1
  Y  Y1  1  0.64231100  0.64231100  0.00000000  1
  Y  Y2  1  0.14231100  0.85768900  0.50000000  1
  Y  Y3  1  0.85768900  0.14231100  0.50000000  1
  Y  Y4  1  0.23809900  0.76190100  0.00000000  1
  Y  Y5  1  0.76190100  0.23809900  0.00000000  1
  Y  Y6  1  0.73809900  0.73809900  0.50000000  1
  Y  Y7  1  0.26190100  0.26190100  0.50000000  1
  Fe  Fe8  1  0.06621800  0.27468900  0.12095300  1
  Fe  Fe9  1  0.93378200  0.72531100  0.87904700  1
  Fe  Fe10  1  0.93378200  0.72531100  0.12095300  1
  Fe  Fe11  1  0.22531100  0.56621800  0.62095300  1
  Fe  Fe12  1  0.43378200  0.77468900  0.37904700  1
  Fe  Fe13  1  0.06621800  0.27468900  0.87904700  1
  Fe  Fe14  1  0.77468900  0.43378200  0.37904700  1
  Fe  Fe15  1  0.56621800  0.22531100  0.62095300  1
  Fe  Fe16  1  0.77468900  0.43378200  0.62095300  1
  Fe  Fe17  1  0.56621800  0.22531100  0.37904700  1
  Fe  Fe18  1  0.22531100  0.56621800  0.37904700  1
  Fe  Fe19  1  0.43378200  0.77468900  0.62095300  1
  Fe  Fe20  1  0.27468900  0.06621800  0.87904700  1
  Fe  Fe21  1  0.72531100  0.93378200  0.12095300  1
  Fe  Fe22  1  0.72531100  0.93378200  0.87904700  1
  Fe  Fe23  1  0.27468900  0.06621800  0.12095300  1
  Fe  Fe24  1  0.03716700  0.35836100  0.32460900  1
  Fe  Fe25  1  0.96283300  0.64163900  0.67539100  1
  Fe  Fe26  1  0.96283300  0.64163900  0.32460900  1
  Fe  Fe27  1  0.14163900  0.53716700  0.82460900  1
  Fe  Fe28  1  0.46283300  0.85836100  0.17539100  1
  Fe  Fe29  1  0.03716700  0.35836100  0.67539100  1
  Fe  Fe30  1  0.85836100  0.46283300  0.17539100  1
  Fe  Fe31  1  0.53716700  0.14163900  0.82460900  1
  Fe  Fe32  1  0.85836100  0.46283300  0.82460900  1
  Fe  Fe33  1  0.53716700  0.14163900  0.17539100  1
  Fe  Fe34  1  0.14163900  0.53716700  0.17539100  1
  Fe  Fe35  1  0.46283300  0.85836100  0.82460900  1
  Fe  Fe36  1  0.35836100  0.03716700  0.67539100  1
  Fe  Fe37  1  0.64163900  0.96283300  0.32460900  1
  Fe  Fe38  1  0.64163900  0.96283300  0.67539100  1
  Fe  Fe39  1  0.35836100  0.03716700  0.32460900  1
  Fe  Fe40  1  0.31750400  0.31750400  0.25425900  1
  Fe  Fe41  1  0.68249600  0.68249600  0.74574100  1
  Fe  Fe42  1  0.68249600  0.68249600  0.25425900  1
  Fe  Fe43  1  0.18249600  0.81750400  0.75425900  1
  Fe  Fe44  1  0.18249600  0.81750400  0.24574100  1
  Fe  Fe45  1  0.31750400  0.31750400  0.74574100  1
  Fe  Fe46  1  0.81750400  0.18249600  0.24574100  1
  Fe  Fe47  1  0.81750400  0.18249600  0.75425900  1
  Fe  Fe48  1  0.00000000  0.50000000  0.00000000  1
  Fe  Fe49  1  0.00000000  0.50000000  0.50000000  1
  Fe  Fe50  1  0.50000000  0.00000000  0.50000000  1
  Fe  Fe51  1  0.50000000  0.00000000  0.00000000  1
  Fe  Fe52  1  0.09761800  0.09761800  0.29634100  1
  Fe  Fe53  1  0.90238200  0.90238200  0.70365900  1
  Fe  Fe54  1  0.90238200  0.90238200  0.29634100  1
  Fe  Fe55  1  0.40238200  0.59761800  0.79634100  1
  Fe  Fe56  1  0.40238200  0.59761800  0.20365900  1
  Fe  Fe57  1  0.09761800  0.09761800  0.70365900  1
  Fe  Fe58  1  0.59761800  0.40238200  0.20365900  1
  Fe  Fe59  1  0.59761800  0.40238200  0.79634100  1
  Fe  Fe60  1  0.00000000  0.00000000  0.10849100  1
  Fe  Fe61  1  0.00000000  0.00000000  0.89150900  1
  Fe  Fe62  1  0.50000000  0.50000000  0.60849100  1
  Fe  Fe63  1  0.50000000  0.50000000  0.39150900  1
  C  C64  1  0.12559300  0.12559300  0.00000000  1
  C  C65  1  0.87440700  0.87440700  0.00000000  1
  C  C66  1  0.37440700  0.62559300  0.50000000  1
  C  C67  1  0.62559300  0.37440700  0.50000000  1
