# generated using pymatgen
data_Yb5P12Ir19
_symmetry_space_group_name_H-M   'P 1'
_cell_length_a   12.66523453
_cell_length_b   12.66523453
_cell_length_c   3.98458400
_cell_angle_alpha   90.00000000
_cell_angle_beta   90.00000000
_cell_angle_gamma   120.00000276
_symmetry_Int_Tables_number   1
_chemical_formula_structural   Yb5P12Ir19
_chemical_formula_sum   'Yb5 P12 Ir19'
_cell_volume   553.52861750
_cell_formula_units_Z   1
loop_
 _symmetry_equiv_pos_site_id
 _symmetry_equiv_pos_as_xyz
  1  'x, y, z'
loop_
 _atom_site_type_symbol
 _atom_site_label
 _atom_site_symmetry_multiplicity
 _atom_site_fract_x
 _atom_site_fract_y
 _atom_site_fract_z
 _atom_site_occupancy
  Yb  Yb0  1  0.33333300  0.66666700  0.00000000  1
  Yb  Yb1  1  0.66666700  0.33333300  0.00000000  1
  Yb  Yb2  1  0.18305000  0.18305000  0.50000000  1
  Yb  Yb3  1  0.81695000  0.00000000  0.50000000  1
  Yb  Yb4  1  0.00000000  0.81695000  0.50000000  1
  P  P5  1  0.82025700  0.82025700  0.00000000  1
  P  P6  1  0.17974300  0.00000000  0.00000000  1
  P  P7  1  0.00000000  0.17974300  0.00000000  1
  P  P8  1  0.31095200  0.82698700  0.50000000  1
  P  P9  1  0.17301300  0.48396500  0.50000000  1
  P  P10  1  0.51603500  0.68904800  0.50000000  1
  P  P11  1  0.82698700  0.31095200  0.50000000  1
  P  P12  1  0.48396500  0.17301300  0.50000000  1
  P  P13  1  0.68904800  0.51603500  0.50000000  1
  P  P14  1  0.35816100  0.35816100  0.00000000  1
  P  P15  1  0.64183900  0.00000000  0.00000000  1
  P  P16  1  0.00000000  0.64183900  0.00000000  1
  Ir  Ir17  1  0.19664700  0.81888200  0.00000000  1
  Ir  Ir18  1  0.18111800  0.37776500  0.00000000  1
  Ir  Ir19  1  0.62223500  0.80335300  0.00000000  1
  Ir  Ir20  1  0.81888200  0.19664700  0.00000000  1
  Ir  Ir21  1  0.37776500  0.18111800  0.00000000  1
  Ir  Ir22  1  0.80335300  0.62223500  0.00000000  1
  Ir  Ir23  1  0.71446400  0.71446400  0.50000000  1
  Ir  Ir24  1  0.28553600  0.00000000  0.50000000  1
  Ir  Ir25  1  0.00000000  0.28553600  0.50000000  1
  Ir  Ir26  1  0.13065900  0.63825400  0.50000000  1
  Ir  Ir27  1  0.36174600  0.49240400  0.50000000  1
  Ir  Ir28  1  0.50759600  0.86934100  0.50000000  1
  Ir  Ir29  1  0.63825400  0.13065900  0.50000000  1
  Ir  Ir30  1  0.49240400  0.36174600  0.50000000  1
  Ir  Ir31  1  0.86934100  0.50759600  0.50000000  1
  Ir  Ir32  1  0.53930300  0.53930300  0.00000000  1
  Ir  Ir33  1  0.46069700  0.00000000  0.00000000  1
  Ir  Ir34  1  0.00000000  0.46069700  0.00000000  1
  Ir  Ir35  1  0.00000000  0.00000000  0.00000000  1
