# generated using pymatgen
data_Y14Ag51
_symmetry_space_group_name_H-M   'P 1'
_cell_length_a   12.79423566
_cell_length_b   12.79423566
_cell_length_c   9.39010500
_cell_angle_alpha   90.00000000
_cell_angle_beta   90.00000000
_cell_angle_gamma   119.99999822
_symmetry_Int_Tables_number   1
_chemical_formula_structural   Y14Ag51
_chemical_formula_sum   'Y14 Ag51'
_cell_volume   1331.15852985
_cell_formula_units_Z   1
loop_
 _symmetry_equiv_pos_site_id
 _symmetry_equiv_pos_as_xyz
  1  'x, y, z'
loop_
 _atom_site_type_symbol
 _atom_site_label
 _atom_site_symmetry_multiplicity
 _atom_site_fract_x
 _atom_site_fract_y
 _atom_site_fract_z
 _atom_site_occupancy
  Y  Y0  1  0.13330300  0.47110500  0.50000000  1
  Y  Y1  1  0.52889500  0.66219800  0.50000000  1
  Y  Y2  1  0.33780200  0.86669700  0.50000000  1
  Y  Y3  1  0.19919800  0.19387500  0.50000000  1
  Y  Y4  1  0.80612500  0.00532300  0.50000000  1
  Y  Y5  1  0.99467700  0.80080200  0.50000000  1
  Y  Y6  1  0.77961400  0.71739300  0.00000000  1
  Y  Y7  1  0.28260700  0.06222100  0.00000000  1
  Y  Y8  1  0.93777900  0.22038600  0.00000000  1
  Y  Y9  1  0.54885900  0.93224100  0.00000000  1
  Y  Y10  1  0.06775900  0.61661800  0.00000000  1
  Y  Y11  1  0.38338200  0.45114100  0.00000000  1
  Y  Y12  1  0.66666700  0.33333300  0.30648600  1
  Y  Y13  1  0.66666700  0.33333300  0.69351400  1
  Ag  Ag14  1  0.15950400  0.44832700  0.15234500  1
  Ag  Ag15  1  0.55167300  0.71117800  0.15234500  1
  Ag  Ag16  1  0.28882200  0.84049600  0.15234500  1
  Ag  Ag17  1  0.17080000  0.21751800  0.15140100  1
  Ag  Ag18  1  0.78248200  0.95328300  0.15140100  1
  Ag  Ag19  1  0.04671700  0.82920000  0.15140100  1
  Ag  Ag20  1  0.17080000  0.21751800  0.84859900  1
  Ag  Ag21  1  0.78248200  0.95328300  0.84859900  1
  Ag  Ag22  1  0.04671700  0.82920000  0.84859900  1
  Ag  Ag23  1  0.15950400  0.44832700  0.84765500  1
  Ag  Ag24  1  0.55167300  0.71117800  0.84765500  1
  Ag  Ag25  1  0.28882200  0.84049600  0.84765500  1
  Ag  Ag26  1  0.72612700  0.57097200  0.50000000  1
  Ag  Ag27  1  0.42902800  0.15515400  0.50000000  1
  Ag  Ag28  1  0.84484600  0.27387300  0.50000000  1
  Ag  Ag29  1  0.60712100  0.09493300  0.50000000  1
  Ag  Ag30  1  0.90506700  0.51218800  0.50000000  1
  Ag  Ag31  1  0.48781200  0.39287900  0.50000000  1
  Ag  Ag32  1  0.33333300  0.66666700  0.00000000  1
  Ag  Ag33  1  0.00000000  0.00000000  0.00000000  1
  Ag  Ag34  1  0.77180300  0.77216700  0.33261600  1
  Ag  Ag35  1  0.22783300  0.99963600  0.33261600  1
  Ag  Ag36  1  0.00036400  0.22819700  0.33261600  1
  Ag  Ag37  1  0.56117800  0.89285900  0.33326900  1
  Ag  Ag38  1  0.10714100  0.66831900  0.33326900  1
  Ag  Ag39  1  0.33168100  0.43882200  0.33326900  1
  Ag  Ag40  1  0.56117800  0.89285900  0.66673100  1
  Ag  Ag41  1  0.10714100  0.66831900  0.66673100  1
  Ag  Ag42  1  0.33168100  0.43882200  0.66673100  1
  Ag  Ag43  1  0.77180300  0.77216700  0.66738400  1
  Ag  Ag44  1  0.22783300  0.99963600  0.66738400  1
  Ag  Ag45  1  0.00036400  0.22819700  0.66738400  1
  Ag  Ag46  1  0.85939200  0.60264400  0.23934300  1
  Ag  Ag47  1  0.39735600  0.25674800  0.23934300  1
  Ag  Ag48  1  0.74325200  0.14060800  0.23934300  1
  Ag  Ag49  1  0.47704100  0.06929100  0.23212800  1
  Ag  Ag50  1  0.93070900  0.40775100  0.23212800  1
  Ag  Ag51  1  0.59224900  0.52295900  0.23212800  1
  Ag  Ag52  1  0.47704100  0.06929100  0.76787200  1
  Ag  Ag53  1  0.93070900  0.40775100  0.76787200  1
  Ag  Ag54  1  0.59224900  0.52295900  0.76787200  1
  Ag  Ag55  1  0.85939200  0.60264400  0.76065700  1
  Ag  Ag56  1  0.39735600  0.25674800  0.76065700  1
  Ag  Ag57  1  0.74325200  0.14060800  0.76065700  1
  Ag  Ag58  1  0.33333300  0.66666700  0.30311900  1
  Ag  Ag59  1  0.00000000  0.00000000  0.30253200  1
  Ag  Ag60  1  0.00000000  0.00000000  0.69746800  1
  Ag  Ag61  1  0.33333300  0.66666700  0.69688100  1
  Ag  Ag62  1  0.80111200  0.44793200  0.00000000  1
  Ag  Ag63  1  0.55206800  0.35318000  0.00000000  1
  Ag  Ag64  1  0.64682000  0.19888800  0.00000000  1
