# generated using pymatgen
data_La2SbI2
_symmetry_space_group_name_H-M   'P 1'
_cell_length_a   4.59887065
_cell_length_b   4.59887065
_cell_length_c   11.19510700
_cell_angle_alpha   90.00000000
_cell_angle_beta   90.00000000
_cell_angle_gamma   120.00000936
_symmetry_Int_Tables_number   1
_chemical_formula_structural   La2SbI2
_chemical_formula_sum   'La2 Sb1 I2'
_cell_volume   205.05068706
_cell_formula_units_Z   1
loop_
 _symmetry_equiv_pos_site_id
 _symmetry_equiv_pos_as_xyz
  1  'x, y, z'
loop_
 _atom_site_type_symbol
 _atom_site_label
 _atom_site_symmetry_multiplicity
 _atom_site_fract_x
 _atom_site_fract_y
 _atom_site_fract_z
 _atom_site_occupancy
  La  La0  1  0.33333300  0.66666700  0.16015700  1
  La  La1  1  0.66666700  0.33333300  0.83984300  1
  Sb  Sb2  1  0.00000000  0.00000000  0.00000000  1
  I  I3  1  0.33333300  0.66666700  0.66091900  1
  I  I4  1  0.66666700  0.33333300  0.33908100  1
