# generated using pymatgen
data_Li2MnP2O7
_symmetry_space_group_name_H-M   'P 1'
_cell_length_a   5.05636111
_cell_length_b   8.36306438
_cell_length_c   13.14136600
_cell_angle_alpha   90.00000000
_cell_angle_beta   90.00000000
_cell_angle_gamma   92.90854258
_symmetry_Int_Tables_number   1
_chemical_formula_structural   Li2MnP2O7
_chemical_formula_sum   'Li8 Mn4 P8 O28'
_cell_volume   554.98879652
_cell_formula_units_Z   4
loop_
 _symmetry_equiv_pos_site_id
 _symmetry_equiv_pos_as_xyz
  1  'x, y, z'
loop_
 _atom_site_type_symbol
 _atom_site_label
 _atom_site_symmetry_multiplicity
 _atom_site_fract_x
 _atom_site_fract_y
 _atom_site_fract_z
 _atom_site_occupancy
  Li  Li0  1  0.22700700  0.83770100  0.85482300  1
  Li  Li1  1  0.72700700  0.33770100  0.64517700  1
  Li  Li2  1  0.77299300  0.16229900  0.14517700  1
  Li  Li3  1  0.27299300  0.66229900  0.35482300  1
  Li  Li4  1  0.81122700  0.85112400  0.69658400  1
  Li  Li5  1  0.31122700  0.35112400  0.80341600  1
  Li  Li6  1  0.18877300  0.14887600  0.30341600  1
  Li  Li7  1  0.68877300  0.64887600  0.19658400  1
  Mn  Mn8  1  0.76976700  0.14072300  0.87070200  1
  Mn  Mn9  1  0.26976700  0.64072300  0.62929800  1
  Mn  Mn10  1  0.23023300  0.85927700  0.12929800  1
  Mn  Mn11  1  0.73023300  0.35927700  0.37070200  1
  P  P12  1  0.81110800  0.54273000  0.80956600  1
  P  P13  1  0.31110800  0.04273000  0.69043400  1
  P  P14  1  0.18889200  0.45727000  0.19043400  1
  P  P15  1  0.68889200  0.95727000  0.30956600  1
  P  P16  1  0.73486200  0.77753600  0.97051200  1
  P  P17  1  0.23486200  0.27753600  0.52948800  1
  P  P18  1  0.26513800  0.22246400  0.02948800  1
  P  P19  1  0.76513800  0.72246400  0.47051200  1
  O  O20  1  0.58716300  0.75832200  0.07073600  1
  O  O21  1  0.08716300  0.25832200  0.42926400  1
  O  O22  1  0.41283700  0.24167800  0.92926400  1
  O  O23  1  0.91283700  0.74167800  0.57073600  1
  O  O24  1  0.60698700  0.89119400  0.89455900  1
  O  O25  1  0.10698700  0.39119400  0.60544100  1
  O  O26  1  0.39301300  0.10880600  0.10544100  1
  O  O27  1  0.89301300  0.60880600  0.39455900  1
  O  O28  1  0.03118000  0.82051200  0.98414900  1
  O  O29  1  0.53118000  0.32051200  0.51585100  1
  O  O30  1  0.96882000  0.17948800  0.01585100  1
  O  O31  1  0.46882000  0.67948800  0.48414900  1
  O  O32  1  0.70688100  0.59884400  0.91926000  1
  O  O33  1  0.20688100  0.09884400  0.58074000  1
  O  O34  1  0.29311900  0.40115600  0.08074000  1
  O  O35  1  0.79311900  0.90115600  0.41926000  1
  O  O36  1  0.56769600  0.52316700  0.73877000  1
  O  O37  1  0.06769600  0.02316700  0.76123000  1
  O  O38  1  0.43230400  0.47683300  0.26123000  1
  O  O39  1  0.93230400  0.97683300  0.23877000  1
  O  O40  1  0.01513900  0.67230000  0.77242200  1
  O  O41  1  0.51513900  0.17230000  0.72757800  1
  O  O42  1  0.98486100  0.32770000  0.22757800  1
  O  O43  1  0.48486100  0.82770000  0.27242200  1
  O  O44  1  0.93267300  0.38052900  0.82389400  1
  O  O45  1  0.43267300  0.88052900  0.67610600  1
  O  O46  1  0.06732700  0.61947100  0.17610600  1
  O  O47  1  0.56732700  0.11947100  0.32389400  1
