# generated using pymatgen
data_Tb6IrI10
_symmetry_space_group_name_H-M   'P 1'
_cell_length_a   7.76041800
_cell_length_b   9.71584519
_cell_length_c   9.73941839
_cell_angle_alpha   107.52636160
_cell_angle_beta   104.93749745
_cell_angle_gamma   97.12863996
_symmetry_Int_Tables_number   1
_chemical_formula_structural   Tb6IrI10
_chemical_formula_sum   'Tb6 Ir1 I10'
_cell_volume   660.17474880
_cell_formula_units_Z   1
loop_
 _symmetry_equiv_pos_site_id
 _symmetry_equiv_pos_as_xyz
  1  'x, y, z'
loop_
 _atom_site_type_symbol
 _atom_site_label
 _atom_site_symmetry_multiplicity
 _atom_site_fract_x
 _atom_site_fract_y
 _atom_site_fract_z
 _atom_site_occupancy
  Tb  Tb0  1  0.64666800  0.83243500  0.87160500  1
  Tb  Tb1  1  0.35333200  0.16756500  0.12839500  1
  Tb  Tb2  1  0.02717900  0.91336200  0.71288600  1
  Tb  Tb3  1  0.97282100  0.08663800  0.28711400  1
  Tb  Tb4  1  0.11343700  0.75856300  0.03924100  1
  Tb  Tb5  1  0.88656300  0.24143700  0.96075900  1
  Ir  Ir6  1  0.00000000  0.00000000  0.00000000  1
  I  I7  1  0.64056500  0.72505800  0.54233700  1
  I  I8  1  0.35943500  0.27494200  0.45766300  1
  I  I9  1  0.21167300  0.64720400  0.73620800  1
  I  I10  1  0.78832700  0.35279600  0.26379200  1
  I  I11  1  0.45262400  0.09226700  0.81514300  1
  I  I12  1  0.54737600  0.90773300  0.18485700  1
  I  I13  1  0.26361500  0.46414600  0.08946300  1
  I  I14  1  0.73638500  0.53585400  0.91053700  1
  I  I15  1  0.08636400  0.81897600  0.37173200  1
  I  I16  1  0.91363600  0.18102400  0.62826800  1
