# generated using pymatgen
data_CsSmZnTe3
_symmetry_space_group_name_H-M   'P 1'
_cell_length_a   8.95908797
_cell_length_b   8.95908797
_cell_length_c   11.92241400
_cell_angle_alpha   90.00000000
_cell_angle_beta   90.00000000
_cell_angle_gamma   150.94927186
_symmetry_Int_Tables_number   1
_chemical_formula_structural   CsSmZnTe3
_chemical_formula_sum   'Cs2 Sm2 Zn2 Te6'
_cell_volume   464.68214428
_cell_formula_units_Z   2
loop_
 _symmetry_equiv_pos_site_id
 _symmetry_equiv_pos_as_xyz
  1  'x, y, z'
loop_
 _atom_site_type_symbol
 _atom_site_label
 _atom_site_symmetry_multiplicity
 _atom_site_fract_x
 _atom_site_fract_y
 _atom_site_fract_z
 _atom_site_occupancy
  Cs  Cs0  1  0.25294400  0.74705600  0.75000000  1
  Cs  Cs1  1  0.74705600  0.25294400  0.25000000  1
  Sm  Sm2  1  0.00000000  0.00000000  0.00000000  1
  Sm  Sm3  1  0.00000000  0.00000000  0.50000000  1
  Zn  Zn4  1  0.53513700  0.46486300  0.75000000  1
  Zn  Zn5  1  0.46486300  0.53513700  0.25000000  1
  Te  Te6  1  0.61983600  0.38016400  0.56302000  1
  Te  Te7  1  0.38016400  0.61983600  0.43698000  1
  Te  Te8  1  0.06061700  0.93938300  0.25000000  1
  Te  Te9  1  0.93938300  0.06061700  0.75000000  1
  Te  Te10  1  0.61983600  0.38016400  0.93698000  1
  Te  Te11  1  0.38016400  0.61983600  0.06302000  1
