# generated using pymatgen
data_HoAgS2
_symmetry_space_group_name_H-M   'P 1'
_cell_length_a   7.61732400
_cell_length_b   7.61732400
_cell_length_c   12.64545400
_cell_angle_alpha   90.00000000
_cell_angle_beta   90.00000000
_cell_angle_gamma   90.00000000
_symmetry_Int_Tables_number   1
_chemical_formula_structural   HoAgS2
_chemical_formula_sum   'Ho8 Ag8 S16'
_cell_volume   733.73507985
_cell_formula_units_Z   8
loop_
 _symmetry_equiv_pos_site_id
 _symmetry_equiv_pos_as_xyz
  1  'x, y, z'
loop_
 _atom_site_type_symbol
 _atom_site_label
 _atom_site_symmetry_multiplicity
 _atom_site_fract_x
 _atom_site_fract_y
 _atom_site_fract_z
 _atom_site_occupancy
  Ho  Ho0  1  0.00331700  0.74665800  0.62129000  1
  Ho  Ho1  1  0.49668300  0.24665800  0.62871000  1
  Ho  Ho2  1  0.75334200  0.50331700  0.87129000  1
  Ho  Ho3  1  0.74665800  0.00331700  0.37871000  1
  Ho  Ho4  1  0.25334200  0.99668300  0.87871000  1
  Ho  Ho5  1  0.24665800  0.49668300  0.37129000  1
  Ho  Ho6  1  0.99668300  0.25334200  0.12129000  1
  Ho  Ho7  1  0.50331700  0.75334200  0.12871000  1
  Ag  Ag8  1  0.48606900  0.23834700  0.19363700  1
  Ag  Ag9  1  0.26165300  0.98606900  0.44363700  1
  Ag  Ag10  1  0.73834700  0.01393100  0.94363700  1
  Ag  Ag11  1  0.76165300  0.51393100  0.30636300  1
  Ag  Ag12  1  0.98606900  0.26165300  0.55636300  1
  Ag  Ag13  1  0.51393100  0.76165300  0.69363700  1
  Ag  Ag14  1  0.01393100  0.73834700  0.05636300  1
  Ag  Ag15  1  0.23834700  0.48606900  0.80636300  1
  S  S16  1  0.22762100  0.47251500  0.58907100  1
  S  S17  1  0.27237900  0.97251500  0.66092900  1
  S  S18  1  0.77156400  0.01719400  0.59508100  1
  S  S19  1  0.72843600  0.51719400  0.65491900  1
  S  S20  1  0.97251500  0.27237900  0.33907100  1
  S  S21  1  0.52748500  0.77237900  0.91092900  1
  S  S22  1  0.51719400  0.72843600  0.34508100  1
  S  S23  1  0.98280600  0.22843600  0.90491900  1
  S  S24  1  0.47251500  0.22762100  0.41092900  1
  S  S25  1  0.02748500  0.72762100  0.83907100  1
  S  S26  1  0.48280600  0.27156400  0.84508100  1
  S  S27  1  0.72762100  0.02748500  0.16092900  1
  S  S28  1  0.22843600  0.98280600  0.09508100  1
  S  S29  1  0.27156400  0.48280600  0.15491900  1
  S  S30  1  0.77237900  0.52748500  0.08907100  1
  S  S31  1  0.01719400  0.77156400  0.40491900  1
