# generated using pymatgen
data_Th7Rh3
_symmetry_space_group_name_H-M   'P 1'
_cell_length_a   10.03139843
_cell_length_b   10.03139843
_cell_length_c   6.27620500
_cell_angle_alpha   90.00000000
_cell_angle_beta   90.00000000
_cell_angle_gamma   120.00000284
_symmetry_Int_Tables_number   1
_chemical_formula_structural   Th7Rh3
_chemical_formula_sum   'Th14 Rh6'
_cell_volume   546.95387081
_cell_formula_units_Z   2
loop_
 _symmetry_equiv_pos_site_id
 _symmetry_equiv_pos_as_xyz
  1  'x, y, z'
loop_
 _atom_site_type_symbol
 _atom_site_label
 _atom_site_symmetry_multiplicity
 _atom_site_fract_x
 _atom_site_fract_y
 _atom_site_fract_z
 _atom_site_occupancy
  Th  Th0  1  0.66666700  0.33333300  0.58125100  1
  Th  Th1  1  0.33333300  0.66666700  0.08125100  1
  Th  Th2  1  0.87172800  0.74345700  0.74609300  1
  Th  Th3  1  0.25654300  0.12827200  0.74609300  1
  Th  Th4  1  0.87172800  0.12827200  0.74609300  1
  Th  Th5  1  0.12827200  0.25654300  0.24609300  1
  Th  Th6  1  0.74345700  0.87172800  0.24609300  1
  Th  Th7  1  0.12827200  0.87172800  0.24609300  1
  Th  Th8  1  0.45870100  0.91740300  0.53882500  1
  Th  Th9  1  0.08259700  0.54129900  0.53882500  1
  Th  Th10  1  0.45870100  0.54129900  0.53882500  1
  Th  Th11  1  0.54129900  0.08259700  0.03882500  1
  Th  Th12  1  0.91740300  0.45870100  0.03882500  1
  Th  Th13  1  0.54129900  0.45870100  0.03882500  1
  Rh  Rh14  1  0.18476000  0.36952000  0.80174900  1
  Rh  Rh15  1  0.63048000  0.81524000  0.80174900  1
  Rh  Rh16  1  0.18476000  0.81524000  0.80174900  1
  Rh  Rh17  1  0.81524000  0.63048000  0.30174900  1
  Rh  Rh18  1  0.36952000  0.18476000  0.30174900  1
  Rh  Rh19  1  0.81524000  0.18476000  0.30174900  1
