# generated using pymatgen
data_Mg2CdH24(BrO2)6
_symmetry_space_group_name_H-M   'P 1'
_cell_length_a   8.69076555
_cell_length_b   8.69076555
_cell_length_c   8.69076525
_cell_angle_alpha   74.16184362
_cell_angle_beta   74.16184362
_cell_angle_gamma   74.16184633
_symmetry_Int_Tables_number   1
_chemical_formula_structural   Mg2CdH24(BrO2)6
_chemical_formula_sum   'Mg2 Cd1 H24 Br6 O12'
_cell_volume   593.38730525
_cell_formula_units_Z   1
loop_
 _symmetry_equiv_pos_site_id
 _symmetry_equiv_pos_as_xyz
  1  'x, y, z'
loop_
 _atom_site_type_symbol
 _atom_site_label
 _atom_site_symmetry_multiplicity
 _atom_site_fract_x
 _atom_site_fract_y
 _atom_site_fract_z
 _atom_site_occupancy
  Mg  Mg0  1  0.32183800  0.32183800  0.32183800  1
  Mg  Mg1  1  0.67816200  0.67816200  0.67816200  1
  Cd  Cd2  1  0.00000000  0.00000000  0.00000000  1
  H  H3  1  0.06055600  0.17932700  0.39105200  1
  H  H4  1  0.17932700  0.39105200  0.06055600  1
  H  H5  1  0.39105200  0.06055600  0.17932700  1
  H  H6  1  0.93944400  0.82067300  0.60894800  1
  H  H7  1  0.82067300  0.60894800  0.93944400  1
  H  H8  1  0.60894800  0.93944400  0.82067300  1
  H  H9  1  0.15243900  0.09320100  0.53558800  1
  H  H10  1  0.09320100  0.53558900  0.15243900  1
  H  H11  1  0.53558900  0.15243900  0.09320100  1
  H  H12  1  0.84756100  0.90679900  0.46441100  1
  H  H13  1  0.90679900  0.46441200  0.84756100  1
  H  H14  1  0.46441200  0.84756100  0.90679900  1
  H  H15  1  0.62358300  0.40230000  0.20385400  1
  H  H16  1  0.40230000  0.20385400  0.62358300  1
  H  H17  1  0.20385400  0.62358300  0.40230000  1
  H  H18  1  0.37641700  0.59770000  0.79614600  1
  H  H19  1  0.59770000  0.79614600  0.37641700  1
  H  H20  1  0.79614600  0.37641700  0.59770000  1
  H  H21  1  0.48873900  0.56288500  0.15591600  1
  H  H22  1  0.56288500  0.15591600  0.48873900  1
  H  H23  1  0.15591600  0.48873900  0.56288500  1
  H  H24  1  0.51126100  0.43711500  0.84408400  1
  H  H25  1  0.43711500  0.84408400  0.51126100  1
  H  H26  1  0.84408400  0.51126100  0.43711500  1
  Br  Br27  1  0.84725100  0.15309500  0.27394600  1
  Br  Br28  1  0.15309500  0.27394600  0.84725100  1
  Br  Br29  1  0.27394600  0.84725100  0.15309500  1
  Br  Br30  1  0.15274900  0.84690500  0.72605400  1
  Br  Br31  1  0.84690500  0.72605400  0.15274900  1
  Br  Br32  1  0.72605400  0.15274900  0.84690500  1
  O  O33  1  0.14346800  0.18898400  0.44355100  1
  O  O34  1  0.18898400  0.44355100  0.14346800  1
  O  O35  1  0.44355100  0.14346800  0.18898400  1
  O  O36  1  0.85653200  0.81101600  0.55644900  1
  O  O37  1  0.81101600  0.55644900  0.85653200  1
  O  O38  1  0.55644900  0.85653200  0.81101600  1
  O  O39  1  0.50811800  0.44470900  0.19969500  1
  O  O40  1  0.44470900  0.19969500  0.50811800  1
  O  O41  1  0.19969500  0.50811800  0.44470900  1
  O  O42  1  0.49188200  0.55529100  0.80030500  1
  O  O43  1  0.55529100  0.80030500  0.49188200  1
  O  O44  1  0.80030500  0.49188200  0.55529100  1
