# generated using pymatgen
data_Li(CrS2)2
_symmetry_space_group_name_H-M   'P 1'
_cell_length_a   6.85804785
_cell_length_b   5.90482790
_cell_length_c   6.13453914
_cell_angle_alpha   90.59440023
_cell_angle_beta   90.00441479
_cell_angle_gamma   89.98196212
_symmetry_Int_Tables_number   1
_chemical_formula_structural   Li(CrS2)2
_chemical_formula_sum   'Li2 Cr4 S8'
_cell_volume   248.40841479
_cell_formula_units_Z   2
loop_
 _symmetry_equiv_pos_site_id
 _symmetry_equiv_pos_as_xyz
  1  'x, y, z'
loop_
 _atom_site_type_symbol
 _atom_site_label
 _atom_site_symmetry_multiplicity
 _atom_site_fract_x
 _atom_site_fract_y
 _atom_site_fract_z
 _atom_site_occupancy
  Li  Li0  1  0.00003700  0.99999100  0.99998700  1
  Li  Li1  1  0.49998700  0.99999400  0.99998900  1
  Cr  Cr2  1  0.25000400  0.49997400  0.50002100  1
  Cr  Cr3  1  0.74994900  0.49996100  0.50000800  1
  Cr  Cr4  1  0.99995800  0.00015500  0.49999800  1
  Cr  Cr5  1  0.49984800  0.00004000  0.50009500  1
  S  S6  1  0.00018600  0.33045600  0.28487100  1
  S  S7  1  0.49990200  0.33091900  0.28469600  1
  S  S8  1  0.24985300  0.83267200  0.28014200  1
  S  S9  1  0.75022400  0.83303200  0.27995600  1
  S  S10  1  0.24981600  0.16731400  0.71981500  1
  S  S11  1  0.75020400  0.16692400  0.72000900  1
  S  S12  1  0.49987600  0.66906300  0.71529400  1
  S  S13  1  0.00015700  0.66950500  0.71511700  1
