# generated using pymatgen
data_Ce4SiI5
_symmetry_space_group_name_H-M   'P 1'
_cell_length_a   10.31949652
_cell_length_b   10.31949652
_cell_length_c   9.14727075
_cell_angle_alpha   77.80531928
_cell_angle_beta   77.80531928
_cell_angle_gamma   24.27129032
_symmetry_Int_Tables_number   1
_chemical_formula_structural   Ce4SiI5
_chemical_formula_sum   'Ce4 Si1 I5'
_cell_volume   390.95784083
_cell_formula_units_Z   1
loop_
 _symmetry_equiv_pos_site_id
 _symmetry_equiv_pos_as_xyz
  1  'x, y, z'
loop_
 _atom_site_type_symbol
 _atom_site_label
 _atom_site_symmetry_multiplicity
 _atom_site_fract_x
 _atom_site_fract_y
 _atom_site_fract_z
 _atom_site_occupancy
  Ce  Ce0  1  0.85569800  0.85569800  0.07245800  1
  Ce  Ce1  1  0.14430200  0.14430200  0.92754200  1
  Ce  Ce2  1  0.50206900  0.50206900  0.21262300  1
  Ce  Ce3  1  0.49793100  0.49793100  0.78737700  1
  Si  Si4  1  0.00000000  0.00000000  0.00000000  1
  I  I5  1  0.66891000  0.66891000  0.17192800  1
  I  I6  1  0.33109000  0.33109000  0.82807200  1
  I  I7  1  0.66102000  0.66102000  0.66572100  1
  I  I8  1  0.33898000  0.33898000  0.33427900  1
  I  I9  1  0.00000000  0.00000000  0.50000000  1
