# generated using pymatgen
data_CaZrTi2O7
_symmetry_space_group_name_H-M   'P 1'
_cell_length_a   7.28565500
_cell_length_b   7.31520240
_cell_length_c   11.47749456
_cell_angle_alpha   80.97728709
_cell_angle_beta   80.84894122
_cell_angle_gamma   60.60794090
_symmetry_Int_Tables_number   1
_chemical_formula_structural   CaZrTi2O7
_chemical_formula_sum   'Ca4 Zr4 Ti8 O28'
_cell_volume   523.97314528
_cell_formula_units_Z   4
loop_
 _symmetry_equiv_pos_site_id
 _symmetry_equiv_pos_as_xyz
  1  'x, y, z'
loop_
 _atom_site_type_symbol
 _atom_site_label
 _atom_site_symmetry_multiplicity
 _atom_site_fract_x
 _atom_site_fract_y
 _atom_site_fract_z
 _atom_site_occupancy
  Ca  Ca0  1  0.24760300  0.49970200  0.00047600  1
  Ca  Ca1  1  0.50008900  0.75363000  0.48912100  1
  Ca  Ca2  1  0.75239700  0.50029800  0.99952400  1
  Ca  Ca3  1  0.49991100  0.24637000  0.51087900  1
  Zr  Zr4  1  0.00349500  0.24302200  0.52701800  1
  Zr  Zr5  1  0.75566700  0.99912700  0.97470600  1
  Zr  Zr6  1  0.99650500  0.75697800  0.47298200  1
  Zr  Zr7  1  0.24433300  0.00087300  0.02529400  1
  Ti  Ti8  1  0.13709500  0.37260700  0.75263700  1
  Ti  Ti9  1  0.62224400  0.88498900  0.74580400  1
  Ti  Ti10  1  0.86290500  0.62739300  0.24736300  1
  Ti  Ti11  1  0.37775600  0.11501100  0.25419600  1
  Ti  Ti12  1  0.87463000  0.12754100  0.25169500  1
  Ti  Ti13  1  0.12537000  0.87245900  0.74830500  1
  Ti  Ti14  1  0.41473600  0.51744100  0.24613600  1
  Ti  Ti15  1  0.58526400  0.48255900  0.75386400  1
  O  O16  1  0.19851400  0.44512900  0.22247300  1
  O  O17  1  0.57926600  0.83569300  0.28170700  1
  O  O18  1  0.80148600  0.55487100  0.77752700  1
  O  O19  1  0.42073400  0.16430700  0.71829300  1
  O  O20  1  0.33718700  0.60408700  0.39508600  1
  O  O21  1  0.39168800  0.66895600  0.09843300  1
  O  O22  1  0.66281300  0.39591300  0.60491400  1
  O  O23  1  0.60831200  0.33104400  0.90156700  1
  O  O24  1  0.12082600  0.29569000  0.92577000  1
  O  O25  1  0.70839800  0.87809200  0.57110800  1
  O  O26  1  0.87917400  0.70431000  0.07423000  1
  O  O27  1  0.29160200  0.12190800  0.42889200  1
  O  O28  1  0.06083800  0.16285000  0.70905700  1
  O  O29  1  0.83694200  0.93228100  0.79094200  1
  O  O30  1  0.93916200  0.83715000  0.29094300  1
  O  O31  1  0.16305800  0.06771900  0.20905800  1
  O  O32  1  0.25238100  0.55627100  0.77740900  1
  O  O33  1  0.43233400  0.78028900  0.71673200  1
  O  O34  1  0.74761900  0.44372900  0.22259100  1
  O  O35  1  0.56766600  0.21971100  0.28326800  1
  O  O36  1  0.54095400  0.88055500  0.91741700  1
  O  O37  1  0.11780700  0.46413100  0.58348000  1
  O  O38  1  0.45904600  0.11944500  0.08258300  1
  O  O39  1  0.88219300  0.53586900  0.41652000  1
  O  O40  1  0.87841100  0.11867700  0.08240700  1
  O  O41  1  0.87937100  0.12454900  0.42021100  1
  O  O42  1  0.12158900  0.88132300  0.91759300  1
  O  O43  1  0.12062900  0.87545100  0.57978900  1
