# generated using pymatgen
data_K3P6N11
_symmetry_space_group_name_H-M   'P 1'
_cell_length_a   10.49469700
_cell_length_b   10.49469700
_cell_length_c   10.49469700
_cell_angle_alpha   90.00000000
_cell_angle_beta   90.00000000
_cell_angle_gamma   90.00000000
_symmetry_Int_Tables_number   1
_chemical_formula_structural   K3P6N11
_chemical_formula_sum   'K12 P24 N44'
_cell_volume   1155.87191844
_cell_formula_units_Z   4
loop_
 _symmetry_equiv_pos_site_id
 _symmetry_equiv_pos_as_xyz
  1  'x, y, z'
loop_
 _atom_site_type_symbol
 _atom_site_label
 _atom_site_symmetry_multiplicity
 _atom_site_fract_x
 _atom_site_fract_y
 _atom_site_fract_z
 _atom_site_occupancy
  K  K0  1  0.99943800  0.99943800  0.99943800  1
  K  K1  1  0.24943800  0.25056200  0.74943800  1
  K  K2  1  0.25056200  0.74943800  0.24943800  1
  K  K3  1  0.74943800  0.24943800  0.25056200  1
  K  K4  1  0.49943800  0.50056200  0.00056200  1
  K  K5  1  0.50056200  0.00056200  0.49943800  1
  K  K6  1  0.00056200  0.49943800  0.50056200  1
  K  K7  1  0.75056200  0.75056200  0.75056200  1
  K  K8  1  0.87500000  0.12500000  0.62500000  1
  K  K9  1  0.12500000  0.62500000  0.87500000  1
  K  K10  1  0.62500000  0.87500000  0.12500000  1
  K  K11  1  0.37500000  0.37500000  0.37500000  1
  P  P12  1  0.67810200  0.44888400  0.53488600  1
  P  P13  1  0.17810200  0.05111600  0.46511400  1
  P  P14  1  0.44888400  0.53488600  0.67810200  1
  P  P15  1  0.55111600  0.03488600  0.82189800  1
  P  P16  1  0.53488600  0.67810200  0.44888400  1
  P  P17  1  0.96511400  0.32189800  0.94888400  1
  P  P18  1  0.42810200  0.78488600  0.80111600  1
  P  P19  1  0.92810200  0.71511400  0.19888400  1
  P  P20  1  0.57189800  0.28488600  0.69888400  1
  P  P21  1  0.71511400  0.19888400  0.92810200  1
  P  P22  1  0.69888400  0.57189800  0.28488600  1
  P  P23  1  0.19888400  0.92810200  0.71511400  1
  P  P24  1  0.78488600  0.80111600  0.42810200  1
  P  P25  1  0.80111600  0.42810200  0.78488600  1
  P  P26  1  0.28488600  0.69888400  0.57189800  1
  P  P27  1  0.21511400  0.30111600  0.07189800  1
  P  P28  1  0.30111600  0.07189800  0.21511400  1
  P  P29  1  0.46511400  0.17810200  0.05111600  1
  P  P30  1  0.03488600  0.82189800  0.55111600  1
  P  P31  1  0.94888400  0.96511400  0.32189800  1
  P  P32  1  0.05111600  0.46511400  0.17810200  1
  P  P33  1  0.82189800  0.55111600  0.03488600  1
  P  P34  1  0.32189800  0.94888400  0.96511400  1
  P  P35  1  0.07189800  0.21511400  0.30111600  1
  N  N36  1  0.54745000  0.54745000  0.54745000  1
  N  N37  1  0.79745000  0.70255000  0.29745000  1
  N  N38  1  0.70255000  0.29745000  0.79745000  1
  N  N39  1  0.29745000  0.79745000  0.70255000  1
  N  N40  1  0.04745000  0.95255000  0.45255000  1
  N  N41  1  0.95255000  0.45255000  0.04745000  1
  N  N42  1  0.45255000  0.04745000  0.95255000  1
  N  N43  1  0.20255000  0.20255000  0.20255000  1
  N  N44  1  0.62500000  0.30321800  0.55321800  1
  N  N45  1  0.69678200  0.05321800  0.87500000  1
  N  N46  1  0.55321800  0.62500000  0.30321800  1
  N  N47  1  0.94678200  0.37500000  0.80321800  1
  N  N48  1  0.30321800  0.55321800  0.62500000  1
  N  N49  1  0.44678200  0.12500000  0.19678200  1
  N  N50  1  0.05321800  0.87500000  0.69678200  1
  N  N51  1  0.80321800  0.94678200  0.37500000  1
  N  N52  1  0.19678200  0.44678200  0.12500000  1
  N  N53  1  0.87500000  0.69678200  0.05321800  1
  N  N54  1  0.37500000  0.80321800  0.94678200  1
  N  N55  1  0.27941900  0.01375600  0.35420100  1
  N  N56  1  0.12500000  0.19678200  0.44678200  1
  N  N57  1  0.23624400  0.02941900  0.60420100  1
  N  N58  1  0.47058100  0.39579900  0.73624400  1
  N  N59  1  0.52941900  0.89579900  0.76375600  1
  N  N60  1  0.39579900  0.73624400  0.47058100  1
  N  N61  1  0.10420100  0.26375600  0.97058100  1
  N  N62  1  0.48624400  0.64579900  0.77941900  1
  N  N63  1  0.98624400  0.85420100  0.22058100  1
  N  N64  1  0.51375600  0.14579900  0.72058100  1
  N  N65  1  0.85420100  0.22058100  0.98624400  1
  N  N66  1  0.72058100  0.51375600  0.14579900  1
  N  N67  1  0.22058100  0.98624400  0.85420100  1
  N  N68  1  0.64579900  0.77941900  0.48624400  1
  N  N69  1  0.77941900  0.48624400  0.64579900  1
  N  N70  1  0.14579900  0.72058100  0.51375600  1
  N  N71  1  0.35420100  0.27941900  0.01375600  1
  N  N72  1  0.01375600  0.35420100  0.27941900  1
  N  N73  1  0.26375600  0.97058100  0.10420100  1
  N  N74  1  0.76375600  0.52941900  0.89579900  1
  N  N75  1  0.02941900  0.60420100  0.23624400  1
  N  N76  1  0.97058100  0.10420100  0.26375600  1
  N  N77  1  0.89579900  0.76375600  0.52941900  1
  N  N78  1  0.60420100  0.23624400  0.02941900  1
  N  N79  1  0.73624400  0.47058100  0.39579900  1
