# generated using pymatgen
data_CeS2
_symmetry_space_group_name_H-M   'P 1'
_cell_length_a   4.03679300
_cell_length_b   8.00991600
_cell_length_c   8.04619007
_cell_angle_alpha   89.82374424
_cell_angle_beta   90.00000000
_cell_angle_gamma   90.00000000
_symmetry_Int_Tables_number   1
_chemical_formula_structural   CeS2
_chemical_formula_sum   'Ce4 S8'
_cell_volume   260.16727869
_cell_formula_units_Z   4
loop_
 _symmetry_equiv_pos_site_id
 _symmetry_equiv_pos_as_xyz
  1  'x, y, z'
loop_
 _atom_site_type_symbol
 _atom_site_label
 _atom_site_symmetry_multiplicity
 _atom_site_fract_x
 _atom_site_fract_y
 _atom_site_fract_z
 _atom_site_occupancy
  Ce  Ce0  1  0.71764700  0.63030000  0.27767100  1
  Ce  Ce1  1  0.21764700  0.86970000  0.72232900  1
  Ce  Ce2  1  0.28235300  0.36970000  0.72232900  1
  Ce  Ce3  1  0.78235300  0.13030000  0.27767100  1
  S  S4  1  0.16133600  0.60869700  0.00204000  1
  S  S5  1  0.66133600  0.89130300  0.99796000  1
  S  S6  1  0.83866400  0.39130300  0.99796000  1
  S  S7  1  0.33866400  0.10869700  0.00204000  1
  S  S8  1  0.76102600  0.12454300  0.63600600  1
  S  S9  1  0.26102600  0.37545700  0.36399400  1
  S  S10  1  0.23897400  0.87545700  0.36399400  1
  S  S11  1  0.73897400  0.62454300  0.63600600  1
