# generated using pymatgen
data_Ba2SnS3F2
_symmetry_space_group_name_H-M   'P 1'
_cell_length_a   6.30765200
_cell_length_b   6.43490900
_cell_length_c   19.59541400
_cell_angle_alpha   90.00000000
_cell_angle_beta   90.00000000
_cell_angle_gamma   90.00000000
_symmetry_Int_Tables_number   1
_chemical_formula_structural   Ba2SnS3F2
_chemical_formula_sum   'Ba8 Sn4 S12 F8'
_cell_volume   795.36152391
_cell_formula_units_Z   4
loop_
 _symmetry_equiv_pos_site_id
 _symmetry_equiv_pos_as_xyz
  1  'x, y, z'
loop_
 _atom_site_type_symbol
 _atom_site_label
 _atom_site_symmetry_multiplicity
 _atom_site_fract_x
 _atom_site_fract_y
 _atom_site_fract_z
 _atom_site_occupancy
  Ba  Ba0  1  0.24725900  0.49763300  0.42310200  1
  Ba  Ba1  1  0.74725900  0.00236700  0.07689800  1
  Ba  Ba2  1  0.25274100  0.99763300  0.57689800  1
  Ba  Ba3  1  0.75274100  0.50236700  0.92310200  1
  Ba  Ba4  1  0.75274100  0.50236700  0.57689800  1
  Ba  Ba5  1  0.25274100  0.99763300  0.92310200  1
  Ba  Ba6  1  0.74725900  0.00236700  0.42310200  1
  Ba  Ba7  1  0.24725900  0.49763300  0.07689800  1
  Sn  Sn8  1  0.15742000  0.58482200  0.75000000  1
  Sn  Sn9  1  0.65742000  0.91517800  0.75000000  1
  Sn  Sn10  1  0.34258000  0.08482200  0.25000000  1
  Sn  Sn11  1  0.84258000  0.41517800  0.25000000  1
  S  S12  1  0.74472500  0.51557300  0.13790700  1
  S  S13  1  0.76345600  0.54223100  0.75000000  1
  S  S14  1  0.73654400  0.04223100  0.25000000  1
  S  S15  1  0.23654400  0.45776900  0.25000000  1
  S  S16  1  0.24472500  0.98442700  0.36209300  1
  S  S17  1  0.75527500  0.01557300  0.86209300  1
  S  S18  1  0.25527500  0.48442700  0.63790700  1
  S  S19  1  0.25527500  0.48442700  0.86209300  1
  S  S20  1  0.74472500  0.51557300  0.36209300  1
  S  S21  1  0.24472500  0.98442700  0.13790700  1
  S  S22  1  0.26345600  0.95776900  0.75000000  1
  S  S23  1  0.75527500  0.01557300  0.63790700  1
  F  F24  1  0.49912100  0.25247200  0.99924400  1
  F  F25  1  0.99912100  0.24752800  0.50075600  1
  F  F26  1  0.50087900  0.74752800  0.49924400  1
  F  F27  1  0.49912100  0.25247200  0.50075600  1
  F  F28  1  0.99912100  0.24752800  0.99924400  1
  F  F29  1  0.00087900  0.75247200  0.49924400  1
  F  F30  1  0.50087900  0.74752800  0.00075600  1
  F  F31  1  0.00087900  0.75247200  0.00075600  1
