# generated using pymatgen
data_ZnH6(Se2N)2
_symmetry_space_group_name_H-M   'P 1'
_cell_length_a   6.13001008
_cell_length_b   6.75581911
_cell_length_c   12.03140700
_cell_angle_alpha   90.00000000
_cell_angle_beta   90.00000000
_cell_angle_gamma   114.10001840
_symmetry_Int_Tables_number   1
_chemical_formula_structural   ZnH6(Se2N)2
_chemical_formula_sum   'Zn2 H12 Se8 N4'
_cell_volume   454.82826893
_cell_formula_units_Z   2
loop_
 _symmetry_equiv_pos_site_id
 _symmetry_equiv_pos_as_xyz
  1  'x, y, z'
loop_
 _atom_site_type_symbol
 _atom_site_label
 _atom_site_symmetry_multiplicity
 _atom_site_fract_x
 _atom_site_fract_y
 _atom_site_fract_z
 _atom_site_occupancy
  Zn  Zn0  1  0.17146900  0.11079000  0.25579800  1
  Zn  Zn1  1  0.82853100  0.88921000  0.75579800  1
  H  H2  1  0.72793600  0.00185300  0.19056400  1
  H  H3  1  0.27206400  0.99814700  0.69056400  1
  H  H4  1  0.82758100  0.24772700  0.24234900  1
  H  H5  1  0.17241900  0.75227300  0.74234900  1
  H  H6  1  0.73144000  0.03710400  0.32603600  1
  H  H7  1  0.26856000  0.96289600  0.82603600  1
  H  H8  1  0.98659600  0.80712800  0.10382500  1
  H  H9  1  0.01340400  0.19287200  0.60382500  1
  H  H10  1  0.17839000  0.74833800  0.17935000  1
  H  H11  1  0.82161000  0.25166200  0.67935000  1
  H  H12  1  0.27512000  0.93678100  0.08194100  1
  H  H13  1  0.72488000  0.06321900  0.58194100  1
  Se  Se14  1  0.43354000  0.46466800  0.18285000  1
  Se  Se15  1  0.56646000  0.53533200  0.68285000  1
  Se  Se16  1  0.36995100  0.41087400  0.98781600  1
  Se  Se17  1  0.63004900  0.58912600  0.48781600  1
  Se  Se18  1  0.97708700  0.36221100  0.94003100  1
  Se  Se19  1  0.02291300  0.63778900  0.44003100  1
  Se  Se20  1  0.26937300  0.01879600  0.44029700  1
  Se  Se21  1  0.73062700  0.98120400  0.94029700  1
  N  N22  1  0.82505900  0.09726400  0.25433000  1
  N  N23  1  0.17494100  0.90273600  0.75433000  1
  N  N24  1  0.14896800  0.87244700  0.14297300  1
  N  N25  1  0.85103200  0.12755300  0.64297300  1
