# generated using pymatgen
data_Sm2Fe14C
_symmetry_space_group_name_H-M   'P 1'
_cell_length_a   8.72900300
_cell_length_b   8.72900300
_cell_length_c   11.82989300
_cell_angle_alpha   90.00000000
_cell_angle_beta   90.00000000
_cell_angle_gamma   90.00000000
_symmetry_Int_Tables_number   1
_chemical_formula_structural   Sm2Fe14C
_chemical_formula_sum   'Sm8 Fe56 C4'
_cell_volume   901.38453370
_cell_formula_units_Z   4
loop_
 _symmetry_equiv_pos_site_id
 _symmetry_equiv_pos_as_xyz
  1  'x, y, z'
loop_
 _atom_site_type_symbol
 _atom_site_label
 _atom_site_symmetry_multiplicity
 _atom_site_fract_x
 _atom_site_fract_y
 _atom_site_fract_z
 _atom_site_occupancy
  Sm  Sm0  1  0.23940500  0.76059500  0.50000000  1
  Sm  Sm1  1  0.76059500  0.23940500  0.50000000  1
  Sm  Sm2  1  0.26059500  0.26059500  0.00000000  1
  Sm  Sm3  1  0.73940500  0.73940500  0.00000000  1
  Sm  Sm4  1  0.64344500  0.64344500  0.50000000  1
  Sm  Sm5  1  0.35655500  0.35655500  0.50000000  1
  Sm  Sm6  1  0.85655500  0.14344500  0.00000000  1
  Sm  Sm7  1  0.14344500  0.85655500  0.00000000  1
  Fe  Fe8  1  0.00000000  0.50000000  0.50000000  1
  Fe  Fe9  1  0.50000000  0.00000000  0.00000000  1
  Fe  Fe10  1  0.50000000  0.00000000  0.50000000  1
  Fe  Fe11  1  0.00000000  0.50000000  0.00000000  1
  Fe  Fe12  1  0.50000000  0.50000000  0.10716700  1
  Fe  Fe13  1  0.00000000  0.00000000  0.60716700  1
  Fe  Fe14  1  0.50000000  0.50000000  0.89283300  1
  Fe  Fe15  1  0.00000000  0.00000000  0.39283300  1
  Fe  Fe16  1  0.18339900  0.81660100  0.25473100  1
  Fe  Fe17  1  0.81660100  0.18339900  0.25473100  1
  Fe  Fe18  1  0.31660100  0.31660100  0.75473100  1
  Fe  Fe19  1  0.68339900  0.68339900  0.75473100  1
  Fe  Fe20  1  0.81660100  0.18339900  0.74526900  1
  Fe  Fe21  1  0.18339900  0.81660100  0.74526900  1
  Fe  Fe22  1  0.68339900  0.68339900  0.24526900  1
  Fe  Fe23  1  0.31660100  0.31660100  0.24526900  1
  Fe  Fe24  1  0.40255600  0.59744400  0.29394600  1
  Fe  Fe25  1  0.59744400  0.40255600  0.29394600  1
  Fe  Fe26  1  0.09744400  0.09744400  0.79394600  1
  Fe  Fe27  1  0.90255600  0.90255600  0.79394600  1
  Fe  Fe28  1  0.59744400  0.40255600  0.70605400  1
  Fe  Fe29  1  0.40255600  0.59744400  0.70605400  1
  Fe  Fe30  1  0.90255600  0.90255600  0.20605400  1
  Fe  Fe31  1  0.09744400  0.09744400  0.20605400  1
  Fe  Fe32  1  0.14101200  0.53579900  0.32372100  1
  Fe  Fe33  1  0.85898800  0.46420100  0.32372100  1
  Fe  Fe34  1  0.35898800  0.03579900  0.82372100  1
  Fe  Fe35  1  0.64101200  0.96420100  0.82372100  1
  Fe  Fe36  1  0.85898800  0.46420100  0.67627900  1
  Fe  Fe37  1  0.14101200  0.53579900  0.67627900  1
  Fe  Fe38  1  0.64101200  0.96420100  0.17627900  1
  Fe  Fe39  1  0.35898800  0.03579900  0.17627900  1
  Fe  Fe40  1  0.53579900  0.14101200  0.32372100  1
  Fe  Fe41  1  0.46420100  0.85898800  0.32372100  1
  Fe  Fe42  1  0.03579900  0.35898800  0.82372100  1
  Fe  Fe43  1  0.96420100  0.64101200  0.82372100  1
  Fe  Fe44  1  0.46420100  0.85898800  0.67627900  1
  Fe  Fe45  1  0.53579900  0.14101200  0.67627900  1
  Fe  Fe46  1  0.96420100  0.64101200  0.17627900  1
  Fe  Fe47  1  0.03579900  0.35898800  0.17627900  1
  Fe  Fe48  1  0.93479700  0.72584900  0.37871100  1
  Fe  Fe49  1  0.06520300  0.27415100  0.37871100  1
  Fe  Fe50  1  0.56520300  0.22584900  0.87871100  1
  Fe  Fe51  1  0.43479700  0.77415100  0.87871100  1
  Fe  Fe52  1  0.06520300  0.27415100  0.62128900  1
  Fe  Fe53  1  0.93479700  0.72584900  0.62128900  1
  Fe  Fe54  1  0.43479700  0.77415100  0.12128900  1
  Fe  Fe55  1  0.56520300  0.22584900  0.12128900  1
  Fe  Fe56  1  0.72584900  0.93479700  0.37871100  1
  Fe  Fe57  1  0.27415100  0.06520300  0.37871100  1
  Fe  Fe58  1  0.22584900  0.56520300  0.87871100  1
  Fe  Fe59  1  0.77415100  0.43479700  0.87871100  1
  Fe  Fe60  1  0.27415100  0.06520300  0.62128900  1
  Fe  Fe61  1  0.72584900  0.93479700  0.62128900  1
  Fe  Fe62  1  0.77415100  0.43479700  0.12128900  1
  Fe  Fe63  1  0.22584900  0.56520300  0.12128900  1
  C  C64  1  0.87314300  0.87314300  0.50000000  1
  C  C65  1  0.12685700  0.12685700  0.50000000  1
  C  C66  1  0.62685700  0.37314300  0.00000000  1
  C  C67  1  0.37314300  0.62685700  0.00000000  1
