# generated using pymatgen
data_Eu3B2Pt7
_symmetry_space_group_name_H-M   'P 1'
_cell_length_a   8.41347781
_cell_length_b   8.41347781
_cell_length_c   8.41347764
_cell_angle_alpha   39.06153462
_cell_angle_beta   39.06153462
_cell_angle_gamma   39.06153442
_symmetry_Int_Tables_number   1
_chemical_formula_structural   Eu3B2Pt7
_chemical_formula_sum   'Eu3 B2 Pt7'
_cell_volume   212.70780201
_cell_formula_units_Z   1
loop_
 _symmetry_equiv_pos_site_id
 _symmetry_equiv_pos_as_xyz
  1  'x, y, z'
loop_
 _atom_site_type_symbol
 _atom_site_label
 _atom_site_symmetry_multiplicity
 _atom_site_fract_x
 _atom_site_fract_y
 _atom_site_fract_z
 _atom_site_occupancy
  Eu  Eu0  1  0.85581900  0.85581900  0.85581900  1
  Eu  Eu1  1  0.14418100  0.14418100  0.14418100  1
  Eu  Eu2  1  0.00000000  0.00000000  0.00000000  1
  B  B3  1  0.66894000  0.66894000  0.66894000  1
  B  B4  1  0.33106000  0.33106000  0.33106000  1
  Pt  Pt5  1  0.43616000  0.93223500  0.43616000  1
  Pt  Pt6  1  0.43616000  0.43616000  0.93223500  1
  Pt  Pt7  1  0.93223500  0.43616000  0.43616000  1
  Pt  Pt8  1  0.56384000  0.06776500  0.56384000  1
  Pt  Pt9  1  0.56384000  0.56384000  0.06776500  1
  Pt  Pt10  1  0.06776500  0.56384000  0.56384000  1
  Pt  Pt11  1  0.50000000  0.50000000  0.50000000  1
