# generated using pymatgen
data_Ba4SiP4
_symmetry_space_group_name_H-M   'P 1'
_cell_length_a   13.13525900
_cell_length_b   13.13525900
_cell_length_c   13.13525900
_cell_angle_alpha   90.00000000
_cell_angle_beta   90.00000000
_cell_angle_gamma   90.00000000
_symmetry_Int_Tables_number   1
_chemical_formula_structural   Ba4SiP4
_chemical_formula_sum   'Ba32 Si8 P32'
_cell_volume   2266.29229245
_cell_formula_units_Z   8
loop_
 _symmetry_equiv_pos_site_id
 _symmetry_equiv_pos_as_xyz
  1  'x, y, z'
loop_
 _atom_site_type_symbol
 _atom_site_label
 _atom_site_symmetry_multiplicity
 _atom_site_fract_x
 _atom_site_fract_y
 _atom_site_fract_z
 _atom_site_occupancy
  Ba  Ba0  1  0.90662600  0.86720000  0.64584700  1
  Ba  Ba1  1  0.90662600  0.13280000  0.35415300  1
  Ba  Ba2  1  0.86720000  0.64584700  0.90662600  1
  Ba  Ba3  1  0.13280000  0.64584700  0.09337400  1
  Ba  Ba4  1  0.64584700  0.90662600  0.86720000  1
  Ba  Ba5  1  0.35415300  0.09337400  0.86720000  1
  Ba  Ba6  1  0.59337400  0.85415300  0.36720000  1
  Ba  Ba7  1  0.59337400  0.14584700  0.63280000  1
  Ba  Ba8  1  0.40662600  0.85415300  0.63280000  1
  Ba  Ba9  1  0.14584700  0.63280000  0.59337400  1
  Ba  Ba10  1  0.63280000  0.40662600  0.85415300  1
  Ba  Ba11  1  0.63280000  0.59337400  0.14584700  1
  Ba  Ba12  1  0.85415300  0.36720000  0.59337400  1
  Ba  Ba13  1  0.36720000  0.59337400  0.85415300  1
  Ba  Ba14  1  0.85415300  0.63280000  0.40662600  1
  Ba  Ba15  1  0.14584700  0.36720000  0.40662600  1
  Ba  Ba16  1  0.36720000  0.40662600  0.14584700  1
  Ba  Ba17  1  0.35415300  0.90662600  0.13280000  1
  Ba  Ba18  1  0.64584700  0.09337400  0.13280000  1
  Ba  Ba19  1  0.86720000  0.35415300  0.09337400  1
  Ba  Ba20  1  0.13280000  0.35415300  0.90662600  1
  Ba  Ba21  1  0.09337400  0.13280000  0.64584700  1
  Ba  Ba22  1  0.09337400  0.86720000  0.35415300  1
  Ba  Ba23  1  0.40662600  0.14584700  0.36720000  1
  Ba  Ba24  1  0.14593100  0.14593100  0.14593100  1
  Ba  Ba25  1  0.35406900  0.64593100  0.35406900  1
  Ba  Ba26  1  0.64593100  0.35406900  0.35406900  1
  Ba  Ba27  1  0.35406900  0.35406900  0.64593100  1
  Ba  Ba28  1  0.14593100  0.85406900  0.85406900  1
  Ba  Ba29  1  0.85406900  0.85406900  0.14593100  1
  Ba  Ba30  1  0.85406900  0.14593100  0.85406900  1
  Ba  Ba31  1  0.64593100  0.64593100  0.64593100  1
  Si  Si32  1  0.50000000  0.75000000  0.00000000  1
  Si  Si33  1  0.50000000  0.25000000  0.00000000  1
  Si  Si34  1  0.00000000  0.50000000  0.25000000  1
  Si  Si35  1  0.00000000  0.50000000  0.75000000  1
  Si  Si36  1  0.25000000  0.00000000  0.50000000  1
  Si  Si37  1  0.50000000  0.50000000  0.50000000  1
  Si  Si38  1  0.00000000  0.00000000  0.00000000  1
  Si  Si39  1  0.75000000  0.00000000  0.50000000  1
  P  P40  1  0.89922600  0.39136300  0.34604900  1
  P  P41  1  0.10863700  0.60077400  0.84604900  1
  P  P42  1  0.60077400  0.15395100  0.89136300  1
  P  P43  1  0.60077400  0.84604900  0.10863700  1
  P  P44  1  0.89136300  0.39922600  0.84604900  1
  P  P45  1  0.39922600  0.84604900  0.89136300  1
  P  P46  1  0.89136300  0.60077400  0.15395100  1
  P  P47  1  0.10863700  0.39922600  0.15395100  1
  P  P48  1  0.39922600  0.15395100  0.10863700  1
  P  P49  1  0.84604900  0.10863700  0.60077400  1
  P  P50  1  0.60863700  0.34604900  0.10077400  1
  P  P51  1  0.15395100  0.89136300  0.60077400  1
  P  P52  1  0.10077400  0.39136300  0.65395100  1
  P  P53  1  0.34604900  0.10077400  0.60863700  1
  P  P54  1  0.34604900  0.89922600  0.39136300  1
  P  P55  1  0.15395100  0.10863700  0.39922600  1
  P  P56  1  0.89852300  0.89852300  0.89852300  1
  P  P57  1  0.60147700  0.39852300  0.60147700  1
  P  P58  1  0.39852300  0.60147700  0.60147700  1
  P  P59  1  0.60147700  0.60147700  0.39852300  1
  P  P60  1  0.89852300  0.10147700  0.10147700  1
  P  P61  1  0.10147700  0.10147700  0.89852300  1
  P  P62  1  0.10147700  0.89852300  0.10147700  1
  P  P63  1  0.39852300  0.39852300  0.39852300  1
  P  P64  1  0.84604900  0.89136300  0.39922600  1
  P  P65  1  0.39136300  0.34604900  0.89922600  1
  P  P66  1  0.60863700  0.65395100  0.89922600  1
  P  P67  1  0.10077400  0.60863700  0.34604900  1
  P  P68  1  0.89922600  0.60863700  0.65395100  1
  P  P69  1  0.65395100  0.10077400  0.39136300  1
  P  P70  1  0.65395100  0.89922600  0.60863700  1
  P  P71  1  0.39136300  0.65395100  0.10077400  1
