# generated using pymatgen
data_CaCdP2O7
_symmetry_space_group_name_H-M   'P 1'
_cell_length_a   6.73104400
_cell_length_b   6.76353934
_cell_length_c   6.77216458
_cell_angle_alpha   65.67167992
_cell_angle_beta   84.21806119
_cell_angle_gamma   87.29874768
_symmetry_Int_Tables_number   1
_chemical_formula_structural   CaCdP2O7
_chemical_formula_sum   'Ca2 Cd2 P4 O14'
_cell_volume   279.49502591
_cell_formula_units_Z   2
loop_
 _symmetry_equiv_pos_site_id
 _symmetry_equiv_pos_as_xyz
  1  'x, y, z'
loop_
 _atom_site_type_symbol
 _atom_site_label
 _atom_site_symmetry_multiplicity
 _atom_site_fract_x
 _atom_site_fract_y
 _atom_site_fract_z
 _atom_site_occupancy
  Ca  Ca0  1  0.87764400  0.68747900  0.26386000  1
  Ca  Ca1  1  0.12235600  0.31252100  0.73614000  1
  Cd  Cd2  1  0.35098500  0.74102100  0.88870200  1
  Cd  Cd3  1  0.64901500  0.25897900  0.11129800  1
  P  P4  1  0.85225900  0.76950900  0.76167600  1
  P  P5  1  0.14774100  0.23049100  0.23832400  1
  P  P6  1  0.36847900  0.81025600  0.36519400  1
  P  P7  1  0.63152100  0.18974400  0.63480600  1
  O  O8  1  0.01174700  0.83519200  0.87068400  1
  O  O9  1  0.98825300  0.16480800  0.12931600  1
  O  O10  1  0.74293200  0.98332800  0.59979400  1
  O  O11  1  0.25706800  0.01667200  0.40020600  1
  O  O12  1  0.57924700  0.89117500  0.25924000  1
  O  O13  1  0.42075300  0.10882500  0.74076000  1
  O  O14  1  0.93391000  0.65418500  0.61943200  1
  O  O15  1  0.06609000  0.34581500  0.38056800  1
  O  O16  1  0.69059500  0.64017100  0.94552400  1
  O  O17  1  0.30940500  0.35982900  0.05447600  1
  O  O18  1  0.75567900  0.24290500  0.78265900  1
  O  O19  1  0.24432100  0.75709500  0.21734100  1
  O  O20  1  0.36604200  0.63510800  0.59814700  1
  O  O21  1  0.63395800  0.36489200  0.40185300  1
