# generated using pymatgen
data_HoOF
_symmetry_space_group_name_H-M   'P 1'
_cell_length_a   6.69814033
_cell_length_b   6.69814033
_cell_length_c   6.69814029
_cell_angle_alpha   32.98464454
_cell_angle_beta   32.98464454
_cell_angle_gamma   32.98464425
_symmetry_Int_Tables_number   1
_chemical_formula_structural   HoOF
_chemical_formula_sum   'Ho2 O2 F2'
_cell_volume   79.26086746
_cell_formula_units_Z   2
loop_
 _symmetry_equiv_pos_site_id
 _symmetry_equiv_pos_as_xyz
  1  'x, y, z'
loop_
 _atom_site_type_symbol
 _atom_site_label
 _atom_site_symmetry_multiplicity
 _atom_site_fract_x
 _atom_site_fract_y
 _atom_site_fract_z
 _atom_site_occupancy
  Ho  Ho0  1  0.25919700  0.25919700  0.25919700  1
  Ho  Ho1  1  0.74080300  0.74080300  0.74080300  1
  O  O2  1  0.37838000  0.37838000  0.37838000  1
  O  O3  1  0.62162000  0.62162000  0.62162000  1
  F  F4  1  0.13020300  0.13020300  0.13020300  1
  F  F5  1  0.86979700  0.86979700  0.86979700  1
