# generated using pymatgen
data_Gd2HfS5
_symmetry_space_group_name_H-M   'P 1'
_cell_length_a   7.31082500
_cell_length_b   7.82741800
_cell_length_c   11.57888200
_cell_angle_alpha   90.00000000
_cell_angle_beta   90.00000000
_cell_angle_gamma   90.00000000
_symmetry_Int_Tables_number   1
_chemical_formula_structural   Gd2HfS5
_chemical_formula_sum   'Gd8 Hf4 S20'
_cell_volume   662.60017003
_cell_formula_units_Z   4
loop_
 _symmetry_equiv_pos_site_id
 _symmetry_equiv_pos_as_xyz
  1  'x, y, z'
loop_
 _atom_site_type_symbol
 _atom_site_label
 _atom_site_symmetry_multiplicity
 _atom_site_fract_x
 _atom_site_fract_y
 _atom_site_fract_z
 _atom_site_occupancy
  Gd  Gd0  1  0.52359900  0.49774300  0.32147000  1
  Gd  Gd1  1  0.97640100  0.00225700  0.82147000  1
  Gd  Gd2  1  0.47640100  0.99774300  0.67853000  1
  Gd  Gd3  1  0.02359900  0.50225700  0.17853000  1
  Gd  Gd4  1  0.47640100  0.50225700  0.67853000  1
  Gd  Gd5  1  0.02359900  0.99774300  0.17853000  1
  Gd  Gd6  1  0.52359900  0.00225700  0.32147000  1
  Gd  Gd7  1  0.97640100  0.49774300  0.82147000  1
  Hf  Hf8  1  0.07566900  0.75000000  0.49352100  1
  Hf  Hf9  1  0.42433100  0.75000000  0.99352100  1
  Hf  Hf10  1  0.92433100  0.25000000  0.50647900  1
  Hf  Hf11  1  0.57566900  0.25000000  0.00647900  1
  S  S12  1  0.83881900  0.96348800  0.59113100  1
  S  S13  1  0.66118100  0.53651200  0.09113100  1
  S  S14  1  0.16118100  0.46348800  0.40886900  1
  S  S15  1  0.33881900  0.03651200  0.90886900  1
  S  S16  1  0.16118100  0.03651200  0.40886900  1
  S  S17  1  0.33881900  0.46348800  0.90886900  1
  S  S18  1  0.83881900  0.53651200  0.59113100  1
  S  S19  1  0.66118100  0.96348800  0.09113100  1
  S  S20  1  0.83602500  0.75000000  0.31874800  1
  S  S21  1  0.66397500  0.75000000  0.81874800  1
  S  S22  1  0.16397500  0.25000000  0.68125200  1
  S  S23  1  0.33602500  0.25000000  0.18125200  1
  S  S24  1  0.44514800  0.75000000  0.49528500  1
  S  S25  1  0.05485200  0.75000000  0.99528500  1
  S  S26  1  0.55485200  0.25000000  0.50471500  1
  S  S27  1  0.94514800  0.25000000  0.00471500  1
  S  S28  1  0.18722000  0.75000000  0.70645600  1
  S  S29  1  0.31278000  0.75000000  0.20645600  1
  S  S30  1  0.81278000  0.25000000  0.29354400  1
  S  S31  1  0.68722000  0.25000000  0.79354400  1
