# generated using pymatgen
data_LaNi3B
_symmetry_space_group_name_H-M   'P 1'
_cell_length_a   5.99444181
_cell_length_b   5.99444181
_cell_length_c   5.99444181
_cell_angle_alpha   131.19686109
_cell_angle_beta   107.10409091
_cell_angle_gamma   92.70784351
_symmetry_Int_Tables_number   1
_chemical_formula_structural   LaNi3B
_chemical_formula_sum   'La2 Ni6 B2'
_cell_volume   145.95611783
_cell_formula_units_Z   2
loop_
 _symmetry_equiv_pos_site_id
 _symmetry_equiv_pos_as_xyz
  1  'x, y, z'
loop_
 _atom_site_type_symbol
 _atom_site_label
 _atom_site_symmetry_multiplicity
 _atom_site_fract_x
 _atom_site_fract_y
 _atom_site_fract_z
 _atom_site_occupancy
  La  La0  1  0.81993900  0.56993900  0.25000000  1
  La  La1  1  0.18006100  0.43006100  0.75000000  1
  Ni  Ni2  1  0.32206000  0.50000000  0.32206000  1
  Ni  Ni3  1  0.67794000  0.50000000  0.67794000  1
  Ni  Ni4  1  0.67794000  0.00000000  0.17794000  1
  Ni  Ni5  1  0.32206000  0.00000000  0.82206000  1
  Ni  Ni6  1  0.00000000  0.00000000  0.00000000  1
  Ni  Ni7  1  0.50000000  0.00000000  0.50000000  1
  B  B8  1  0.38144100  0.13144100  0.25000000  1
  B  B9  1  0.61855900  0.86855900  0.75000000  1
