# generated using pymatgen
data_Ce3ZrSb5
_symmetry_space_group_name_H-M   'P 1'
_cell_length_a   9.41220780
_cell_length_b   9.41220780
_cell_length_c   6.32728000
_cell_angle_alpha   90.00000000
_cell_angle_beta   90.00000000
_cell_angle_gamma   119.99999858
_symmetry_Int_Tables_number   1
_chemical_formula_structural   Ce3ZrSb5
_chemical_formula_sum   'Ce6 Zr2 Sb10'
_cell_volume   485.43457429
_cell_formula_units_Z   2
loop_
 _symmetry_equiv_pos_site_id
 _symmetry_equiv_pos_as_xyz
  1  'x, y, z'
loop_
 _atom_site_type_symbol
 _atom_site_label
 _atom_site_symmetry_multiplicity
 _atom_site_fract_x
 _atom_site_fract_y
 _atom_site_fract_z
 _atom_site_occupancy
  Ce  Ce0  1  0.61741600  0.00000000  0.25000000  1
  Ce  Ce1  1  0.38258400  0.00000000  0.75000000  1
  Ce  Ce2  1  0.00000000  0.61741600  0.25000000  1
  Ce  Ce3  1  0.00000000  0.38258400  0.75000000  1
  Ce  Ce4  1  0.38258400  0.38258400  0.25000000  1
  Ce  Ce5  1  0.61741600  0.61741600  0.75000000  1
  Zr  Zr6  1  0.00000000  0.00000000  0.00000000  1
  Zr  Zr7  1  0.00000000  0.00000000  0.50000000  1
  Sb  Sb8  1  0.26740100  0.00000000  0.25000000  1
  Sb  Sb9  1  0.73259900  0.00000000  0.75000000  1
  Sb  Sb10  1  0.00000000  0.26740100  0.25000000  1
  Sb  Sb11  1  0.00000000  0.73259900  0.75000000  1
  Sb  Sb12  1  0.73259900  0.73259900  0.25000000  1
  Sb  Sb13  1  0.26740100  0.26740100  0.75000000  1
  Sb  Sb14  1  0.33333300  0.66666700  0.00000000  1
  Sb  Sb15  1  0.66666700  0.33333300  0.00000000  1
  Sb  Sb16  1  0.66666700  0.33333300  0.50000000  1
  Sb  Sb17  1  0.33333300  0.66666700  0.50000000  1
