# generated using pymatgen
data_Na5SrNbAs4
_symmetry_space_group_name_H-M   'P 1'
_cell_length_a   9.61447722
_cell_length_b   9.61447722
_cell_length_c   7.55924342
_cell_angle_alpha   89.98244024
_cell_angle_beta   89.98244024
_cell_angle_gamma   120.10762922
_symmetry_Int_Tables_number   1
_chemical_formula_structural   Na5SrNbAs4
_chemical_formula_sum   'Na10 Sr2 Nb2 As8'
_cell_volume   604.48871305
_cell_formula_units_Z   2
loop_
 _symmetry_equiv_pos_site_id
 _symmetry_equiv_pos_as_xyz
  1  'x, y, z'
loop_
 _atom_site_type_symbol
 _atom_site_label
 _atom_site_symmetry_multiplicity
 _atom_site_fract_x
 _atom_site_fract_y
 _atom_site_fract_z
 _atom_site_occupancy
  Na  Na0  1  0.53132800  0.47299900  0.61572300  1
  Na  Na1  1  0.94132500  0.47205900  0.61565400  1
  Na  Na2  1  0.47299900  0.53132800  0.11572300  1
  Na  Na3  1  0.47205900  0.94132500  0.11565400  1
  Na  Na4  1  0.13843500  0.85434200  0.78353900  1
  Na  Na5  1  0.71356300  0.85154700  0.78777900  1
  Na  Na6  1  0.14492400  0.28734300  0.77999600  1
  Na  Na7  1  0.85434200  0.13843500  0.28353900  1
  Na  Na8  1  0.28734300  0.14492400  0.27999600  1
  Na  Na9  1  0.85154700  0.71356300  0.28777900  1
  Sr  Sr10  1  0.53126300  0.05981300  0.61066700  1
  Sr  Sr11  1  0.05981300  0.53126300  0.11066700  1
  Nb  Nb12  1  0.33272600  0.66268500  0.50046900  1
  Nb  Nb13  1  0.66268500  0.33272600  0.00046900  1
  As  As14  1  0.33359300  0.66951800  0.83110500  1
  As  As15  1  0.66951800  0.33359300  0.33110500  1
  As  As16  1  0.81016100  0.19225100  0.89615300  1
  As  As17  1  0.38046300  0.18949600  0.89354000  1
  As  As18  1  0.81150900  0.61865600  0.89937500  1
  As  As19  1  0.19225100  0.81016100  0.39615300  1
  As  As20  1  0.61865600  0.81150900  0.39937500  1
  As  As21  1  0.18949600  0.38046300  0.39354000  1
