# generated using pymatgen
data_Dy2Sc3Si4
_symmetry_space_group_name_H-M   'P 1'
_cell_length_a   7.10279200
_cell_length_b   7.39115100
_cell_length_c   14.01848200
_cell_angle_alpha   90.00000000
_cell_angle_beta   90.00000000
_cell_angle_gamma   90.00000000
_symmetry_Int_Tables_number   1
_chemical_formula_structural   Dy2Sc3Si4
_chemical_formula_sum   'Dy8 Sc12 Si16'
_cell_volume   735.93957920
_cell_formula_units_Z   4
loop_
 _symmetry_equiv_pos_site_id
 _symmetry_equiv_pos_as_xyz
  1  'x, y, z'
loop_
 _atom_site_type_symbol
 _atom_site_label
 _atom_site_symmetry_multiplicity
 _atom_site_fract_x
 _atom_site_fract_y
 _atom_site_fract_z
 _atom_site_occupancy
  Dy  Dy0  1  0.01200900  0.17454400  0.09718300  1
  Dy  Dy1  1  0.98799100  0.82545600  0.90281700  1
  Dy  Dy2  1  0.48799100  0.67454400  0.90281700  1
  Dy  Dy3  1  0.98799100  0.82545600  0.59718300  1
  Dy  Dy4  1  0.51200900  0.32545600  0.09718300  1
  Dy  Dy5  1  0.01200900  0.17454400  0.40281700  1
  Dy  Dy6  1  0.51200900  0.32545600  0.40281700  1
  Dy  Dy7  1  0.48799100  0.67454400  0.59718300  1
  Sc  Sc8  1  0.16073300  0.50278300  0.75000000  1
  Sc  Sc9  1  0.83926700  0.49721700  0.25000000  1
  Sc  Sc10  1  0.33926700  0.00278300  0.25000000  1
  Sc  Sc11  1  0.66073300  0.99721700  0.75000000  1
  Sc  Sc12  1  0.33005900  0.17655900  0.62481600  1
  Sc  Sc13  1  0.66994100  0.82344100  0.37518400  1
  Sc  Sc14  1  0.16994100  0.67655900  0.37518400  1
  Sc  Sc15  1  0.66994100  0.82344100  0.12481600  1
  Sc  Sc16  1  0.83005900  0.32344100  0.62481600  1
  Sc  Sc17  1  0.33005900  0.17655900  0.87518400  1
  Sc  Sc18  1  0.83005900  0.32344100  0.87518400  1
  Sc  Sc19  1  0.16994100  0.67655900  0.12481600  1
  Si  Si20  1  0.03327400  0.11883200  0.75000000  1
  Si  Si21  1  0.96672600  0.88116800  0.25000000  1
  Si  Si22  1  0.46672600  0.61883200  0.25000000  1
  Si  Si23  1  0.53327400  0.38116800  0.75000000  1
  Si  Si24  1  0.28566100  0.87453500  0.75000000  1
  Si  Si25  1  0.71433900  0.12546500  0.25000000  1
  Si  Si26  1  0.21433900  0.37453500  0.25000000  1
  Si  Si27  1  0.78566100  0.62546500  0.75000000  1
  Si  Si28  1  0.15729200  0.46456400  0.53943800  1
  Si  Si29  1  0.84270800  0.53543600  0.46056200  1
  Si  Si30  1  0.34270800  0.96456400  0.46056200  1
  Si  Si31  1  0.84270800  0.53543600  0.03943800  1
  Si  Si32  1  0.65729200  0.03543600  0.53943800  1
  Si  Si33  1  0.15729200  0.46456400  0.96056200  1
  Si  Si34  1  0.65729200  0.03543600  0.96056200  1
  Si  Si35  1  0.34270800  0.96456400  0.03943800  1
