# generated using pymatgen
data_YVO3
_symmetry_space_group_name_H-M   'P 1'
_cell_length_a   5.35929800
_cell_length_b   5.66085507
_cell_length_c   7.71628113
_cell_angle_alpha   89.99851952
_cell_angle_beta   90.00119702
_cell_angle_gamma   90.00173404
_symmetry_Int_Tables_number   1
_chemical_formula_structural   YVO3
_chemical_formula_sum   'Y4 V4 O12'
_cell_volume   234.09815116
_cell_formula_units_Z   4
loop_
 _symmetry_equiv_pos_site_id
 _symmetry_equiv_pos_as_xyz
  1  'x, y, z'
loop_
 _atom_site_type_symbol
 _atom_site_label
 _atom_site_symmetry_multiplicity
 _atom_site_fract_x
 _atom_site_fract_y
 _atom_site_fract_z
 _atom_site_occupancy
  Y  Y0  1  0.47792600  0.57001100  0.74998700  1
  Y  Y1  1  0.97789200  0.92999000  0.25000200  1
  Y  Y2  1  0.52207400  0.43000100  0.25001600  1
  Y  Y3  1  0.02210700  0.06999500  0.74999800  1
  V  V4  1  0.50000200  0.99999700  0.50000000  1
  V  V5  1  0.99999400  0.50000600  0.99999900  1
  V  V6  1  0.00000300  0.50000600  0.49999800  1
  V  V7  1  0.50000000  0.99999900  0.99999700  1
  O  O8  1  0.88224900  0.45745900  0.74999800  1
  O  O9  1  0.38223300  0.04251900  0.25001900  1
  O  O10  1  0.11774800  0.54253400  0.24999700  1
  O  O11  1  0.61776600  0.95748200  0.74998500  1
  O  O12  1  0.81297800  0.19958200  0.44058600  1
  O  O13  1  0.31297200  0.30042300  0.55940100  1
  O  O14  1  0.18702700  0.80042300  0.55941600  1
  O  O15  1  0.68703000  0.69957300  0.44060100  1
  O  O16  1  0.18708300  0.80041900  0.94059300  1
  O  O17  1  0.68705300  0.69957600  0.05940100  1
  O  O18  1  0.81291900  0.19958200  0.05940800  1
  O  O19  1  0.31294300  0.30042400  0.94059800  1
