# generated using pymatgen
data_Zr3Sb4Pt3
_symmetry_space_group_name_H-M   'P 1'
_cell_length_a   8.21893788
_cell_length_b   8.21893788
_cell_length_c   8.21893788
_cell_angle_alpha   109.47122063
_cell_angle_beta   109.47122063
_cell_angle_gamma   109.47122063
_symmetry_Int_Tables_number   1
_chemical_formula_structural   Zr3Sb4Pt3
_chemical_formula_sum   'Zr6 Sb8 Pt6'
_cell_volume   427.39083406
_cell_formula_units_Z   2
loop_
 _symmetry_equiv_pos_site_id
 _symmetry_equiv_pos_as_xyz
  1  'x, y, z'
loop_
 _atom_site_type_symbol
 _atom_site_label
 _atom_site_symmetry_multiplicity
 _atom_site_fract_x
 _atom_site_fract_y
 _atom_site_fract_z
 _atom_site_occupancy
  Zr  Zr0  1  0.62500000  0.37500000  0.25000000  1
  Zr  Zr1  1  0.87500000  0.12500000  0.75000000  1
  Zr  Zr2  1  0.37500000  0.25000000  0.62500000  1
  Zr  Zr3  1  0.12500000  0.75000000  0.87500000  1
  Zr  Zr4  1  0.25000000  0.62500000  0.37500000  1
  Zr  Zr5  1  0.75000000  0.87500000  0.12500000  1
  Sb  Sb6  1  0.18489700  0.18489700  0.18489700  1
  Sb  Sb7  1  0.31510300  0.50000000  0.00000000  1
  Sb  Sb8  1  0.00000000  0.31510300  0.50000000  1
  Sb  Sb9  1  0.68489700  0.68489700  0.68489700  1
  Sb  Sb10  1  0.50000000  0.00000000  0.31510300  1
  Sb  Sb11  1  0.81510300  0.50000000  0.00000000  1
  Sb  Sb12  1  0.50000000  0.00000000  0.81510300  1
  Sb  Sb13  1  0.00000000  0.81510300  0.50000000  1
  Pt  Pt14  1  0.12500000  0.87500000  0.25000000  1
  Pt  Pt15  1  0.37500000  0.62500000  0.75000000  1
  Pt  Pt16  1  0.87500000  0.25000000  0.12500000  1
  Pt  Pt17  1  0.62500000  0.75000000  0.37500000  1
  Pt  Pt18  1  0.25000000  0.12500000  0.87500000  1
  Pt  Pt19  1  0.75000000  0.37500000  0.62500000  1
