# generated using pymatgen
data_Pr3Rh2
_symmetry_space_group_name_H-M   'P 1'
_cell_length_a   7.65643390
_cell_length_b   7.65643390
_cell_length_c   7.65643347
_cell_angle_alpha   71.51275092
_cell_angle_beta   71.51275092
_cell_angle_gamma   71.51274465
_symmetry_Int_Tables_number   1
_chemical_formula_structural   Pr3Rh2
_chemical_formula_sum   'Pr9 Rh6'
_cell_volume   391.82456373
_cell_formula_units_Z   3
loop_
 _symmetry_equiv_pos_site_id
 _symmetry_equiv_pos_as_xyz
  1  'x, y, z'
loop_
 _atom_site_type_symbol
 _atom_site_label
 _atom_site_symmetry_multiplicity
 _atom_site_fract_x
 _atom_site_fract_y
 _atom_site_fract_z
 _atom_site_occupancy
  Pr  Pr0  1  0.00000000  0.00000000  0.00000000  1
  Pr  Pr1  1  0.79661500  0.79661500  0.79661500  1
  Pr  Pr2  1  0.20338500  0.20338500  0.20338500  1
  Pr  Pr3  1  0.16526900  0.39297100  0.66401300  1
  Pr  Pr4  1  0.66401300  0.16526900  0.39297100  1
  Pr  Pr5  1  0.39297100  0.66401300  0.16526900  1
  Pr  Pr6  1  0.83473100  0.60702900  0.33598700  1
  Pr  Pr7  1  0.33598700  0.83473100  0.60702900  1
  Pr  Pr8  1  0.60702900  0.33598700  0.83473100  1
  Rh  Rh9  1  0.95644100  0.16339200  0.58952500  1
  Rh  Rh10  1  0.58952500  0.95644100  0.16339200  1
  Rh  Rh11  1  0.16339200  0.58952500  0.95644100  1
  Rh  Rh12  1  0.04355900  0.83660800  0.41047500  1
  Rh  Rh13  1  0.41047500  0.04355900  0.83660800  1
  Rh  Rh14  1  0.83660800  0.41047500  0.04355900  1
