# generated using pymatgen
data_Tb5Sn4
_symmetry_space_group_name_H-M   'P 1'
_cell_length_a   8.08153900
_cell_length_b   8.19600300
_cell_length_c   15.58181800
_cell_angle_alpha   90.00000000
_cell_angle_beta   90.00000000
_cell_angle_gamma   90.00000000
_symmetry_Int_Tables_number   1
_chemical_formula_structural   Tb5Sn4
_chemical_formula_sum   'Tb20 Sn16'
_cell_volume   1032.08225033
_cell_formula_units_Z   4
loop_
 _symmetry_equiv_pos_site_id
 _symmetry_equiv_pos_as_xyz
  1  'x, y, z'
loop_
 _atom_site_type_symbol
 _atom_site_label
 _atom_site_symmetry_multiplicity
 _atom_site_fract_x
 _atom_site_fract_y
 _atom_site_fract_z
 _atom_site_occupancy
  Tb  Tb0  1  0.36778300  0.83527400  0.87874500  1
  Tb  Tb1  1  0.86778300  0.66472600  0.62125500  1
  Tb  Tb2  1  0.63221700  0.16472600  0.37874500  1
  Tb  Tb3  1  0.13221700  0.33527400  0.12125500  1
  Tb  Tb4  1  0.63221700  0.16472600  0.12125500  1
  Tb  Tb5  1  0.13221700  0.33527400  0.37874500  1
  Tb  Tb6  1  0.36778300  0.83527400  0.62125500  1
  Tb  Tb7  1  0.86778300  0.66472600  0.87874500  1
  Tb  Tb8  1  0.52036700  0.31910400  0.90233500  1
  Tb  Tb9  1  0.02036700  0.18089600  0.59766500  1
  Tb  Tb10  1  0.47963300  0.68089600  0.40233500  1
  Tb  Tb11  1  0.97963300  0.81910400  0.09766500  1
  Tb  Tb12  1  0.47963300  0.68089600  0.09766500  1
  Tb  Tb13  1  0.97963300  0.81910400  0.40233500  1
  Tb  Tb14  1  0.52036700  0.31910400  0.59766500  1
  Tb  Tb15  1  0.02036700  0.18089600  0.90233500  1
  Tb  Tb16  1  0.19742300  0.50226400  0.75000000  1
  Tb  Tb17  1  0.69742300  0.99773600  0.75000000  1
  Tb  Tb18  1  0.80257700  0.49773600  0.25000000  1
  Tb  Tb19  1  0.30257700  0.00226400  0.25000000  1
  Sn  Sn20  1  0.29145300  0.03272900  0.04231400  1
  Sn  Sn21  1  0.79145300  0.46727100  0.45768600  1
  Sn  Sn22  1  0.70854700  0.96727100  0.54231400  1
  Sn  Sn23  1  0.20854700  0.53272900  0.95768600  1
  Sn  Sn24  1  0.70854700  0.96727100  0.95768600  1
  Sn  Sn25  1  0.20854700  0.53272900  0.54231400  1
  Sn  Sn26  1  0.29145300  0.03272900  0.45768600  1
  Sn  Sn27  1  0.79145300  0.46727100  0.04231400  1
  Sn  Sn28  1  0.56537600  0.61917100  0.75000000  1
  Sn  Sn29  1  0.06537600  0.88082900  0.75000000  1
  Sn  Sn30  1  0.43462400  0.38082900  0.25000000  1
  Sn  Sn31  1  0.93462400  0.11917100  0.25000000  1
  Sn  Sn32  1  0.32717300  0.14429700  0.75000000  1
  Sn  Sn33  1  0.82717300  0.35570300  0.75000000  1
  Sn  Sn34  1  0.67282700  0.85570300  0.25000000  1
  Sn  Sn35  1  0.17282700  0.64429700  0.25000000  1
