# generated using pymatgen
data_Rb2HfF6
_symmetry_space_group_name_H-M   'P 1'
_cell_length_a   6.22337178
_cell_length_b   6.22337178
_cell_length_c   4.92576900
_cell_angle_alpha   90.00000000
_cell_angle_beta   90.00000000
_cell_angle_gamma   119.99999771
_symmetry_Int_Tables_number   1
_chemical_formula_structural   Rb2HfF6
_chemical_formula_sum   'Rb2 Hf1 F6'
_cell_volume   165.21754932
_cell_formula_units_Z   1
loop_
 _symmetry_equiv_pos_site_id
 _symmetry_equiv_pos_as_xyz
  1  'x, y, z'
loop_
 _atom_site_type_symbol
 _atom_site_label
 _atom_site_symmetry_multiplicity
 _atom_site_fract_x
 _atom_site_fract_y
 _atom_site_fract_z
 _atom_site_occupancy
  Rb  Rb0  1  0.33333300  0.66666700  0.68768100  1
  Rb  Rb1  1  0.66666700  0.33333300  0.31231900  1
  Hf  Hf2  1  0.00000000  0.00000000  0.00000000  1
  F  F3  1  0.84427100  0.15572900  0.77444100  1
  F  F4  1  0.84427100  0.68854200  0.77444100  1
  F  F5  1  0.31145800  0.15572900  0.77444100  1
  F  F6  1  0.15572900  0.84427100  0.22555900  1
  F  F7  1  0.15572900  0.31145800  0.22555900  1
  F  F8  1  0.68854200  0.84427100  0.22555900  1
