# generated using pymatgen
data_NaMn2P2O9
_symmetry_space_group_name_H-M   'P 1'
_cell_length_a   6.42415400
_cell_length_b   7.49910600
_cell_length_c   14.07601000
_cell_angle_alpha   90.00000000
_cell_angle_beta   90.00000000
_cell_angle_gamma   90.00000000
_symmetry_Int_Tables_number   1
_chemical_formula_structural   NaMn2P2O9
_chemical_formula_sum   'Na4 Mn8 P8 O36'
_cell_volume   678.11757834
_cell_formula_units_Z   4
loop_
 _symmetry_equiv_pos_site_id
 _symmetry_equiv_pos_as_xyz
  1  'x, y, z'
loop_
 _atom_site_type_symbol
 _atom_site_label
 _atom_site_symmetry_multiplicity
 _atom_site_fract_x
 _atom_site_fract_y
 _atom_site_fract_z
 _atom_site_occupancy
  Na  Na0  1  0.75000000  0.89760900  0.78299100  1
  Na  Na1  1  0.75000000  0.60239100  0.28299100  1
  Na  Na2  1  0.25000000  0.39760900  0.71700900  1
  Na  Na3  1  0.25000000  0.10239100  0.21700900  1
  Mn  Mn4  1  0.75000000  0.35412200  0.87660500  1
  Mn  Mn5  1  0.25000000  0.64587800  0.12339500  1
  Mn  Mn6  1  0.25000000  0.85412200  0.62339500  1
  Mn  Mn7  1  0.75000000  0.14587800  0.37660500  1
  Mn  Mn8  1  0.50000000  0.00000000  0.00000000  1
  Mn  Mn9  1  0.50000000  0.50000000  0.50000000  1
  Mn  Mn10  1  0.00000000  0.50000000  0.50000000  1
  Mn  Mn11  1  0.00000000  0.00000000  0.00000000  1
  P  P12  1  0.25000000  0.36858100  0.93414700  1
  P  P13  1  0.75000000  0.63141900  0.06585300  1
  P  P14  1  0.75000000  0.86858100  0.56585300  1
  P  P15  1  0.25000000  0.13141900  0.43414700  1
  P  P16  1  0.75000000  0.39938900  0.69005600  1
  P  P17  1  0.75000000  0.10061100  0.19005600  1
  P  P18  1  0.25000000  0.89938900  0.80994400  1
  P  P19  1  0.25000000  0.60061100  0.30994400  1
  O  O20  1  0.05285800  0.59580300  0.37280700  1
  O  O21  1  0.55285800  0.40419700  0.62719300  1
  O  O22  1  0.94714200  0.09580300  0.12719300  1
  O  O23  1  0.44714200  0.90419700  0.87280700  1
  O  O24  1  0.94714200  0.40419700  0.62719300  1
  O  O25  1  0.44714200  0.59580300  0.37280700  1
  O  O26  1  0.05285800  0.90419700  0.87280700  1
  O  O27  1  0.55285800  0.09580300  0.12719300  1
  O  O28  1  0.25000000  0.31786400  0.48505900  1
  O  O29  1  0.75000000  0.68213600  0.51494100  1
  O  O30  1  0.75000000  0.81786400  0.01494100  1
  O  O31  1  0.25000000  0.18213600  0.98505900  1
  O  O32  1  0.75000000  0.12768600  0.94568900  1
  O  O33  1  0.25000000  0.87231400  0.05431100  1
  O  O34  1  0.25000000  0.62768600  0.55431100  1
  O  O35  1  0.75000000  0.37231400  0.44568900  1
  O  O36  1  0.75000000  0.22782400  0.75385000  1
  O  O37  1  0.25000000  0.77217600  0.24615000  1
  O  O38  1  0.25000000  0.72782400  0.74615000  1
  O  O39  1  0.75000000  0.27217600  0.25385000  1
  O  O40  1  0.43969600  0.12371800  0.36686600  1
  O  O41  1  0.93969600  0.87628200  0.63313400  1
  O  O42  1  0.56030400  0.62371800  0.13313400  1
  O  O43  1  0.06030400  0.37628200  0.86686600  1
  O  O44  1  0.56030400  0.87628200  0.63313400  1
  O  O45  1  0.06030400  0.12371800  0.36686600  1
  O  O46  1  0.43969600  0.37628200  0.86686600  1
  O  O47  1  0.93969600  0.62371800  0.13313400  1
  O  O48  1  0.75000000  0.48070800  0.99390200  1
  O  O49  1  0.25000000  0.04446500  0.73088600  1
  O  O50  1  0.25000000  0.45553500  0.23088600  1
  O  O51  1  0.75000000  0.54446500  0.76911400  1
  O  O52  1  0.75000000  0.01929200  0.49390200  1
  O  O53  1  0.25000000  0.98070800  0.50609800  1
  O  O54  1  0.25000000  0.51929200  0.00609800  1
  O  O55  1  0.75000000  0.95553500  0.26911400  1
