# generated using pymatgen
data_Dy11(Mn2C3)6
_symmetry_space_group_name_H-M   'P 1'
_cell_length_a   8.78358298
_cell_length_b   8.78358298
_cell_length_c   8.78358298
_cell_angle_alpha   109.47122063
_cell_angle_beta   109.47122063
_cell_angle_gamma   109.47122063
_symmetry_Int_Tables_number   1
_chemical_formula_structural   Dy11(Mn2C3)6
_chemical_formula_sum   'Dy11 Mn12 C18'
_cell_volume   521.66684460
_cell_formula_units_Z   1
loop_
 _symmetry_equiv_pos_site_id
 _symmetry_equiv_pos_as_xyz
  1  'x, y, z'
loop_
 _atom_site_type_symbol
 _atom_site_label
 _atom_site_symmetry_multiplicity
 _atom_site_fract_x
 _atom_site_fract_y
 _atom_site_fract_z
 _atom_site_occupancy
  Dy  Dy0  1  0.41135000  0.41135000  0.41135000  1
  Dy  Dy1  1  0.58865000  0.00000000  0.00000000  1
  Dy  Dy2  1  0.00000000  0.58865000  0.00000000  1
  Dy  Dy3  1  0.00000000  0.00000000  0.58865000  1
  Dy  Dy4  1  0.00000000  0.00000000  0.00000000  1
  Dy  Dy5  1  0.25000000  0.75000000  0.50000000  1
  Dy  Dy6  1  0.75000000  0.25000000  0.50000000  1
  Dy  Dy7  1  0.75000000  0.50000000  0.25000000  1
  Dy  Dy8  1  0.25000000  0.50000000  0.75000000  1
  Dy  Dy9  1  0.50000000  0.25000000  0.75000000  1
  Dy  Dy10  1  0.50000000  0.75000000  0.25000000  1
  Mn  Mn11  1  0.84393800  0.66030200  0.66030200  1
  Mn  Mn12  1  0.15606200  0.81636400  0.81636400  1
  Mn  Mn13  1  0.00000000  0.33969800  0.18363600  1
  Mn  Mn14  1  0.66030200  0.66030200  0.84393800  1
  Mn  Mn15  1  0.00000000  0.18363600  0.33969800  1
  Mn  Mn16  1  0.81636400  0.81636400  0.15606200  1
  Mn  Mn17  1  0.33969800  0.18363600  0.00000000  1
  Mn  Mn18  1  0.18363600  0.33969800  0.00000000  1
  Mn  Mn19  1  0.66030200  0.84393800  0.66030200  1
  Mn  Mn20  1  0.18363600  0.00000000  0.33969800  1
  Mn  Mn21  1  0.33969800  0.00000000  0.18363600  1
  Mn  Mn22  1  0.81636400  0.15606200  0.81636400  1
  C  C23  1  0.56802600  0.56802600  0.00000000  1
  C  C24  1  0.43197400  0.43197400  0.00000000  1
  C  C25  1  0.56802600  0.00000000  0.56802600  1
  C  C26  1  0.43197400  0.00000000  0.43197400  1
  C  C27  1  0.00000000  0.56802600  0.56802600  1
  C  C28  1  0.00000000  0.43197400  0.43197400  1
  C  C29  1  0.48516400  0.70433200  0.70433200  1
  C  C30  1  0.51483600  0.21916800  0.21916800  1
  C  C31  1  0.00000000  0.29566800  0.78083200  1
  C  C32  1  0.70433200  0.70433200  0.48516400  1
  C  C33  1  0.00000000  0.78083200  0.29566800  1
  C  C34  1  0.21916800  0.21916800  0.51483600  1
  C  C35  1  0.29566800  0.78083200  0.00000000  1
  C  C36  1  0.78083200  0.29566800  0.00000000  1
  C  C37  1  0.70433200  0.48516400  0.70433200  1
  C  C38  1  0.78083200  0.00000000  0.29566800  1
  C  C39  1  0.29566800  0.00000000  0.78083200  1
  C  C40  1  0.21916800  0.51483600  0.21916800  1
