# generated using pymatgen
data_TmCrB4
_symmetry_space_group_name_H-M   'P 1'
_cell_length_a   3.40747100
_cell_length_b   5.88731000
_cell_length_c   11.37200700
_cell_angle_alpha   90.00000000
_cell_angle_beta   90.00000000
_cell_angle_gamma   90.00000000
_symmetry_Int_Tables_number   1
_chemical_formula_structural   TmCrB4
_chemical_formula_sum   'Tm4 Cr4 B16'
_cell_volume   228.13199122
_cell_formula_units_Z   4
loop_
 _symmetry_equiv_pos_site_id
 _symmetry_equiv_pos_as_xyz
  1  'x, y, z'
loop_
 _atom_site_type_symbol
 _atom_site_label
 _atom_site_symmetry_multiplicity
 _atom_site_fract_x
 _atom_site_fract_y
 _atom_site_fract_z
 _atom_site_occupancy
  Tm  Tm0  1  0.00000000  0.62564000  0.34927400  1
  Tm  Tm1  1  0.00000000  0.37436000  0.65072600  1
  Tm  Tm2  1  0.00000000  0.12564000  0.15072600  1
  Tm  Tm3  1  0.00000000  0.87436000  0.84927400  1
  Cr  Cr4  1  0.00000000  0.62321600  0.07987500  1
  Cr  Cr5  1  0.00000000  0.37678400  0.92012500  1
  Cr  Cr6  1  0.00000000  0.12321600  0.42012500  1
  Cr  Cr7  1  0.00000000  0.87678400  0.57987500  1
  B  B8  1  0.50000000  0.78270000  0.18453300  1
  B  B9  1  0.50000000  0.21730000  0.81546700  1
  B  B10  1  0.50000000  0.28270000  0.31546700  1
  B  B11  1  0.50000000  0.71730000  0.68453300  1
  B  B12  1  0.50000000  0.86425600  0.03255200  1
  B  B13  1  0.50000000  0.13574400  0.96744800  1
  B  B14  1  0.50000000  0.36425600  0.46744800  1
  B  B15  1  0.50000000  0.63574400  0.53255200  1
  B  B16  1  0.50000000  0.88624300  0.45297800  1
  B  B17  1  0.50000000  0.11375700  0.54702200  1
  B  B18  1  0.50000000  0.38624300  0.04702200  1
  B  B19  1  0.50000000  0.61375700  0.95297800  1
  B  B20  1  0.50000000  0.97587600  0.30768100  1
  B  B21  1  0.50000000  0.02412400  0.69231900  1
  B  B22  1  0.50000000  0.47587600  0.19231900  1
  B  B23  1  0.50000000  0.52412400  0.80768100  1
