# generated using pymatgen
data_CsHoMnSe3
_symmetry_space_group_name_H-M   'P 1'
_cell_length_a   8.36881932
_cell_length_b   8.36881932
_cell_length_c   11.02515900
_cell_angle_alpha   90.00000000
_cell_angle_beta   90.00000000
_cell_angle_gamma   150.63320017
_symmetry_Int_Tables_number   1
_chemical_formula_structural   CsHoMnSe3
_chemical_formula_sum   'Cs2 Ho2 Mn2 Se6'
_cell_volume   378.67155519
_cell_formula_units_Z   2
loop_
 _symmetry_equiv_pos_site_id
 _symmetry_equiv_pos_as_xyz
  1  'x, y, z'
loop_
 _atom_site_type_symbol
 _atom_site_label
 _atom_site_symmetry_multiplicity
 _atom_site_fract_x
 _atom_site_fract_y
 _atom_site_fract_z
 _atom_site_occupancy
  Cs  Cs0  1  0.25755500  0.74244500  0.25000000  1
  Cs  Cs1  1  0.74244500  0.25755500  0.75000000  1
  Ho  Ho2  1  0.00000000  0.00000000  0.00000000  1
  Ho  Ho3  1  0.00000000  0.00000000  0.50000000  1
  Mn  Mn4  1  0.53712300  0.46287700  0.25000000  1
  Mn  Mn5  1  0.46287700  0.53712300  0.75000000  1
  Se  Se6  1  0.61525200  0.38474800  0.05597100  1
  Se  Se7  1  0.38474800  0.61525200  0.94402900  1
  Se  Se8  1  0.38474800  0.61525200  0.55597100  1
  Se  Se9  1  0.61525200  0.38474800  0.44402900  1
  Se  Se10  1  0.94604400  0.05395600  0.25000000  1
  Se  Se11  1  0.05395600  0.94604400  0.75000000  1
