# generated using pymatgen
data_MgB4Os3
_symmetry_space_group_name_H-M   'P 1'
_cell_length_a   6.13421553
_cell_length_b   6.13421553
_cell_length_c   9.80732200
_cell_angle_alpha   90.00000000
_cell_angle_beta   90.00000000
_cell_angle_gamma   152.44867682
_symmetry_Int_Tables_number   1
_chemical_formula_structural   MgB4Os3
_chemical_formula_sum   'Mg2 B8 Os6'
_cell_volume   170.69491635
_cell_formula_units_Z   2
loop_
 _symmetry_equiv_pos_site_id
 _symmetry_equiv_pos_as_xyz
  1  'x, y, z'
loop_
 _atom_site_type_symbol
 _atom_site_label
 _atom_site_symmetry_multiplicity
 _atom_site_fract_x
 _atom_site_fract_y
 _atom_site_fract_z
 _atom_site_occupancy
  Mg  Mg0  1  0.50000000  0.50000000  0.00000000  1
  Mg  Mg1  1  0.50000000  0.50000000  0.50000000  1
  B  B2  1  0.37665100  0.62334900  0.25000000  1
  B  B3  1  0.62334900  0.37665100  0.75000000  1
  B  B4  1  0.65419900  0.34580100  0.25000000  1
  B  B5  1  0.34580100  0.65419900  0.75000000  1
  B  B6  1  0.84090200  0.15909800  0.88944100  1
  B  B7  1  0.15909800  0.84090200  0.38944100  1
  B  B8  1  0.15909800  0.84090200  0.11055900  1
  B  B9  1  0.84090200  0.15909800  0.61055900  1
  Os  Os10  1  0.80029000  0.19971000  0.10708000  1
  Os  Os11  1  0.98359800  0.01640200  0.75000000  1
  Os  Os12  1  0.01640200  0.98359800  0.25000000  1
  Os  Os13  1  0.19971000  0.80029000  0.89292000  1
  Os  Os14  1  0.19971000  0.80029000  0.60708000  1
  Os  Os15  1  0.80029000  0.19971000  0.39292000  1
