# generated using pymatgen
data_MnNiP
_symmetry_space_group_name_H-M   'P 1'
_cell_length_a   5.84318300
_cell_length_b   3.43671100
_cell_length_c   6.75156900
_cell_angle_alpha   90.00000000
_cell_angle_beta   90.00000000
_cell_angle_gamma   90.00000000
_symmetry_Int_Tables_number   1
_chemical_formula_structural   MnNiP
_chemical_formula_sum   'Mn4 Ni4 P4'
_cell_volume   135.58049382
_cell_formula_units_Z   4
loop_
 _symmetry_equiv_pos_site_id
 _symmetry_equiv_pos_as_xyz
  1  'x, y, z'
loop_
 _atom_site_type_symbol
 _atom_site_label
 _atom_site_symmetry_multiplicity
 _atom_site_fract_x
 _atom_site_fract_y
 _atom_site_fract_z
 _atom_site_occupancy
  Mn  Mn0  1  0.03137100  0.25000000  0.15876400  1
  Mn  Mn1  1  0.53137100  0.25000000  0.34123600  1
  Mn  Mn2  1  0.96862900  0.75000000  0.84123600  1
  Mn  Mn3  1  0.46862900  0.75000000  0.65876400  1
  Ni  Ni4  1  0.13928500  0.25000000  0.56452500  1
  Ni  Ni5  1  0.63928500  0.25000000  0.93547500  1
  Ni  Ni6  1  0.86071500  0.75000000  0.43547500  1
  Ni  Ni7  1  0.36071500  0.75000000  0.06452500  1
  P  P8  1  0.75900500  0.25000000  0.62953200  1
  P  P9  1  0.25900500  0.25000000  0.87046800  1
  P  P10  1  0.24099500  0.75000000  0.37046800  1
  P  P11  1  0.74099500  0.75000000  0.12953200  1
