# generated using pymatgen
data_Y2Re3Si5
_symmetry_space_group_name_H-M   'P 1'
_cell_length_a   10.98621100
_cell_length_b   10.98621100
_cell_length_c   5.56918100
_cell_angle_alpha   90.00000000
_cell_angle_beta   90.00000000
_cell_angle_gamma   90.00000000
_symmetry_Int_Tables_number   1
_chemical_formula_structural   Y2Re3Si5
_chemical_formula_sum   'Y8 Re12 Si20'
_cell_volume   672.18250429
_cell_formula_units_Z   4
loop_
 _symmetry_equiv_pos_site_id
 _symmetry_equiv_pos_as_xyz
  1  'x, y, z'
loop_
 _atom_site_type_symbol
 _atom_site_label
 _atom_site_symmetry_multiplicity
 _atom_site_fract_x
 _atom_site_fract_y
 _atom_site_fract_z
 _atom_site_occupancy
  Y  Y0  1  0.57680500  0.73753200  0.50000000  1
  Y  Y1  1  0.42319500  0.26246800  0.50000000  1
  Y  Y2  1  0.07680500  0.76246800  0.00000000  1
  Y  Y3  1  0.92319500  0.23753200  0.00000000  1
  Y  Y4  1  0.26246800  0.57680500  0.50000000  1
  Y  Y5  1  0.73753200  0.42319500  0.50000000  1
  Y  Y6  1  0.23753200  0.07680500  0.00000000  1
  Y  Y7  1  0.76246800  0.92319500  0.00000000  1
  Re  Re8  1  0.87529700  0.85289200  0.50000000  1
  Re  Re9  1  0.12470300  0.14710800  0.50000000  1
  Re  Re10  1  0.37529700  0.64710800  0.00000000  1
  Re  Re11  1  0.62470300  0.35289200  0.00000000  1
  Re  Re12  1  0.14710800  0.87529700  0.50000000  1
  Re  Re13  1  0.85289200  0.12470300  0.50000000  1
  Re  Re14  1  0.35289200  0.37529700  0.00000000  1
  Re  Re15  1  0.64710800  0.62470300  0.00000000  1
  Re  Re16  1  0.50000000  0.00000000  0.25000000  1
  Re  Re17  1  0.00000000  0.50000000  0.75000000  1
  Re  Re18  1  0.00000000  0.50000000  0.25000000  1
  Re  Re19  1  0.50000000  0.00000000  0.75000000  1
  Si  Si20  1  0.67311600  0.17311600  0.25000000  1
  Si  Si21  1  0.32688400  0.82688400  0.25000000  1
  Si  Si22  1  0.17311600  0.32688400  0.75000000  1
  Si  Si23  1  0.82688400  0.67311600  0.75000000  1
  Si  Si24  1  0.82688400  0.67311600  0.25000000  1
  Si  Si25  1  0.17311600  0.32688400  0.25000000  1
  Si  Si26  1  0.67311600  0.17311600  0.75000000  1
  Si  Si27  1  0.32688400  0.82688400  0.75000000  1
  Si  Si28  1  0.50000000  0.50000000  0.25264300  1
  Si  Si29  1  0.00000000  0.00000000  0.75264300  1
  Si  Si30  1  0.50000000  0.50000000  0.74735700  1
  Si  Si31  1  0.00000000  0.00000000  0.24735700  1
  Si  Si32  1  0.68496000  0.97330200  0.50000000  1
  Si  Si33  1  0.31504000  0.02669800  0.50000000  1
  Si  Si34  1  0.18496000  0.52669800  0.00000000  1
  Si  Si35  1  0.81504000  0.47330200  0.00000000  1
  Si  Si36  1  0.02669800  0.68496000  0.50000000  1
  Si  Si37  1  0.97330200  0.31504000  0.50000000  1
  Si  Si38  1  0.47330200  0.18496000  0.00000000  1
  Si  Si39  1  0.52669800  0.81504000  0.00000000  1
