# generated using pymatgen
data_BaMg2V2O8
_symmetry_space_group_name_H-M   'P 1'
_cell_length_a   9.90113152
_cell_length_b   9.90113152
_cell_length_c   9.90113152
_cell_angle_alpha   100.91691250
_cell_angle_beta   100.91691250
_cell_angle_gamma   128.40596919
_symmetry_Int_Tables_number   1
_chemical_formula_structural   BaMg2V2O8
_chemical_formula_sum   'Ba4 Mg8 V8 O32'
_cell_volume   684.81313914
_cell_formula_units_Z   4
loop_
 _symmetry_equiv_pos_site_id
 _symmetry_equiv_pos_as_xyz
  1  'x, y, z'
loop_
 _atom_site_type_symbol
 _atom_site_label
 _atom_site_symmetry_multiplicity
 _atom_site_fract_x
 _atom_site_fract_y
 _atom_site_fract_z
 _atom_site_occupancy
  Ba  Ba0  1  0.00000000  0.00000000  0.00000000  1
  Ba  Ba1  1  0.25000000  0.75000000  0.50000000  1
  Ba  Ba2  1  0.50000000  0.50000000  0.00000000  1
  Ba  Ba3  1  0.75000000  0.25000000  0.50000000  1
  Mg  Mg4  1  0.58187400  0.91812600  0.00000000  1
  Mg  Mg5  1  0.83187400  0.33187400  0.16374700  1
  Mg  Mg6  1  0.16812600  0.66812600  0.83625300  1
  Mg  Mg7  1  0.91812600  0.58187400  0.00000000  1
  Mg  Mg8  1  0.66812600  0.83187400  0.50000000  1
  Mg  Mg9  1  0.41812600  0.41812600  0.33625300  1
  Mg  Mg10  1  0.08187400  0.08187400  0.66374700  1
  Mg  Mg11  1  0.33187400  0.16812600  0.50000000  1
  V  V12  1  0.87500000  0.70589300  0.33089300  1
  V  V13  1  0.79410700  0.62500000  0.66910700  1
  V  V14  1  0.95589300  0.12500000  0.33089300  1
  V  V15  1  0.37500000  0.54410700  0.66910700  1
  V  V16  1  0.37500000  0.04410700  0.16910700  1
  V  V17  1  0.45589300  0.12500000  0.83089300  1
  V  V18  1  0.29410700  0.62500000  0.16910700  1
  V  V19  1  0.87500000  0.20589300  0.83089300  1
  O  O20  1  0.38094000  0.22156600  0.16449000  1
  O  O21  1  0.05707600  0.21645000  0.83551000  1
  O  O22  1  0.46645000  0.13094000  0.65937400  1
  O  O23  1  0.47156600  0.80707600  0.34062600  1
  O  O24  1  0.69292400  0.02843400  0.65937400  1
  O  O25  1  0.28355000  0.44292400  0.16449000  1
  O  O26  1  0.27843400  0.11906000  0.83551000  1
  O  O27  1  0.36906000  0.03355000  0.34062600  1
  O  O28  1  0.86906000  0.52843400  0.33551000  1
  O  O29  1  0.19292400  0.53355000  0.66449000  1
  O  O30  1  0.78355000  0.61906000  0.84062600  1
  O  O31  1  0.77843400  0.94292400  0.15937400  1
  O  O32  1  0.55707600  0.72156600  0.84062600  1
  O  O33  1  0.96645000  0.30707600  0.33551000  1
  O  O34  1  0.97156600  0.63094000  0.66449000  1
  O  O35  1  0.88094000  0.71645000  0.15937400  1
  O  O36  1  0.43691400  0.60048000  0.51900000  1
  O  O37  1  0.08148100  0.91791400  0.48100000  1
  O  O38  1  0.16791400  0.18691400  0.33643300  1
  O  O39  1  0.85048000  0.83148100  0.66356700  1
  O  O40  1  0.93691400  0.41791400  0.83643300  1
  O  O41  1  0.35048000  0.68691400  0.01900000  1
  O  O42  1  0.66791400  0.33148100  0.98100000  1
  O  O43  1  0.58148100  0.10048000  0.16356700  1
  O  O44  1  0.39952000  0.91851900  0.83643300  1
  O  O45  1  0.08208600  0.56308600  0.16356700  1
  O  O46  1  0.16851900  0.83208600  0.01900000  1
  O  O47  1  0.81308600  0.14952000  0.98100000  1
  O  O48  1  0.31308600  0.33208600  0.66356700  1
  O  O49  1  0.89952000  0.06308600  0.48100000  1
  O  O50  1  0.58208600  0.41851900  0.51900000  1
  O  O51  1  0.66851900  0.64952000  0.33643300  1
