# generated using pymatgen
data_NdMg(BO2)5
_symmetry_space_group_name_H-M   'P 1'
_cell_length_a   7.68692600
_cell_length_b   8.74480800
_cell_length_c   12.60638246
_cell_angle_alpha   48.93865404
_cell_angle_beta   90.00000000
_cell_angle_gamma   90.00000000
_symmetry_Int_Tables_number   1
_chemical_formula_structural   NdMg(BO2)5
_chemical_formula_sum   'Nd4 Mg4 B20 O40'
_cell_volume   638.95264182
_cell_formula_units_Z   4
loop_
 _symmetry_equiv_pos_site_id
 _symmetry_equiv_pos_as_xyz
  1  'x, y, z'
loop_
 _atom_site_type_symbol
 _atom_site_label
 _atom_site_symmetry_multiplicity
 _atom_site_fract_x
 _atom_site_fract_y
 _atom_site_fract_z
 _atom_site_occupancy
  Nd  Nd0  1  0.18418000  0.94826800  0.23600100  1
  Nd  Nd1  1  0.81582000  0.05173200  0.76399900  1
  Nd  Nd2  1  0.68418000  0.05173200  0.26399900  1
  Nd  Nd3  1  0.31582000  0.94826800  0.73600100  1
  Mg  Mg4  1  0.90957900  0.52038800  0.37492400  1
  Mg  Mg5  1  0.09042100  0.47961200  0.62507600  1
  Mg  Mg6  1  0.40957900  0.47961200  0.12507600  1
  Mg  Mg7  1  0.59042100  0.52038800  0.87492400  1
  B  B8  1  0.82628500  0.90893900  0.10626600  1
  B  B9  1  0.17371500  0.09106100  0.89373400  1
  B  B10  1  0.32628500  0.09106100  0.39373400  1
  B  B11  1  0.67371500  0.90893900  0.60626600  1
  B  B12  1  0.57854000  0.65325700  0.26089700  1
  B  B13  1  0.42146000  0.34674300  0.73910300  1
  B  B14  1  0.07854000  0.34674300  0.23910300  1
  B  B15  1  0.92146000  0.65325700  0.76089700  1
  B  B16  1  0.81484400  0.48174700  0.08716200  1
  B  B17  1  0.18515600  0.51825300  0.91283800  1
  B  B18  1  0.31484400  0.51825300  0.41283800  1
  B  B19  1  0.68515600  0.48174700  0.58716200  1
  B  B20  1  0.46674500  0.72465600  0.55573900  1
  B  B21  1  0.53325500  0.27534400  0.44426100  1
  B  B22  1  0.96674500  0.27534400  0.94426100  1
  B  B23  1  0.03325500  0.72465600  0.05573900  1
  B  B24  1  0.59802300  0.84319800  0.00090000  1
  B  B25  1  0.40197700  0.15680200  0.99910000  1
  B  B26  1  0.09802300  0.15680200  0.49910000  1
  B  B27  1  0.90197700  0.84319800  0.50090000  1
  O  O28  1  0.91561300  0.31815000  0.19220500  1
  O  O29  1  0.08438700  0.68185000  0.80779500  1
  O  O30  1  0.41561300  0.68185000  0.30779500  1
  O  O31  1  0.58438700  0.31815000  0.69220500  1
  O  O32  1  0.87648500  0.67604900  0.00994100  1
  O  O33  1  0.12351500  0.32395100  0.99005900  1
  O  O34  1  0.37648500  0.32395100  0.49005900  1
  O  O35  1  0.62351500  0.67604900  0.50994100  1
  O  O36  1  0.39203000  0.91012300  0.41887400  1
  O  O37  1  0.60797000  0.08987700  0.58112600  1
  O  O38  1  0.89203000  0.08987700  0.08112600  1
  O  O39  1  0.10797000  0.91012300  0.91887400  1
  O  O40  1  0.71352500  0.79677200  0.23352000  1
  O  O41  1  0.28647500  0.20322800  0.76648000  1
  O  O42  1  0.21352500  0.20322800  0.26648000  1
  O  O43  1  0.78647500  0.79677200  0.73352000  1
  O  O44  1  0.65329900  0.43184300  0.07005200  1
  O  O45  1  0.34670100  0.56815700  0.92994800  1
  O  O46  1  0.15329900  0.56815700  0.42994800  1
  O  O47  1  0.84670100  0.43184300  0.57005200  1
  O  O48  1  0.77430000  0.97043000  0.48494900  1
  O  O49  1  0.22570000  0.02957000  0.51505100  1
  O  O50  1  0.27430000  0.02957000  0.01505100  1
  O  O51  1  0.72570000  0.97043000  0.98494900  1
  O  O52  1  0.65206800  0.44838600  0.36669700  1
  O  O53  1  0.34793200  0.55161400  0.63330300  1
  O  O54  1  0.15206800  0.55161400  0.13330300  1
  O  O55  1  0.84793200  0.44838600  0.86669700  1
  O  O56  1  0.53282000  0.68502600  0.13196100  1
  O  O57  1  0.46718000  0.31497400  0.86803900  1
  O  O58  1  0.03282000  0.31497400  0.36803900  1
  O  O59  1  0.96718000  0.68502600  0.63196100  1
  O  O60  1  0.95313600  0.87681400  0.38459700  1
  O  O61  1  0.04686400  0.12318600  0.61540300  1
  O  O62  1  0.45313600  0.12318600  0.11540300  1
  O  O63  1  0.54686400  0.87681400  0.88459700  1
  O  O64  1  0.97286400  0.76608100  0.14791400  1
  O  O65  1  0.02713600  0.23391900  0.85208600  1
  O  O66  1  0.47286400  0.23391900  0.35208600  1
  O  O67  1  0.52713600  0.76608100  0.64791400  1
