# generated using pymatgen
data_DyAl7Au3
_symmetry_space_group_name_H-M   'P 1'
_cell_length_a   8.45827931
_cell_length_b   8.45827931
_cell_length_c   8.45827969
_cell_angle_alpha   57.22023196
_cell_angle_beta   57.22023196
_cell_angle_gamma   57.22023923
_symmetry_Int_Tables_number   1
_chemical_formula_structural   DyAl7Au3
_chemical_formula_sum   'Dy2 Al14 Au6'
_cell_volume   400.49357978
_cell_formula_units_Z   2
loop_
 _symmetry_equiv_pos_site_id
 _symmetry_equiv_pos_as_xyz
  1  'x, y, z'
loop_
 _atom_site_type_symbol
 _atom_site_label
 _atom_site_symmetry_multiplicity
 _atom_site_fract_x
 _atom_site_fract_y
 _atom_site_fract_z
 _atom_site_occupancy
  Dy  Dy0  1  0.50000000  0.50000000  0.50000000  1
  Dy  Dy1  1  0.00000000  0.00000000  0.00000000  1
  Al  Al2  1  0.43024800  0.64724900  0.83276000  1
  Al  Al3  1  0.83276000  0.43024800  0.64724900  1
  Al  Al4  1  0.64724900  0.83276000  0.43024800  1
  Al  Al5  1  0.06975200  0.66724000  0.85275100  1
  Al  Al6  1  0.85275100  0.06975200  0.66724000  1
  Al  Al7  1  0.66724000  0.85275100  0.06975200  1
  Al  Al8  1  0.56975200  0.35275100  0.16724000  1
  Al  Al9  1  0.16724000  0.56975200  0.35275100  1
  Al  Al10  1  0.25000000  0.25000000  0.25000000  1
  Al  Al11  1  0.75000000  0.75000000  0.75000000  1
  Al  Al12  1  0.33276000  0.14724900  0.93024800  1
  Al  Al13  1  0.14724900  0.93024800  0.33276000  1
  Al  Al14  1  0.93024800  0.33276000  0.14724900  1
  Al  Al15  1  0.35275100  0.16724000  0.56975200  1
  Au  Au16  1  0.75000000  0.07380300  0.42619700  1
  Au  Au17  1  0.42619700  0.75000000  0.07380300  1
  Au  Au18  1  0.07380300  0.42619700  0.75000000  1
  Au  Au19  1  0.25000000  0.92619700  0.57380300  1
  Au  Au20  1  0.57380300  0.25000000  0.92619700  1
  Au  Au21  1  0.92619700  0.57380300  0.25000000  1
