# generated using pymatgen
data_Fe2Te2(PbO4)3
_symmetry_space_group_name_H-M   'P 1'
_cell_length_a   9.28978592
_cell_length_b   9.28978592
_cell_length_c   7.31896852
_cell_angle_alpha   78.58901637
_cell_angle_beta   78.58901637
_cell_angle_gamma   114.57205769
_symmetry_Int_Tables_number   1
_chemical_formula_structural   Fe2Te2(PbO4)3
_chemical_formula_sum   'Fe4 Te4 Pb6 O24'
_cell_volume   534.55268716
_cell_formula_units_Z   2
loop_
 _symmetry_equiv_pos_site_id
 _symmetry_equiv_pos_as_xyz
  1  'x, y, z'
loop_
 _atom_site_type_symbol
 _atom_site_label
 _atom_site_symmetry_multiplicity
 _atom_site_fract_x
 _atom_site_fract_y
 _atom_site_fract_z
 _atom_site_occupancy
  Fe  Fe0  1  0.47925500  0.47180100  0.87701700  1
  Fe  Fe1  1  0.47180100  0.47925500  0.37701700  1
  Fe  Fe2  1  0.82153000  0.14443300  0.33750900  1
  Fe  Fe3  1  0.14443300  0.82153000  0.83750900  1
  Te  Te4  1  0.09021400  0.09880000  0.60493700  1
  Te  Te5  1  0.09880000  0.09021400  0.10493700  1
  Te  Te6  1  0.75494600  0.42940000  0.13502300  1
  Te  Te7  1  0.42940000  0.75494600  0.63502300  1
  Pb  Pb8  1  0.69819900  0.82988400  0.99231100  1
  Pb  Pb9  1  0.82988400  0.69819900  0.49231100  1
  Pb  Pb10  1  0.02660800  0.40874100  0.76132700  1
  Pb  Pb11  1  0.40874100  0.02660800  0.26132700  1
  Pb  Pb12  1  0.55035000  0.19864300  0.68587100  1
  Pb  Pb13  1  0.19864300  0.55035000  0.18587100  1
  O  O14  1  0.29285800  0.52205400  0.80734200  1
  O  O15  1  0.52205400  0.29285800  0.30734200  1
  O  O16  1  0.57321400  0.99388700  0.48246400  1
  O  O17  1  0.99388700  0.57321400  0.98246400  1
  O  O18  1  0.06381900  0.27289700  0.15750400  1
  O  O19  1  0.27289700  0.06381900  0.65750400  1
  O  O20  1  0.14089800  0.03595900  0.36405900  1
  O  O21  1  0.03595900  0.14089800  0.86405900  1
  O  O22  1  0.33640400  0.22393800  0.98906100  1
  O  O23  1  0.22393800  0.33640400  0.48906100  1
  O  O24  1  0.75797400  0.22905800  0.08889600  1
  O  O25  1  0.22905800  0.75797400  0.58889600  1
  O  O26  1  0.54908800  0.44859200  0.60810600  1
  O  O27  1  0.44859200  0.54908800  0.10810600  1
  O  O28  1  0.89349500  0.11044600  0.57980900  1
  O  O29  1  0.11044600  0.89349500  0.07980900  1
  O  O30  1  0.61399200  0.73393300  0.70771200  1
  O  O31  1  0.73393300  0.61399200  0.20771200  1
  O  O32  1  0.69391900  0.47066700  0.89816300  1
  O  O33  1  0.47066700  0.69391900  0.39816300  1
  O  O34  1  0.85979200  0.95943300  0.25259800  1
  O  O35  1  0.95943300  0.85979200  0.75259800  1
  O  O36  1  0.82090300  0.36149400  0.36707000  1
  O  O37  1  0.36149400  0.82090300  0.86707000  1
