# generated using pymatgen
data_Ce4H11
_symmetry_space_group_name_H-M   'P 1'
_cell_length_a   6.63125191
_cell_length_b   6.63125191
_cell_length_c   6.63125191
_cell_angle_alpha   131.47951442
_cell_angle_beta   131.47951442
_cell_angle_gamma   71.05233002
_symmetry_Int_Tables_number   1
_chemical_formula_structural   Ce4H11
_chemical_formula_sum   'Ce4 H11'
_cell_volume   160.25993702
_cell_formula_units_Z   1
loop_
 _symmetry_equiv_pos_site_id
 _symmetry_equiv_pos_as_xyz
  1  'x, y, z'
loop_
 _atom_site_type_symbol
 _atom_site_label
 _atom_site_symmetry_multiplicity
 _atom_site_fract_x
 _atom_site_fract_y
 _atom_site_fract_z
 _atom_site_occupancy
  Ce  Ce0  1  0.50000000  0.00000000  0.50000000  1
  Ce  Ce1  1  0.25876800  0.25876800  0.00000000  1
  Ce  Ce2  1  0.00000000  0.50000000  0.50000000  1
  Ce  Ce3  1  0.74123200  0.74123200  0.00000000  1
  H  H4  1  0.64181000  0.11707400  0.00000000  1
  H  H5  1  0.35819000  0.35819000  0.47526400  1
  H  H6  1  0.11707400  0.64181000  0.00000000  1
  H  H7  1  0.88292600  0.88292600  0.52473600  1
  H  H8  1  0.88292600  0.35819000  0.00000000  1
  H  H9  1  0.64181000  0.64181000  0.52473600  1
  H  H10  1  0.35819000  0.88292600  0.00000000  1
  H  H11  1  0.11707400  0.11707400  0.47526400  1
  H  H12  1  0.75000000  0.25000000  0.50000000  1
  H  H13  1  0.50000000  0.50000000  0.00000000  1
  H  H14  1  0.25000000  0.75000000  0.50000000  1
