# generated using pymatgen
data_Na3LiTi2F12
_symmetry_space_group_name_H-M   'P 1'
_cell_length_a   5.24058000
_cell_length_b   5.24058000
_cell_length_c   18.46334100
_cell_angle_alpha   90.00000000
_cell_angle_beta   90.00000000
_cell_angle_gamma   90.00000000
_symmetry_Int_Tables_number   1
_chemical_formula_structural   Na3LiTi2F12
_chemical_formula_sum   'Na6 Li2 Ti4 F24'
_cell_volume   507.07126562
_cell_formula_units_Z   2
loop_
 _symmetry_equiv_pos_site_id
 _symmetry_equiv_pos_as_xyz
  1  'x, y, z'
loop_
 _atom_site_type_symbol
 _atom_site_label
 _atom_site_symmetry_multiplicity
 _atom_site_fract_x
 _atom_site_fract_y
 _atom_site_fract_z
 _atom_site_occupancy
  Na  Na0  1  0.00000000  0.50000000  0.31081000  1
  Na  Na1  1  0.50000000  0.00000000  0.68919000  1
  Na  Na2  1  0.50000000  0.00000000  0.18919000  1
  Na  Na3  1  0.00000000  0.50000000  0.81081000  1
  Na  Na4  1  0.00000000  0.00000000  0.50000000  1
  Na  Na5  1  0.50000000  0.50000000  0.00000000  1
  Li  Li6  1  0.00000000  0.00000000  0.00000000  1
  Li  Li7  1  0.50000000  0.50000000  0.50000000  1
  Ti  Ti8  1  0.00000000  0.50000000  0.12442300  1
  Ti  Ti9  1  0.50000000  0.00000000  0.87557700  1
  Ti  Ti10  1  0.50000000  0.00000000  0.37557700  1
  Ti  Ti11  1  0.00000000  0.50000000  0.62442300  1
  F  F12  1  0.20950000  0.20860200  0.38356100  1
  F  F13  1  0.79050000  0.79139800  0.38356100  1
  F  F14  1  0.20860200  0.79050000  0.61643900  1
  F  F15  1  0.29050000  0.70860200  0.11643900  1
  F  F16  1  0.79139800  0.20950000  0.61643900  1
  F  F17  1  0.70950000  0.29139800  0.11643900  1
  F  F18  1  0.29139800  0.29050000  0.88356100  1
  F  F19  1  0.70860200  0.70950000  0.88356100  1
  F  F20  1  0.14733200  0.29886400  0.19751900  1
  F  F21  1  0.85266800  0.70113600  0.19751900  1
  F  F22  1  0.29886400  0.85266800  0.80248100  1
  F  F23  1  0.35266800  0.79886400  0.30248100  1
  F  F24  1  0.70113600  0.14733200  0.80248100  1
  F  F25  1  0.64733200  0.20113600  0.30248100  1
  F  F26  1  0.20113600  0.35266800  0.69751900  1
  F  F27  1  0.79886400  0.64733200  0.69751900  1
  F  F28  1  0.15025700  0.28598900  0.05103900  1
  F  F29  1  0.84974300  0.71401100  0.05103900  1
  F  F30  1  0.28598900  0.84974300  0.94896100  1
  F  F31  1  0.34974300  0.78598900  0.44896100  1
  F  F32  1  0.71401100  0.15025700  0.94896100  1
  F  F33  1  0.65025700  0.21401100  0.44896100  1
  F  F34  1  0.21401100  0.34974300  0.55103900  1
  F  F35  1  0.78598900  0.65025700  0.55103900  1
