# generated using pymatgen
data_Tb3TaO7
_symmetry_space_group_name_H-M   'P 1'
_cell_length_a   6.50575018
_cell_length_b   6.50575018
_cell_length_c   7.52495500
_cell_angle_alpha   90.00000000
_cell_angle_beta   90.00000000
_cell_angle_gamma   109.13037442
_symmetry_Int_Tables_number   1
_chemical_formula_structural   Tb3TaO7
_chemical_formula_sum   'Tb6 Ta2 O14'
_cell_volume   300.90347823
_cell_formula_units_Z   2
loop_
 _symmetry_equiv_pos_site_id
 _symmetry_equiv_pos_as_xyz
  1  'x, y, z'
loop_
 _atom_site_type_symbol
 _atom_site_label
 _atom_site_symmetry_multiplicity
 _atom_site_fract_x
 _atom_site_fract_y
 _atom_site_fract_z
 _atom_site_occupancy
  Tb  Tb0  1  0.46502000  0.99981400  0.25463900  1
  Tb  Tb1  1  0.00018600  0.53498000  0.24536100  1
  Tb  Tb2  1  0.47341600  0.47341600  0.00000000  1
  Tb  Tb3  1  0.52658400  0.52658400  0.50000000  1
  Tb  Tb4  1  0.53498000  0.00018600  0.75463900  1
  Tb  Tb5  1  0.99981400  0.46502000  0.74536100  1
  Ta  Ta6  1  0.00253500  0.00253500  0.50000000  1
  Ta  Ta7  1  0.99746500  0.99746500  0.00000000  1
  O  O8  1  0.93378000  0.06622000  0.75000000  1
  O  O9  1  0.63798700  0.36201300  0.75000000  1
  O  O10  1  0.31255400  0.05817600  0.53808800  1
  O  O11  1  0.94182400  0.68744600  0.96191200  1
  O  O12  1  0.62935400  0.37064600  0.25000000  1
  O  O13  1  0.91973900  0.67479600  0.52766000  1
  O  O14  1  0.32520400  0.08026100  0.97234000  1
  O  O15  1  0.08026100  0.32520400  0.02766000  1
  O  O16  1  0.67479600  0.91973900  0.47234000  1
  O  O17  1  0.37064600  0.62935400  0.75000000  1
  O  O18  1  0.68744600  0.94182400  0.03808800  1
  O  O19  1  0.05817600  0.31255400  0.46191200  1
  O  O20  1  0.36201300  0.63798700  0.25000000  1
  O  O21  1  0.06622000  0.93378000  0.25000000  1
