# generated using pymatgen
data_Rb2Mo3SeO12
_symmetry_space_group_name_H-M   'P 1'
_cell_length_a   7.38804109
_cell_length_b   7.38804109
_cell_length_c   12.36147900
_cell_angle_alpha   90.00000000
_cell_angle_beta   90.00000000
_cell_angle_gamma   119.99999181
_symmetry_Int_Tables_number   1
_chemical_formula_structural   Rb2Mo3SeO12
_chemical_formula_sum   'Rb4 Mo6 Se2 O24'
_cell_volume   584.33204893
_cell_formula_units_Z   2
loop_
 _symmetry_equiv_pos_site_id
 _symmetry_equiv_pos_as_xyz
  1  'x, y, z'
loop_
 _atom_site_type_symbol
 _atom_site_label
 _atom_site_symmetry_multiplicity
 _atom_site_fract_x
 _atom_site_fract_y
 _atom_site_fract_z
 _atom_site_occupancy
  Rb  Rb0  1  0.33333300  0.66666700  0.94396000  1
  Rb  Rb1  1  0.66666700  0.33333300  0.44396000  1
  Rb  Rb2  1  0.66666700  0.33333300  0.06565400  1
  Rb  Rb3  1  0.33333300  0.66666700  0.56565400  1
  Mo  Mo4  1  0.80054300  0.14010100  0.73051500  1
  Mo  Mo5  1  0.85989900  0.66044200  0.73051500  1
  Mo  Mo6  1  0.33955800  0.19945700  0.73051500  1
  Mo  Mo7  1  0.19945700  0.85989900  0.23051500  1
  Mo  Mo8  1  0.14010100  0.33955800  0.23051500  1
  Mo  Mo9  1  0.66044200  0.80054300  0.23051500  1
  Se  Se10  1  0.00000000  0.00000000  0.50150200  1
  Se  Se11  1  0.00000000  0.00000000  0.00150200  1
  O  O12  1  0.79452800  0.20081000  0.86616300  1
  O  O13  1  0.79919000  0.59371800  0.86616300  1
  O  O14  1  0.40628200  0.20547200  0.86616300  1
  O  O15  1  0.20547200  0.79919000  0.36616300  1
  O  O16  1  0.20081000  0.40628200  0.36616300  1
  O  O17  1  0.59371800  0.79452800  0.36616300  1
  O  O18  1  0.88086900  0.12788200  0.56051600  1
  O  O19  1  0.87211800  0.75298800  0.56051600  1
  O  O20  1  0.24701200  0.11913100  0.56051600  1
  O  O21  1  0.11913100  0.87211800  0.06051600  1
  O  O22  1  0.12788200  0.24701200  0.06051600  1
  O  O23  1  0.75298800  0.88086900  0.06051600  1
  O  O24  1  0.53922000  0.08612900  0.68395200  1
  O  O25  1  0.91387100  0.45309000  0.68395200  1
  O  O26  1  0.54691000  0.46078000  0.68395200  1
  O  O27  1  0.46078000  0.91387100  0.18395200  1
  O  O28  1  0.08612900  0.54691000  0.18395200  1
  O  O29  1  0.45309000  0.53922000  0.18395200  1
  O  O30  1  0.74806800  0.87054000  0.74394000  1
  O  O31  1  0.12946000  0.87752900  0.74394000  1
  O  O32  1  0.12247100  0.25193200  0.74394000  1
  O  O33  1  0.25193200  0.12946000  0.24394000  1
  O  O34  1  0.87054000  0.12247100  0.24394000  1
  O  O35  1  0.87752900  0.74806800  0.24394000  1
