# generated using pymatgen
data_ZnGa11Co4
_symmetry_space_group_name_H-M   'P 1'
_cell_length_a   6.24122969
_cell_length_b   6.30515410
_cell_length_c   6.41064600
_cell_angle_alpha   90.00000000
_cell_angle_beta   90.00000000
_cell_angle_gamma   90.36826477
_symmetry_Int_Tables_number   1
_chemical_formula_structural   ZnGa11Co4
_chemical_formula_sum   'Zn1 Ga11 Co4'
_cell_volume   252.26598532
_cell_formula_units_Z   1
loop_
 _symmetry_equiv_pos_site_id
 _symmetry_equiv_pos_as_xyz
  1  'x, y, z'
loop_
 _atom_site_type_symbol
 _atom_site_label
 _atom_site_symmetry_multiplicity
 _atom_site_fract_x
 _atom_site_fract_y
 _atom_site_fract_z
 _atom_site_occupancy
  Zn  Zn0  1  0.50000000  0.00000000  0.00000000  1
  Ga  Ga1  1  0.34867100  0.65751900  0.23869200  1
  Ga  Ga2  1  0.65132900  0.34248100  0.23869200  1
  Ga  Ga3  1  0.15545500  0.15190000  0.74428500  1
  Ga  Ga4  1  0.84454500  0.84810000  0.74428500  1
  Ga  Ga5  1  0.65132900  0.34248100  0.76130800  1
  Ga  Ga6  1  0.34867100  0.65751900  0.76130800  1
  Ga  Ga7  1  0.84454500  0.84810000  0.25571500  1
  Ga  Ga8  1  0.15545500  0.15190000  0.25571500  1
  Ga  Ga9  1  0.00000000  0.50000000  0.50000000  1
  Ga  Ga10  1  0.00000000  0.50000000  0.00000000  1
  Ga  Ga11  1  0.50000000  0.00000000  0.50000000  1
  Co  Co12  1  0.15479200  0.84410500  0.50000000  1
  Co  Co13  1  0.84520800  0.15589500  0.50000000  1
  Co  Co14  1  0.34255300  0.35186600  0.00000000  1
  Co  Co15  1  0.65744700  0.64813400  0.00000000  1
