# generated using pymatgen
data_MgTi4FeO10
_symmetry_space_group_name_H-M   'P 1'
_cell_length_a   5.28456326
_cell_length_b   7.49295102
_cell_length_c   10.86400660
_cell_angle_alpha   74.92898425
_cell_angle_beta   97.06587022
_cell_angle_gamma   69.59081634
_symmetry_Int_Tables_number   1
_chemical_formula_structural   MgTi4FeO10
_chemical_formula_sum   'Mg2 Ti8 Fe2 O20'
_cell_volume   378.30209974
_cell_formula_units_Z   2
loop_
 _symmetry_equiv_pos_site_id
 _symmetry_equiv_pos_as_xyz
  1  'x, y, z'
loop_
 _atom_site_type_symbol
 _atom_site_label
 _atom_site_symmetry_multiplicity
 _atom_site_fract_x
 _atom_site_fract_y
 _atom_site_fract_z
 _atom_site_occupancy
  Mg  Mg0  1  0.58088000  0.02702200  0.74999200  1
  Mg  Mg1  1  0.08085100  0.52698000  0.75002800  1
  Ti  Ti2  1  0.66265300  0.60024300  0.93095000  1
  Ti  Ti3  1  0.16256300  0.10030600  0.93091600  1
  Ti  Ti4  1  0.48166800  0.78124200  0.56902100  1
  Ti  Ti5  1  0.98166200  0.28127800  0.56898600  1
  Ti  Ti6  1  0.33210900  0.40054200  0.06527500  1
  Ti  Ti7  1  0.83214200  0.90050700  0.06532700  1
  Ti  Ti8  1  0.51690200  0.21584500  0.43470800  1
  Ti  Ti9  1  0.01687100  0.71581100  0.43471900  1
  Fe  Fe10  1  0.41436800  0.97136400  0.24998300  1
  Fe  Fe11  1  0.91481200  0.47124600  0.25000400  1
  O  O12  1  0.31705100  0.27225000  0.25002500  1
  O  O13  1  0.81704400  0.77223600  0.25002400  1
  O  O14  1  0.69810800  0.73273900  0.74999800  1
  O  O15  1  0.19821100  0.23273300  0.74999400  1
  O  O16  1  0.26270400  0.82771500  0.38973800  1
  O  O17  1  0.76264900  0.32783700  0.38971600  1
  O  O18  1  0.12296500  0.96740100  0.11027500  1
  O  O19  1  0.62295300  0.46747800  0.11030300  1
  O  O20  1  0.73767100  0.16990000  0.61406900  1
  O  O21  1  0.23762000  0.66981900  0.61410000  1
  O  O22  1  0.87360900  0.03395600  0.88589500  1
  O  O23  1  0.37346000  0.53405300  0.88590700  1
  O  O24  1  0.69169800  0.93582200  0.44211700  1
  O  O25  1  0.19169400  0.43579200  0.44216400  1
  O  O26  1  0.49955000  0.12795000  0.05787300  1
  O  O27  1  0.99953200  0.62790300  0.05787200  1
  O  O28  1  0.31065100  0.06133100  0.56335100  1
  O  O29  1  0.81064700  0.56132300  0.56338800  1
  O  O30  1  0.49740000  0.87469400  0.93665400  1
  O  O31  1  0.99730000  0.37467900  0.93662800  1
