# generated using pymatgen
data_PrLuSe3
_symmetry_space_group_name_H-M   'P 1'
_cell_length_a   6.88341661
_cell_length_b   6.88341661
_cell_length_c   9.99265200
_cell_angle_alpha   90.00000000
_cell_angle_beta   90.00000000
_cell_angle_gamma   145.79085676
_symmetry_Int_Tables_number   1
_chemical_formula_structural   PrLuSe3
_chemical_formula_sum   'Pr2 Lu2 Se6'
_cell_volume   266.18990287
_cell_formula_units_Z   2
loop_
 _symmetry_equiv_pos_site_id
 _symmetry_equiv_pos_as_xyz
  1  'x, y, z'
loop_
 _atom_site_type_symbol
 _atom_site_label
 _atom_site_symmetry_multiplicity
 _atom_site_fract_x
 _atom_site_fract_y
 _atom_site_fract_z
 _atom_site_occupancy
  Pr  Pr0  1  0.25198700  0.74801300  0.75000000  1
  Pr  Pr1  1  0.74801300  0.25198700  0.25000000  1
  Lu  Lu2  1  0.00000000  0.00000000  0.00000000  1
  Lu  Lu3  1  0.00000000  0.00000000  0.50000000  1
  Se  Se4  1  0.08531800  0.91468200  0.25000000  1
  Se  Se5  1  0.91468200  0.08531800  0.75000000  1
  Se  Se6  1  0.64273100  0.35726900  0.56130300  1
  Se  Se7  1  0.35726900  0.64273100  0.43869700  1
  Se  Se8  1  0.64273100  0.35726900  0.93869700  1
  Se  Se9  1  0.35726900  0.64273100  0.06130300  1
