# generated using pymatgen
data_AlH15Br3N5
_symmetry_space_group_name_H-M   'P 1'
_cell_length_a   7.02794100
_cell_length_b   11.08162600
_cell_length_c   14.09773000
_cell_angle_alpha   90.00000000
_cell_angle_beta   90.00000000
_cell_angle_gamma   90.00000000
_symmetry_Int_Tables_number   1
_chemical_formula_structural   AlH15Br3N5
_chemical_formula_sum   'Al4 H60 Br12 N20'
_cell_volume   1097.94550344
_cell_formula_units_Z   4
loop_
 _symmetry_equiv_pos_site_id
 _symmetry_equiv_pos_as_xyz
  1  'x, y, z'
loop_
 _atom_site_type_symbol
 _atom_site_label
 _atom_site_symmetry_multiplicity
 _atom_site_fract_x
 _atom_site_fract_y
 _atom_site_fract_z
 _atom_site_occupancy
  Al  Al0  1  0.82518300  0.75000000  0.10862000  1
  Al  Al1  1  0.67481700  0.75000000  0.60862000  1
  Al  Al2  1  0.17481700  0.25000000  0.89138000  1
  Al  Al3  1  0.32518200  0.25000000  0.39138000  1
  H  H4  1  0.98064600  0.75000000  0.27712300  1
  H  H5  1  0.51935400  0.75000000  0.77712300  1
  H  H6  1  0.01935400  0.25000000  0.72287700  1
  H  H7  1  0.48064600  0.25000000  0.22287700  1
  H  H8  1  0.12470800  0.67524300  0.20649100  1
  H  H9  1  0.37529200  0.82475700  0.70649100  1
  H  H10  1  0.87529200  0.17524300  0.79350900  1
  H  H11  1  0.62470800  0.32475700  0.29350900  1
  H  H12  1  0.87529200  0.32475700  0.79350900  1
  H  H13  1  0.62470800  0.17524300  0.29350900  1
  H  H14  1  0.12470800  0.82475700  0.20649100  1
  H  H15  1  0.37529200  0.67524300  0.70649100  1
  H  H16  1  0.46685200  0.75000000  0.04527900  1
  H  H17  1  0.03314800  0.75000000  0.54527900  1
  H  H18  1  0.53314800  0.25000000  0.95472100  1
  H  H19  1  0.96685200  0.25000000  0.45472100  1
  H  H20  1  0.89691500  0.67575100  0.47069500  1
  H  H21  1  0.60308500  0.82424900  0.97069500  1
  H  H22  1  0.10308500  0.17575100  0.52930500  1
  H  H23  1  0.39691500  0.32424900  0.02930500  1
  H  H24  1  0.10308500  0.32424900  0.52930500  1
  H  H25  1  0.39691500  0.17575100  0.02930500  1
  H  H26  1  0.89691500  0.82424900  0.47069500  1
  H  H27  1  0.60308500  0.67575100  0.97069500  1
  H  H28  1  0.67343200  0.75000000  0.28426200  1
  H  H29  1  0.82656800  0.75000000  0.78426200  1
  H  H30  1  0.32656800  0.25000000  0.71573800  1
  H  H31  1  0.17343200  0.25000000  0.21573800  1
  H  H32  1  0.53688300  0.67537300  0.21047100  1
  H  H33  1  0.96311700  0.82462700  0.71047100  1
  H  H34  1  0.46311700  0.17537300  0.78952900  1
  H  H35  1  0.03688300  0.32462700  0.28952900  1
  H  H36  1  0.46311700  0.32462700  0.78952900  1
  H  H37  1  0.03688300  0.17537300  0.28952900  1
  H  H38  1  0.53688300  0.82462700  0.21047100  1
  H  H39  1  0.96311700  0.67537300  0.71047100  1
  H  H40  1  0.75753100  0.52523600  0.05935500  1
  H  H41  1  0.74246900  0.97476400  0.55935500  1
  H  H42  1  0.24246900  0.02523600  0.94064500  1
  H  H43  1  0.25753100  0.47476400  0.44064500  1
  H  H44  1  0.24246900  0.47476400  0.94064500  1
  H  H45  1  0.25753100  0.02523600  0.44064500  1
  H  H46  1  0.75753100  0.97476400  0.05935500  1
  H  H47  1  0.74246900  0.52523600  0.55935500  1
  H  H48  1  0.96840100  0.53390100  0.11001200  1
  H  H49  1  0.53159900  0.96609900  0.61001200  1
  H  H50  1  0.03159900  0.03390100  0.88998800  1
  H  H51  1  0.46840100  0.46609900  0.38998800  1
  H  H52  1  0.03159900  0.46609900  0.88998800  1
  H  H53  1  0.46840100  0.03390100  0.38998800  1
  H  H54  1  0.96840100  0.96609900  0.11001200  1
  H  H55  1  0.53159900  0.53390100  0.61001200  1
  H  H56  1  0.77657600  0.53516000  0.17586800  1
  H  H57  1  0.72342400  0.96484000  0.67586800  1
  H  H58  1  0.22342400  0.03516000  0.82413200  1
  H  H59  1  0.27657600  0.46484000  0.32413200  1
  H  H60  1  0.22342400  0.46484000  0.82413200  1
  H  H61  1  0.27657600  0.03516000  0.32413200  1
  H  H62  1  0.77657600  0.96484000  0.17586800  1
  H  H63  1  0.72342400  0.53516000  0.67586800  1
  Br  Br64  1  0.44153700  0.75000000  0.47327000  1
  Br  Br65  1  0.05846300  0.75000000  0.97327000  1
  Br  Br66  1  0.55846300  0.25000000  0.52673000  1
  Br  Br67  1  0.94153700  0.25000000  0.02673000  1
  Br  Br68  1  0.83922900  0.50187800  0.35394100  1
  Br  Br69  1  0.66077100  0.99812200  0.85394100  1
  Br  Br70  1  0.16077100  0.00187800  0.64605900  1
  Br  Br71  1  0.33922900  0.49812200  0.14605900  1
  Br  Br72  1  0.16077100  0.49812200  0.64605900  1
  Br  Br73  1  0.33922900  0.00187800  0.14605900  1
  Br  Br74  1  0.83922900  0.99812200  0.35394100  1
  Br  Br75  1  0.66077100  0.50187800  0.85394100  1
  N  N76  1  0.03747500  0.75000000  0.21023500  1
  N  N77  1  0.46252500  0.75000000  0.71023500  1
  N  N78  1  0.96252500  0.25000000  0.78976500  1
  N  N79  1  0.53747500  0.25000000  0.28976500  1
  N  N80  1  0.60026400  0.75000000  0.01494200  1
  N  N81  1  0.89973600  0.75000000  0.51494200  1
  N  N82  1  0.39973600  0.25000000  0.98505800  1
  N  N83  1  0.10026400  0.25000000  0.48505800  1
  N  N84  1  0.62421600  0.75000000  0.21556700  1
  N  N85  1  0.87578400  0.75000000  0.71556700  1
  N  N86  1  0.37578400  0.25000000  0.78443300  1
  N  N87  1  0.12421600  0.25000000  0.28443300  1
  N  N88  1  0.83147800  0.56721000  0.11290800  1
  N  N89  1  0.66852200  0.93279000  0.61290800  1
  N  N90  1  0.16852200  0.06721000  0.88709200  1
  N  N91  1  0.33147800  0.43279000  0.38709200  1
  N  N92  1  0.16852200  0.43279000  0.88709200  1
  N  N93  1  0.33147800  0.06721000  0.38709200  1
  N  N94  1  0.83147800  0.93279000  0.11290800  1
  N  N95  1  0.66852200  0.56721000  0.61290800  1
