# generated using pymatgen
data_Ti4Mn5V3
_symmetry_space_group_name_H-M   'P 1'
_cell_length_a   4.86378821
_cell_length_b   4.86378821
_cell_length_c   7.89180600
_cell_angle_alpha   90.00000000
_cell_angle_beta   90.00000000
_cell_angle_gamma   120.14405509
_symmetry_Int_Tables_number   1
_chemical_formula_structural   Ti4Mn5V3
_chemical_formula_sum   'Ti4 Mn5 V3'
_cell_volume   161.44481170
_cell_formula_units_Z   1
loop_
 _symmetry_equiv_pos_site_id
 _symmetry_equiv_pos_as_xyz
  1  'x, y, z'
loop_
 _atom_site_type_symbol
 _atom_site_label
 _atom_site_symmetry_multiplicity
 _atom_site_fract_x
 _atom_site_fract_y
 _atom_site_fract_z
 _atom_site_occupancy
  Ti  Ti0  1  0.33370800  0.66629200  0.31065300  1
  Ti  Ti1  1  0.66609000  0.33391000  0.18390200  1
  Ti  Ti2  1  0.66609000  0.33391000  0.81609800  1
  Ti  Ti3  1  0.33370800  0.66629200  0.68934700  1
  Mn  Mn4  1  0.34086600  0.17379400  0.50000000  1
  Mn  Mn5  1  0.82620600  0.65913400  0.50000000  1
  Mn  Mn6  1  0.17208900  0.82791100  0.00000000  1
  Mn  Mn7  1  0.65253900  0.82666700  0.00000000  1
  Mn  Mn8  1  0.17333300  0.34746100  0.00000000  1
  V  V9  1  0.00366000  0.99634000  0.24377800  1
  V  V10  1  0.00366000  0.99634000  0.75622200  1
  V  V11  1  0.82794700  0.17205300  0.50000000  1
