# generated using pymatgen
data_NdPS
_symmetry_space_group_name_H-M   'P 1'
_cell_length_a   5.50150100
_cell_length_b   5.57278100
_cell_length_c   17.25233800
_cell_angle_alpha   90.00000000
_cell_angle_beta   90.00000000
_cell_angle_gamma   90.00000000
_symmetry_Int_Tables_number   1
_chemical_formula_structural   NdPS
_chemical_formula_sum   'Nd8 P8 S8'
_cell_volume   528.93356916
_cell_formula_units_Z   8
loop_
 _symmetry_equiv_pos_site_id
 _symmetry_equiv_pos_as_xyz
  1  'x, y, z'
loop_
 _atom_site_type_symbol
 _atom_site_label
 _atom_site_symmetry_multiplicity
 _atom_site_fract_x
 _atom_site_fract_y
 _atom_site_fract_z
 _atom_site_occupancy
  Nd  Nd0  1  0.25000000  0.48404200  0.36249400  1
  Nd  Nd1  1  0.25000000  0.98404200  0.13750600  1
  Nd  Nd2  1  0.75000000  0.51595800  0.63750600  1
  Nd  Nd3  1  0.75000000  0.01595800  0.86249400  1
  Nd  Nd4  1  0.25000000  0.01587500  0.64683600  1
  Nd  Nd5  1  0.25000000  0.51587500  0.85316400  1
  Nd  Nd6  1  0.75000000  0.98412500  0.35316400  1
  Nd  Nd7  1  0.75000000  0.48412500  0.14683600  1
  P  P8  1  0.04240600  0.30364400  0.99744200  1
  P  P9  1  0.45759400  0.80364400  0.50255800  1
  P  P10  1  0.54240600  0.69635600  0.00255800  1
  P  P11  1  0.95759400  0.19635600  0.49744200  1
  P  P12  1  0.95759400  0.69635600  0.00255800  1
  P  P13  1  0.54240600  0.19635600  0.49744200  1
  P  P14  1  0.45759400  0.30364400  0.99744200  1
  P  P15  1  0.04240600  0.80364400  0.50255800  1
  S  S16  1  0.25000000  0.48492100  0.18907800  1
  S  S17  1  0.25000000  0.98492100  0.31092200  1
  S  S18  1  0.75000000  0.51507900  0.81092200  1
  S  S19  1  0.75000000  0.01507900  0.68907800  1
  S  S20  1  0.25000000  0.01233400  0.81701800  1
  S  S21  1  0.25000000  0.51233400  0.68298200  1
  S  S22  1  0.75000000  0.98766600  0.18298200  1
  S  S23  1  0.75000000  0.48766600  0.31701800  1
