# generated using pymatgen
data_Er3Ga5O12
_symmetry_space_group_name_H-M   'P 1'
_cell_length_a   10.69694487
_cell_length_b   10.69694487
_cell_length_c   10.69694487
_cell_angle_alpha   109.47122063
_cell_angle_beta   109.47122063
_cell_angle_gamma   109.47122063
_symmetry_Int_Tables_number   1
_chemical_formula_structural   Er3Ga5O12
_chemical_formula_sum   'Er12 Ga20 O48'
_cell_volume   942.23098508
_cell_formula_units_Z   4
loop_
 _symmetry_equiv_pos_site_id
 _symmetry_equiv_pos_as_xyz
  1  'x, y, z'
loop_
 _atom_site_type_symbol
 _atom_site_label
 _atom_site_symmetry_multiplicity
 _atom_site_fract_x
 _atom_site_fract_y
 _atom_site_fract_z
 _atom_site_occupancy
  Er  Er0  1  0.87500000  0.62500000  0.25000000  1
  Er  Er1  1  0.62500000  0.25000000  0.87500000  1
  Er  Er2  1  0.87500000  0.75000000  0.62500000  1
  Er  Er3  1  0.75000000  0.62500000  0.87500000  1
  Er  Er4  1  0.25000000  0.87500000  0.62500000  1
  Er  Er5  1  0.62500000  0.87500000  0.75000000  1
  Er  Er6  1  0.12500000  0.37500000  0.75000000  1
  Er  Er7  1  0.37500000  0.75000000  0.12500000  1
  Er  Er8  1  0.12500000  0.25000000  0.37500000  1
  Er  Er9  1  0.25000000  0.37500000  0.12500000  1
  Er  Er10  1  0.75000000  0.12500000  0.37500000  1
  Er  Er11  1  0.37500000  0.12500000  0.25000000  1
  Ga  Ga12  1  0.12500000  0.87500000  0.25000000  1
  Ga  Ga13  1  0.87500000  0.12500000  0.75000000  1
  Ga  Ga14  1  0.25000000  0.62500000  0.37500000  1
  Ga  Ga15  1  0.37500000  0.25000000  0.62500000  1
  Ga  Ga16  1  0.75000000  0.87500000  0.12500000  1
  Ga  Ga17  1  0.12500000  0.75000000  0.87500000  1
  Ga  Ga18  1  0.37500000  0.62500000  0.75000000  1
  Ga  Ga19  1  0.62500000  0.75000000  0.37500000  1
  Ga  Ga20  1  0.87500000  0.25000000  0.12500000  1
  Ga  Ga21  1  0.25000000  0.12500000  0.87500000  1
  Ga  Ga22  1  0.75000000  0.37500000  0.62500000  1
  Ga  Ga23  1  0.62500000  0.37500000  0.25000000  1
  Ga  Ga24  1  0.50000000  0.50000000  0.50000000  1
  Ga  Ga25  1  0.50000000  0.00000000  0.50000000  1
  Ga  Ga26  1  0.00000000  0.50000000  0.50000000  1
  Ga  Ga27  1  0.50000000  0.50000000  0.00000000  1
  Ga  Ga28  1  0.00000000  0.00000000  0.50000000  1
  Ga  Ga29  1  0.00000000  0.50000000  0.00000000  1
  Ga  Ga30  1  0.50000000  0.00000000  0.00000000  1
  Ga  Ga31  1  0.00000000  0.00000000  0.00000000  1
  O  O32  1  0.46978200  0.37555700  0.29262600  1
  O  O33  1  0.32284400  0.90577500  0.03021800  1
  O  O34  1  0.59422500  0.91706900  0.12444300  1
  O  O35  1  0.58293100  0.17715600  0.20737400  1
  O  O36  1  0.12444300  0.03021800  0.20737400  1
  O  O37  1  0.17715600  0.20737400  0.58293100  1
  O  O38  1  0.17715600  0.46978200  0.59422500  1
  O  O39  1  0.20737400  0.58293100  0.17715600  1
  O  O40  1  0.37555700  0.58293100  0.90577500  1
  O  O41  1  0.91706900  0.29262600  0.32284400  1
  O  O42  1  0.29262600  0.32284400  0.91706900  1
  O  O43  1  0.20737400  0.12444300  0.03021800  1
  O  O44  1  0.46978200  0.59422500  0.17715600  1
  O  O45  1  0.90577500  0.37555700  0.58293100  1
  O  O46  1  0.03021800  0.20737400  0.12444300  1
  O  O47  1  0.59422500  0.17715600  0.46978200  1
  O  O48  1  0.58293100  0.90577500  0.37555700  1
  O  O49  1  0.03021800  0.32284400  0.90577500  1
  O  O50  1  0.91706900  0.12444300  0.59422500  1
  O  O51  1  0.62444300  0.41706900  0.09422500  1
  O  O52  1  0.12444300  0.59422500  0.91706900  1
  O  O53  1  0.29262600  0.46978200  0.37555700  1
  O  O54  1  0.90577500  0.03021800  0.32284400  1
  O  O55  1  0.32284400  0.91706900  0.29262600  1
  O  O56  1  0.53021800  0.62444300  0.70737400  1
  O  O57  1  0.67715600  0.09422500  0.96978200  1
  O  O58  1  0.40577500  0.08293100  0.87555700  1
  O  O59  1  0.41706900  0.82284400  0.79262600  1
  O  O60  1  0.87555700  0.96978200  0.79262600  1
  O  O61  1  0.82284400  0.79262600  0.41706900  1
  O  O62  1  0.82284400  0.53021800  0.40577500  1
  O  O63  1  0.79262600  0.41706900  0.82284400  1
  O  O64  1  0.67715600  0.08293100  0.70737400  1
  O  O65  1  0.09422500  0.96978200  0.67715600  1
  O  O66  1  0.70737400  0.53021800  0.62444300  1
  O  O67  1  0.62444300  0.70737400  0.53021800  1
  O  O68  1  0.87555700  0.40577500  0.08293100  1
  O  O69  1  0.08293100  0.87555700  0.40577500  1
  O  O70  1  0.96978200  0.67715600  0.09422500  1
  O  O71  1  0.41706900  0.09422500  0.62444300  1
  O  O72  1  0.40577500  0.82284400  0.53021800  1
  O  O73  1  0.96978200  0.79262600  0.87555700  1
  O  O74  1  0.09422500  0.62444300  0.41706900  1
  O  O75  1  0.53021800  0.40577500  0.82284400  1
  O  O76  1  0.79262600  0.87555700  0.96978200  1
  O  O77  1  0.70737400  0.67715600  0.08293100  1
  O  O78  1  0.08293100  0.70737400  0.67715600  1
  O  O79  1  0.37555700  0.29262600  0.46978200  1
