# generated using pymatgen
data_CsHf2Br9
_symmetry_space_group_name_H-M   'P 1'
_cell_length_a   7.09412500
_cell_length_b   10.40261300
_cell_length_c   13.58955762
_cell_angle_alpha   65.95015140
_cell_angle_beta   90.00000000
_cell_angle_gamma   90.00000000
_symmetry_Int_Tables_number   1
_chemical_formula_structural   CsHf2Br9
_chemical_formula_sum   'Cs2 Hf4 Br18'
_cell_volume   915.81622988
_cell_formula_units_Z   2
loop_
 _symmetry_equiv_pos_site_id
 _symmetry_equiv_pos_as_xyz
  1  'x, y, z'
loop_
 _atom_site_type_symbol
 _atom_site_label
 _atom_site_symmetry_multiplicity
 _atom_site_fract_x
 _atom_site_fract_y
 _atom_site_fract_z
 _atom_site_occupancy
  Cs  Cs0  1  0.59250400  0.50000000  0.75000000  1
  Cs  Cs1  1  0.40749600  0.50000000  0.25000000  1
  Hf  Hf2  1  0.25411100  0.82649700  0.86661000  1
  Hf  Hf3  1  0.74588900  0.17350300  0.13339000  1
  Hf  Hf4  1  0.25411100  0.17350300  0.63339000  1
  Hf  Hf5  1  0.74588900  0.82649700  0.36661000  1
  Br  Br6  1  0.10128700  0.79550400  0.04152100  1
  Br  Br7  1  0.89871300  0.20449600  0.95847900  1
  Br  Br8  1  0.10128700  0.20449600  0.45847900  1
  Br  Br9  1  0.89871300  0.79550400  0.54152100  1
  Br  Br10  1  0.10841100  0.61644000  0.84554400  1
  Br  Br11  1  0.89158900  0.38356000  0.15445600  1
  Br  Br12  1  0.10841100  0.38356000  0.65445600  1
  Br  Br13  1  0.89158900  0.61644000  0.34554400  1
  Br  Br14  1  0.96891900  0.00000000  0.75000000  1
  Br  Br15  1  0.03108100  0.00000000  0.25000000  1
  Br  Br16  1  0.40179200  0.08360300  0.84010300  1
  Br  Br17  1  0.59820800  0.91639700  0.15989700  1
  Br  Br18  1  0.40179200  0.91639700  0.65989700  1
  Br  Br19  1  0.59820800  0.08360300  0.34010300  1
  Br  Br20  1  0.56730000  0.70912700  0.94250000  1
  Br  Br21  1  0.43270000  0.29087300  0.05750000  1
  Br  Br22  1  0.56730000  0.29087300  0.55750000  1
  Br  Br23  1  0.43270000  0.70912700  0.44250000  1
