# generated using pymatgen
data_TmAlNi4
_symmetry_space_group_name_H-M   'P 1'
_cell_length_a   4.85812983
_cell_length_b   4.85812983
_cell_length_c   4.01993500
_cell_angle_alpha   90.00000000
_cell_angle_beta   90.00000000
_cell_angle_gamma   118.45559189
_symmetry_Int_Tables_number   1
_chemical_formula_structural   TmAlNi4
_chemical_formula_sum   'Tm1 Al1 Ni4'
_cell_volume   83.41388769
_cell_formula_units_Z   1
loop_
 _symmetry_equiv_pos_site_id
 _symmetry_equiv_pos_as_xyz
  1  'x, y, z'
loop_
 _atom_site_type_symbol
 _atom_site_label
 _atom_site_symmetry_multiplicity
 _atom_site_fract_x
 _atom_site_fract_y
 _atom_site_fract_z
 _atom_site_occupancy
  Tm  Tm0  1  0.50000000  0.50000000  0.00000000  1
  Al  Al1  1  0.00000000  0.00000000  0.50000000  1
  Ni  Ni2  1  0.16648500  0.83351500  0.00000000  1
  Ni  Ni3  1  0.83351500  0.16648500  0.00000000  1
  Ni  Ni4  1  0.00000000  0.50000000  0.50000000  1
  Ni  Ni5  1  0.50000000  0.00000000  0.50000000  1
