# generated using pymatgen
data_Ca2CrSbO6
_symmetry_space_group_name_H-M   'P 1'
_cell_length_a   5.47713097
_cell_length_b   5.60151400
_cell_length_c   15.59707424
_cell_angle_alpha   90.00002216
_cell_angle_beta   90.21746414
_cell_angle_gamma   89.99811746
_symmetry_Int_Tables_number   1
_chemical_formula_structural   Ca2CrSbO6
_chemical_formula_sum   'Ca8 Cr4 Sb4 O24'
_cell_volume   478.51831239
_cell_formula_units_Z   4
loop_
 _symmetry_equiv_pos_site_id
 _symmetry_equiv_pos_as_xyz
  1  'x, y, z'
loop_
 _atom_site_type_symbol
 _atom_site_label
 _atom_site_symmetry_multiplicity
 _atom_site_fract_x
 _atom_site_fract_y
 _atom_site_fract_z
 _atom_site_occupancy
  Ca  Ca0  1  0.51214000  0.54949000  0.12455100  1
  Ca  Ca1  1  0.51215300  0.54948200  0.62456100  1
  Ca  Ca2  1  0.01215200  0.95066800  0.37456800  1
  Ca  Ca3  1  0.01215400  0.95064000  0.87456200  1
  Ca  Ca4  1  0.48782700  0.45065700  0.37544700  1
  Ca  Ca5  1  0.48783000  0.45066800  0.87543700  1
  Ca  Ca6  1  0.98785100  0.04947500  0.12544900  1
  Ca  Ca7  1  0.98782400  0.04948100  0.62544800  1
  Cr  Cr8  1  0.00004400  0.50002400  0.74998900  1
  Cr  Cr9  1  0.49998200  0.99998400  0.50003200  1
  Cr  Cr10  1  0.99999100  0.50003800  0.24997300  1
  Cr  Cr11  1  0.49996800  0.00004800  0.00002300  1
  Sb  Sb12  1  0.99999500  0.50005800  0.99998300  1
  Sb  Sb13  1  0.99996000  0.50005600  0.50000600  1
  Sb  Sb14  1  0.49997600  0.00001600  0.25000800  1
  Sb  Sb15  1  0.49998000  0.99999100  0.75001300  1
  O  O16  1  0.40679800  0.96944500  0.12577200  1
  O  O17  1  0.40679800  0.96944400  0.62576400  1
  O  O18  1  0.90684500  0.53058600  0.37575800  1
  O  O19  1  0.90685600  0.53057700  0.87577100  1
  O  O20  1  0.59313300  0.03058900  0.37422100  1
  O  O21  1  0.59314900  0.03061100  0.87424700  1
  O  O22  1  0.09319300  0.46943300  0.12424100  1
  O  O23  1  0.09318500  0.46952200  0.62423600  1
  O  O24  1  0.79557500  0.79719100  0.22634500  1
  O  O25  1  0.79568300  0.79719100  0.72635500  1
  O  O26  1  0.29591800  0.70262600  0.47653300  1
  O  O27  1  0.29593000  0.70263800  0.97648100  1
  O  O28  1  0.20406400  0.20260900  0.27341900  1
  O  O29  1  0.20409600  0.20267600  0.77349700  1
  O  O30  1  0.70439800  0.29718600  0.02366500  1
  O  O31  1  0.70442000  0.29717700  0.52365400  1
  O  O32  1  0.30013700  0.70732900  0.27482300  1
  O  O33  1  0.30015700  0.70732000  0.77483000  1
  O  O34  1  0.80014100  0.79260200  0.02485700  1
  O  O35  1  0.79985100  0.79257200  0.52484900  1
  O  O36  1  0.69998700  0.29258700  0.22516100  1
  O  O37  1  0.70011900  0.29259600  0.72514000  1
  O  O38  1  0.19982800  0.20733700  0.47517100  1
  O  O39  1  0.19991300  0.20738100  0.97516100  1
