# generated using pymatgen
data_NdSb2
_symmetry_space_group_name_H-M   'P 1'
_cell_length_a   4.43030914
_cell_length_b   4.43030914
_cell_length_c   18.10271800
_cell_angle_alpha   90.00000000
_cell_angle_beta   90.00000000
_cell_angle_gamma   90.67053620
_symmetry_Int_Tables_number   1
_chemical_formula_structural   NdSb2
_chemical_formula_sum   'Nd4 Sb8'
_cell_volume   355.28928255
_cell_formula_units_Z   4
loop_
 _symmetry_equiv_pos_site_id
 _symmetry_equiv_pos_as_xyz
  1  'x, y, z'
loop_
 _atom_site_type_symbol
 _atom_site_label
 _atom_site_symmetry_multiplicity
 _atom_site_fract_x
 _atom_site_fract_y
 _atom_site_fract_z
 _atom_site_occupancy
  Nd  Nd0  1  0.36369400  0.36369400  0.88913900  1
  Nd  Nd1  1  0.63630600  0.63630600  0.11086100  1
  Nd  Nd2  1  0.13630600  0.13630600  0.38913900  1
  Nd  Nd3  1  0.86369400  0.86369400  0.61086100  1
  Sb  Sb4  1  0.36700900  0.36700900  0.56383700  1
  Sb  Sb5  1  0.63299100  0.63299100  0.43616300  1
  Sb  Sb6  1  0.13299100  0.13299100  0.06383700  1
  Sb  Sb7  1  0.86700900  0.86700900  0.93616300  1
  Sb  Sb8  1  0.37368300  0.87368300  0.75000000  1
  Sb  Sb9  1  0.12631700  0.62631700  0.25000000  1
  Sb  Sb10  1  0.62631700  0.12631700  0.25000000  1
  Sb  Sb11  1  0.87368300  0.37368300  0.75000000  1
