# generated using pymatgen
data_Ce2Ga7Pd
_symmetry_space_group_name_H-M   'P 1'
_cell_length_a   4.36942000
_cell_length_b   4.36942000
_cell_length_c   10.45672300
_cell_angle_alpha   90.00000000
_cell_angle_beta   90.00000000
_cell_angle_gamma   90.00000000
_symmetry_Int_Tables_number   1
_chemical_formula_structural   Ce2Ga7Pd
_chemical_formula_sum   'Ce2 Ga7 Pd1'
_cell_volume   199.63798976
_cell_formula_units_Z   1
loop_
 _symmetry_equiv_pos_site_id
 _symmetry_equiv_pos_as_xyz
  1  'x, y, z'
loop_
 _atom_site_type_symbol
 _atom_site_label
 _atom_site_symmetry_multiplicity
 _atom_site_fract_x
 _atom_site_fract_y
 _atom_site_fract_z
 _atom_site_occupancy
  Ce  Ce0  1  0.00000000  0.00000000  0.99776400  1
  Ce  Ce1  1  0.50000000  0.50000000  0.49134000  1
  Ga  Ga2  1  0.00000000  0.50000000  0.24419500  1
  Ga  Ga3  1  0.50000000  0.00000000  0.75003800  1
  Ga  Ga4  1  0.50000000  0.00000000  0.24419500  1
  Ga  Ga5  1  0.00000000  0.50000000  0.75003800  1
  Ga  Ga6  1  0.00000000  0.00000000  0.61773600  1
  Ga  Ga7  1  0.00000000  0.00000000  0.38463400  1
  Ga  Ga8  1  0.50000000  0.50000000  0.89350200  1
  Pd  Pd9  1  0.50000000  0.50000000  0.12655600  1
