# generated using pymatgen
data_CoH18CN6ClO3
_symmetry_space_group_name_H-M   'P 1'
_cell_length_a   10.16182600
_cell_length_b   10.16182600
_cell_length_c   10.16182600
_cell_angle_alpha   90.00000000
_cell_angle_beta   90.00000000
_cell_angle_gamma   90.00000000
_symmetry_Int_Tables_number   1
_chemical_formula_structural   CoH18CN6ClO3
_chemical_formula_sum   'Co4 H72 C4 N24 Cl4 O12'
_cell_volume   1049.33766747
_cell_formula_units_Z   4
loop_
 _symmetry_equiv_pos_site_id
 _symmetry_equiv_pos_as_xyz
  1  'x, y, z'
loop_
 _atom_site_type_symbol
 _atom_site_label
 _atom_site_symmetry_multiplicity
 _atom_site_fract_x
 _atom_site_fract_y
 _atom_site_fract_z
 _atom_site_occupancy
  Co  Co0  1  0.99075500  0.99075500  0.99075500  1
  Co  Co1  1  0.00924500  0.49075500  0.50924500  1
  Co  Co2  1  0.49075500  0.50924500  0.00924500  1
  Co  Co3  1  0.50924500  0.00924500  0.49075500  1
  H  H4  1  0.54818200  0.95263300  0.73005700  1
  H  H5  1  0.26994300  0.04818200  0.54736700  1
  H  H6  1  0.45263300  0.76994300  0.45181800  1
  H  H7  1  0.04818200  0.54736700  0.26994300  1
  H  H8  1  0.76994300  0.45181800  0.45263300  1
  H  H9  1  0.95263300  0.73005700  0.54818200  1
  H  H10  1  0.45181800  0.45263300  0.76994300  1
  H  H11  1  0.73005700  0.54818200  0.95263300  1
  H  H12  1  0.54736700  0.26994300  0.04818200  1
  H  H13  1  0.95181800  0.04736700  0.23005700  1
  H  H14  1  0.23005700  0.95181800  0.04736700  1
  H  H15  1  0.04736700  0.23005700  0.95181800  1
  H  H16  1  0.11560600  0.71449600  0.53270800  1
  H  H17  1  0.46729200  0.61560600  0.78550400  1
  H  H18  1  0.21449600  0.96729200  0.88439400  1
  H  H19  1  0.61560600  0.78550400  0.46729200  1
  H  H20  1  0.96729200  0.88439400  0.21449600  1
  H  H21  1  0.71449600  0.53270800  0.11560600  1
  H  H22  1  0.88439400  0.21449600  0.96729200  1
  H  H23  1  0.53270800  0.11560600  0.71449600  1
  H  H24  1  0.78550400  0.46729200  0.61560600  1
  H  H25  1  0.38439400  0.28550400  0.03270800  1
  H  H26  1  0.03270800  0.38439400  0.28550400  1
  H  H27  1  0.28550400  0.03270800  0.38439400  1
  H  H28  1  0.52328200  0.78745900  0.60186900  1
  H  H29  1  0.39813100  0.02328200  0.71254100  1
  H  H30  1  0.28745900  0.89813100  0.47671800  1
  H  H31  1  0.02328200  0.71254100  0.39813100  1
  H  H32  1  0.89813100  0.47671800  0.28745900  1
  H  H33  1  0.78745900  0.60186900  0.52328200  1
  H  H34  1  0.47671800  0.28745900  0.89813100  1
  H  H35  1  0.60186900  0.52328200  0.78745900  1
  H  H36  1  0.71254100  0.39813100  0.02328200  1
  H  H37  1  0.97671800  0.21254100  0.10186900  1
  H  H38  1  0.10186900  0.97671800  0.21254100  1
  H  H39  1  0.21254100  0.10186900  0.97671800  1
  H  H40  1  0.08082400  0.78211000  0.89664500  1
  H  H41  1  0.10335500  0.58082400  0.71789000  1
  H  H42  1  0.28211000  0.60335500  0.91917600  1
  H  H43  1  0.58082400  0.71789000  0.10335500  1
  H  H44  1  0.60335500  0.91917600  0.28211000  1
  H  H45  1  0.78211000  0.89664500  0.08082400  1
  H  H46  1  0.91917600  0.28211000  0.60335500  1
  H  H47  1  0.89664500  0.08082400  0.78211000  1
  H  H48  1  0.71789000  0.10335500  0.58082400  1
  H  H49  1  0.41917600  0.21789000  0.39664500  1
  H  H50  1  0.39664500  0.41917600  0.21789000  1
  H  H51  1  0.21789000  0.39664500  0.41917600  1
  H  H52  1  0.92981500  0.74938400  0.94710400  1
  H  H53  1  0.05289600  0.42981500  0.75061600  1
  H  H54  1  0.24938400  0.55289600  0.07018500  1
  H  H55  1  0.42981500  0.75061600  0.05289600  1
  H  H56  1  0.55289600  0.07018500  0.24938400  1
  H  H57  1  0.74938400  0.94710400  0.92981500  1
  H  H58  1  0.07018500  0.24938400  0.55289600  1
  H  H59  1  0.94710400  0.92981500  0.74938400  1
  H  H60  1  0.75061600  0.05289600  0.42981500  1
  H  H61  1  0.57018500  0.25061600  0.44710400  1
  H  H62  1  0.44710400  0.57018500  0.25061600  1
  H  H63  1  0.25061600  0.44710400  0.57018500  1
  H  H64  1  0.94325400  0.55564200  0.74082700  1
  H  H65  1  0.25917300  0.44325400  0.94435800  1
  H  H66  1  0.05564200  0.75917300  0.05674600  1
  H  H67  1  0.44325400  0.94435800  0.25917300  1
  H  H68  1  0.75917300  0.05674600  0.05564200  1
  H  H69  1  0.55564200  0.74082700  0.94325400  1
  H  H70  1  0.05674600  0.05564200  0.75917300  1
  H  H71  1  0.74082700  0.94325400  0.55564200  1
  H  H72  1  0.94435800  0.25917300  0.44325400  1
  H  H73  1  0.55674600  0.44435800  0.24082700  1
  H  H74  1  0.24082700  0.55674600  0.44435800  1
  H  H75  1  0.44435800  0.24082700  0.55674600  1
  C  C76  1  0.75295400  0.75295400  0.75295400  1
  C  C77  1  0.24704600  0.25295400  0.74704600  1
  C  C78  1  0.25295400  0.74704600  0.24704600  1
  C  C79  1  0.74704600  0.24704600  0.25295400  1
  N  N80  1  0.52700700  0.81597100  0.50516200  1
  N  N81  1  0.49483800  0.02700700  0.68402900  1
  N  N82  1  0.31597100  0.99483800  0.47299300  1
  N  N83  1  0.02700700  0.68402900  0.49483800  1
  N  N84  1  0.99483800  0.47299300  0.31597100  1
  N  N85  1  0.81597100  0.50516200  0.52700700  1
  N  N86  1  0.47299300  0.31597100  0.99483800  1
  N  N87  1  0.50516200  0.52700700  0.81597100  1
  N  N88  1  0.68402900  0.49483800  0.02700700  1
  N  N89  1  0.97299300  0.18402900  0.00516200  1
  N  N90  1  0.00516200  0.97299300  0.18402900  1
  N  N91  1  0.18402900  0.00516200  0.97299300  1
  N  N92  1  0.01449300  0.79935400  0.97154100  1
  N  N93  1  0.02845900  0.51449300  0.70064600  1
  N  N94  1  0.29935400  0.52845900  0.98550700  1
  N  N95  1  0.51449300  0.70064600  0.02845900  1
  N  N96  1  0.52845900  0.98550700  0.29935400  1
  N  N97  1  0.79935400  0.97154100  0.01449300  1
  N  N98  1  0.98550700  0.29935400  0.52845900  1
  N  N99  1  0.97154100  0.01449300  0.79935400  1
  N  N100  1  0.70064600  0.02845900  0.51449300  1
  N  N101  1  0.48550700  0.20064600  0.47154100  1
  N  N102  1  0.47154100  0.48550700  0.20064600  1
  N  N103  1  0.20064600  0.47154100  0.48550700  1
  Cl  Cl104  1  0.25949800  0.75949800  0.74050200  1
  Cl  Cl105  1  0.75949800  0.74050200  0.25949800  1
  Cl  Cl106  1  0.74050200  0.25949800  0.75949800  1
  Cl  Cl107  1  0.24050200  0.24050200  0.24050200  1
  O  O108  1  0.79809400  0.64845300  0.81283200  1
  O  O109  1  0.18716800  0.29809400  0.85154700  1
  O  O110  1  0.14845300  0.68716800  0.20190600  1
  O  O111  1  0.29809400  0.85154700  0.18716800  1
  O  O112  1  0.68716800  0.20190600  0.14845300  1
  O  O113  1  0.64845300  0.81283200  0.79809400  1
  O  O114  1  0.20190600  0.14845300  0.68716800  1
  O  O115  1  0.81283200  0.79809400  0.64845300  1
  O  O116  1  0.85154700  0.18716800  0.29809400  1
  O  O117  1  0.70190600  0.35154700  0.31283200  1
  O  O118  1  0.31283200  0.70190600  0.35154700  1
  O  O119  1  0.35154700  0.31283200  0.70190600  1
