# generated using pymatgen
data_Pr12(MnC3)5
_symmetry_space_group_name_H-M   'P 1'
_cell_length_a   10.83867981
_cell_length_b   10.83867981
_cell_length_c   5.36690900
_cell_angle_alpha   90.00000000
_cell_angle_beta   90.00000000
_cell_angle_gamma   119.99999882
_symmetry_Int_Tables_number   1
_chemical_formula_structural   Pr12(MnC3)5
_chemical_formula_sum   'Pr12 Mn5 C15'
_cell_volume   546.01885729
_cell_formula_units_Z   1
loop_
 _symmetry_equiv_pos_site_id
 _symmetry_equiv_pos_as_xyz
  1  'x, y, z'
loop_
 _atom_site_type_symbol
 _atom_site_label
 _atom_site_symmetry_multiplicity
 _atom_site_fract_x
 _atom_site_fract_y
 _atom_site_fract_z
 _atom_site_occupancy
  Pr  Pr0  1  0.79328700  0.00000000  0.50000000  1
  Pr  Pr1  1  0.00000000  0.79328700  0.50000000  1
  Pr  Pr2  1  0.20671300  0.20671300  0.50000000  1
  Pr  Pr3  1  0.27153300  0.45794000  0.00000000  1
  Pr  Pr4  1  0.54206000  0.81359300  0.00000000  1
  Pr  Pr5  1  0.45794000  0.27153300  0.00000000  1
  Pr  Pr6  1  0.18640700  0.72846700  0.00000000  1
  Pr  Pr7  1  0.81359300  0.54206000  0.00000000  1
  Pr  Pr8  1  0.72846700  0.18640700  0.00000000  1
  Pr  Pr9  1  0.42264700  0.00000000  0.50000000  1
  Pr  Pr10  1  0.00000000  0.42264700  0.50000000  1
  Pr  Pr11  1  0.57735300  0.57735300  0.50000000  1
  Mn  Mn12  1  0.15415700  0.00000000  0.00000000  1
  Mn  Mn13  1  0.00000000  0.15415700  0.00000000  1
  Mn  Mn14  1  0.84584300  0.84584300  0.00000000  1
  Mn  Mn15  1  0.33333300  0.66666700  0.50000000  1
  Mn  Mn16  1  0.66666700  0.33333300  0.50000000  1
  C  C17  1  0.32038200  0.00000000  0.00000000  1
  C  C18  1  0.00000000  0.32038200  0.00000000  1
  C  C19  1  0.67961800  0.67961800  0.00000000  1
  C  C20  1  0.80966200  0.00000000  0.00000000  1
  C  C21  1  0.00000000  0.80966200  0.00000000  1
  C  C22  1  0.19033800  0.19033800  0.00000000  1
  C  C23  1  0.44478100  0.00000000  0.00000000  1
  C  C24  1  0.00000000  0.44478100  0.00000000  1
  C  C25  1  0.55521900  0.55521900  0.00000000  1
  C  C26  1  0.28909100  0.48425700  0.50000000  1
  C  C27  1  0.51574300  0.80483400  0.50000000  1
  C  C28  1  0.48425700  0.28909100  0.50000000  1
  C  C29  1  0.19516600  0.71090900  0.50000000  1
  C  C30  1  0.80483400  0.51574300  0.50000000  1
  C  C31  1  0.71090900  0.19516600  0.50000000  1
