# generated using pymatgen
data_Ca3(GaNi)4
_symmetry_space_group_name_H-M   'P 1'
_cell_length_a   6.40593275
_cell_length_b   6.40593275
_cell_length_c   6.40593275
_cell_angle_alpha   109.47122063
_cell_angle_beta   109.47122063
_cell_angle_gamma   109.47122063
_symmetry_Int_Tables_number   1
_chemical_formula_structural   Ca3(GaNi)4
_chemical_formula_sum   'Ca3 Ga4 Ni4'
_cell_volume   202.36026309
_cell_formula_units_Z   1
loop_
 _symmetry_equiv_pos_site_id
 _symmetry_equiv_pos_as_xyz
  1  'x, y, z'
loop_
 _atom_site_type_symbol
 _atom_site_label
 _atom_site_symmetry_multiplicity
 _atom_site_fract_x
 _atom_site_fract_y
 _atom_site_fract_z
 _atom_site_occupancy
  Ca  Ca0  1  0.50000000  0.50000000  0.00000000  1
  Ca  Ca1  1  0.00000000  0.50000000  0.50000000  1
  Ca  Ca2  1  0.50000000  0.00000000  0.50000000  1
  Ga  Ga3  1  0.00000000  0.61001700  0.00000000  1
  Ga  Ga4  1  0.00000000  0.00000000  0.61001700  1
  Ga  Ga5  1  0.38998300  0.38998300  0.38998300  1
  Ga  Ga6  1  0.61001700  0.00000000  0.00000000  1
  Ni  Ni7  1  0.24539400  0.00000000  0.00000000  1
  Ni  Ni8  1  0.00000000  0.00000000  0.24539400  1
  Ni  Ni9  1  0.00000000  0.24539400  0.00000000  1
  Ni  Ni10  1  0.75460600  0.75460600  0.75460600  1
