# generated using pymatgen
data_Tb9Al5S21
_symmetry_space_group_name_H-M   'P 1'
_cell_length_a   11.45212890
_cell_length_b   11.45212890
_cell_length_c   11.45212875
_cell_angle_alpha   94.70056488
_cell_angle_beta   94.70056488
_cell_angle_gamma   94.70056263
_symmetry_Int_Tables_number   1
_chemical_formula_structural   Tb9Al5S21
_chemical_formula_sum   'Tb18 Al10 S42'
_cell_volume   1485.91914328
_cell_formula_units_Z   2
loop_
 _symmetry_equiv_pos_site_id
 _symmetry_equiv_pos_as_xyz
  1  'x, y, z'
loop_
 _atom_site_type_symbol
 _atom_site_label
 _atom_site_symmetry_multiplicity
 _atom_site_fract_x
 _atom_site_fract_y
 _atom_site_fract_z
 _atom_site_occupancy
  Tb  Tb0  1  0.11587400  0.87995400  0.74084600  1
  Tb  Tb1  1  0.45582600  0.22200200  0.07583600  1
  Tb  Tb2  1  0.77268000  0.54801700  0.40166800  1
  Tb  Tb3  1  0.40166800  0.77268000  0.54801700  1
  Tb  Tb4  1  0.74084600  0.11587400  0.87995400  1
  Tb  Tb5  1  0.07583600  0.45582600  0.22200200  1
  Tb  Tb6  1  0.22200200  0.07583600  0.45582600  1
  Tb  Tb7  1  0.54801700  0.40166800  0.77268000  1
  Tb  Tb8  1  0.87995400  0.74084600  0.11587400  1
  Tb  Tb9  1  0.20884300  0.44005100  0.58385500  1
  Tb  Tb10  1  0.54694000  0.78068200  0.92739800  1
  Tb  Tb11  1  0.87507000  0.10417300  0.24578700  1
  Tb  Tb12  1  0.92739800  0.54694000  0.78068200  1
  Tb  Tb13  1  0.24578700  0.87507000  0.10417300  1
  Tb  Tb14  1  0.58385500  0.20884300  0.44005100  1
  Tb  Tb15  1  0.10417300  0.24578700  0.87507000  1
  Tb  Tb16  1  0.44005100  0.58385500  0.20884300  1
  Tb  Tb17  1  0.78068200  0.92739800  0.54694000  1
  Al  Al18  1  0.72145000  0.38856100  0.05087400  1
  Al  Al19  1  0.05087400  0.72145000  0.38856100  1
  Al  Al20  1  0.38856100  0.05087400  0.72145000  1
  Al  Al21  1  0.88574800  0.22396700  0.55119300  1
  Al  Al22  1  0.22396700  0.55119300  0.88574800  1
  Al  Al23  1  0.55119300  0.88574800  0.22396700  1
  Al  Al24  1  0.85552200  0.85552200  0.85552200  1
  Al  Al25  1  0.17216000  0.17216000  0.17216000  1
  Al  Al26  1  0.67179800  0.67179800  0.67179800  1
  Al  Al27  1  0.35557600  0.35557600  0.35557600  1
  S  S28  1  0.84338500  0.51091100  0.17543900  1
  S  S29  1  0.17543900  0.84338500  0.51091100  1
  S  S30  1  0.51091100  0.17543900  0.84338500  1
  S  S31  1  0.67612500  0.01041700  0.34314200  1
  S  S32  1  0.01041700  0.34314200  0.67612500  1
  S  S33  1  0.34314200  0.67612500  0.01041700  1
  S  S34  1  0.54017000  0.44706500  0.01421500  1
  S  S35  1  0.87044100  0.78091800  0.35675300  1
  S  S36  1  0.20453800  0.10623800  0.69406200  1
  S  S37  1  0.69406200  0.20453800  0.10623800  1
  S  S38  1  0.01421500  0.54017000  0.44706500  1
  S  S39  1  0.35675300  0.87044100  0.78091800  1
  S  S40  1  0.78091800  0.35675300  0.87044100  1
  S  S41  1  0.10623800  0.69406200  0.20453800  1
  S  S42  1  0.44706500  0.01421500  0.54017000  1
  S  S43  1  0.96587200  0.06496200  0.47628900  1
  S  S44  1  0.29824100  0.38832000  0.81239000  1
  S  S45  1  0.63068300  0.72244000  0.15541400  1
  S  S46  1  0.81239000  0.29824100  0.38832000  1
  S  S47  1  0.15541400  0.63068300  0.72244000  1
  S  S48  1  0.47628900  0.96587200  0.06496200  1
  S  S49  1  0.72244000  0.15541400  0.63068300  1
  S  S50  1  0.06496200  0.47628900  0.96587200  1
  S  S51  1  0.38832000  0.81239000  0.29824100  1
  S  S52  1  0.55454300  0.40573800  0.31083800  1
  S  S53  1  0.89158100  0.75537600  0.66417300  1
  S  S54  1  0.23667100  0.09593500  0.99766000  1
  S  S55  1  0.99766000  0.23667100  0.09593500  1
  S  S56  1  0.31083800  0.55454300  0.40573800  1
  S  S57  1  0.66417300  0.89158100  0.75537600  1
  S  S58  1  0.75537600  0.66417300  0.89158100  1
  S  S59  1  0.09593500  0.99766000  0.23667100  1
  S  S60  1  0.40573800  0.31083800  0.55454300  1
  S  S61  1  0.14908900  0.28561400  0.37595700  1
  S  S62  1  0.48359200  0.62293400  0.72313000  1
  S  S63  1  0.79261300  0.94292400  0.03620300  1
  S  S64  1  0.72313000  0.48359200  0.62293400  1
  S  S65  1  0.03620300  0.79261300  0.94292400  1
  S  S66  1  0.37595700  0.14908900  0.28561400  1
  S  S67  1  0.94292400  0.03620300  0.79261300  1
  S  S68  1  0.28561400  0.37595700  0.14908900  1
  S  S69  1  0.62293400  0.72313000  0.48359200  1
