# generated using pymatgen
data_Ba2ZnBi2
_symmetry_space_group_name_H-M   'P 1'
_cell_length_a   8.93813077
_cell_length_b   8.93813077
_cell_length_c   8.93813077
_cell_angle_alpha   132.26013015
_cell_angle_beta   131.02220952
_cell_angle_gamma   70.80105862
_symmetry_Int_Tables_number   1
_chemical_formula_structural   Ba2ZnBi2
_chemical_formula_sum   'Ba4 Zn2 Bi4'
_cell_volume   390.53266569
_cell_formula_units_Z   2
loop_
 _symmetry_equiv_pos_site_id
 _symmetry_equiv_pos_as_xyz
  1  'x, y, z'
loop_
 _atom_site_type_symbol
 _atom_site_label
 _atom_site_symmetry_multiplicity
 _atom_site_fract_x
 _atom_site_fract_y
 _atom_site_fract_z
 _atom_site_occupancy
  Ba  Ba0  1  0.07348900  0.86520500  0.20828300  1
  Ba  Ba1  1  0.92651100  0.13479500  0.79171700  1
  Ba  Ba2  1  0.34307800  0.63479500  0.70828300  1
  Ba  Ba3  1  0.65692200  0.36520500  0.29171700  1
  Zn  Zn4  1  0.50000000  0.75000000  0.25000000  1
  Zn  Zn5  1  0.50000000  0.25000000  0.75000000  1
  Bi  Bi6  1  0.82312700  0.61327100  0.20985600  1
  Bi  Bi7  1  0.17687300  0.38672900  0.79014400  1
  Bi  Bi8  1  0.59658400  0.88672900  0.70985600  1
  Bi  Bi9  1  0.40341600  0.11327100  0.29014400  1
