# generated using pymatgen
data_NbAlCu
_symmetry_space_group_name_H-M   'P 1'
_cell_length_a   4.98937900
_cell_length_b   5.07847785
_cell_length_c   8.10199200
_cell_angle_alpha   90.00000000
_cell_angle_beta   90.00000000
_cell_angle_gamma   120.59157993
_symmetry_Int_Tables_number   1
_chemical_formula_structural   NbAlCu
_chemical_formula_sum   'Nb4 Al4 Cu4'
_cell_volume   176.71874329
_cell_formula_units_Z   4
loop_
 _symmetry_equiv_pos_site_id
 _symmetry_equiv_pos_as_xyz
  1  'x, y, z'
loop_
 _atom_site_type_symbol
 _atom_site_label
 _atom_site_symmetry_multiplicity
 _atom_site_fract_x
 _atom_site_fract_y
 _atom_site_fract_z
 _atom_site_occupancy
  Nb  Nb0  1  0.66991800  0.33496200  0.56233900  1
  Nb  Nb1  1  0.32621900  0.66311100  0.43324000  1
  Nb  Nb2  1  0.32621900  0.66311100  0.06676000  1
  Nb  Nb3  1  0.66991800  0.33496200  0.93766100  1
  Al  Al4  1  0.98968600  0.99483900  0.48648700  1
  Al  Al5  1  0.98968600  0.99483900  0.01351300  1
  Al  Al6  1  0.18090400  0.34780700  0.75000000  1
  Al  Al7  1  0.18089000  0.83308400  0.75000000  1
  Cu  Cu8  1  0.67159300  0.83579900  0.75000000  1
  Cu  Cu9  1  0.82517800  0.65200000  0.25000000  1
  Cu  Cu10  1  0.82519500  0.17319100  0.25000000  1
  Cu  Cu11  1  0.34459400  0.17229600  0.25000000  1
