# generated using pymatgen
data_Na3SrLaZnSi6O17
_symmetry_space_group_name_H-M   'P 1'
_cell_length_a   5.27239900
_cell_length_b   14.60938100
_cell_length_c   19.98516600
_cell_angle_alpha   90.00000000
_cell_angle_beta   90.00000000
_cell_angle_gamma   90.00000000
_symmetry_Int_Tables_number   1
_chemical_formula_structural   Na3SrLaZnSi6O17
_chemical_formula_sum   'Na12 Sr4 La4 Zn4 Si24 O68'
_cell_volume   1539.38710461
_cell_formula_units_Z   4
loop_
 _symmetry_equiv_pos_site_id
 _symmetry_equiv_pos_as_xyz
  1  'x, y, z'
loop_
 _atom_site_type_symbol
 _atom_site_label
 _atom_site_symmetry_multiplicity
 _atom_site_fract_x
 _atom_site_fract_y
 _atom_site_fract_z
 _atom_site_occupancy
  Na  Na0  1  0.00487900  0.92372600  0.67103600  1
  Na  Na1  1  0.00487900  0.07627400  0.82896400  1
  Na  Na2  1  0.99512100  0.42372600  0.82896400  1
  Na  Na3  1  0.99512100  0.57627400  0.67103600  1
  Na  Na4  1  0.99512100  0.07627400  0.32896400  1
  Na  Na5  1  0.99512100  0.92372600  0.17103600  1
  Na  Na6  1  0.00487900  0.57627400  0.17103600  1
  Na  Na7  1  0.00487900  0.42372600  0.32896400  1
  Na  Na8  1  0.00000000  0.00000000  0.50000000  1
  Na  Na9  1  0.00000000  0.00000000  0.00000000  1
  Na  Na10  1  0.00000000  0.50000000  0.00000000  1
  Na  Na11  1  0.00000000  0.50000000  0.50000000  1
  Sr  Sr12  1  0.00000000  0.25000000  0.97725300  1
  Sr  Sr13  1  0.00000000  0.75000000  0.52274700  1
  Sr  Sr14  1  0.00000000  0.75000000  0.02274700  1
  Sr  Sr15  1  0.00000000  0.25000000  0.47725300  1
  La  La16  1  0.00000000  0.25000000  0.68077900  1
  La  La17  1  0.00000000  0.75000000  0.81922100  1
  La  La18  1  0.00000000  0.75000000  0.31922100  1
  La  La19  1  0.00000000  0.25000000  0.18077900  1
  Zn  Zn20  1  0.50000000  0.25000000  0.83041300  1
  Zn  Zn21  1  0.50000000  0.75000000  0.66958700  1
  Zn  Zn22  1  0.50000000  0.75000000  0.16958700  1
  Zn  Zn23  1  0.50000000  0.25000000  0.33041300  1
  Si  Si24  1  0.54934500  0.88905400  0.41851400  1
  Si  Si25  1  0.54934500  0.11094600  0.08148600  1
  Si  Si26  1  0.45065500  0.38905400  0.08148600  1
  Si  Si27  1  0.45065500  0.61094600  0.41851400  1
  Si  Si28  1  0.45065500  0.11094600  0.58148600  1
  Si  Si29  1  0.45065500  0.88905400  0.91851400  1
  Si  Si30  1  0.54934500  0.61094600  0.91851400  1
  Si  Si31  1  0.54934500  0.38905400  0.58148600  1
  Si  Si32  1  0.53547300  0.89722000  0.77392500  1
  Si  Si33  1  0.53547300  0.10278000  0.72607500  1
  Si  Si34  1  0.46452700  0.39722000  0.72607500  1
  Si  Si35  1  0.46452700  0.60278000  0.77392500  1
  Si  Si36  1  0.46452700  0.10278000  0.22607500  1
  Si  Si37  1  0.46452700  0.89722000  0.27392500  1
  Si  Si38  1  0.53547300  0.60278000  0.27392500  1
  Si  Si39  1  0.53547300  0.39722000  0.22607500  1
  Si  Si40  1  0.46570000  0.90122300  0.56468500  1
  Si  Si41  1  0.46570000  0.09877700  0.93531500  1
  Si  Si42  1  0.53430000  0.40122300  0.93531500  1
  Si  Si43  1  0.53430000  0.59877700  0.56468500  1
  Si  Si44  1  0.53430000  0.09877700  0.43531500  1
  Si  Si45  1  0.53430000  0.90122300  0.06468500  1
  Si  Si46  1  0.46570000  0.59877700  0.06468500  1
  Si  Si47  1  0.46570000  0.40122300  0.43531500  1
  O  O48  1  0.22377000  0.81597900  0.91739500  1
  O  O49  1  0.22377000  0.18402100  0.58260500  1
  O  O50  1  0.77623000  0.31597900  0.58260500  1
  O  O51  1  0.77623000  0.68402100  0.91739500  1
  O  O52  1  0.77623000  0.18402100  0.08260500  1
  O  O53  1  0.77623000  0.81597900  0.41739500  1
  O  O54  1  0.22377000  0.68402100  0.41739500  1
  O  O55  1  0.22377000  0.31597900  0.08260500  1
  O  O56  1  0.23449900  0.88294000  0.77135000  1
  O  O57  1  0.23449900  0.11706000  0.72865000  1
  O  O58  1  0.76550100  0.38294000  0.72865000  1
  O  O59  1  0.76550100  0.61706000  0.77135000  1
  O  O60  1  0.76550100  0.11706000  0.22865000  1
  O  O61  1  0.76550100  0.88294000  0.27135000  1
  O  O62  1  0.23449900  0.61706000  0.27135000  1
  O  O63  1  0.23449900  0.38294000  0.22865000  1
  O  O64  1  0.64464400  0.88154400  0.85284600  1
  O  O65  1  0.64464400  0.11845600  0.64715400  1
  O  O66  1  0.35535600  0.38154400  0.64715400  1
  O  O67  1  0.35535600  0.61845600  0.85284600  1
  O  O68  1  0.35535600  0.11845600  0.14715400  1
  O  O69  1  0.35535600  0.88154400  0.35284600  1
  O  O70  1  0.64464400  0.61845600  0.35284600  1
  O  O71  1  0.64464400  0.38154400  0.14715400  1
  O  O72  1  0.71037500  0.82361300  0.73271800  1
  O  O73  1  0.71037500  0.17638700  0.76728200  1
  O  O74  1  0.28962500  0.32361300  0.76728200  1
  O  O75  1  0.28962500  0.67638700  0.73271800  1
  O  O76  1  0.63925400  0.11862000  0.51465300  1
  O  O77  1  0.28962500  0.17638700  0.26728200  1
  O  O78  1  0.71037500  0.67638700  0.23271800  1
  O  O79  1  0.71037500  0.32361300  0.26728200  1
  O  O80  1  0.63452500  0.00000000  0.75000000  1
  O  O81  1  0.36547500  0.50000000  0.75000000  1
  O  O82  1  0.36547500  0.00000000  0.25000000  1
  O  O83  1  0.63452500  0.50000000  0.25000000  1
  O  O84  1  0.76843100  0.89787600  0.56779300  1
  O  O85  1  0.76843100  0.10212400  0.93220700  1
  O  O86  1  0.23156900  0.39787600  0.93220700  1
  O  O87  1  0.23156900  0.60212400  0.56779300  1
  O  O88  1  0.23156900  0.10212400  0.43220700  1
  O  O89  1  0.23156900  0.89787600  0.06779300  1
  O  O90  1  0.76843100  0.60212400  0.06779300  1
  O  O91  1  0.76843100  0.39787600  0.43220700  1
  O  O92  1  0.36074600  0.88138000  0.48534700  1
  O  O93  1  0.36074600  0.11862000  0.01465300  1
  O  O94  1  0.63925400  0.38138000  0.01465300  1
  O  O95  1  0.63925400  0.61862000  0.48534700  1
  O  O96  1  0.33811800  0.50424700  0.41799000  1
  O  O97  1  0.33811800  0.49575300  0.08201000  1
  O  O98  1  0.66188200  0.00424700  0.08201000  1
  O  O99  1  0.66188200  0.99575300  0.41799000  1
  O  O100  1  0.66188200  0.49575300  0.58201000  1
  O  O101  1  0.66188200  0.50424700  0.91799000  1
  O  O102  1  0.33811800  0.99575300  0.91799000  1
  O  O103  1  0.33811800  0.00424700  0.58201000  1
  O  O104  1  0.30249700  0.32902800  0.39077100  1
  O  O105  1  0.30249700  0.67097200  0.10922900  1
  O  O106  1  0.69750300  0.82902800  0.10922900  1
  O  O107  1  0.69750300  0.17097200  0.39077100  1
  O  O108  1  0.69750300  0.67097200  0.60922900  1
  O  O109  1  0.69750300  0.32902800  0.89077100  1
  O  O110  1  0.30249700  0.17097200  0.89077100  1
  O  O111  1  0.30249700  0.82902800  0.60922900  1
  O  O112  1  0.36074600  0.38138000  0.51465300  1
  O  O113  1  0.36074600  0.61862000  0.98534700  1
  O  O114  1  0.63925400  0.88138000  0.98534700  1
  O  O115  1  0.28962500  0.82361300  0.23271800  1
