# generated using pymatgen
data_Ba2HoCl7
_symmetry_space_group_name_H-M   'P 1'
_cell_length_a   15.70907600
_cell_length_b   6.90295700
_cell_length_c   10.63147626
_cell_angle_alpha   89.31614068
_cell_angle_beta   90.00000000
_cell_angle_gamma   90.00000000
_symmetry_Int_Tables_number   1
_chemical_formula_structural   Ba2HoCl7
_chemical_formula_sum   'Ba8 Ho4 Cl28'
_cell_volume   1152.78534704
_cell_formula_units_Z   4
loop_
 _symmetry_equiv_pos_site_id
 _symmetry_equiv_pos_as_xyz
  1  'x, y, z'
loop_
 _atom_site_type_symbol
 _atom_site_label
 _atom_site_symmetry_multiplicity
 _atom_site_fract_x
 _atom_site_fract_y
 _atom_site_fract_z
 _atom_site_occupancy
  Ba  Ba0  1  0.27982100  0.23514400  0.54916400  1
  Ba  Ba1  1  0.72017900  0.76485600  0.45083600  1
  Ba  Ba2  1  0.77982100  0.76485600  0.95083600  1
  Ba  Ba3  1  0.22017900  0.23514400  0.04916400  1
  Ba  Ba4  1  0.43910400  0.76540900  0.82364300  1
  Ba  Ba5  1  0.56089600  0.23459100  0.17635700  1
  Ba  Ba6  1  0.93910400  0.23459100  0.67635700  1
  Ba  Ba7  1  0.06089600  0.76540900  0.32364300  1
  Ho  Ho8  1  0.12681100  0.71651100  0.78207100  1
  Ho  Ho9  1  0.87318900  0.28348900  0.21792900  1
  Ho  Ho10  1  0.62681100  0.28348900  0.71792900  1
  Ho  Ho11  1  0.37318900  0.71651100  0.28207100  1
  Cl  Cl12  1  0.07102200  0.37152900  0.87568600  1
  Cl  Cl13  1  0.92897800  0.62847100  0.12431400  1
  Cl  Cl14  1  0.57102200  0.62847100  0.62431400  1
  Cl  Cl15  1  0.42897800  0.37152900  0.37568600  1
  Cl  Cl16  1  0.10499200  0.98608200  0.58654700  1
  Cl  Cl17  1  0.89500800  0.01391800  0.41345300  1
  Cl  Cl18  1  0.60499200  0.01391800  0.91345300  1
  Cl  Cl19  1  0.39500800  0.98608200  0.08654700  1
  Cl  Cl20  1  0.96060200  0.79390500  0.78693100  1
  Cl  Cl21  1  0.03939800  0.20609500  0.21306900  1
  Cl  Cl22  1  0.46060200  0.20609500  0.71306900  1
  Cl  Cl23  1  0.53939800  0.79390500  0.28693100  1
  Cl  Cl24  1  0.36039400  0.79012900  0.52729900  1
  Cl  Cl25  1  0.63960600  0.20987100  0.47270100  1
  Cl  Cl26  1  0.86039400  0.20987100  0.97270100  1
  Cl  Cl27  1  0.13960600  0.79012900  0.02729900  1
  Cl  Cl28  1  0.25682900  0.98781400  0.80176600  1
  Cl  Cl29  1  0.74317100  0.01218600  0.19823400  1
  Cl  Cl30  1  0.75682900  0.01218600  0.69823400  1
  Cl  Cl31  1  0.24317100  0.98781400  0.30176600  1
  Cl  Cl32  1  0.27173500  0.50176600  0.79450700  1
  Cl  Cl33  1  0.72826500  0.49823400  0.20549300  1
  Cl  Cl34  1  0.77173500  0.49823400  0.70549300  1
  Cl  Cl35  1  0.22826500  0.50176600  0.29450700  1
  Cl  Cl36  1  0.10453300  0.50036700  0.57172000  1
  Cl  Cl37  1  0.89546700  0.49963300  0.42828000  1
  Cl  Cl38  1  0.60453300  0.49963300  0.92828000  1
  Cl  Cl39  1  0.39546700  0.50036700  0.07172000  1
