# generated using pymatgen
data_Tb2Ge2O7
_symmetry_space_group_name_H-M   'P 1'
_cell_length_a   6.89934500
_cell_length_b   6.89934500
_cell_length_c   12.57230100
_cell_angle_alpha   90.00000000
_cell_angle_beta   90.00000000
_cell_angle_gamma   90.00000000
_symmetry_Int_Tables_number   1
_chemical_formula_structural   Tb2Ge2O7
_chemical_formula_sum   'Tb8 Ge8 O28'
_cell_volume   598.45361498
_cell_formula_units_Z   4
loop_
 _symmetry_equiv_pos_site_id
 _symmetry_equiv_pos_as_xyz
  1  'x, y, z'
loop_
 _atom_site_type_symbol
 _atom_site_label
 _atom_site_symmetry_multiplicity
 _atom_site_fract_x
 _atom_site_fract_y
 _atom_site_fract_z
 _atom_site_occupancy
  Tb  Tb0  1  0.64840200  0.12398800  0.86540600  1
  Tb  Tb1  1  0.35159800  0.87601200  0.36540600  1
  Tb  Tb2  1  0.12398800  0.64840200  0.13459400  1
  Tb  Tb3  1  0.62398800  0.85159800  0.61540600  1
  Tb  Tb4  1  0.37601200  0.14840200  0.11540600  1
  Tb  Tb5  1  0.85159800  0.62398800  0.38459400  1
  Tb  Tb6  1  0.14840200  0.37601200  0.88459400  1
  Tb  Tb7  1  0.87601200  0.35159800  0.63459400  1
  Ge  Ge8  1  0.65308800  0.59849700  0.86987000  1
  Ge  Ge9  1  0.34691200  0.40150300  0.36987000  1
  Ge  Ge10  1  0.59849700  0.65308800  0.13013000  1
  Ge  Ge11  1  0.09849700  0.84691200  0.61987000  1
  Ge  Ge12  1  0.90150300  0.15308800  0.11987000  1
  Ge  Ge13  1  0.84691200  0.09849700  0.38013000  1
  Ge  Ge14  1  0.15308800  0.90150300  0.88013000  1
  Ge  Ge15  1  0.40150300  0.34691200  0.63013000  1
  O  O16  1  0.30351800  0.30351800  0.50000000  1
  O  O17  1  0.19648200  0.80351800  0.75000000  1
  O  O18  1  0.80351800  0.19648200  0.25000000  1
  O  O19  1  0.69648200  0.69648200  0.00000000  1
  O  O20  1  0.52992400  0.57820100  0.37397500  1
  O  O21  1  0.47007600  0.42179900  0.87397500  1
  O  O22  1  0.57820100  0.52992400  0.62602500  1
  O  O23  1  0.07820100  0.97007600  0.12397500  1
  O  O24  1  0.92179900  0.02992400  0.62397500  1
  O  O25  1  0.97007600  0.07820100  0.87602500  1
  O  O26  1  0.02992400  0.92179900  0.37602500  1
  O  O27  1  0.42179900  0.47007600  0.12602500  1
  O  O28  1  0.81423800  0.64295400  0.20458000  1
  O  O29  1  0.18576200  0.35704600  0.70458000  1
  O  O30  1  0.64295400  0.81423800  0.79542000  1
  O  O31  1  0.14295400  0.68576200  0.95458000  1
  O  O32  1  0.06389700  0.33839900  0.07138700  1
  O  O33  1  0.16160100  0.56389700  0.32138700  1
  O  O34  1  0.83839900  0.43610300  0.82138700  1
  O  O35  1  0.56389700  0.16160100  0.67861300  1
  O  O36  1  0.43610300  0.83839900  0.17861300  1
  O  O37  1  0.93610300  0.66160100  0.57138700  1
  O  O38  1  0.33839900  0.06389700  0.92861300  1
  O  O39  1  0.66160100  0.93610300  0.42861300  1
  O  O40  1  0.35704600  0.18576200  0.29542000  1
  O  O41  1  0.31423800  0.85704600  0.54542000  1
  O  O42  1  0.68576200  0.14295400  0.04542000  1
  O  O43  1  0.85704600  0.31423800  0.45458000  1
