# generated using pymatgen
data_KTi2H2F11
_symmetry_space_group_name_H-M   'P 1'
_cell_length_a   10.51369600
_cell_length_b   10.54756124
_cell_length_c   10.84156794
_cell_angle_alpha   79.08473504
_cell_angle_beta   115.13597869
_cell_angle_gamma   119.14098853
_symmetry_Int_Tables_number   1
_chemical_formula_structural   KTi2H2F11
_chemical_formula_sum   'K4 Ti8 H8 F44'
_cell_volume   950.41237364
_cell_formula_units_Z   4
loop_
 _symmetry_equiv_pos_site_id
 _symmetry_equiv_pos_as_xyz
  1  'x, y, z'
loop_
 _atom_site_type_symbol
 _atom_site_label
 _atom_site_symmetry_multiplicity
 _atom_site_fract_x
 _atom_site_fract_y
 _atom_site_fract_z
 _atom_site_occupancy
  K  K0  1  0.26062700  0.84304700  0.20116600  1
  K  K1  1  0.73937300  0.15695300  0.79883400  1
  K  K2  1  0.82134200  0.08447300  0.45177200  1
  K  K3  1  0.17865800  0.91552700  0.54822800  1
  Ti  Ti4  1  0.79698500  0.84566900  0.12066500  1
  Ti  Ti5  1  0.20301500  0.15433100  0.87933500  1
  Ti  Ti6  1  0.63905600  0.50113800  0.34067700  1
  Ti  Ti7  1  0.36094400  0.49886200  0.65932300  1
  Ti  Ti8  1  0.64814200  0.25469000  0.11493000  1
  Ti  Ti9  1  0.35185800  0.74531000  0.88507000  1
  Ti  Ti10  1  0.79951500  0.59303200  0.89023000  1
  Ti  Ti11  1  0.20048500  0.40696800  0.10977000  1
  H  H12  1  0.54927600  0.73206300  0.37538600  1
  H  H13  1  0.45072400  0.26793700  0.62461400  1
  H  H14  1  0.85902200  0.80262200  0.63222200  1
  H  H15  1  0.14097800  0.19737800  0.36777800  1
  H  H16  1  0.56660200  0.84955200  0.60281700  1
  H  H17  1  0.43339800  0.15044800  0.39718300  1
  H  H18  1  0.87303400  0.40509000  0.56845800  1
  H  H19  1  0.12696600  0.59491000  0.43154200  1
  F  F20  1  0.73081100  0.67196100  0.24250800  1
  F  F21  1  0.26918900  0.32803900  0.75749200  1
  F  F22  1  0.79031500  0.70601700  0.01246100  1
  F  F23  1  0.20968500  0.29398300  0.98753900  1
  F  F24  1  0.99898000  0.88552200  0.22777500  1
  F  F25  1  0.00102000  0.11447800  0.77222500  1
  F  F26  1  0.77720100  0.94722700  0.22127700  1
  F  F27  1  0.22279900  0.05277300  0.77872300  1
  F  F28  1  0.56250700  0.75611000  0.00965900  1
  F  F29  1  0.43749300  0.24389000  0.99034100  1
  F  F30  1  0.83175700  0.97954000  0.99342900  1
  F  F31  1  0.16824300  0.02046000  0.00657100  1
  F  F32  1  0.65630000  0.40062100  0.22041800  1
  F  F33  1  0.34370000  0.59937900  0.77958200  1
  F  F34  1  0.43405200  0.46767700  0.19408200  1
  F  F35  1  0.56594800  0.53232300  0.80591800  1
  F  F36  1  0.53911100  0.32308100  0.40899800  1
  F  F37  1  0.46088900  0.67691900  0.59100200  1
  F  F38  1  0.60321100  0.60705700  0.42659200  1
  F  F39  1  0.39678900  0.39294300  0.57340800  1
  F  F40  1  0.83429700  0.53203200  0.47189500  1
  F  F41  1  0.16570300  0.46796800  0.52810500  1
  F  F42  1  0.73799200  0.43249400  0.01515300  1
  F  F43  1  0.26200800  0.56750600  0.98484700  1
  F  F44  1  0.84325300  0.29089500  0.24005000  1
  F  F45  1  0.15674700  0.70910500  0.75995000  1
  F  F46  1  0.55154100  0.11107900  0.21403900  1
  F  F47  1  0.44845900  0.88892100  0.78596100  1
  F  F48  1  0.63697400  0.14713100  0.99780900  1
  F  F49  1  0.36302600  0.85286900  0.00219100  1
  F  F50  1  0.77272300  0.46375800  0.78360200  1
  F  F51  1  0.22727700  0.53624200  0.21639800  1
  F  F52  1  0.82381200  0.73909600  0.76539000  1
  F  F53  1  0.17618800  0.26090400  0.23461000  1
  F  F54  1  0.00523300  0.65448500  0.99510800  1
  F  F55  1  0.99476700  0.34551500  0.00489200  1
  F  F56  1  0.52999400  0.81578600  0.34850300  1
  F  F57  1  0.47000600  0.18421400  0.65149700  1
  F  F58  1  0.89044200  0.85415000  0.55830000  1
  F  F59  1  0.10955800  0.14585000  0.44170000  1
  F  F60  1  0.63380500  0.95319600  0.60920500  1
  F  F61  1  0.36619500  0.04680400  0.39079500  1
  F  F62  1  0.87084500  0.31390500  0.60661600  1
  F  F63  1  0.12915500  0.68609500  0.39338400  1
