# generated using pymatgen
data_U6Al43Mo4
_symmetry_space_group_name_H-M   'P 1'
_cell_length_a   11.01891225
_cell_length_b   11.01891225
_cell_length_c   17.53590100
_cell_angle_alpha   90.00000000
_cell_angle_beta   90.00000000
_cell_angle_gamma   120.00000149
_symmetry_Int_Tables_number   1
_chemical_formula_structural   U6Al43Mo4
_chemical_formula_sum   'U12 Al86 Mo8'
_cell_volume   1843.89488279
_cell_formula_units_Z   2
loop_
 _symmetry_equiv_pos_site_id
 _symmetry_equiv_pos_as_xyz
  1  'x, y, z'
loop_
 _atom_site_type_symbol
 _atom_site_label
 _atom_site_symmetry_multiplicity
 _atom_site_fract_x
 _atom_site_fract_y
 _atom_site_fract_z
 _atom_site_occupancy
  U  U0  1  0.47570100  0.47570100  0.91196900  1
  U  U1  1  0.52429900  0.00000000  0.91196900  1
  U  U2  1  0.00000000  0.52429900  0.91196900  1
  U  U3  1  0.52429900  0.52429900  0.08803100  1
  U  U4  1  0.47570100  0.00000000  0.08803100  1
  U  U5  1  0.00000000  0.47570100  0.08803100  1
  U  U6  1  0.52429900  0.52429900  0.41196900  1
  U  U7  1  0.47570100  0.00000000  0.41196900  1
  U  U8  1  0.00000000  0.47570100  0.41196900  1
  U  U9  1  0.47570100  0.47570100  0.58803100  1
  U  U10  1  0.52429900  0.00000000  0.58803100  1
  U  U11  1  0.00000000  0.52429900  0.58803100  1
  Al  Al12  1  0.84071200  0.23549300  0.83665800  1
  Al  Al13  1  0.76450700  0.60521900  0.83665800  1
  Al  Al14  1  0.39478100  0.15928800  0.83665800  1
  Al  Al15  1  0.23549300  0.84071200  0.83665800  1
  Al  Al16  1  0.60521900  0.76450700  0.83665800  1
  Al  Al17  1  0.15928800  0.39478100  0.83665800  1
  Al  Al18  1  0.15928800  0.76450700  0.16334200  1
  Al  Al19  1  0.23549300  0.39478100  0.16334200  1
  Al  Al20  1  0.60521900  0.84071200  0.16334200  1
  Al  Al21  1  0.76450700  0.15928800  0.16334200  1
  Al  Al22  1  0.39478100  0.23549300  0.16334200  1
  Al  Al23  1  0.84071200  0.60521900  0.16334200  1
  Al  Al24  1  0.15928800  0.76450700  0.33665800  1
  Al  Al25  1  0.23549300  0.39478100  0.33665800  1
  Al  Al26  1  0.60521900  0.84071200  0.33665800  1
  Al  Al27  1  0.76450700  0.15928800  0.33665800  1
  Al  Al28  1  0.39478100  0.23549300  0.33665800  1
  Al  Al29  1  0.84071200  0.60521900  0.33665800  1
  Al  Al30  1  0.84071200  0.23549300  0.66334200  1
  Al  Al31  1  0.76450700  0.60521900  0.66334200  1
  Al  Al32  1  0.39478100  0.15928800  0.66334200  1
  Al  Al33  1  0.23549300  0.84071200  0.66334200  1
  Al  Al34  1  0.60521900  0.76450700  0.66334200  1
  Al  Al35  1  0.15928800  0.39478100  0.66334200  1
  Al  Al36  1  0.83885200  0.83885200  0.38573300  1
  Al  Al37  1  0.16114800  0.00000000  0.38573300  1
  Al  Al38  1  0.00000000  0.16114800  0.38573300  1
  Al  Al39  1  0.16114800  0.16114800  0.61426700  1
  Al  Al40  1  0.83885200  0.00000000  0.61426700  1
  Al  Al41  1  0.00000000  0.83885200  0.61426700  1
  Al  Al42  1  0.16114800  0.16114800  0.88573300  1
  Al  Al43  1  0.83885200  0.00000000  0.88573300  1
  Al  Al44  1  0.00000000  0.83885200  0.88573300  1
  Al  Al45  1  0.83885200  0.83885200  0.11426700  1
  Al  Al46  1  0.16114800  0.00000000  0.11426700  1
  Al  Al47  1  0.00000000  0.16114800  0.11426700  1
  Al  Al48  1  0.74501600  0.74501600  0.97021600  1
  Al  Al49  1  0.25498400  0.00000000  0.97021600  1
  Al  Al50  1  0.00000000  0.25498400  0.97021600  1
  Al  Al51  1  0.25498400  0.25498400  0.02978400  1
  Al  Al52  1  0.74501600  0.00000000  0.02978400  1
  Al  Al53  1  0.00000000  0.74501600  0.02978400  1
  Al  Al54  1  0.25498400  0.25498400  0.47021600  1
  Al  Al55  1  0.74501600  0.00000000  0.47021600  1
  Al  Al56  1  0.00000000  0.74501600  0.47021600  1
  Al  Al57  1  0.74501600  0.74501600  0.52978400  1
  Al  Al58  1  0.25498400  0.00000000  0.52978400  1
  Al  Al59  1  0.00000000  0.25498400  0.52978400  1
  Al  Al60  1  0.85640100  0.44939800  0.75000000  1
  Al  Al61  1  0.55060200  0.40700300  0.75000000  1
  Al  Al62  1  0.59299700  0.14359900  0.75000000  1
  Al  Al63  1  0.44939800  0.85640100  0.75000000  1
  Al  Al64  1  0.40700300  0.55060200  0.75000000  1
  Al  Al65  1  0.14359900  0.59299700  0.75000000  1
  Al  Al66  1  0.14359900  0.55060200  0.25000000  1
  Al  Al67  1  0.44939800  0.59299700  0.25000000  1
  Al  Al68  1  0.40700300  0.85640100  0.25000000  1
  Al  Al69  1  0.55060200  0.14359900  0.25000000  1
  Al  Al70  1  0.59299700  0.44939800  0.25000000  1
  Al  Al71  1  0.85640100  0.40700300  0.25000000  1
  Al  Al72  1  0.75315500  0.24684500  0.00000000  1
  Al  Al73  1  0.75315500  0.50631000  0.00000000  1
  Al  Al74  1  0.49369000  0.24684500  0.00000000  1
  Al  Al75  1  0.24684500  0.75315500  0.00000000  1
  Al  Al76  1  0.50631000  0.75315500  0.00000000  1
  Al  Al77  1  0.24684500  0.49369000  0.00000000  1
  Al  Al78  1  0.24684500  0.75315500  0.50000000  1
  Al  Al79  1  0.24684500  0.49369000  0.50000000  1
  Al  Al80  1  0.50631000  0.75315500  0.50000000  1
  Al  Al81  1  0.75315500  0.24684500  0.50000000  1
  Al  Al82  1  0.49369000  0.24684500  0.50000000  1
  Al  Al83  1  0.75315500  0.50631000  0.50000000  1
  Al  Al84  1  0.66666700  0.33333300  0.87277900  1
  Al  Al85  1  0.33333300  0.66666700  0.87277900  1
  Al  Al86  1  0.33333300  0.66666700  0.12722100  1
  Al  Al87  1  0.66666700  0.33333300  0.12722100  1
  Al  Al88  1  0.33333300  0.66666700  0.37277900  1
  Al  Al89  1  0.66666700  0.33333300  0.37277900  1
  Al  Al90  1  0.66666700  0.33333300  0.62722100  1
  Al  Al91  1  0.33333300  0.66666700  0.62722100  1
  Al  Al92  1  0.85366600  0.85366600  0.75000000  1
  Al  Al93  1  0.14633400  0.00000000  0.75000000  1
  Al  Al94  1  0.00000000  0.14633400  0.75000000  1
  Al  Al95  1  0.14633400  0.14633400  0.25000000  1
  Al  Al96  1  0.85366600  0.00000000  0.25000000  1
  Al  Al97  1  0.00000000  0.85366600  0.25000000  1
  Mo  Mo98  1  0.26963300  0.26963300  0.75000000  1
  Mo  Mo99  1  0.73036700  0.00000000  0.75000000  1
  Mo  Mo100  1  0.00000000  0.73036700  0.75000000  1
  Mo  Mo101  1  0.73036700  0.73036700  0.25000000  1
  Mo  Mo102  1  0.26963300  0.00000000  0.25000000  1
  Mo  Mo103  1  0.00000000  0.26963300  0.25000000  1
  Mo  Mo104  1  0.00000000  0.00000000  0.00000000  1
  Mo  Mo105  1  0.00000000  0.00000000  0.50000000  1
