# generated using pymatgen
data_Er3In5
_symmetry_space_group_name_H-M   'P 1'
_cell_length_a   6.38539460
_cell_length_b   6.38539523
_cell_length_c   10.34061400
_cell_angle_alpha   90.00000000
_cell_angle_beta   90.00000000
_cell_angle_gamma   102.10919990
_symmetry_Int_Tables_number   1
_chemical_formula_structural   Er3In5
_chemical_formula_sum   'Er6 In10'
_cell_volume   412.23938569
_cell_formula_units_Z   2
loop_
 _symmetry_equiv_pos_site_id
 _symmetry_equiv_pos_as_xyz
  1  'x, y, z'
loop_
 _atom_site_type_symbol
 _atom_site_label
 _atom_site_symmetry_multiplicity
 _atom_site_fract_x
 _atom_site_fract_y
 _atom_site_fract_z
 _atom_site_occupancy
  Er  Er0  1  0.62853200  0.62853200  0.25000000  1
  Er  Er1  1  0.37146800  0.37146800  0.75000000  1
  Er  Er2  1  0.20309900  0.79690100  0.50000000  1
  Er  Er3  1  0.20309900  0.79690100  0.00000000  1
  Er  Er4  1  0.79690100  0.20309900  0.50000000  1
  Er  Er5  1  0.79690100  0.20309900  0.00000000  1
  In  In6  1  0.01282700  0.01282700  0.25000000  1
  In  In7  1  0.98717300  0.98717300  0.75000000  1
  In  In8  1  0.31049600  0.31049600  0.04650700  1
  In  In9  1  0.68950400  0.68950400  0.95349300  1
  In  In10  1  0.31049600  0.31049600  0.45349300  1
  In  In11  1  0.68950400  0.68950400  0.54650700  1
  In  In12  1  0.50760300  0.06931000  0.25000000  1
  In  In13  1  0.93069000  0.49239700  0.75000000  1
  In  In14  1  0.49239700  0.93069000  0.75000000  1
  In  In15  1  0.06931000  0.50760300  0.25000000  1
