# generated using pymatgen
data_HoMoBrO4
_symmetry_space_group_name_H-M   'P 1'
_cell_length_a   6.92380100
_cell_length_b   7.25998768
_cell_length_c   10.99570628
_cell_angle_alpha   105.02469238
_cell_angle_beta   107.43433022
_cell_angle_gamma   93.38303769
_symmetry_Int_Tables_number   1
_chemical_formula_structural   HoMoBrO4
_chemical_formula_sum   'Ho4 Mo4 Br4 O16'
_cell_volume   503.66541264
_cell_formula_units_Z   4
loop_
 _symmetry_equiv_pos_site_id
 _symmetry_equiv_pos_as_xyz
  1  'x, y, z'
loop_
 _atom_site_type_symbol
 _atom_site_label
 _atom_site_symmetry_multiplicity
 _atom_site_fract_x
 _atom_site_fract_y
 _atom_site_fract_z
 _atom_site_occupancy
  Ho  Ho0  1  0.64743000  0.11904300  0.73079800  1
  Ho  Ho1  1  0.35257000  0.88095700  0.26920200  1
  Ho  Ho2  1  0.38902000  0.65524200  0.76843800  1
  Ho  Ho3  1  0.61098000  0.34475800  0.23156200  1
  Mo  Mo4  1  0.73253000  0.81323200  0.13383900  1
  Mo  Mo5  1  0.26747000  0.18676800  0.86616100  1
  Mo  Mo6  1  0.77466100  0.59282900  0.62865200  1
  Mo  Mo7  1  0.22533900  0.40717100  0.37134800  1
  Br  Br8  1  0.26024900  0.99214300  0.51764500  1
  Br  Br9  1  0.73975100  0.00785700  0.48235500  1
  Br  Br10  1  0.19292400  0.71636500  0.98118700  1
  Br  Br11  1  0.80707600  0.28363500  0.01881300  1
  O  O12  1  0.66631800  0.72774400  0.95785400  1
  O  O13  1  0.33368200  0.27225600  0.04214600  1
  O  O14  1  0.00316300  0.86933800  0.20689200  1
  O  O15  1  0.99683700  0.13066200  0.79310800  1
  O  O16  1  0.62658400  0.64497600  0.20197300  1
  O  O17  1  0.37341600  0.35502400  0.79802700  1
  O  O18  1  0.39682000  0.98114700  0.81813000  1
  O  O19  1  0.60318000  0.01885300  0.18187000  1
  O  O20  1  0.04418300  0.64936000  0.67369100  1
  O  O21  1  0.95581700  0.35064000  0.32630900  1
  O  O22  1  0.71589600  0.41233500  0.70128700  1
  O  O23  1  0.28410400  0.58766500  0.29871300  1
  O  O24  1  0.67333600  0.50586500  0.45085500  1
  O  O25  1  0.32666400  0.49413500  0.54914500  1
  O  O26  1  0.65535100  0.79492900  0.70234500  1
  O  O27  1  0.34464900  0.20507100  0.29765500  1
