# generated using pymatgen
data_LuNb6Cl13O3
_symmetry_space_group_name_H-M   'P 1'
_cell_length_a   9.34742458
_cell_length_b   9.34742458
_cell_length_c   27.76822941
_cell_angle_alpha   99.68966048
_cell_angle_beta   99.68966048
_cell_angle_gamma   90.00000000
_symmetry_Int_Tables_number   1
_chemical_formula_structural   LuNb6Cl13O3
_chemical_formula_sum   'Lu4 Nb24 Cl52 O12'
_cell_volume   2356.49663377
_cell_formula_units_Z   4
loop_
 _symmetry_equiv_pos_site_id
 _symmetry_equiv_pos_as_xyz
  1  'x, y, z'
loop_
 _atom_site_type_symbol
 _atom_site_label
 _atom_site_symmetry_multiplicity
 _atom_site_fract_x
 _atom_site_fract_y
 _atom_site_fract_z
 _atom_site_occupancy
  Lu  Lu0  1  0.09431004  0.09431004  0.18862007  1
  Lu  Lu1  1  0.34431004  0.84431004  0.68862007  1
  Lu  Lu2  1  0.15568996  0.65568996  0.31137993  1
  Lu  Lu3  1  0.90568996  0.90568996  0.81137993  1
  Nb  Nb4  1  0.35686306  0.29672530  0.43171429  1
  Nb  Nb5  1  0.07485123  0.13498899  0.43171429  1
  Nb  Nb6  1  0.38498899  0.10686306  0.93171429  1
  Nb  Nb7  1  0.89313694  0.61501101  0.06828571  1
  Nb  Nb8  1  0.54672530  0.82485123  0.93171429  1
  Nb  Nb9  1  0.17514877  0.45327470  0.06828571  1
  Nb  Nb10  1  0.86501101  0.92514877  0.56828571  1
  Nb  Nb11  1  0.70327470  0.64313694  0.56828571  1
  Nb  Nb12  1  0.17865135  0.75290957  0.12638313  1
  Nb  Nb13  1  0.94773179  0.37347356  0.12638313  1
  Nb  Nb14  1  0.62347356  0.92865135  0.62638313  1
  Nb  Nb15  1  0.07134865  0.37652644  0.37361687  1
  Nb  Nb16  1  0.00290957  0.69773179  0.62638313  1
  Nb  Nb17  1  0.30226821  0.99709043  0.37361687  1
  Nb  Nb18  1  0.62652644  0.05226821  0.87361687  1
  Nb  Nb19  1  0.24709043  0.82134865  0.87361687  1
  Nb  Nb20  1  0.28533489  0.25014205  0.31982458  1
  Nb  Nb21  1  0.03448969  0.06968254  0.31982458  1
  Nb  Nb22  1  0.31968254  0.03533489  0.81982458  1
  Nb  Nb23  1  0.96466511  0.68031746  0.18017542  1
  Nb  Nb24  1  0.50014205  0.78448969  0.81982458  1
  Nb  Nb25  1  0.21551031  0.49985795  0.18017542  1
  Nb  Nb26  1  0.93031746  0.96551031  0.68017542  1
  Nb  Nb27  1  0.74985795  0.71466511  0.68017542  1
  Cl  Cl28  1  0.38830349  0.37500000  0.25000000  1
  Cl  Cl29  1  0.86169651  0.87500000  0.25000000  1
  Cl  Cl30  1  0.12500000  0.13830349  0.75000000  1
  Cl  Cl31  1  0.62500000  0.61169651  0.75000000  1
  Cl  Cl32  1  0.50265417  0.37718407  0.37489851  1
  Cl  Cl33  1  0.87224434  0.99771444  0.37489851  1
  Cl  Cl34  1  0.24771444  0.25265417  0.87489851  1
  Cl  Cl35  1  0.74734583  0.75228556  0.12510149  1
  Cl  Cl36  1  0.62718407  0.62224434  0.87489851  1
  Cl  Cl37  1  0.37775566  0.37281593  0.12510149  1
  Cl  Cl38  1  0.00228556  0.12775566  0.62510149  1
  Cl  Cl39  1  0.62281593  0.49734583  0.62510149  1
  Cl  Cl40  1  0.38731062  0.71456204  0.19164559  1
  Cl  Cl41  1  0.80433496  0.47708354  0.19164559  1
  Cl  Cl42  1  0.72708354  0.13731062  0.69164559  1
  Cl  Cl43  1  0.86268938  0.27291646  0.30835441  1
  Cl  Cl44  1  0.96456204  0.55433496  0.69164559  1
  Cl  Cl45  1  0.44566504  0.03543796  0.30835441  1
  Cl  Cl46  1  0.52291646  0.19566504  0.80835441  1
  Cl  Cl47  1  0.28543796  0.61268938  0.80835441  1
  Cl  Cl48  1  0.05116498  0.21636679  0.06006621  1
  Cl  Cl49  1  0.00890123  0.84369942  0.06006621  1
  Cl  Cl50  1  0.09369942  0.80116498  0.56006621  1
  Cl  Cl51  1  0.19883502  0.90630058  0.43993379  1
  Cl  Cl52  1  0.46636679  0.75890123  0.56006621  1
  Cl  Cl53  1  0.24109877  0.53363321  0.43993379  1
  Cl  Cl54  1  0.15630058  0.99109877  0.93993379  1
  Cl  Cl55  1  0.78363321  0.94883502  0.93993379  1
  Cl  Cl56  1  0.32999098  0.66378609  0.06327048  1
  Cl  Cl57  1  0.73327950  0.39948439  0.06327048  1
  Cl  Cl58  1  0.64948439  0.07999098  0.56327048  1
  Cl  Cl59  1  0.92000902  0.35051561  0.43672952  1
  Cl  Cl60  1  0.91378609  0.48327950  0.56327048  1
  Cl  Cl61  1  0.51672050  0.08621391  0.43672952  1
  Cl  Cl62  1  0.60051561  0.26672050  0.93672952  1
  Cl  Cl63  1  0.33621391  0.67000902  0.93672952  1
  Cl  Cl64  1  0.32613248  0.32613248  0.00000000  1
  Cl  Cl65  1  0.67386752  0.67386752  0.00000000  1
  Cl  Cl66  1  0.92386752  0.07613248  0.50000000  1
  Cl  Cl67  1  0.57613248  0.42386752  0.50000000  1
  Cl  Cl68  1  0.25172893  0.25172893  0.50345785  1
  Cl  Cl69  1  0.50172893  0.00172893  0.00345785  1
  Cl  Cl70  1  0.99827107  0.49827107  0.99654215  1
  Cl  Cl71  1  0.74827107  0.74827107  0.49654215  1
  Cl  Cl72  1  0.41181405  0.73334727  0.35829492  1
  Cl  Cl73  1  0.94648088  0.62494766  0.35829492  1
  Cl  Cl74  1  0.87494766  0.16181405  0.85829492  1
  Cl  Cl75  1  0.83818595  0.12505234  0.14170508  1
  Cl  Cl76  1  0.98334727  0.69648088  0.85829492  1
  Cl  Cl77  1  0.30351912  0.01665273  0.14170508  1
  Cl  Cl78  1  0.37505234  0.05351912  0.64170508  1
  Cl  Cl79  1  0.26665273  0.58818595  0.64170508  1
  O  O80  1  0.10468576  0.31564272  0.17763243  1
  O  O81  1  0.07294667  0.86198970  0.17763243  1
  O  O82  1  0.11198970  0.85468576  0.67763243  1
  O  O83  1  0.14531424  0.88801030  0.32236757  1
  O  O84  1  0.56564272  0.82294667  0.67763243  1
  O  O85  1  0.17705333  0.43435728  0.32236757  1
  O  O86  1  0.13801030  0.92705333  0.82236757  1
  O  O87  1  0.68435728  0.89531424  0.82236757  1
  O  O88  1  0.13306776  0.13306776  0.26613552  1
  O  O89  1  0.38306776  0.88306776  0.76613552  1
  O  O90  1  0.11693224  0.61693224  0.23386448  1
  O  O91  1  0.86693224  0.86693224  0.73386448  1
