# generated using pymatgen
data_Co7(AsO6)2
_symmetry_space_group_name_H-M   'P 1'
_cell_length_a   10.52989221
_cell_length_b   10.52989221
_cell_length_c   10.52989221
_cell_angle_alpha   147.34140177
_cell_angle_beta   132.01205514
_cell_angle_gamma   59.25701313
_symmetry_Int_Tables_number   1
_chemical_formula_structural   Co7(AsO6)2
_chemical_formula_sum   'Co14 As4 O24'
_cell_volume   464.12644910
_cell_formula_units_Z   2
loop_
 _symmetry_equiv_pos_site_id
 _symmetry_equiv_pos_as_xyz
  1  'x, y, z'
loop_
 _atom_site_type_symbol
 _atom_site_label
 _atom_site_symmetry_multiplicity
 _atom_site_fract_x
 _atom_site_fract_y
 _atom_site_fract_z
 _atom_site_occupancy
  Co  Co0  1  0.79908100  0.42823100  0.37085100  1
  Co  Co1  1  0.16186500  0.66186500  0.00000000  1
  Co  Co2  1  0.16186500  0.16186500  0.50000000  1
  Co  Co3  1  0.81647500  0.83612800  0.98034600  1
  Co  Co4  1  0.83813500  0.83813500  0.50000000  1
  Co  Co5  1  0.18352500  0.16387200  0.01965400  1
  Co  Co6  1  0.20091900  0.57176900  0.62914900  1
  Co  Co7  1  0.64421800  0.66387200  0.98034600  1
  Co  Co8  1  0.00000000  0.00000000  0.50000000  1
  Co  Co9  1  0.83813500  0.33813500  0.00000000  1
  Co  Co10  1  0.35578200  0.33612800  0.01965400  1
  Co  Co11  1  0.44262000  0.07176900  0.37085100  1
  Co  Co12  1  0.55738000  0.92823100  0.62914900  1
  Co  Co13  1  0.00000000  0.50000000  0.00000000  1
  As  As14  1  0.37242500  0.75000000  0.62242500  1
  As  As15  1  0.62757500  0.25000000  0.37757500  1
  As  As16  1  0.00000000  0.00000000  0.00000000  1
  As  As17  1  0.50000000  0.50000000  0.00000000  1
  O  O18  1  0.92193300  0.14570700  0.21578500  1
  O  O19  1  0.74125400  0.00783400  0.24908800  1
  O  O20  1  0.74125400  0.49216600  0.73342100  1
  O  O21  1  0.72824500  0.50920000  0.21904600  1
  O  O22  1  0.42992200  0.20614800  0.78421500  1
  O  O23  1  0.20984600  0.99080000  0.21904600  1
  O  O24  1  0.25874600  0.99216600  0.75091200  1
  O  O25  1  0.42992200  0.64570700  0.22377400  1
  O  O26  1  0.92193300  0.70614800  0.77622600  1
  O  O27  1  0.94669400  0.16913000  0.77756400  1
  O  O28  1  0.89156600  0.66913000  0.22243600  1
  O  O29  1  0.57007800  0.79385200  0.21578500  1
  O  O30  1  0.07806700  0.85429300  0.78421500  1
  O  O31  1  0.27175500  0.49080000  0.78095400  1
  O  O32  1  0.56406600  0.82881500  0.73525100  1
  O  O33  1  0.59356400  0.32881500  0.26474900  1
  O  O34  1  0.25874600  0.50783400  0.26657900  1
  O  O35  1  0.43593400  0.17118500  0.26474900  1
  O  O36  1  0.40643600  0.67118500  0.73525100  1
  O  O37  1  0.07806700  0.29385200  0.22377400  1
  O  O38  1  0.05330600  0.83087000  0.22243600  1
  O  O39  1  0.79015400  0.00920000  0.78095400  1
  O  O40  1  0.57007800  0.35429300  0.77622600  1
  O  O41  1  0.10843400  0.33087000  0.77756400  1
