# generated using pymatgen
data_K2Ba7(Si2O5)8
_symmetry_space_group_name_H-M   'P 1'
_cell_length_a   7.82850000
_cell_length_b   8.36754599
_cell_length_c   16.70838407
_cell_angle_alpha   99.96235879
_cell_angle_beta   76.45148592
_cell_angle_gamma   90.00000000
_symmetry_Int_Tables_number   1
_chemical_formula_structural   K2Ba7(Si2O5)8
_chemical_formula_sum   'K2 Ba7 Si16 O40'
_cell_volume   1047.04769639
_cell_formula_units_Z   1
loop_
 _symmetry_equiv_pos_site_id
 _symmetry_equiv_pos_as_xyz
  1  'x, y, z'
loop_
 _atom_site_type_symbol
 _atom_site_label
 _atom_site_symmetry_multiplicity
 _atom_site_fract_x
 _atom_site_fract_y
 _atom_site_fract_z
 _atom_site_occupancy
  K  K0  1  0.03903900  0.72507300  0.92192200  1
  K  K1  1  0.96096100  0.27492700  0.07807800  1
  Ba  Ba2  1  0.38591900  0.30989400  0.22816200  1
  Ba  Ba3  1  0.61408100  0.69010600  0.77183800  1
  Ba  Ba4  1  0.27023100  0.10213900  0.45953900  1
  Ba  Ba5  1  0.72976900  0.89786100  0.54046100  1
  Ba  Ba6  1  0.14843200  0.94006000  0.70313600  1
  Ba  Ba7  1  0.85156800  0.05994000  0.29686400  1
  Ba  Ba8  1  0.50000000  0.50000000  0.00000000  1
  Si  Si9  1  0.46534800  0.24621000  0.66487200  1
  Si  Si10  1  0.86978100  0.24621000  0.66487200  1
  Si  Si11  1  0.53465200  0.75379000  0.33512800  1
  Si  Si12  1  0.13021900  0.75379000  0.33512800  1
  Si  Si13  1  0.40849500  0.56522700  0.59845300  1
  Si  Si14  1  0.99305200  0.56522700  0.59845300  1
  Si  Si15  1  0.59150500  0.43477300  0.40154700  1
  Si  Si16  1  0.00694800  0.43477300  0.40154700  1
  Si  Si17  1  0.34297100  0.02335200  0.90814000  1
  Si  Si18  1  0.74888900  0.02335200  0.90814000  1
  Si  Si19  1  0.65702900  0.97664800  0.09186000  1
  Si  Si20  1  0.25111100  0.97664800  0.09186000  1
  Si  Si21  1  0.27479000  0.34323800  0.85120600  1
  Si  Si22  1  0.87400400  0.34323800  0.85120600  1
  Si  Si23  1  0.72521000  0.65676200  0.14879400  1
  Si  Si24  1  0.12599600  0.65676200  0.14879400  1
  O  O25  1  0.33962400  0.79882000  0.32075100  1
  O  O26  1  0.66037600  0.20118000  0.67924900  1
  O  O27  1  0.05841400  0.35961100  0.88317300  1
  O  O28  1  0.94158600  0.64038900  0.11682700  1
  O  O29  1  0.45453100  0.03022800  0.09093900  1
  O  O30  1  0.54546900  0.96977200  0.90906100  1
  O  O31  1  0.19431700  0.55511500  0.61136500  1
  O  O32  1  0.80568300  0.44488500  0.38863500  1
  O  O33  1  0.36023900  0.51567000  0.86700400  1
  O  O34  1  0.77275600  0.51567000  0.86700400  1
  O  O35  1  0.63976100  0.48433000  0.13299600  1
  O  O36  1  0.22724400  0.48433000  0.13299600  1
  O  O37  1  0.46399000  0.74283700  0.63347900  1
  O  O38  1  0.90253100  0.74283700  0.63347900  1
  O  O39  1  0.53601000  0.25716300  0.36652100  1
  O  O40  1  0.09746900  0.25716300  0.36652100  1
  O  O41  1  0.46988400  0.43716500  0.65233200  1
  O  O42  1  0.87778400  0.43716500  0.65233200  1
  O  O43  1  0.53011600  0.56283500  0.34766800  1
  O  O44  1  0.12221600  0.56283500  0.34766800  1
  O  O45  1  0.33600100  0.22357100  0.91061200  1
  O  O46  1  0.75338700  0.22357100  0.91061200  1
  O  O47  1  0.66399900  0.77642900  0.08938800  1
  O  O48  1  0.24661300  0.77642900  0.08938800  1
  O  O49  1  0.41948800  0.11358100  0.59306900  1
  O  O50  1  0.98744300  0.11358100  0.59306900  1
  O  O51  1  0.58051200  0.88641900  0.40693100  1
  O  O52  1  0.01255700  0.88641900  0.40693100  1
  O  O53  1  0.32101400  0.24203500  0.75449300  1
  O  O54  1  0.92449300  0.24203500  0.75449300  1
  O  O55  1  0.67898600  0.75796500  0.24550700  1
  O  O56  1  0.07550700  0.75796500  0.24550700  1
  O  O57  1  0.50000000  0.50000000  0.50000000  1
  O  O58  1  0.00000000  0.50000000  0.50000000  1
  O  O59  1  0.29170700  0.91095800  0.83132400  1
  O  O60  1  0.87696900  0.91095800  0.83132400  1
  O  O61  1  0.70829300  0.08904200  0.16867600  1
  O  O62  1  0.12303100  0.08904200  0.16867600  1
  O  O63  1  0.21661500  0.00000000  0.00000000  1
  O  O64  1  0.78338500  0.00000000  0.00000000  1
