# generated using pymatgen
data_CaAs2F12
_symmetry_space_group_name_H-M   'P 1'
_cell_length_a   5.37605400
_cell_length_b   5.37605400
_cell_length_c   7.78592600
_cell_angle_alpha   90.00000000
_cell_angle_beta   90.00000000
_cell_angle_gamma   90.00000000
_symmetry_Int_Tables_number   1
_chemical_formula_structural   CaAs2F12
_chemical_formula_sum   'Ca1 As2 F12'
_cell_volume   225.02849543
_cell_formula_units_Z   1
loop_
 _symmetry_equiv_pos_site_id
 _symmetry_equiv_pos_as_xyz
  1  'x, y, z'
loop_
 _atom_site_type_symbol
 _atom_site_label
 _atom_site_symmetry_multiplicity
 _atom_site_fract_x
 _atom_site_fract_y
 _atom_site_fract_z
 _atom_site_occupancy
  Ca  Ca0  1  0.00000000  0.00000000  0.00000000  1
  As  As1  1  0.00000000  0.50000000  0.25820500  1
  As  As2  1  0.50000000  0.00000000  0.74179500  1
  F  F3  1  0.26132700  0.22712500  0.75949400  1
  F  F4  1  0.73867300  0.77287500  0.75949400  1
  F  F5  1  0.22712500  0.73867300  0.24050600  1
  F  F6  1  0.77287500  0.26132700  0.24050600  1
  F  F7  1  0.00000000  0.50000000  0.47937700  1
  F  F8  1  0.50000000  0.00000000  0.52062300  1
  F  F9  1  0.00000000  0.50000000  0.02282400  1
  F  F10  1  0.50000000  0.00000000  0.97717600  1
  F  F11  1  0.22712500  0.26132700  0.24050600  1
  F  F12  1  0.77287500  0.73867300  0.24050600  1
  F  F13  1  0.26132700  0.77287500  0.75949400  1
  F  F14  1  0.73867300  0.22712500  0.75949400  1
