# generated using pymatgen
data_Y2Br3
_symmetry_space_group_name_H-M   'P 1'
_cell_length_a   8.84336965
_cell_length_b   8.84336965
_cell_length_c   11.01438124
_cell_angle_alpha   59.37680441
_cell_angle_beta   59.37680441
_cell_angle_gamma   25.74634666
_symmetry_Int_Tables_number   1
_chemical_formula_structural   Y2Br3
_chemical_formula_sum   'Y4 Br6'
_cell_volume   319.02992704
_cell_formula_units_Z   2
loop_
 _symmetry_equiv_pos_site_id
 _symmetry_equiv_pos_as_xyz
  1  'x, y, z'
loop_
 _atom_site_type_symbol
 _atom_site_label
 _atom_site_symmetry_multiplicity
 _atom_site_fract_x
 _atom_site_fract_y
 _atom_site_fract_z
 _atom_site_occupancy
  Y  Y0  1  0.92247000  0.92247000  0.45561200  1
  Y  Y1  1  0.07753000  0.07753000  0.54438800  1
  Y  Y2  1  0.63366300  0.63366300  0.21516800  1
  Y  Y3  1  0.36633700  0.36633700  0.78483200  1
  Br  Br4  1  0.83726800  0.83726800  0.00718100  1
  Br  Br5  1  0.16273200  0.16273200  0.99281900  1
  Br  Br6  1  0.72036900  0.72036900  0.38013400  1
  Br  Br7  1  0.27963100  0.27963100  0.61986600  1
  Br  Br8  1  0.45798600  0.45798600  0.23746800  1
  Br  Br9  1  0.54201400  0.54201400  0.76253200  1
