# generated using pymatgen
data_ErFeC2
_symmetry_space_group_name_H-M   'P 1'
_cell_length_a   3.72088224
_cell_length_b   3.72088224
_cell_length_c   3.56590300
_cell_angle_alpha   90.00000000
_cell_angle_beta   90.00000000
_cell_angle_gamma   104.90022574
_symmetry_Int_Tables_number   1
_chemical_formula_structural   ErFeC2
_chemical_formula_sum   'Er1 Fe1 C2'
_cell_volume   47.70974471
_cell_formula_units_Z   1
loop_
 _symmetry_equiv_pos_site_id
 _symmetry_equiv_pos_as_xyz
  1  'x, y, z'
loop_
 _atom_site_type_symbol
 _atom_site_label
 _atom_site_symmetry_multiplicity
 _atom_site_fract_x
 _atom_site_fract_y
 _atom_site_fract_z
 _atom_site_occupancy
  Er  Er0  1  0.00495500  0.99504500  0.00000000  1
  Fe  Fe1  1  0.61331500  0.38668500  0.50000000  1
  C  C2  1  0.45325100  0.85652100  0.50000000  1
  C  C3  1  0.14347900  0.54674900  0.50000000  1
