# generated using pymatgen
data_Rb2Th(AsO4)2
_symmetry_space_group_name_H-M   'P 1'
_cell_length_a   11.59821900
_cell_length_b   8.18269400
_cell_length_c   10.26164124
_cell_angle_alpha   63.09647924
_cell_angle_beta   90.00000000
_cell_angle_gamma   90.00000000
_symmetry_Int_Tables_number   1
_chemical_formula_structural   Rb2Th(AsO4)2
_chemical_formula_sum   'Rb8 Th4 As8 O32'
_cell_volume   868.47469243
_cell_formula_units_Z   4
loop_
 _symmetry_equiv_pos_site_id
 _symmetry_equiv_pos_as_xyz
  1  'x, y, z'
loop_
 _atom_site_type_symbol
 _atom_site_label
 _atom_site_symmetry_multiplicity
 _atom_site_fract_x
 _atom_site_fract_y
 _atom_site_fract_z
 _atom_site_occupancy
  Rb  Rb0  1  0.62533800  0.14932100  0.45110200  1
  Rb  Rb1  1  0.87466200  0.14932100  0.95110200  1
  Rb  Rb2  1  0.37466200  0.85067900  0.54889800  1
  Rb  Rb3  1  0.12533800  0.85067900  0.04889800  1
  Rb  Rb4  1  0.61487100  0.33567300  0.04371000  1
  Rb  Rb5  1  0.88512900  0.33567300  0.54371000  1
  Rb  Rb6  1  0.38512900  0.66432700  0.95629000  1
  Rb  Rb7  1  0.11487100  0.66432700  0.45629000  1
  Th  Th8  1  0.63908200  0.74383300  0.27886800  1
  Th  Th9  1  0.86091800  0.74383300  0.77886800  1
  Th  Th10  1  0.36091800  0.25616700  0.72113200  1
  Th  Th11  1  0.13908200  0.25616700  0.22113200  1
  As  As12  1  0.63861800  0.93515400  0.85270700  1
  As  As13  1  0.86138200  0.93515400  0.35270700  1
  As  As14  1  0.36138200  0.06484600  0.14729300  1
  As  As15  1  0.13861800  0.06484600  0.64729300  1
  As  As16  1  0.63214400  0.53784900  0.63389500  1
  As  As17  1  0.86785600  0.53784900  0.13389500  1
  As  As18  1  0.36785600  0.46215100  0.36610500  1
  As  As19  1  0.13214400  0.46215100  0.86610500  1
  O  O20  1  0.51422100  0.03603700  0.76070200  1
  O  O21  1  0.98577900  0.03603700  0.26070200  1
  O  O22  1  0.48577900  0.96396300  0.23929800  1
  O  O23  1  0.01422100  0.96396300  0.73929800  1
  O  O24  1  0.65349500  0.71695900  0.86839500  1
  O  O25  1  0.84650500  0.71695900  0.36839500  1
  O  O26  1  0.34650500  0.28304100  0.13160500  1
  O  O27  1  0.15349500  0.28304100  0.63160500  1
  O  O28  1  0.76014900  0.03409400  0.75006100  1
  O  O29  1  0.73985100  0.03409400  0.25006100  1
  O  O30  1  0.23985100  0.96590600  0.24993900  1
  O  O31  1  0.26014900  0.96590600  0.74993900  1
  O  O32  1  0.64507300  0.45337900  0.50761400  1
  O  O33  1  0.85492700  0.45337900  0.00761400  1
  O  O34  1  0.35492700  0.54662100  0.49238600  1
  O  O35  1  0.14507300  0.54662100  0.99238600  1
  O  O36  1  0.60623900  0.76489000  0.51339200  1
  O  O37  1  0.89376100  0.76489000  0.01339200  1
  O  O38  1  0.39376100  0.23511000  0.48660800  1
  O  O39  1  0.10623900  0.23511000  0.98660800  1
  O  O40  1  0.64256600  0.93273400  0.02156800  1
  O  O41  1  0.85743400  0.93273400  0.52156800  1
  O  O42  1  0.35743400  0.06726600  0.97843200  1
  O  O43  1  0.14256600  0.06726600  0.47843200  1
  O  O44  1  0.51842200  0.43114400  0.75102700  1
  O  O45  1  0.98157800  0.43114400  0.25102700  1
  O  O46  1  0.48157800  0.56885600  0.24897300  1
  O  O47  1  0.01842200  0.56885600  0.74897300  1
  O  O48  1  0.75793600  0.51256800  0.73026500  1
  O  O49  1  0.74206400  0.51256800  0.23026500  1
  O  O50  1  0.24206400  0.48743200  0.26973500  1
  O  O51  1  0.25793600  0.48743200  0.76973500  1
