# generated using pymatgen
data_LaSO5
_symmetry_space_group_name_H-M   'P 1'
_cell_length_a   12.91267300
_cell_length_b   4.64216100
_cell_length_c   7.21526107
_cell_angle_alpha   68.55195932
_cell_angle_beta   90.00000000
_cell_angle_gamma   90.00000000
_symmetry_Int_Tables_number   1
_chemical_formula_structural   LaSO5
_chemical_formula_sum   'La4 S4 O20'
_cell_volume   402.55130311
_cell_formula_units_Z   4
loop_
 _symmetry_equiv_pos_site_id
 _symmetry_equiv_pos_as_xyz
  1  'x, y, z'
loop_
 _atom_site_type_symbol
 _atom_site_label
 _atom_site_symmetry_multiplicity
 _atom_site_fract_x
 _atom_site_fract_y
 _atom_site_fract_z
 _atom_site_occupancy
  La  La0  1  0.42980200  0.15719000  0.19573500  1
  La  La1  1  0.07019800  0.15719000  0.69573500  1
  La  La2  1  0.57019800  0.84281000  0.80426500  1
  La  La3  1  0.92980200  0.84281000  0.30426500  1
  S  S4  1  0.14251300  0.39370600  0.11531200  1
  S  S5  1  0.35748700  0.39370600  0.61531200  1
  S  S6  1  0.85748700  0.60629400  0.88468800  1
  S  S7  1  0.64251300  0.60629400  0.38468800  1
  O  O8  1  0.24154000  0.23363500  0.18826400  1
  O  O9  1  0.25846000  0.23363500  0.68826400  1
  O  O10  1  0.75846000  0.76636500  0.81173600  1
  O  O11  1  0.74154000  0.76636500  0.31173600  1
  O  O12  1  0.56671600  0.26667300  0.94068800  1
  O  O13  1  0.93328400  0.26667300  0.44068800  1
  O  O14  1  0.43328400  0.73332700  0.05931200  1
  O  O15  1  0.06671600  0.73332700  0.55931200  1
  O  O16  1  0.34087800  0.68363300  0.44648400  1
  O  O17  1  0.15912200  0.68363300  0.94648400  1
  O  O18  1  0.65912200  0.31636700  0.55351600  1
  O  O19  1  0.84087800  0.31636700  0.05351600  1
  O  O20  1  0.42864800  0.18529400  0.55597400  1
  O  O21  1  0.07135200  0.18529400  0.05597400  1
  O  O22  1  0.57135200  0.81470600  0.44402600  1
  O  O23  1  0.92864800  0.81470600  0.94402600  1
  O  O24  1  0.59015100  0.54407000  0.21469400  1
  O  O25  1  0.90984900  0.54407000  0.71469400  1
  O  O26  1  0.40984900  0.45593000  0.78530600  1
  O  O27  1  0.09015100  0.45593000  0.28530600  1
