# generated using pymatgen
data_RbTaCl6
_symmetry_space_group_name_H-M   'P 1'
_cell_length_a   6.52660600
_cell_length_b   7.02487146
_cell_length_c   12.61330340
_cell_angle_alpha   100.69027429
_cell_angle_beta   90.00000000
_cell_angle_gamma   117.68017215
_symmetry_Int_Tables_number   1
_chemical_formula_structural   RbTaCl6
_chemical_formula_sum   'Rb2 Ta2 Cl12'
_cell_volume   500.75618009
_cell_formula_units_Z   2
loop_
 _symmetry_equiv_pos_site_id
 _symmetry_equiv_pos_as_xyz
  1  'x, y, z'
loop_
 _atom_site_type_symbol
 _atom_site_label
 _atom_site_symmetry_multiplicity
 _atom_site_fract_x
 _atom_site_fract_y
 _atom_site_fract_z
 _atom_site_occupancy
  Rb  Rb0  1  0.88115100  0.00000000  0.75000000  1
  Rb  Rb1  1  0.11884900  0.00000000  0.25000000  1
  Ta  Ta2  1  0.50000000  0.50000000  0.00000000  1
  Ta  Ta3  1  0.00000000  0.50000000  0.50000000  1
  Cl  Cl4  1  0.46336500  0.16518200  0.89732700  1
  Cl  Cl5  1  0.53663500  0.83481800  0.10267300  1
  Cl  Cl6  1  0.29818300  0.83481800  0.60267300  1
  Cl  Cl7  1  0.70181700  0.16518200  0.39732700  1
  Cl  Cl8  1  0.37134600  0.57071100  0.84258500  1
  Cl  Cl9  1  0.62865400  0.42928900  0.15741500  1
  Cl  Cl10  1  0.80063500  0.42928900  0.65741500  1
  Cl  Cl11  1  0.19936500  0.57071100  0.34258500  1
  Cl  Cl12  1  0.79659500  0.68762900  0.46010200  1
  Cl  Cl13  1  0.20340500  0.31237100  0.53989800  1
  Cl  Cl14  1  0.10896600  0.31237100  0.03989800  1
  Cl  Cl15  1  0.89103400  0.68762900  0.96010200  1
