# generated using pymatgen
data_Cu(PO3)2
_symmetry_space_group_name_H-M   'P 1'
_cell_length_a   7.72405937
_cell_length_b   7.72405937
_cell_length_c   9.63970402
_cell_angle_alpha   66.07714815
_cell_angle_beta   66.07714815
_cell_angle_gamma   63.44875646
_symmetry_Int_Tables_number   1
_chemical_formula_structural   Cu(PO3)2
_chemical_formula_sum   'Cu4 P8 O24'
_cell_volume   452.23472342
_cell_formula_units_Z   4
loop_
 _symmetry_equiv_pos_site_id
 _symmetry_equiv_pos_as_xyz
  1  'x, y, z'
loop_
 _atom_site_type_symbol
 _atom_site_label
 _atom_site_symmetry_multiplicity
 _atom_site_fract_x
 _atom_site_fract_y
 _atom_site_fract_z
 _atom_site_occupancy
  Cu  Cu0  1  0.44682300  0.55317700  0.75000000  1
  Cu  Cu1  1  0.55317700  0.44682300  0.25000000  1
  Cu  Cu2  1  0.50000000  0.00000000  0.50000000  1
  Cu  Cu3  1  0.00000000  0.50000000  0.00000000  1
  P  P4  1  0.23272100  0.74587800  0.47729100  1
  P  P5  1  0.17977700  0.18757600  0.80687000  1
  P  P6  1  0.76727900  0.25412200  0.52270900  1
  P  P7  1  0.82022300  0.81242400  0.19313000  1
  P  P8  1  0.25412200  0.76727900  0.02270900  1
  P  P9  1  0.81242400  0.82022300  0.69313000  1
  P  P10  1  0.18757600  0.17977700  0.30687000  1
  P  P11  1  0.74587800  0.23272100  0.97729100  1
  O  O12  1  0.63426800  0.81571500  0.66714800  1
  O  O13  1  0.30430300  0.76706600  0.59281200  1
  O  O14  1  0.78963200  0.04964700  0.66501100  1
  O  O15  1  0.23293400  0.69569700  0.90718800  1
  O  O16  1  0.43038900  0.65561500  0.08870800  1
  O  O17  1  0.04964700  0.78963200  0.16501100  1
  O  O18  1  0.25210500  0.99563800  0.94715900  1
  O  O19  1  0.21036800  0.95035300  0.33498900  1
  O  O20  1  0.81571500  0.63426800  0.16714800  1
  O  O21  1  0.99563800  0.25210500  0.44715900  1
  O  O22  1  0.65561500  0.43038900  0.58870800  1
  O  O23  1  0.00436200  0.74789500  0.55284100  1
  O  O24  1  0.69569700  0.23293400  0.40718800  1
  O  O25  1  0.56961100  0.34438500  0.91129200  1
  O  O26  1  0.76706600  0.30430300  0.09281200  1
  O  O27  1  0.36573200  0.18428500  0.33285200  1
  O  O28  1  0.15539500  0.29373000  0.14777800  1
  O  O29  1  0.74789500  0.00436200  0.05284100  1
  O  O30  1  0.84460500  0.70627000  0.85222200  1
  O  O31  1  0.34438500  0.56961100  0.41129200  1
  O  O32  1  0.70627000  0.84460500  0.35222200  1
  O  O33  1  0.95035300  0.21036800  0.83498900  1
  O  O34  1  0.29373000  0.15539500  0.64777800  1
  O  O35  1  0.18428500  0.36573200  0.83285200  1
