# generated using pymatgen
data_PrAgSb2
_symmetry_space_group_name_H-M   'P 1'
_cell_length_a   4.42560100
_cell_length_b   4.42560100
_cell_length_c   10.78882500
_cell_angle_alpha   90.00000000
_cell_angle_beta   90.00000000
_cell_angle_gamma   90.00000000
_symmetry_Int_Tables_number   1
_chemical_formula_structural   PrAgSb2
_chemical_formula_sum   'Pr2 Ag2 Sb4'
_cell_volume   211.30932455
_cell_formula_units_Z   2
loop_
 _symmetry_equiv_pos_site_id
 _symmetry_equiv_pos_as_xyz
  1  'x, y, z'
loop_
 _atom_site_type_symbol
 _atom_site_label
 _atom_site_symmetry_multiplicity
 _atom_site_fract_x
 _atom_site_fract_y
 _atom_site_fract_z
 _atom_site_occupancy
  Pr  Pr0  1  0.00000000  0.50000000  0.76236300  1
  Pr  Pr1  1  0.50000000  0.00000000  0.23763700  1
  Ag  Ag2  1  0.00000000  0.00000000  0.50000000  1
  Ag  Ag3  1  0.50000000  0.50000000  0.50000000  1
  Sb  Sb4  1  0.00000000  0.00000000  0.00000000  1
  Sb  Sb5  1  0.50000000  0.50000000  0.00000000  1
  Sb  Sb6  1  0.00000000  0.50000000  0.32527200  1
  Sb  Sb7  1  0.50000000  0.00000000  0.67472800  1
