# generated using pymatgen
data_Ho4MgRu
_symmetry_space_group_name_H-M   'P 1'
_cell_length_a   9.66888337
_cell_length_b   9.66888337
_cell_length_c   9.66888337
_cell_angle_alpha   60.00000000
_cell_angle_beta   60.00000000
_cell_angle_gamma   60.00000000
_symmetry_Int_Tables_number   1
_chemical_formula_structural   Ho4MgRu
_chemical_formula_sum   'Ho16 Mg4 Ru4'
_cell_volume   639.16644537
_cell_formula_units_Z   4
loop_
 _symmetry_equiv_pos_site_id
 _symmetry_equiv_pos_as_xyz
  1  'x, y, z'
loop_
 _atom_site_type_symbol
 _atom_site_label
 _atom_site_symmetry_multiplicity
 _atom_site_fract_x
 _atom_site_fract_y
 _atom_site_fract_z
 _atom_site_occupancy
  Ho  Ho0  1  0.34367600  0.34367600  0.34367600  1
  Ho  Ho1  1  0.34367600  0.34367600  0.96897200  1
  Ho  Ho2  1  0.34367600  0.96897200  0.34367600  1
  Ho  Ho3  1  0.96897200  0.34367600  0.34367600  1
  Ho  Ho4  1  0.81420200  0.18579800  0.18579800  1
  Ho  Ho5  1  0.18579800  0.81420200  0.81420200  1
  Ho  Ho6  1  0.18579800  0.81420200  0.18579800  1
  Ho  Ho7  1  0.81420200  0.18579800  0.81420200  1
  Ho  Ho8  1  0.18579800  0.18579800  0.81420200  1
  Ho  Ho9  1  0.81420200  0.81420200  0.18579800  1
  Ho  Ho10  1  0.93697200  0.56302800  0.56302800  1
  Ho  Ho11  1  0.56302800  0.93697200  0.93697200  1
  Ho  Ho12  1  0.56302800  0.93697200  0.56302800  1
  Ho  Ho13  1  0.93697200  0.56302800  0.93697200  1
  Ho  Ho14  1  0.56302800  0.56302800  0.93697200  1
  Ho  Ho15  1  0.93697200  0.93697200  0.56302800  1
  Mg  Mg16  1  0.57902400  0.57902400  0.57902400  1
  Mg  Mg17  1  0.57902400  0.57902400  0.26292900  1
  Mg  Mg18  1  0.57902400  0.26292900  0.57902400  1
  Mg  Mg19  1  0.26292900  0.57902400  0.57902400  1
  Ru  Ru20  1  0.13955900  0.13955900  0.13955900  1
  Ru  Ru21  1  0.13955900  0.13955900  0.58132200  1
  Ru  Ru22  1  0.13955900  0.58132200  0.13955900  1
  Ru  Ru23  1  0.58132200  0.13955900  0.13955900  1
