# generated using pymatgen
data_KGeSbO5
_symmetry_space_group_name_H-M   'P 1'
_cell_length_a   6.70513000
_cell_length_b   10.94520900
_cell_length_c   13.46721400
_cell_angle_alpha   90.00000000
_cell_angle_beta   90.00000000
_cell_angle_gamma   90.00000000
_symmetry_Int_Tables_number   1
_chemical_formula_structural   KGeSbO5
_chemical_formula_sum   'K8 Ge8 Sb8 O40'
_cell_volume   988.34603113
_cell_formula_units_Z   8
loop_
 _symmetry_equiv_pos_site_id
 _symmetry_equiv_pos_as_xyz
  1  'x, y, z'
loop_
 _atom_site_type_symbol
 _atom_site_label
 _atom_site_symmetry_multiplicity
 _atom_site_fract_x
 _atom_site_fract_y
 _atom_site_fract_z
 _atom_site_occupancy
  K  K0  1  0.77399400  0.69055800  0.38191700  1
  K  K1  1  0.29611200  0.43463900  0.88950000  1
  K  K2  1  0.20388800  0.43463900  0.38950000  1
  K  K3  1  0.70388800  0.93463900  0.11050000  1
  K  K4  1  0.27399400  0.19055800  0.11808300  1
  K  K5  1  0.72600600  0.69055800  0.88191700  1
  K  K6  1  0.22600600  0.19055800  0.61808300  1
  K  K7  1  0.79611200  0.93463900  0.61050000  1
  Ge  Ge8  1  0.68122800  0.25153200  0.50223000  1
  Ge  Ge9  1  0.18122800  0.75153200  0.99777000  1
  Ge  Ge10  1  0.81877200  0.25153200  0.00223000  1
  Ge  Ge11  1  0.51134200  0.50283600  0.18137500  1
  Ge  Ge12  1  0.48865800  0.00283600  0.81862500  1
  Ge  Ge13  1  0.98865800  0.50283600  0.68137500  1
  Ge  Ge14  1  0.31877200  0.75153200  0.49777000  1
  Ge  Ge15  1  0.01134200  0.00283600  0.31862500  1
  Sb  Sb16  1  0.25679000  0.75557500  0.24517900  1
  Sb  Sb17  1  0.74321000  0.25557500  0.75482100  1
  Sb  Sb18  1  0.24321000  0.75557500  0.74517900  1
  Sb  Sb19  1  0.50768600  0.00075900  0.38241400  1
  Sb  Sb20  1  0.49231400  0.50075900  0.61758600  1
  Sb  Sb21  1  0.99231400  0.00075900  0.88241400  1
  Sb  Sb22  1  0.00768600  0.50075900  0.11758600  1
  Sb  Sb23  1  0.75679000  0.25557500  0.25482100  1
  O  O24  1  0.95611400  0.12973400  0.77967200  1
  O  O25  1  0.04388600  0.62973400  0.22032800  1
  O  O26  1  0.54388600  0.12973400  0.27967200  1
  O  O27  1  0.45611400  0.62973400  0.72032800  1
  O  O28  1  0.47305100  0.87693300  0.27476100  1
  O  O29  1  0.52694900  0.37693300  0.72523900  1
  O  O30  1  0.02694900  0.87693300  0.77476100  1
  O  O31  1  0.97305100  0.37693300  0.22523900  1
  O  O32  1  0.53796900  0.12551300  0.73557000  1
  O  O33  1  0.46203100  0.62551300  0.26443000  1
  O  O34  1  0.96203100  0.12551300  0.23557000  1
  O  O35  1  0.03796900  0.62551300  0.76443000  1
  O  O36  1  0.04928700  0.88426100  0.22980900  1
  O  O37  1  0.95071200  0.38426100  0.77019100  1
  O  O38  1  0.45071300  0.88426100  0.72980900  1
  O  O39  1  0.15898700  0.77224500  0.60099900  1
  O  O40  1  0.54928800  0.38426100  0.27019100  1
  O  O41  1  0.71336600  0.53339800  0.10118100  1
  O  O42  1  0.21336600  0.03339800  0.39881900  1
  O  O43  1  0.78663400  0.53339800  0.60118100  1
  O  O44  1  0.80476300  0.96301300  0.39341400  1
  O  O45  1  0.19523700  0.46301300  0.60658600  1
  O  O46  1  0.69523700  0.96301300  0.89341400  1
  O  O47  1  0.30476300  0.46301300  0.10658600  1
  O  O48  1  0.49989600  0.86760000  0.48565800  1
  O  O49  1  0.50010400  0.36760000  0.51434200  1
  O  O50  1  0.00010400  0.86760000  0.98565800  1
  O  O51  1  0.99989600  0.36760000  0.01434200  1
  O  O52  1  0.96029000  0.11459600  0.99697900  1
  O  O53  1  0.03971000  0.61459600  0.00302100  1
  O  O54  1  0.53971000  0.11459600  0.49697900  1
  O  O55  1  0.46029000  0.61459600  0.50302100  1
  O  O56  1  0.16865000  0.73851800  0.38986800  1
  O  O57  1  0.83135000  0.23851800  0.61013200  1
  O  O58  1  0.33135000  0.73851800  0.88986800  1
  O  O59  1  0.66865000  0.23851800  0.11013200  1
  O  O60  1  0.65898700  0.27224500  0.89900100  1
  O  O61  1  0.34101300  0.77224500  0.10099900  1
  O  O62  1  0.84101300  0.27224500  0.39900100  1
  O  O63  1  0.28663400  0.03339800  0.89881900  1
