# generated using pymatgen
data_CsNa3U4(MoO10)2
_symmetry_space_group_name_H-M   'P 1'
_cell_length_a   6.73002100
_cell_length_b   6.92751735
_cell_length_c   11.58945659
_cell_angle_alpha   84.02322923
_cell_angle_beta   77.12970132
_cell_angle_gamma   81.13631301
_symmetry_Int_Tables_number   1
_chemical_formula_structural   CsNa3U4(MoO10)2
_chemical_formula_sum   'Cs1 Na3 U4 Mo2 O20'
_cell_volume   519.09372732
_cell_formula_units_Z   1
loop_
 _symmetry_equiv_pos_site_id
 _symmetry_equiv_pos_as_xyz
  1  'x, y, z'
loop_
 _atom_site_type_symbol
 _atom_site_label
 _atom_site_symmetry_multiplicity
 _atom_site_fract_x
 _atom_site_fract_y
 _atom_site_fract_z
 _atom_site_occupancy
  Cs  Cs0  1  0.00000000  0.50000000  0.00000000  1
  Na  Na1  1  0.94488600  0.02224100  0.33215400  1
  Na  Na2  1  0.05511400  0.97775900  0.66784600  1
  Na  Na3  1  0.00000000  0.50000000  0.50000000  1
  U  U4  1  0.50800300  0.24187100  0.56270100  1
  U  U5  1  0.49199700  0.75812900  0.43729900  1
  U  U6  1  0.46134600  0.26711800  0.24720700  1
  U  U7  1  0.53865400  0.73288200  0.75279300  1
  Mo  Mo8  1  0.39151100  0.83009000  0.10180000  1
  Mo  Mo9  1  0.60848900  0.16991000  0.89820000  1
  O  O10  1  0.55486700  0.84164300  0.94669000  1
  O  O11  1  0.44513300  0.15835700  0.05331000  1
  O  O12  1  0.53086300  0.07976900  0.39828100  1
  O  O13  1  0.46913700  0.92023100  0.60171900  1
  O  O14  1  0.79598200  0.19848200  0.52693100  1
  O  O15  1  0.20401800  0.80151800  0.47306900  1
  O  O16  1  0.22001200  0.28099900  0.60382900  1
  O  O17  1  0.77998800  0.71900100  0.39617100  1
  O  O18  1  0.47180500  0.89532300  0.23287900  1
  O  O19  1  0.52819500  0.10467700  0.76712100  1
  O  O20  1  0.17945000  0.27249700  0.29835600  1
  O  O21  1  0.82055000  0.72750300  0.70164400  1
  O  O22  1  0.52978300  0.54175100  0.60795900  1
  O  O23  1  0.47021700  0.45824900  0.39204100  1
  O  O24  1  0.74235100  0.25392600  0.19108500  1
  O  O25  1  0.25764900  0.74607400  0.80891500  1
  O  O26  1  0.41176400  0.56765000  0.13317600  1
  O  O27  1  0.58823600  0.43235000  0.86682400  1
  O  O28  1  0.12782800  0.90279000  0.11415600  1
  O  O29  1  0.87217200  0.09721000  0.88584400  1
