# generated using pymatgen
data_Eu2H16S3O20
_symmetry_space_group_name_H-M   'P 1'
_cell_length_a   7.83076693
_cell_length_b   7.83076693
_cell_length_c   18.90192480
_cell_angle_alpha   78.68693779
_cell_angle_beta   78.68693779
_cell_angle_gamma   53.17203170
_symmetry_Int_Tables_number   1
_chemical_formula_structural   Eu2H16S3O20
_chemical_formula_sum   'Eu4 H32 S6 O40'
_cell_volume   905.17742710
_cell_formula_units_Z   2
loop_
 _symmetry_equiv_pos_site_id
 _symmetry_equiv_pos_as_xyz
  1  'x, y, z'
loop_
 _atom_site_type_symbol
 _atom_site_label
 _atom_site_symmetry_multiplicity
 _atom_site_fract_x
 _atom_site_fract_y
 _atom_site_fract_z
 _atom_site_occupancy
  Eu  Eu0  1  0.30436700  0.35695400  0.39372100  1
  Eu  Eu1  1  0.64304600  0.69563300  0.10627900  1
  Eu  Eu2  1  0.69563300  0.64304600  0.60627900  1
  Eu  Eu3  1  0.35695400  0.30436700  0.89372100  1
  H  H4  1  0.03275600  0.20524400  0.48616300  1
  H  H5  1  0.79475600  0.96724400  0.01383700  1
  H  H6  1  0.96724400  0.79475600  0.51383700  1
  H  H7  1  0.20524400  0.03275600  0.98616300  1
  H  H8  1  0.27696200  0.00794500  0.48463600  1
  H  H9  1  0.99205500  0.72303800  0.01536400  1
  H  H10  1  0.72303800  0.99205500  0.51536400  1
  H  H11  1  0.00794500  0.27696200  0.98463600  1
  H  H12  1  0.65306300  0.44546700  0.35396300  1
  H  H13  1  0.55453300  0.34693700  0.14603700  1
  H  H14  1  0.34693700  0.55453300  0.64603700  1
  H  H15  1  0.44546700  0.65306300  0.85396300  1
  H  H16  1  0.78464300  0.19680500  0.34506700  1
  H  H17  1  0.80319500  0.21535700  0.15493300  1
  H  H18  1  0.21535700  0.80319500  0.65493300  1
  H  H19  1  0.19680500  0.78464300  0.84506700  1
  H  H20  1  0.17506300  0.81094300  0.39659400  1
  H  H21  1  0.18905700  0.82493700  0.10340600  1
  H  H22  1  0.82493700  0.18905700  0.60340600  1
  H  H23  1  0.81094300  0.17506300  0.89659400  1
  H  H24  1  0.33831700  0.68135200  0.45573700  1
  H  H25  1  0.31864800  0.66168300  0.04426300  1
  H  H26  1  0.66168300  0.31864800  0.54426300  1
  H  H27  1  0.68135200  0.33831700  0.95573700  1
  H  H28  1  0.24219200  0.29656600  0.24699900  1
  H  H29  1  0.70343400  0.75780800  0.25300100  1
  H  H30  1  0.75780800  0.70343400  0.75300100  1
  H  H31  1  0.29656600  0.24219200  0.74699900  1
  H  H32  1  0.21890000  0.12843500  0.30264100  1
  H  H33  1  0.87156500  0.78110000  0.19735900  1
  H  H34  1  0.78110000  0.87156500  0.69735900  1
  H  H35  1  0.12843500  0.21890000  0.80264100  1
  S  S36  1  0.31385000  0.25334700  0.58897100  1
  S  S37  1  0.74665300  0.68615000  0.91102900  1
  S  S38  1  0.68615000  0.74665300  0.41102900  1
  S  S39  1  0.25334700  0.31385000  0.08897100  1
  S  S40  1  0.17581100  0.82418900  0.25000000  1
  S  S41  1  0.82418900  0.17581100  0.75000000  1
  O  O42  1  0.17125800  0.13810900  0.45601900  1
  O  O43  1  0.86189100  0.82874200  0.04398100  1
  O  O44  1  0.82874200  0.86189100  0.54398100  1
  O  O45  1  0.13810900  0.17125800  0.95601900  1
  O  O46  1  0.64392700  0.32258800  0.36141900  1
  O  O47  1  0.67741200  0.35607300  0.13858100  1
  O  O48  1  0.35607300  0.67741200  0.63858100  1
  O  O49  1  0.32258800  0.64392700  0.86141900  1
  O  O50  1  0.21903100  0.69784100  0.43796200  1
  O  O51  1  0.30215900  0.78096900  0.06203800  1
  O  O52  1  0.78096900  0.30215900  0.56203800  1
  O  O53  1  0.69784100  0.21903100  0.93796200  1
  O  O54  1  0.24796300  0.23633100  0.29809600  1
  O  O55  1  0.76366900  0.75203700  0.20190400  1
  O  O56  1  0.75203700  0.76366900  0.70190400  1
  O  O57  1  0.23633100  0.24796300  0.79809600  1
  O  O58  1  0.62277100  0.97021000  0.39803000  1
  O  O59  1  0.02979000  0.37722900  0.10197000  1
  O  O60  1  0.37722900  0.02979000  0.60197000  1
  O  O61  1  0.97021000  0.62277100  0.89803000  1
  O  O62  1  0.36833900  0.30594600  0.64820400  1
  O  O63  1  0.69405400  0.63166100  0.85179600  1
  O  O64  1  0.63166100  0.69405400  0.35179600  1
  O  O65  1  0.30594600  0.36833900  0.14820400  1
  O  O66  1  0.43076100  0.27673800  0.51806000  1
  O  O67  1  0.72326200  0.56923900  0.98194000  1
  O  O68  1  0.56923900  0.72326200  0.48194000  1
  O  O69  1  0.27673800  0.43076100  0.01806000  1
  O  O70  1  0.92015900  0.59712700  0.41848400  1
  O  O71  1  0.40287300  0.07984100  0.08151600  1
  O  O72  1  0.07984100  0.40287300  0.58151600  1
  O  O73  1  0.59712700  0.92015900  0.91848400  1
  O  O74  1  0.21857200  0.61745400  0.28727100  1
  O  O75  1  0.38254600  0.78142800  0.21272900  1
  O  O76  1  0.78142800  0.38254600  0.71272900  1
  O  O77  1  0.61745400  0.21857200  0.78727100  1
  O  O78  1  0.08963700  0.97706500  0.30537000  1
  O  O79  1  0.02293500  0.91036300  0.19463000  1
  O  O80  1  0.91036300  0.02293500  0.69463000  1
  O  O81  1  0.97706500  0.08963700  0.80537000  1
