# generated using pymatgen
data_RbMnO4
_symmetry_space_group_name_H-M   'P 1'
_cell_length_a   5.95253500
_cell_length_b   7.82662300
_cell_length_c   9.69293600
_cell_angle_alpha   90.00000000
_cell_angle_beta   90.00000000
_cell_angle_gamma   90.00000000
_symmetry_Int_Tables_number   1
_chemical_formula_structural   RbMnO4
_chemical_formula_sum   'Rb4 Mn4 O16'
_cell_volume   451.57689981
_cell_formula_units_Z   4
loop_
 _symmetry_equiv_pos_site_id
 _symmetry_equiv_pos_as_xyz
  1  'x, y, z'
loop_
 _atom_site_type_symbol
 _atom_site_label
 _atom_site_symmetry_multiplicity
 _atom_site_fract_x
 _atom_site_fract_y
 _atom_site_fract_z
 _atom_site_occupancy
  Rb  Rb0  1  0.25000000  0.84380900  0.81544000  1
  Rb  Rb1  1  0.75000000  0.15619100  0.18456000  1
  Rb  Rb2  1  0.75000000  0.34380900  0.68456000  1
  Rb  Rb3  1  0.25000000  0.65619100  0.31544000  1
  Mn  Mn4  1  0.25000000  0.30337300  0.94182000  1
  Mn  Mn5  1  0.75000000  0.69662700  0.05818000  1
  Mn  Mn6  1  0.75000000  0.80337300  0.55818000  1
  Mn  Mn7  1  0.25000000  0.19662700  0.44182000  1
  O  O8  1  0.52774900  0.81369800  0.08029400  1
  O  O9  1  0.02774900  0.18630200  0.91970600  1
  O  O10  1  0.47225100  0.31369800  0.41970600  1
  O  O11  1  0.97225100  0.68630200  0.58029400  1
  O  O12  1  0.47225100  0.18630200  0.91970600  1
  O  O13  1  0.97225100  0.81369800  0.08029400  1
  O  O14  1  0.52774900  0.68630200  0.58029400  1
  O  O15  1  0.02774900  0.31369800  0.41970600  1
  O  O16  1  0.25000000  0.04319200  0.33021900  1
  O  O17  1  0.75000000  0.95680800  0.66978100  1
  O  O18  1  0.75000000  0.54319200  0.16978100  1
  O  O19  1  0.25000000  0.45680800  0.83021900  1
  O  O20  1  0.25000000  0.12030900  0.59654400  1
  O  O21  1  0.75000000  0.87969100  0.40345600  1
  O  O22  1  0.75000000  0.62030900  0.90345600  1
  O  O23  1  0.25000000  0.37969100  0.09654400  1
