# generated using pymatgen
data_NaNb7V2O14
_symmetry_space_group_name_H-M   'P 1'
_cell_length_a   6.08469127
_cell_length_b   6.08469127
_cell_length_c   18.52480400
_cell_angle_alpha   90.00000000
_cell_angle_beta   90.00000000
_cell_angle_gamma   119.99999203
_symmetry_Int_Tables_number   1
_chemical_formula_structural   NaNb7V2O14
_chemical_formula_sum   'Na2 Nb14 V4 O28'
_cell_volume   593.96572269
_cell_formula_units_Z   2
loop_
 _symmetry_equiv_pos_site_id
 _symmetry_equiv_pos_as_xyz
  1  'x, y, z'
loop_
 _atom_site_type_symbol
 _atom_site_label
 _atom_site_symmetry_multiplicity
 _atom_site_fract_x
 _atom_site_fract_y
 _atom_site_fract_z
 _atom_site_occupancy
  Na  Na0  1  0.00000000  0.00000000  0.25000000  1
  Na  Na1  1  0.00000000  0.00000000  0.75000000  1
  Nb  Nb2  1  0.66666700  0.33333300  0.25000000  1
  Nb  Nb3  1  0.33333300  0.66666700  0.75000000  1
  Nb  Nb4  1  0.30855700  0.15427800  0.06352000  1
  Nb  Nb5  1  0.69144300  0.84572200  0.93648000  1
  Nb  Nb6  1  0.84572200  0.15427800  0.06352000  1
  Nb  Nb7  1  0.69144300  0.84572200  0.56352000  1
  Nb  Nb8  1  0.15427800  0.84572200  0.93648000  1
  Nb  Nb9  1  0.30855700  0.15427800  0.43648000  1
  Nb  Nb10  1  0.84572200  0.69144300  0.06352000  1
  Nb  Nb11  1  0.15427800  0.84572200  0.56352000  1
  Nb  Nb12  1  0.15427800  0.30855700  0.93648000  1
  Nb  Nb13  1  0.84572200  0.15427800  0.43648000  1
  Nb  Nb14  1  0.15427800  0.30855700  0.56352000  1
  Nb  Nb15  1  0.84572200  0.69144300  0.43648000  1
  V  V16  1  0.33333300  0.66666700  0.17413400  1
  V  V17  1  0.66666700  0.33333300  0.82586600  1
  V  V18  1  0.66666700  0.33333300  0.67413400  1
  V  V19  1  0.33333300  0.66666700  0.32586600  1
  O  O20  1  0.16322800  0.32645600  0.12756500  1
  O  O21  1  0.83677200  0.67354400  0.87243500  1
  O  O22  1  0.67354400  0.83677200  0.12756500  1
  O  O23  1  0.83677200  0.67354400  0.62756500  1
  O  O24  1  0.32645600  0.16322800  0.87243500  1
  O  O25  1  0.16322800  0.32645600  0.37243500  1
  O  O26  1  0.16322800  0.83677200  0.12756500  1
  O  O27  1  0.32645600  0.16322800  0.62756500  1
  O  O28  1  0.83677200  0.16322800  0.87243500  1
  O  O29  1  0.67354400  0.83677200  0.37243500  1
  O  O30  1  0.83677200  0.16322800  0.62756500  1
  O  O31  1  0.16322800  0.83677200  0.37243500  1
  O  O32  1  0.33333300  0.66666700  0.63750600  1
  O  O33  1  0.66666700  0.33333300  0.36249400  1
  O  O34  1  0.66666700  0.33333300  0.13750600  1
  O  O35  1  0.33333300  0.66666700  0.86249400  1
  O  O36  1  0.03156700  0.51578300  0.25000000  1
  O  O37  1  0.96843300  0.48421700  0.75000000  1
  O  O38  1  0.48421700  0.51578300  0.25000000  1
  O  O39  1  0.51578300  0.48421700  0.75000000  1
  O  O40  1  0.48421700  0.96843300  0.25000000  1
  O  O41  1  0.51578300  0.03156700  0.75000000  1
  O  O42  1  0.50000000  0.00000000  0.00000000  1
  O  O43  1  0.00000000  0.50000000  0.00000000  1
  O  O44  1  0.50000000  0.00000000  0.50000000  1
  O  O45  1  0.50000000  0.50000000  0.00000000  1
  O  O46  1  0.00000000  0.50000000  0.50000000  1
  O  O47  1  0.50000000  0.50000000  0.50000000  1
