# generated using pymatgen
data_Tb3(Ge3Pt2)2
_symmetry_space_group_name_H-M   'P 1'
_cell_length_a   4.40155000
_cell_length_b   8.86977200
_cell_length_c   25.94230200
_cell_angle_alpha   90.00000000
_cell_angle_beta   90.00000000
_cell_angle_gamma   90.00000000
_symmetry_Int_Tables_number   1
_chemical_formula_structural   Tb3(Ge3Pt2)2
_chemical_formula_sum   'Tb12 Ge24 Pt16'
_cell_volume   1012.80679571
_cell_formula_units_Z   4
loop_
 _symmetry_equiv_pos_site_id
 _symmetry_equiv_pos_as_xyz
  1  'x, y, z'
loop_
 _atom_site_type_symbol
 _atom_site_label
 _atom_site_symmetry_multiplicity
 _atom_site_fract_x
 _atom_site_fract_y
 _atom_site_fract_z
 _atom_site_occupancy
  Tb  Tb0  1  0.25000000  0.37495300  0.27983300  1
  Tb  Tb1  1  0.75000000  0.62504700  0.72016700  1
  Tb  Tb2  1  0.75000000  0.87495300  0.22016700  1
  Tb  Tb3  1  0.25000000  0.12504700  0.77983300  1
  Tb  Tb4  1  0.25000000  0.13472800  0.40754000  1
  Tb  Tb5  1  0.75000000  0.86527200  0.59246000  1
  Tb  Tb6  1  0.75000000  0.63472800  0.09246000  1
  Tb  Tb7  1  0.25000000  0.36527200  0.90754000  1
  Tb  Tb8  1  0.25000000  0.61387900  0.40808500  1
  Tb  Tb9  1  0.75000000  0.38612100  0.59191500  1
  Tb  Tb10  1  0.75000000  0.11387900  0.09191500  1
  Tb  Tb11  1  0.25000000  0.88612100  0.90808500  1
  Ge  Ge12  1  0.25000000  0.72742700  0.28561300  1
  Ge  Ge13  1  0.75000000  0.27257300  0.71438700  1
  Ge  Ge14  1  0.75000000  0.22742700  0.21438700  1
  Ge  Ge15  1  0.25000000  0.77257300  0.78561300  1
  Ge  Ge16  1  0.25000000  0.37405400  0.14240100  1
  Ge  Ge17  1  0.75000000  0.62594600  0.85759900  1
  Ge  Ge18  1  0.75000000  0.87405400  0.35759900  1
  Ge  Ge19  1  0.25000000  0.12594600  0.64240100  1
  Ge  Ge20  1  0.25000000  0.02202800  0.28538800  1
  Ge  Ge21  1  0.75000000  0.97797200  0.71461200  1
  Ge  Ge22  1  0.75000000  0.52202800  0.21461200  1
  Ge  Ge23  1  0.25000000  0.47797200  0.78538800  1
  Ge  Ge24  1  0.25000000  0.87397900  0.13901400  1
  Ge  Ge25  1  0.75000000  0.12602100  0.86098600  1
  Ge  Ge26  1  0.75000000  0.37397900  0.36098600  1
  Ge  Ge27  1  0.25000000  0.62602100  0.63901400  1
  Ge  Ge28  1  0.25000000  0.12749600  0.00292100  1
  Ge  Ge29  1  0.75000000  0.87250400  0.99707900  1
  Ge  Ge30  1  0.75000000  0.62749600  0.49707900  1
  Ge  Ge31  1  0.25000000  0.37250400  0.50292100  1
  Ge  Ge32  1  0.25000000  0.87717900  0.49906800  1
  Ge  Ge33  1  0.75000000  0.12282100  0.50093200  1
  Ge  Ge34  1  0.75000000  0.37717900  0.00093200  1
  Ge  Ge35  1  0.25000000  0.62282100  0.99906800  1
  Pt  Pt36  1  0.25000000  0.62610000  0.18742100  1
  Pt  Pt37  1  0.75000000  0.37390000  0.81257900  1
  Pt  Pt38  1  0.75000000  0.12610000  0.31257900  1
  Pt  Pt39  1  0.25000000  0.87390000  0.68742100  1
  Pt  Pt40  1  0.25000000  0.62812000  0.54455500  1
  Pt  Pt41  1  0.75000000  0.37188000  0.45544500  1
  Pt  Pt42  1  0.75000000  0.12812000  0.95544500  1
  Pt  Pt43  1  0.25000000  0.87188000  0.04455500  1
  Pt  Pt44  1  0.25000000  0.12218200  0.18741900  1
  Pt  Pt45  1  0.75000000  0.87781800  0.81258100  1
  Pt  Pt46  1  0.75000000  0.62218200  0.31258100  1
  Pt  Pt47  1  0.25000000  0.37781800  0.68741900  1
  Pt  Pt48  1  0.25000000  0.37871700  0.04915400  1
  Pt  Pt49  1  0.75000000  0.62128300  0.95084600  1
  Pt  Pt50  1  0.75000000  0.87871700  0.45084600  1
  Pt  Pt51  1  0.25000000  0.12128300  0.54915400  1
