# generated using pymatgen
data_K3Lu(PO4)2
_symmetry_space_group_name_H-M   'P 1'
_cell_length_a   9.68739014
_cell_length_b   9.68739014
_cell_length_c   7.84907800
_cell_angle_alpha   90.00000000
_cell_angle_beta   90.00000000
_cell_angle_gamma   120.00000097
_symmetry_Int_Tables_number   1
_chemical_formula_structural   K3Lu(PO4)2
_chemical_formula_sum   'K9 Lu3 P6 O24'
_cell_volume   637.91505733
_cell_formula_units_Z   3
loop_
 _symmetry_equiv_pos_site_id
 _symmetry_equiv_pos_as_xyz
  1  'x, y, z'
loop_
 _atom_site_type_symbol
 _atom_site_label
 _atom_site_symmetry_multiplicity
 _atom_site_fract_x
 _atom_site_fract_y
 _atom_site_fract_z
 _atom_site_occupancy
  K  K0  1  0.33409100  0.33352500  0.25569900  1
  K  K1  1  0.99943400  0.66590900  0.25569900  1
  K  K2  1  0.66647500  0.00056600  0.25569900  1
  K  K3  1  0.66590900  0.66647500  0.74430100  1
  K  K4  1  0.00056600  0.33409100  0.74430100  1
  K  K5  1  0.33352500  0.99943400  0.74430100  1
  K  K6  1  0.33333300  0.66666700  0.50455600  1
  K  K7  1  0.66666700  0.33333300  0.49544400  1
  K  K8  1  0.00000000  0.00000000  0.50000000  1
  Lu  Lu9  1  0.33333300  0.66666700  0.03286300  1
  Lu  Lu10  1  0.66666700  0.33333300  0.96713700  1
  Lu  Lu11  1  0.00000000  0.00000000  0.00000000  1
  P  P12  1  0.32753200  0.34083600  0.77153000  1
  P  P13  1  0.01330300  0.67246800  0.77153000  1
  P  P14  1  0.65916400  0.98669700  0.77153000  1
  P  P15  1  0.67246800  0.65916400  0.22847000  1
  P  P16  1  0.98669700  0.32753200  0.22847000  1
  P  P17  1  0.34083600  0.01330300  0.22847000  1
  O  O18  1  0.33720700  0.47868600  0.88479800  1
  O  O19  1  0.14147900  0.66279300  0.88479800  1
  O  O20  1  0.52131400  0.85852100  0.88479800  1
  O  O21  1  0.66279300  0.52131400  0.11520200  1
  O  O22  1  0.85852100  0.33720700  0.11520200  1
  O  O23  1  0.47868600  0.14147900  0.11520200  1
  O  O24  1  0.48529000  0.33529000  0.79329900  1
  O  O25  1  0.85000000  0.51471000  0.79329900  1
  O  O26  1  0.66471000  0.15000000  0.79329900  1
  O  O27  1  0.51471000  0.66471000  0.20670100  1
  O  O28  1  0.15000000  0.48529000  0.20670100  1
  O  O29  1  0.33529000  0.85000000  0.20670100  1
  O  O30  1  0.18535200  0.17838400  0.83437800  1
  O  O31  1  0.99303200  0.81464800  0.83437800  1
  O  O32  1  0.82161600  0.00696800  0.83437800  1
  O  O33  1  0.81464800  0.82161600  0.16562200  1
  O  O34  1  0.00696800  0.18535200  0.16562200  1
  O  O35  1  0.17838400  0.99303200  0.16562200  1
  O  O36  1  0.36953700  0.06989000  0.41363000  1
  O  O37  1  0.93011000  0.29964700  0.41363000  1
  O  O38  1  0.70035300  0.63046300  0.41363000  1
  O  O39  1  0.63046300  0.93011000  0.58637000  1
  O  O40  1  0.06989000  0.70035300  0.58637000  1
  O  O41  1  0.29964700  0.36953700  0.58637000  1
