# generated using pymatgen
data_Cs2Sn3HgSe8
_symmetry_space_group_name_H-M   'P 1'
_cell_length_a   8.25886600
_cell_length_b   13.53569500
_cell_length_c   18.97191800
_cell_angle_alpha   90.00000000
_cell_angle_beta   90.00000000
_cell_angle_gamma   90.00000000
_symmetry_Int_Tables_number   1
_chemical_formula_structural   Cs2Sn3HgSe8
_chemical_formula_sum   'Cs8 Sn12 Hg4 Se32'
_cell_volume   2120.86106072
_cell_formula_units_Z   4
loop_
 _symmetry_equiv_pos_site_id
 _symmetry_equiv_pos_as_xyz
  1  'x, y, z'
loop_
 _atom_site_type_symbol
 _atom_site_label
 _atom_site_symmetry_multiplicity
 _atom_site_fract_x
 _atom_site_fract_y
 _atom_site_fract_z
 _atom_site_occupancy
  Cs  Cs0  1  0.74858500  0.62687900  0.04928800  1
  Cs  Cs1  1  0.75141500  0.37312100  0.54928800  1
  Cs  Cs2  1  0.24858500  0.87312100  0.95071200  1
  Cs  Cs3  1  0.25141500  0.12687900  0.45071200  1
  Cs  Cs4  1  0.23895900  0.81127700  0.33995500  1
  Cs  Cs5  1  0.26104100  0.18872300  0.83995500  1
  Cs  Cs6  1  0.73895900  0.68872300  0.66004500  1
  Cs  Cs7  1  0.76104100  0.31127700  0.16004500  1
  Sn  Sn8  1  0.76181200  0.04976900  0.32271700  1
  Sn  Sn9  1  0.73818800  0.95023100  0.82271700  1
  Sn  Sn10  1  0.26181200  0.45023100  0.67728300  1
  Sn  Sn11  1  0.23818800  0.54976900  0.17728300  1
  Sn  Sn12  1  0.73253200  0.93131500  0.48466200  1
  Sn  Sn13  1  0.76746800  0.06868500  0.98466200  1
  Sn  Sn14  1  0.23253200  0.56868500  0.51533800  1
  Sn  Sn15  1  0.26746800  0.43131500  0.01533800  1
  Sn  Sn16  1  0.51470400  0.97994700  0.15308200  1
  Sn  Sn17  1  0.98529600  0.02005300  0.65308200  1
  Sn  Sn18  1  0.01470400  0.52005300  0.84691800  1
  Sn  Sn19  1  0.48529600  0.47994700  0.34691800  1
  Hg  Hg20  1  0.98450700  0.50162700  0.34720500  1
  Hg  Hg21  1  0.51549300  0.49837300  0.84720500  1
  Hg  Hg22  1  0.48450700  0.99837300  0.65279500  1
  Hg  Hg23  1  0.01549300  0.00162700  0.15279500  1
  Se  Se24  1  0.98145400  0.61703800  0.22908800  1
  Se  Se25  1  0.51854600  0.38296200  0.72908800  1
  Se  Se26  1  0.48145400  0.88296200  0.77091200  1
  Se  Se27  1  0.01854600  0.11703800  0.27091200  1
  Se  Se28  1  0.97421600  0.62694800  0.45892100  1
  Se  Se29  1  0.52578400  0.37305200  0.95892100  1
  Se  Se30  1  0.47421600  0.87305200  0.54107900  1
  Se  Se31  1  0.02578400  0.12694800  0.04107900  1
  Se  Se32  1  0.76407800  0.87250800  0.15881200  1
  Se  Se33  1  0.73592200  0.12749200  0.65881200  1
  Se  Se34  1  0.26407800  0.62749200  0.84118800  1
  Se  Se35  1  0.23592200  0.37250800  0.34118800  1
  Se  Se36  1  0.76609400  0.62938300  0.85197600  1
  Se  Se37  1  0.73390600  0.37061700  0.35197600  1
  Se  Se38  1  0.26609400  0.87061700  0.14802400  1
  Se  Se39  1  0.23390600  0.12938300  0.64802400  1
  Se  Se40  1  0.75904700  0.86346400  0.35679500  1
  Se  Se41  1  0.74095300  0.13653600  0.85679500  1
  Se  Se42  1  0.25904700  0.63653600  0.64320500  1
  Se  Se43  1  0.24095300  0.36346400  0.14320500  1
  Se  Se44  1  0.73414100  0.11826700  0.45136000  1
  Se  Se45  1  0.76585900  0.88173300  0.95136000  1
  Se  Se46  1  0.23414100  0.38173300  0.54864000  1
  Se  Se47  1  0.26585900  0.61826700  0.04864000  1
  Se  Se48  1  0.50410100  0.60019500  0.23861600  1
  Se  Se49  1  0.99589900  0.39980500  0.73861600  1
  Se  Se50  1  0.00410100  0.89980500  0.76138400  1
  Se  Se51  1  0.49589900  0.10019500  0.26138400  1
  Se  Se52  1  0.49730500  0.61070200  0.44907000  1
  Se  Se53  1  0.00269500  0.38929800  0.94907000  1
  Se  Se54  1  0.99730500  0.88929800  0.55093000  1
  Se  Se55  1  0.50269500  0.11070200  0.05093000  1
