# generated using pymatgen
data_BaNiIO6
_symmetry_space_group_name_H-M   'P 1'
_cell_length_a   5.16952391
_cell_length_b   5.16952391
_cell_length_c   5.84559700
_cell_angle_alpha   90.00000000
_cell_angle_beta   90.00000000
_cell_angle_gamma   119.99999879
_symmetry_Int_Tables_number   1
_chemical_formula_structural   BaNiIO6
_chemical_formula_sum   'Ba1 Ni1 I1 O6'
_cell_volume   135.28841364
_cell_formula_units_Z   1
loop_
 _symmetry_equiv_pos_site_id
 _symmetry_equiv_pos_as_xyz
  1  'x, y, z'
loop_
 _atom_site_type_symbol
 _atom_site_label
 _atom_site_symmetry_multiplicity
 _atom_site_fract_x
 _atom_site_fract_y
 _atom_site_fract_z
 _atom_site_occupancy
  Ba  Ba0  1  0.00000000  0.00000000  0.00000000  1
  Ni  Ni1  1  0.33333300  0.66666700  0.50000000  1
  I  I2  1  0.66666700  0.33333300  0.50000000  1
  O  O3  1  0.39146500  0.00798000  0.68714000  1
  O  O4  1  0.99202000  0.38348500  0.68714000  1
  O  O5  1  0.61651500  0.60853500  0.68714000  1
  O  O6  1  0.99202000  0.60853500  0.31286000  1
  O  O7  1  0.61651500  0.00798000  0.31286000  1
  O  O8  1  0.39146500  0.38348500  0.31286000  1
