# generated using pymatgen
data_Ga3Te3Br
_symmetry_space_group_name_H-M   'P 1'
_cell_length_a   4.16785000
_cell_length_b   11.22358300
_cell_length_c   20.02602400
_cell_angle_alpha   90.00000000
_cell_angle_beta   90.00000000
_cell_angle_gamma   90.00000000
_symmetry_Int_Tables_number   1
_chemical_formula_structural   Ga3Te3Br
_chemical_formula_sum   'Ga12 Te12 Br4'
_cell_volume   936.78156428
_cell_formula_units_Z   4
loop_
 _symmetry_equiv_pos_site_id
 _symmetry_equiv_pos_as_xyz
  1  'x, y, z'
loop_
 _atom_site_type_symbol
 _atom_site_label
 _atom_site_symmetry_multiplicity
 _atom_site_fract_x
 _atom_site_fract_y
 _atom_site_fract_z
 _atom_site_occupancy
  Ga  Ga0  1  0.75000000  0.83092600  0.50536100  1
  Ga  Ga1  1  0.25000000  0.16907400  0.49463900  1
  Ga  Ga2  1  0.25000000  0.66907400  0.00536100  1
  Ga  Ga3  1  0.75000000  0.33092600  0.99463900  1
  Ga  Ga4  1  0.75000000  0.94771000  0.40052400  1
  Ga  Ga5  1  0.25000000  0.05229000  0.59947600  1
  Ga  Ga6  1  0.25000000  0.55229000  0.90052400  1
  Ga  Ga7  1  0.75000000  0.44771000  0.09947600  1
  Ga  Ga8  1  0.75000000  0.83893800  0.86662400  1
  Ga  Ga9  1  0.25000000  0.16106200  0.13337600  1
  Ga  Ga10  1  0.25000000  0.66106200  0.36662400  1
  Ga  Ga11  1  0.75000000  0.33893800  0.63337600  1
  Te  Te12  1  0.75000000  0.77180800  0.30869300  1
  Te  Te13  1  0.25000000  0.22819200  0.69130700  1
  Te  Te14  1  0.25000000  0.72819200  0.80869300  1
  Te  Te15  1  0.75000000  0.27180800  0.19130700  1
  Te  Te16  1  0.75000000  0.82447800  0.99939200  1
  Te  Te17  1  0.25000000  0.17552200  0.00060800  1
  Te  Te18  1  0.25000000  0.67552200  0.49939200  1
  Te  Te19  1  0.75000000  0.32447800  0.50060800  1
  Te  Te20  1  0.75000000  0.90973700  0.63157600  1
  Te  Te21  1  0.25000000  0.09026300  0.36842400  1
  Te  Te22  1  0.25000000  0.59026300  0.13157600  1
  Te  Te23  1  0.75000000  0.40973700  0.86842400  1
  Br  Br24  1  0.75000000  0.53990100  0.66718400  1
  Br  Br25  1  0.25000000  0.46009900  0.33281600  1
  Br  Br26  1  0.25000000  0.96009900  0.16718400  1
  Br  Br27  1  0.75000000  0.03990100  0.83281600  1
