# generated using pymatgen
data_RbCaHfF7
_symmetry_space_group_name_H-M   'P 1'
_cell_length_a   6.63360188
_cell_length_b   6.63360188
_cell_length_c   8.61232800
_cell_angle_alpha   90.00000000
_cell_angle_beta   90.00000000
_cell_angle_gamma   116.91493891
_symmetry_Int_Tables_number   1
_chemical_formula_structural   RbCaHfF7
_chemical_formula_sum   'Rb2 Ca2 Hf2 F14'
_cell_volume   337.93110443
_cell_formula_units_Z   2
loop_
 _symmetry_equiv_pos_site_id
 _symmetry_equiv_pos_as_xyz
  1  'x, y, z'
loop_
 _atom_site_type_symbol
 _atom_site_label
 _atom_site_symmetry_multiplicity
 _atom_site_fract_x
 _atom_site_fract_y
 _atom_site_fract_z
 _atom_site_occupancy
  Rb  Rb0  1  0.00000000  0.00000000  0.00000000  1
  Rb  Rb1  1  0.00000000  0.00000000  0.50000000  1
  Ca  Ca2  1  0.30930600  0.69069400  0.75000000  1
  Ca  Ca3  1  0.69069400  0.30930600  0.25000000  1
  Hf  Hf4  1  0.69333500  0.30666500  0.75000000  1
  Hf  Hf5  1  0.30666500  0.69333500  0.25000000  1
  F  F6  1  0.35113900  0.06628500  0.75000000  1
  F  F7  1  0.64886100  0.93371500  0.25000000  1
  F  F8  1  0.93371500  0.64886100  0.75000000  1
  F  F9  1  0.06628500  0.35113900  0.25000000  1
  F  F10  1  0.51228900  0.48771100  0.75000000  1
  F  F11  1  0.48771100  0.51228900  0.25000000  1
  F  F12  1  0.70292700  0.29707300  0.98416700  1
  F  F13  1  0.29707300  0.70292700  0.01583300  1
  F  F14  1  0.29707300  0.70292700  0.48416700  1
  F  F15  1  0.70292700  0.29707300  0.51583300  1
  F  F16  1  0.67120500  0.97952400  0.75000000  1
  F  F17  1  0.32879500  0.02047600  0.25000000  1
  F  F18  1  0.02047600  0.32879500  0.75000000  1
  F  F19  1  0.97952400  0.67120500  0.25000000  1
