# generated using pymatgen
data_RbHo2Cu3S5
_symmetry_space_group_name_H-M   'P 1'
_cell_length_a   7.23759720
_cell_length_b   7.23759720
_cell_length_c   16.49585800
_cell_angle_alpha   90.00000000
_cell_angle_beta   90.00000000
_cell_angle_gamma   148.38533473
_symmetry_Int_Tables_number   1
_chemical_formula_structural   RbHo2Cu3S5
_chemical_formula_sum   'Rb2 Ho4 Cu6 S10'
_cell_volume   452.96429657
_cell_formula_units_Z   2
loop_
 _symmetry_equiv_pos_site_id
 _symmetry_equiv_pos_as_xyz
  1  'x, y, z'
loop_
 _atom_site_type_symbol
 _atom_site_label
 _atom_site_symmetry_multiplicity
 _atom_site_fract_x
 _atom_site_fract_y
 _atom_site_fract_z
 _atom_site_occupancy
  Rb  Rb0  1  0.56554700  0.43445300  0.75000000  1
  Rb  Rb1  1  0.43445300  0.56554700  0.25000000  1
  Ho  Ho2  1  0.30801500  0.69198500  0.59272800  1
  Ho  Ho3  1  0.69198500  0.30801500  0.40727200  1
  Ho  Ho4  1  0.30801500  0.69198500  0.90727200  1
  Ho  Ho5  1  0.69198500  0.30801500  0.09272800  1
  Cu  Cu6  1  0.08410600  0.91589400  0.96367800  1
  Cu  Cu7  1  0.91589400  0.08410600  0.03632200  1
  Cu  Cu8  1  0.91589400  0.08410600  0.46367800  1
  Cu  Cu9  1  0.84485300  0.15514700  0.75000000  1
  Cu  Cu10  1  0.15514700  0.84485300  0.25000000  1
  Cu  Cu11  1  0.08410600  0.91589400  0.53632200  1
  S  S12  1  0.66773200  0.33226800  0.56949000  1
  S  S13  1  0.33226800  0.66773200  0.43051000  1
  S  S14  1  0.33226800  0.66773200  0.06949000  1
  S  S15  1  0.66773200  0.33226800  0.93051000  1
  S  S16  1  0.73778100  0.26221900  0.25000000  1
  S  S17  1  0.26221900  0.73778100  0.75000000  1
  S  S18  1  0.06141400  0.93858600  0.11310800  1
  S  S19  1  0.06141400  0.93858600  0.38689200  1
  S  S20  1  0.93858600  0.06141400  0.88689200  1
  S  S21  1  0.93858600  0.06141400  0.61310800  1
