# generated using pymatgen
data_Rb2MoP2O9
_symmetry_space_group_name_H-M   'P 1'
_cell_length_a   8.37288628
_cell_length_b   8.37288628
_cell_length_c   16.03747498
_cell_angle_alpha   82.42763879
_cell_angle_beta   82.42763879
_cell_angle_gamma   60.93938067
_symmetry_Int_Tables_number   1
_chemical_formula_structural   Rb2MoP2O9
_chemical_formula_sum   'Rb8 Mo4 P8 O36'
_cell_volume   971.21246394
_cell_formula_units_Z   4
loop_
 _symmetry_equiv_pos_site_id
 _symmetry_equiv_pos_as_xyz
  1  'x, y, z'
loop_
 _atom_site_type_symbol
 _atom_site_label
 _atom_site_symmetry_multiplicity
 _atom_site_fract_x
 _atom_site_fract_y
 _atom_site_fract_z
 _atom_site_occupancy
  Rb  Rb0  1  0.49142500  0.78910800  0.26666300  1
  Rb  Rb1  1  0.50857500  0.21089200  0.73333700  1
  Rb  Rb2  1  0.21089200  0.50857500  0.23333700  1
  Rb  Rb3  1  0.78910800  0.49142500  0.76666300  1
  Rb  Rb4  1  0.55214400  0.73620600  0.52190700  1
  Rb  Rb5  1  0.44785600  0.26379400  0.47809300  1
  Rb  Rb6  1  0.26379400  0.44785600  0.97809300  1
  Rb  Rb7  1  0.73620600  0.55214400  0.02190700  1
  Mo  Mo8  1  0.76220000  0.01323600  0.13815400  1
  Mo  Mo9  1  0.23780000  0.98676400  0.86184600  1
  Mo  Mo10  1  0.98676400  0.23780000  0.36184600  1
  Mo  Mo11  1  0.01323600  0.76220000  0.63815400  1
  P  P12  1  0.23331200  0.85043400  0.07220900  1
  P  P13  1  0.76668800  0.14956600  0.92779100  1
  P  P14  1  0.14956600  0.76668800  0.42779100  1
  P  P15  1  0.85043400  0.23331200  0.57220900  1
  P  P16  1  0.80307100  0.95045400  0.34280800  1
  P  P17  1  0.19692900  0.04954600  0.65719200  1
  P  P18  1  0.04954600  0.19692900  0.15719200  1
  P  P19  1  0.95045400  0.80307100  0.84280800  1
  O  O20  1  0.38025000  0.68994300  0.11952700  1
  O  O21  1  0.61975000  0.31005700  0.88047300  1
  O  O22  1  0.31005700  0.61975000  0.38047300  1
  O  O23  1  0.68994300  0.38025000  0.61952700  1
  O  O24  1  0.21217600  0.03829000  0.10150600  1
  O  O25  1  0.78782400  0.96171000  0.89849400  1
  O  O26  1  0.96171000  0.78782400  0.39849400  1
  O  O27  1  0.03829000  0.21217600  0.60150600  1
  O  O28  1  0.62876300  0.94357800  0.37329500  1
  O  O29  1  0.37123700  0.05642200  0.62670500  1
  O  O30  1  0.05642200  0.37123700  0.12670500  1
  O  O31  1  0.94357800  0.62876300  0.87329500  1
  O  O32  1  0.55079000  0.16016600  0.18624000  1
  O  O33  1  0.44921000  0.83983400  0.81376000  1
  O  O34  1  0.83983400  0.44921000  0.31376000  1
  O  O35  1  0.16016600  0.55079000  0.68624000  1
  O  O36  1  0.73204300  0.82989800  0.11838400  1
  O  O37  1  0.26795700  0.17010200  0.88161600  1
  O  O38  1  0.17010200  0.26795700  0.38161600  1
  O  O39  1  0.82989800  0.73204300  0.61838400  1
  O  O40  1  0.69949900  0.14837000  0.02317300  1
  O  O41  1  0.30050100  0.85163000  0.97682700  1
  O  O42  1  0.85163000  0.30050100  0.47682700  1
  O  O43  1  0.14837000  0.69949900  0.52317300  1
  O  O44  1  0.79876900  0.13128700  0.35426300  1
  O  O45  1  0.20123100  0.86871300  0.64573700  1
  O  O46  1  0.86871300  0.20123100  0.14573700  1
  O  O47  1  0.13128700  0.79876900  0.85426300  1
  O  O48  1  0.85713800  0.04563300  0.58359900  1
  O  O49  1  0.14286200  0.95436700  0.41640100  1
  O  O50  1  0.95436700  0.14286200  0.91640100  1
  O  O51  1  0.04563300  0.85713800  0.08359900  1
  O  O52  1  0.87640700  0.89226300  0.25030200  1
  O  O53  1  0.12359300  0.10773700  0.74969800  1
  O  O54  1  0.10773700  0.12359300  0.24969800  1
  O  O55  1  0.89226300  0.87640700  0.75030200  1
