# generated using pymatgen
data_Y3ReO8
_symmetry_space_group_name_H-M   'P 1'
_cell_length_a   6.05847600
_cell_length_b   7.29283600
_cell_length_c   14.56455519
_cell_angle_alpha   68.50231844
_cell_angle_beta   90.00000000
_cell_angle_gamma   90.00000000
_symmetry_Int_Tables_number   1
_chemical_formula_structural   Y3ReO8
_chemical_formula_sum   'Y12 Re4 O32'
_cell_volume   598.74498470
_cell_formula_units_Z   4
loop_
 _symmetry_equiv_pos_site_id
 _symmetry_equiv_pos_as_xyz
  1  'x, y, z'
loop_
 _atom_site_type_symbol
 _atom_site_label
 _atom_site_symmetry_multiplicity
 _atom_site_fract_x
 _atom_site_fract_y
 _atom_site_fract_z
 _atom_site_occupancy
  Y  Y0  1  0.80153300  0.66038800  0.05510500  1
  Y  Y1  1  0.30153300  0.33961200  0.44489500  1
  Y  Y2  1  0.19846700  0.33961200  0.94489500  1
  Y  Y3  1  0.69846700  0.66038800  0.55510500  1
  Y  Y4  1  0.75953000  0.59403300  0.29795000  1
  Y  Y5  1  0.25953000  0.40596700  0.20205000  1
  Y  Y6  1  0.24047000  0.40596700  0.70205000  1
  Y  Y7  1  0.74047000  0.59403300  0.79795000  1
  Y  Y8  1  0.31076900  0.89217600  0.16736300  1
  Y  Y9  1  0.81076900  0.10782400  0.33263700  1
  Y  Y10  1  0.68923100  0.10782400  0.83263700  1
  Y  Y11  1  0.18923100  0.89217600  0.66736300  1
  Re  Re12  1  0.75470400  0.17874400  0.09016300  1
  Re  Re13  1  0.25470400  0.82125600  0.40983700  1
  Re  Re14  1  0.24529600  0.82125600  0.90983700  1
  Re  Re15  1  0.74529600  0.17874400  0.59016300  1
  O  O16  1  0.69587800  0.02487700  0.01914100  1
  O  O17  1  0.19587800  0.97512300  0.48085900  1
  O  O18  1  0.30412200  0.97512300  0.98085900  1
  O  O19  1  0.80412200  0.02487700  0.51914100  1
  O  O20  1  0.45522700  0.25139600  0.09690100  1
  O  O21  1  0.95522700  0.74860400  0.40309900  1
  O  O22  1  0.54477300  0.74860400  0.90309900  1
  O  O23  1  0.04477300  0.25139600  0.59690100  1
  O  O24  1  0.85568800  0.33227100  0.17013000  1
  O  O25  1  0.35568800  0.66772900  0.32987000  1
  O  O26  1  0.14431200  0.66772900  0.82987000  1
  O  O27  1  0.64431200  0.33227100  0.67013000  1
  O  O28  1  0.05432700  0.11960400  0.08779100  1
  O  O29  1  0.55432700  0.88039600  0.41220900  1
  O  O30  1  0.94567300  0.88039600  0.91220900  1
  O  O31  1  0.44567300  0.11960400  0.58779100  1
  O  O32  1  0.96999900  0.31313500  0.82699200  1
  O  O33  1  0.46999900  0.68686500  0.67300800  1
  O  O34  1  0.03000100  0.68686500  0.17300800  1
  O  O35  1  0.53000100  0.31313500  0.32699200  1
  O  O36  1  0.96983000  0.64845200  0.65773200  1
  O  O37  1  0.46983000  0.35154800  0.84226800  1
  O  O38  1  0.03017000  0.35154800  0.34226800  1
  O  O39  1  0.53017000  0.64845200  0.15773200  1
  O  O40  1  0.69514800  0.41591900  0.48009300  1
  O  O41  1  0.19514800  0.58408100  0.01990700  1
  O  O42  1  0.30485200  0.58408100  0.51990700  1
  O  O43  1  0.80485200  0.41591900  0.98009300  1
  O  O44  1  0.79354600  0.96664300  0.71372900  1
  O  O45  1  0.29354600  0.03335700  0.78627100  1
  O  O46  1  0.20645400  0.03335700  0.28627100  1
  O  O47  1  0.70645400  0.96664300  0.21372900  1
