# generated using pymatgen
data_Ca3RhN3
_symmetry_space_group_name_H-M   'P 1'
_cell_length_a   7.34644329
_cell_length_b   7.34553153
_cell_length_c   4.97201900
_cell_angle_alpha   90.00000000
_cell_angle_beta   90.00000000
_cell_angle_gamma   119.71020169
_symmetry_Int_Tables_number   1
_chemical_formula_structural   Ca3RhN3
_chemical_formula_sum   'Ca6 Rh2 N6'
_cell_volume   233.03685075
_cell_formula_units_Z   2
loop_
 _symmetry_equiv_pos_site_id
 _symmetry_equiv_pos_as_xyz
  1  'x, y, z'
loop_
 _atom_site_type_symbol
 _atom_site_label
 _atom_site_symmetry_multiplicity
 _atom_site_fract_x
 _atom_site_fract_y
 _atom_site_fract_z
 _atom_site_occupancy
  Ca  Ca0  1  0.90601500  0.63608400  0.25000000  1
  Ca  Ca1  1  0.73639900  0.09421900  0.25000000  1
  Ca  Ca2  1  0.35964000  0.26649900  0.25000000  1
  Ca  Ca3  1  0.09398500  0.36391600  0.75000000  1
  Ca  Ca4  1  0.26360100  0.90578100  0.75000000  1
  Ca  Ca5  1  0.64036000  0.73350100  0.75000000  1
  Rh  Rh6  1  0.66555800  0.33181700  0.75000000  1
  Rh  Rh7  1  0.33444200  0.66818300  0.25000000  1
  N  N8  1  0.90019200  0.61165700  0.75000000  1
  N  N9  1  0.71706100  0.09956700  0.75000000  1
  N  N10  1  0.38387900  0.28425100  0.75000000  1
  N  N11  1  0.09980800  0.38834300  0.25000000  1
  N  N12  1  0.28293900  0.90043300  0.25000000  1
  N  N13  1  0.61612100  0.71574900  0.25000000  1
