# generated using pymatgen
data_Eu(MgP)2
_symmetry_space_group_name_H-M   'P 1'
_cell_length_a   4.32928630
_cell_length_b   4.32928630
_cell_length_c   7.19309800
_cell_angle_alpha   90.00000000
_cell_angle_beta   90.00000000
_cell_angle_gamma   120.00000455
_symmetry_Int_Tables_number   1
_chemical_formula_structural   Eu(MgP)2
_chemical_formula_sum   'Eu1 Mg2 P2'
_cell_volume   116.75599862
_cell_formula_units_Z   1
loop_
 _symmetry_equiv_pos_site_id
 _symmetry_equiv_pos_as_xyz
  1  'x, y, z'
loop_
 _atom_site_type_symbol
 _atom_site_label
 _atom_site_symmetry_multiplicity
 _atom_site_fract_x
 _atom_site_fract_y
 _atom_site_fract_z
 _atom_site_occupancy
  Eu  Eu0  1  0.00000000  0.00000000  0.00000000  1
  Mg  Mg1  1  0.33333300  0.66666700  0.63199000  1
  Mg  Mg2  1  0.66666700  0.33333300  0.36801000  1
  P  P3  1  0.33333300  0.66666700  0.25855200  1
  P  P4  1  0.66666700  0.33333300  0.74144800  1
