# generated using pymatgen
data_InAgGeSe4
_symmetry_space_group_name_H-M   'P 1'
_cell_length_a   6.95214606
_cell_length_b   6.95214606
_cell_length_c   6.95214606
_cell_angle_alpha   129.91168471
_cell_angle_beta   129.91168471
_cell_angle_gamma   73.54799065
_symmetry_Int_Tables_number   1
_chemical_formula_structural   InAgGeSe4
_chemical_formula_sum   'In1 Ag1 Ge1 Se4'
_cell_volume   192.92190198
_cell_formula_units_Z   1
loop_
 _symmetry_equiv_pos_site_id
 _symmetry_equiv_pos_as_xyz
  1  'x, y, z'
loop_
 _atom_site_type_symbol
 _atom_site_label
 _atom_site_symmetry_multiplicity
 _atom_site_fract_x
 _atom_site_fract_y
 _atom_site_fract_z
 _atom_site_occupancy
  In  In0  1  0.50000000  0.50000000  0.00000000  1
  Ag  Ag1  1  0.25000000  0.75000000  0.50000000  1
  Ge  Ge2  1  0.75000000  0.25000000  0.50000000  1
  Se  Se3  1  0.08622600  0.12671400  0.45066500  1
  Se  Se4  1  0.67604800  0.63556100  0.54933500  1
  Se  Se5  1  0.36443900  0.91377400  0.04048700  1
  Se  Se6  1  0.87328600  0.32395200  0.95951300  1
