# generated using pymatgen
data_CaSbAu
_symmetry_space_group_name_H-M   'P 1'
_cell_length_a   4.69878819
_cell_length_b   4.69878819
_cell_length_c   8.23900400
_cell_angle_alpha   90.00000000
_cell_angle_beta   90.00000000
_cell_angle_gamma   120.00000274
_symmetry_Int_Tables_number   1
_chemical_formula_structural   CaSbAu
_chemical_formula_sum   'Ca2 Sb2 Au2'
_cell_volume   157.53500509
_cell_formula_units_Z   2
loop_
 _symmetry_equiv_pos_site_id
 _symmetry_equiv_pos_as_xyz
  1  'x, y, z'
loop_
 _atom_site_type_symbol
 _atom_site_label
 _atom_site_symmetry_multiplicity
 _atom_site_fract_x
 _atom_site_fract_y
 _atom_site_fract_z
 _atom_site_occupancy
  Ca  Ca0  1  0.00000000  0.00000000  0.00000000  1
  Ca  Ca1  1  0.00000000  0.00000000  0.50000000  1
  Sb  Sb2  1  0.33333300  0.66666700  0.75000000  1
  Sb  Sb3  1  0.66666700  0.33333300  0.25000000  1
  Au  Au4  1  0.33333300  0.66666700  0.25000000  1
  Au  Au5  1  0.66666700  0.33333300  0.75000000  1
