# generated using pymatgen
data_MgP4O11
_symmetry_space_group_name_H-M   'P 1'
_cell_length_a   22.56848600
_cell_length_b   5.47310700
_cell_length_c   7.57533917
_cell_angle_alpha   68.74468499
_cell_angle_beta   90.00000000
_cell_angle_gamma   90.00000000
_symmetry_Int_Tables_number   1
_chemical_formula_structural   MgP4O11
_chemical_formula_sum   'Mg4 P16 O44'
_cell_volume   872.05194918
_cell_formula_units_Z   4
loop_
 _symmetry_equiv_pos_site_id
 _symmetry_equiv_pos_as_xyz
  1  'x, y, z'
loop_
 _atom_site_type_symbol
 _atom_site_label
 _atom_site_symmetry_multiplicity
 _atom_site_fract_x
 _atom_site_fract_y
 _atom_site_fract_z
 _atom_site_occupancy
  Mg  Mg0  1  0.61466900  0.00154500  0.63509100  1
  Mg  Mg1  1  0.11466900  0.99845500  0.86490900  1
  Mg  Mg2  1  0.38533100  0.99845500  0.36490900  1
  Mg  Mg3  1  0.88533100  0.00154500  0.13509100  1
  P  P4  1  0.07133100  0.68503000  0.30591200  1
  P  P5  1  0.57133100  0.31497000  0.19408800  1
  P  P6  1  0.92866900  0.31497000  0.69408800  1
  P  P7  1  0.42866900  0.68503000  0.80591200  1
  P  P8  1  0.19504400  0.40368100  0.02761400  1
  P  P9  1  0.69504400  0.59631900  0.47238600  1
  P  P10  1  0.80495600  0.59631900  0.97238600  1
  P  P11  1  0.30495600  0.40368100  0.52761400  1
  P  P12  1  0.96285500  0.40153000  0.29992600  1
  P  P13  1  0.46285500  0.59847000  0.20007400  1
  P  P14  1  0.03714500  0.59847000  0.70007400  1
  P  P15  1  0.53714500  0.40153000  0.79992600  1
  P  P16  1  0.32069600  0.32523600  0.94104300  1
  P  P17  1  0.82069600  0.67476400  0.55895700  1
  P  P18  1  0.67930400  0.67476400  0.05895700  1
  P  P19  1  0.17930400  0.32523600  0.44104300  1
  O  O20  1  0.33541700  0.65919700  0.47640700  1
  O  O21  1  0.83541700  0.34080300  0.02359300  1
  O  O22  1  0.66458300  0.34080300  0.52359300  1
  O  O23  1  0.16458300  0.65919700  0.97640700  1
  O  O24  1  0.54904000  0.21637500  0.70291600  1
  O  O25  1  0.04904000  0.78362500  0.79708400  1
  O  O26  1  0.45096000  0.78362500  0.29708400  1
  O  O27  1  0.95096000  0.21637500  0.20291600  1
  O  O28  1  0.56550100  0.66226500  0.75164200  1
  O  O29  1  0.06550100  0.33773500  0.74835800  1
  O  O30  1  0.43449900  0.33773500  0.24835800  1
  O  O31  1  0.93449900  0.66226500  0.25164200  1
  O  O32  1  0.32037500  0.20002100  0.44935100  1
  O  O33  1  0.82037500  0.79997900  0.05064900  1
  O  O34  1  0.67962500  0.79997900  0.55064900  1
  O  O35  1  0.17962500  0.20002100  0.94935100  1
  O  O36  1  0.30519000  0.25900300  0.76082200  1
  O  O37  1  0.95343000  0.23515300  0.52853400  1
  O  O38  1  0.54657000  0.23515300  0.02853400  1
  O  O39  1  0.04657000  0.76484700  0.47146600  1
  O  O40  1  0.46443200  0.43811000  0.80113000  1
  O  O41  1  0.96443200  0.56189000  0.69887000  1
  O  O42  1  0.53556800  0.56189000  0.19887000  1
  O  O43  1  0.03556800  0.43811000  0.30113000  1
  O  O44  1  0.19481000  0.25900300  0.26082200  1
  O  O45  1  0.69481000  0.74099700  0.23917800  1
  O  O46  1  0.80519000  0.74099700  0.73917800  1
  O  O47  1  0.26593000  0.46864800  0.99045500  1
  O  O48  1  0.42578700  0.91297300  0.62839000  1
  O  O49  1  0.92578700  0.08702700  0.87161000  1
  O  O50  1  0.57421300  0.08702700  0.37161000  1
  O  O51  1  0.07421300  0.91297300  0.12839000  1
  O  O52  1  0.36451700  0.56885700  0.87502600  1
  O  O53  1  0.86451700  0.43114300  0.62497400  1
  O  O54  1  0.63548300  0.43114300  0.12497400  1
  O  O55  1  0.13548300  0.56885700  0.37502600  1
  O  O56  1  0.34290100  0.09250300  0.09625300  1
  O  O57  1  0.84290100  0.90749700  0.40374700  1
  O  O58  1  0.65709900  0.90749700  0.90374700  1
  O  O59  1  0.15709900  0.09250300  0.59625300  1
  O  O60  1  0.23407000  0.46864800  0.49045500  1
  O  O61  1  0.73407000  0.53135200  0.00954500  1
  O  O62  1  0.76593000  0.53135200  0.50954500  1
  O  O63  1  0.45343000  0.76484700  0.97146600  1
