# generated using pymatgen
data_Ce(Al5Fe)2
_symmetry_space_group_name_H-M   'P 1'
_cell_length_a   6.77209853
_cell_length_b   6.77209853
_cell_length_c   8.95486200
_cell_angle_alpha   90.00000000
_cell_angle_beta   90.00000000
_cell_angle_gamma   97.71945090
_symmetry_Int_Tables_number   1
_chemical_formula_structural   Ce(Al5Fe)2
_chemical_formula_sum   'Ce2 Al20 Fe4'
_cell_volume   406.96003924
_cell_formula_units_Z   2
loop_
 _symmetry_equiv_pos_site_id
 _symmetry_equiv_pos_as_xyz
  1  'x, y, z'
loop_
 _atom_site_type_symbol
 _atom_site_label
 _atom_site_symmetry_multiplicity
 _atom_site_fract_x
 _atom_site_fract_y
 _atom_site_fract_z
 _atom_site_occupancy
  Ce  Ce0  1  0.87655500  0.12344500  0.75000000  1
  Ce  Ce1  1  0.12344500  0.87655500  0.25000000  1
  Al  Al2  1  0.41162400  0.13295900  0.75000000  1
  Al  Al3  1  0.13295900  0.41162400  0.25000000  1
  Al  Al4  1  0.58837600  0.86704100  0.25000000  1
  Al  Al5  1  0.86704100  0.58837600  0.75000000  1
  Al  Al6  1  0.52165600  0.77820400  0.75000000  1
  Al  Al7  1  0.77820400  0.52165600  0.25000000  1
  Al  Al8  1  0.47834400  0.22179600  0.25000000  1
  Al  Al9  1  0.22179600  0.47834400  0.75000000  1
  Al  Al10  1  0.83903900  0.16096100  0.40149200  1
  Al  Al11  1  0.16096100  0.83903900  0.59850800  1
  Al  Al12  1  0.83903900  0.16096100  0.09850800  1
  Al  Al13  1  0.16096100  0.83903900  0.90149200  1
  Al  Al14  1  0.62416900  0.37583100  0.94809900  1
  Al  Al15  1  0.37583100  0.62416900  0.05190100  1
  Al  Al16  1  0.62416900  0.37583100  0.55190100  1
  Al  Al17  1  0.37583100  0.62416900  0.44809900  1
  Al  Al18  1  0.77244900  0.77244900  0.00000000  1
  Al  Al19  1  0.77244900  0.77244900  0.50000000  1
  Al  Al20  1  0.22755100  0.22755100  0.00000000  1
  Al  Al21  1  0.22755100  0.22755100  0.50000000  1
  Fe  Fe22  1  0.50000000  0.00000000  0.00000000  1
  Fe  Fe23  1  0.00000000  0.50000000  0.00000000  1
  Fe  Fe24  1  0.50000000  0.00000000  0.50000000  1
  Fe  Fe25  1  0.00000000  0.50000000  0.50000000  1
