# generated using pymatgen
data_V2Cd5(P2O7)4
_symmetry_space_group_name_H-M   'P 1'
_cell_length_a   6.73640606
_cell_length_b   6.73640606
_cell_length_c   24.56723000
_cell_angle_alpha   90.00000000
_cell_angle_beta   90.00000000
_cell_angle_gamma   97.11191847
_symmetry_Int_Tables_number   1
_chemical_formula_structural   V2Cd5(P2O7)4
_chemical_formula_sum   'V4 Cd10 P16 O56'
_cell_volume   1106.26306888
_cell_formula_units_Z   2
loop_
 _symmetry_equiv_pos_site_id
 _symmetry_equiv_pos_as_xyz
  1  'x, y, z'
loop_
 _atom_site_type_symbol
 _atom_site_label
 _atom_site_symmetry_multiplicity
 _atom_site_fract_x
 _atom_site_fract_y
 _atom_site_fract_z
 _atom_site_occupancy
  V  V0  1  0.76360900  0.07888800  0.62175700  1
  V  V1  1  0.07888800  0.76360900  0.37824300  1
  V  V2  1  0.23639100  0.92111200  0.12175700  1
  V  V3  1  0.92111200  0.23639100  0.87824300  1
  Cd  Cd4  1  0.41948200  0.41948200  0.50000000  1
  Cd  Cd5  1  0.58051800  0.58051800  0.00000000  1
  Cd  Cd6  1  0.54109000  0.83682700  0.86353600  1
  Cd  Cd7  1  0.83682700  0.54109000  0.13646400  1
  Cd  Cd8  1  0.45891000  0.16317300  0.36353600  1
  Cd  Cd9  1  0.16317300  0.45891000  0.63646400  1
  Cd  Cd10  1  0.80825500  0.80825500  0.50000000  1
  Cd  Cd11  1  0.19174500  0.19174500  0.00000000  1
  Cd  Cd12  1  0.79678200  0.20321800  0.25000000  1
  Cd  Cd13  1  0.20321800  0.79678200  0.75000000  1
  P  P14  1  0.24601300  0.97633900  0.61468600  1
  P  P15  1  0.97633900  0.24601300  0.38531400  1
  P  P16  1  0.75398700  0.02366100  0.11468600  1
  P  P17  1  0.02366100  0.75398700  0.88531400  1
  P  P18  1  0.10229200  0.69498900  0.00596800  1
  P  P19  1  0.69498900  0.10229200  0.99403200  1
  P  P20  1  0.89770800  0.30501100  0.50596800  1
  P  P21  1  0.30501100  0.89770800  0.49403200  1
  P  P22  1  0.42447300  0.33162600  0.87399800  1
  P  P23  1  0.33162600  0.42447300  0.12600200  1
  P  P24  1  0.57552700  0.66837400  0.37399800  1
  P  P25  1  0.66837400  0.57552700  0.62600200  1
  P  P26  1  0.70379900  0.80499100  0.73057900  1
  P  P27  1  0.80499100  0.70379900  0.26942100  1
  P  P28  1  0.29620100  0.19500900  0.23057900  1
  P  P29  1  0.19500900  0.29620100  0.76942100  1
  O  O30  1  0.73590100  0.88063500  0.24178500  1
  O  O31  1  0.88063500  0.73590100  0.75821500  1
  O  O32  1  0.26409900  0.11936500  0.74178500  1
  O  O33  1  0.11936500  0.26409900  0.25821500  1
  O  O34  1  0.89691100  0.60966800  0.02592900  1
  O  O35  1  0.60966800  0.89691100  0.97407100  1
  O  O36  1  0.10308900  0.39033200  0.52592900  1
  O  O37  1  0.39033200  0.10308900  0.47407100  1
  O  O38  1  0.09769400  0.80540500  0.94777500  1
  O  O39  1  0.80540500  0.09769400  0.05222500  1
  O  O40  1  0.90230600  0.19459500  0.44777500  1
  O  O41  1  0.19459500  0.90230600  0.55222500  1
  O  O42  1  0.46154800  0.07632700  0.61437500  1
  O  O43  1  0.07632700  0.46154800  0.38562500  1
  O  O44  1  0.53845200  0.92367300  0.11437500  1
  O  O45  1  0.92367300  0.53845200  0.88562500  1
  O  O46  1  0.80376700  0.12116700  0.53993600  1
  O  O47  1  0.12116700  0.80376700  0.46006400  1
  O  O48  1  0.19623300  0.87883300  0.03993600  1
  O  O49  1  0.87883300  0.19623300  0.96006400  1
  O  O50  1  0.24254400  0.53406100  0.00202400  1
  O  O51  1  0.53406100  0.24254400  0.99797600  1
  O  O52  1  0.75745600  0.46593900  0.50202400  1
  O  O53  1  0.46593900  0.75745600  0.49797600  1
  O  O54  1  0.50166700  0.52907700  0.90202500  1
  O  O55  1  0.52907700  0.50166700  0.09797500  1
  O  O56  1  0.49833300  0.47092300  0.40202500  1
  O  O57  1  0.47092300  0.49833300  0.59797500  1
  O  O58  1  0.75003800  0.00090500  0.69728000  1
  O  O59  1  0.00090500  0.75003800  0.30272000  1
  O  O60  1  0.24996200  0.99909500  0.19728000  1
  O  O61  1  0.99909500  0.24996200  0.80272000  1
  O  O62  1  0.80987900  0.40991900  0.62876200  1
  O  O63  1  0.40991900  0.80987900  0.37123800  1
  O  O64  1  0.19012100  0.59008100  0.12876200  1
  O  O65  1  0.59008100  0.19012100  0.87123800  1
  O  O66  1  0.77125700  0.77154400  0.59951300  1
  O  O67  1  0.77154400  0.77125700  0.40048700  1
  O  O68  1  0.22874300  0.22845600  0.09951300  1
  O  O69  1  0.22845600  0.22874300  0.90048700  1
  O  O70  1  0.46794800  0.18351000  0.27076400  1
  O  O71  1  0.18351000  0.46794800  0.72923600  1
  O  O72  1  0.53205200  0.81649000  0.77076400  1
  O  O73  1  0.81649000  0.53205200  0.22923600  1
  O  O74  1  0.08805500  0.12195100  0.62501900  1
  O  O75  1  0.12195100  0.08805500  0.37498100  1
  O  O76  1  0.91194500  0.87804900  0.12501900  1
  O  O77  1  0.87804900  0.91194500  0.87498100  1
  O  O78  1  0.36835500  0.38818500  0.81297200  1
  O  O79  1  0.38818500  0.36835500  0.18702800  1
  O  O80  1  0.63164500  0.61181500  0.31297200  1
  O  O81  1  0.61181500  0.63164500  0.68702800  1
  O  O82  1  0.79462500  0.20796400  0.15044700  1
  O  O83  1  0.20796400  0.79462500  0.84955300  1
  O  O84  1  0.20537500  0.79203600  0.65044700  1
  O  O85  1  0.79203600  0.20537500  0.34955300  1
