# generated using pymatgen
data_Sm2(Ga3Ir)3
_symmetry_space_group_name_H-M   'P 1'
_cell_length_a   7.62645531
_cell_length_b   7.62645531
_cell_length_c   9.58569500
_cell_angle_alpha   90.00000000
_cell_angle_beta   90.00000000
_cell_angle_gamma   119.89319340
_symmetry_Int_Tables_number   1
_chemical_formula_structural   Sm2(Ga3Ir)3
_chemical_formula_sum   'Sm4 Ga18 Ir6'
_cell_volume   483.35487504
_cell_formula_units_Z   2
loop_
 _symmetry_equiv_pos_site_id
 _symmetry_equiv_pos_as_xyz
  1  'x, y, z'
loop_
 _atom_site_type_symbol
 _atom_site_label
 _atom_site_symmetry_multiplicity
 _atom_site_fract_x
 _atom_site_fract_y
 _atom_site_fract_z
 _atom_site_occupancy
  Sm  Sm0  1  0.99702800  0.66792800  0.25000000  1
  Sm  Sm1  1  0.00297200  0.33207200  0.75000000  1
  Sm  Sm2  1  0.66792800  0.99702800  0.25000000  1
  Sm  Sm3  1  0.33207200  0.00297200  0.75000000  1
  Ga  Ga4  1  0.12773800  0.12773700  0.25000000  1
  Ga  Ga5  1  0.87226300  0.87226200  0.75000000  1
  Ga  Ga6  1  0.00064300  0.33385300  0.07844300  1
  Ga  Ga7  1  0.99935700  0.66614700  0.92155700  1
  Ga  Ga8  1  0.99935700  0.66614700  0.57844300  1
  Ga  Ga9  1  0.33385300  0.00064300  0.42155700  1
  Ga  Ga10  1  0.00064300  0.33385300  0.42155700  1
  Ga  Ga11  1  0.66614700  0.99935700  0.57844300  1
  Ga  Ga12  1  0.66614700  0.99935700  0.92155700  1
  Ga  Ga13  1  0.33385300  0.00064300  0.07844300  1
  Ga  Ga14  1  0.33377500  0.33377500  0.56109900  1
  Ga  Ga15  1  0.66622500  0.66622500  0.43890100  1
  Ga  Ga16  1  0.66622500  0.66622500  0.06109900  1
  Ga  Ga17  1  0.33377500  0.33377500  0.93890100  1
  Ga  Ga18  1  0.33813700  0.54436400  0.25000000  1
  Ga  Ga19  1  0.66186300  0.45563600  0.75000000  1
  Ga  Ga20  1  0.54436400  0.33813700  0.25000000  1
  Ga  Ga21  1  0.45563600  0.66186300  0.75000000  1
  Ir  Ir22  1  0.67103100  0.32896900  0.00000000  1
  Ir  Ir23  1  0.32896900  0.67103100  0.00000000  1
  Ir  Ir24  1  0.32896900  0.67103100  0.50000000  1
  Ir  Ir25  1  0.67103100  0.32896900  0.50000000  1
  Ir  Ir26  1  0.00000000  0.00000000  0.00000000  1
  Ir  Ir27  1  0.00000000  0.00000000  0.50000000  1
