# generated using pymatgen
data_Ba2Eu3Si7
_symmetry_space_group_name_H-M   'P 1'
_cell_length_a   9.32479084
_cell_length_b   9.32479084
_cell_length_c   4.13342500
_cell_angle_alpha   90.00000000
_cell_angle_beta   90.00000000
_cell_angle_gamma   120.00000599
_symmetry_Int_Tables_number   1
_chemical_formula_structural   Ba2Eu3Si7
_chemical_formula_sum   'Ba2 Eu3 Si7'
_cell_volume   311.25681277
_cell_formula_units_Z   1
loop_
 _symmetry_equiv_pos_site_id
 _symmetry_equiv_pos_as_xyz
  1  'x, y, z'
loop_
 _atom_site_type_symbol
 _atom_site_label
 _atom_site_symmetry_multiplicity
 _atom_site_fract_x
 _atom_site_fract_y
 _atom_site_fract_z
 _atom_site_occupancy
  Ba  Ba0  1  0.33333300  0.66666700  0.00000000  1
  Ba  Ba1  1  0.66666700  0.33333300  0.00000000  1
  Eu  Eu2  1  0.00000000  0.74838000  0.50000000  1
  Eu  Eu3  1  0.25162000  0.25162000  0.50000000  1
  Eu  Eu4  1  0.74838000  0.00000000  0.50000000  1
  Si  Si5  1  0.00000000  0.00000000  0.00000000  1
  Si  Si6  1  0.00000000  0.25789000  0.00000000  1
  Si  Si7  1  0.74211000  0.74211000  0.00000000  1
  Si  Si8  1  0.25789000  0.00000000  0.00000000  1
  Si  Si9  1  0.00000000  0.39967600  0.50000000  1
  Si  Si10  1  0.60032400  0.60032400  0.50000000  1
  Si  Si11  1  0.39967600  0.00000000  0.50000000  1
