# generated using pymatgen
data_Ti2Te3
_symmetry_space_group_name_H-M   'P 1'
_cell_length_a   7.44305878
_cell_length_b   7.44305878
_cell_length_c   7.44305868
_cell_angle_alpha   54.20659218
_cell_angle_beta   54.20659218
_cell_angle_gamma   54.20659760
_symmetry_Int_Tables_number   1
_chemical_formula_structural   Ti2Te3
_chemical_formula_sum   'Ti4 Te6'
_cell_volume   252.14311013
_cell_formula_units_Z   2
loop_
 _symmetry_equiv_pos_site_id
 _symmetry_equiv_pos_as_xyz
  1  'x, y, z'
loop_
 _atom_site_type_symbol
 _atom_site_label
 _atom_site_symmetry_multiplicity
 _atom_site_fract_x
 _atom_site_fract_y
 _atom_site_fract_z
 _atom_site_occupancy
  Ti  Ti0  1  0.50000000  0.50000000  0.50000000  1
  Ti  Ti1  1  0.15977900  0.15977900  0.15977900  1
  Ti  Ti2  1  0.84022100  0.84022100  0.84022100  1
  Ti  Ti3  1  0.00000000  0.00000000  0.00000000  1
  Te  Te4  1  0.92324500  0.57429500  0.26434500  1
  Te  Te5  1  0.26434500  0.92324500  0.57429500  1
  Te  Te6  1  0.57429500  0.26434500  0.92324500  1
  Te  Te7  1  0.42570500  0.73565500  0.07675500  1
  Te  Te8  1  0.73565500  0.07675500  0.42570500  1
  Te  Te9  1  0.07675500  0.42570500  0.73565500  1
