# generated using pymatgen
data_PrGa3Pd
_symmetry_space_group_name_H-M   'P 1'
_cell_length_a   6.19776332
_cell_length_b   6.19776332
_cell_length_c   6.19776332
_cell_angle_alpha   139.78847130
_cell_angle_beta   139.78847130
_cell_angle_gamma   58.17461593
_symmetry_Int_Tables_number   1
_chemical_formula_structural   PrGa3Pd
_chemical_formula_sum   'Pr1 Ga3 Pd1'
_cell_volume   98.33603129
_cell_formula_units_Z   1
loop_
 _symmetry_equiv_pos_site_id
 _symmetry_equiv_pos_as_xyz
  1  'x, y, z'
loop_
 _atom_site_type_symbol
 _atom_site_label
 _atom_site_symmetry_multiplicity
 _atom_site_fract_x
 _atom_site_fract_y
 _atom_site_fract_z
 _atom_site_occupancy
  Pr  Pr0  1  0.00000000  0.00000000  0.00000000  1
  Ga  Ga1  1  0.61561300  0.61561300  0.00000000  1
  Ga  Ga2  1  0.38438700  0.38438700  0.00000000  1
  Ga  Ga3  1  0.75000000  0.25000000  0.50000000  1
  Pd  Pd4  1  0.25000000  0.75000000  0.50000000  1
