# generated using pymatgen
data_NaSc(SeO3)2
_symmetry_space_group_name_H-M   'P 1'
_cell_length_a   5.57198900
_cell_length_b   8.29111700
_cell_length_c   13.03045600
_cell_angle_alpha   90.00000000
_cell_angle_beta   90.00000000
_cell_angle_gamma   90.00000000
_symmetry_Int_Tables_number   1
_chemical_formula_structural   NaSc(SeO3)2
_chemical_formula_sum   'Na4 Sc4 Se8 O24'
_cell_volume   601.98117206
_cell_formula_units_Z   4
loop_
 _symmetry_equiv_pos_site_id
 _symmetry_equiv_pos_as_xyz
  1  'x, y, z'
loop_
 _atom_site_type_symbol
 _atom_site_label
 _atom_site_symmetry_multiplicity
 _atom_site_fract_x
 _atom_site_fract_y
 _atom_site_fract_z
 _atom_site_occupancy
  Na  Na0  1  0.25000000  0.01167500  0.88765300  1
  Na  Na1  1  0.25000000  0.48832500  0.38765300  1
  Na  Na2  1  0.75000000  0.98832500  0.11234700  1
  Na  Na3  1  0.75000000  0.51167500  0.61234700  1
  Sc  Sc4  1  0.25000000  0.20001100  0.59998000  1
  Sc  Sc5  1  0.25000000  0.29998900  0.09998000  1
  Sc  Sc6  1  0.75000000  0.79998900  0.40002000  1
  Sc  Sc7  1  0.75000000  0.70001100  0.90002000  1
  Se  Se8  1  0.25000000  0.78193300  0.56964300  1
  Se  Se9  1  0.25000000  0.71806700  0.06964300  1
  Se  Se10  1  0.75000000  0.21806700  0.43035700  1
  Se  Se11  1  0.75000000  0.28193300  0.93035700  1
  Se  Se12  1  0.25000000  0.49561200  0.79242800  1
  Se  Se13  1  0.25000000  0.00438800  0.29242800  1
  Se  Se14  1  0.75000000  0.50438800  0.20757200  1
  Se  Se15  1  0.75000000  0.99561200  0.70757200  1
  O  O16  1  0.25000000  0.97756900  0.52679000  1
  O  O17  1  0.25000000  0.52243100  0.02679000  1
  O  O18  1  0.75000000  0.02243100  0.47321000  1
  O  O19  1  0.75000000  0.47756900  0.97321000  1
  O  O20  1  0.25000000  0.43633600  0.66551500  1
  O  O21  1  0.25000000  0.06366400  0.16551500  1
  O  O22  1  0.75000000  0.56366400  0.33448500  1
  O  O23  1  0.75000000  0.93633600  0.83448500  1
  O  O24  1  0.48875300  0.69951200  0.50273700  1
  O  O25  1  0.01124700  0.80048800  0.00273700  1
  O  O26  1  0.98875300  0.30048800  0.49726300  1
  O  O27  1  0.51124700  0.19951200  0.99726300  1
  O  O28  1  0.51124700  0.30048800  0.49726300  1
  O  O29  1  0.98875300  0.19951200  0.99726300  1
  O  O30  1  0.01124700  0.69951200  0.50273700  1
  O  O31  1  0.48875300  0.80048800  0.00273700  1
  O  O32  1  0.50746400  0.12492700  0.71037600  1
  O  O33  1  0.99253600  0.37507300  0.21037600  1
  O  O34  1  0.00746400  0.87507300  0.28962400  1
  O  O35  1  0.49253600  0.62492700  0.78962400  1
  O  O36  1  0.49253600  0.87507300  0.28962400  1
  O  O37  1  0.00746400  0.62492700  0.78962400  1
  O  O38  1  0.99253600  0.12492700  0.71037600  1
  O  O39  1  0.50746400  0.37507300  0.21037600  1
