# generated using pymatgen
data_Gd2Si2O7
_symmetry_space_group_name_H-M   'P 1'
_cell_length_a   5.12741500
_cell_length_b   8.34110700
_cell_length_c   14.00390000
_cell_angle_alpha   90.00000000
_cell_angle_beta   90.00000000
_cell_angle_gamma   90.00000000
_symmetry_Int_Tables_number   1
_chemical_formula_structural   Gd2Si2O7
_chemical_formula_sum   'Gd8 Si8 O28'
_cell_volume   598.92323651
_cell_formula_units_Z   4
loop_
 _symmetry_equiv_pos_site_id
 _symmetry_equiv_pos_as_xyz
  1  'x, y, z'
loop_
 _atom_site_type_symbol
 _atom_site_label
 _atom_site_symmetry_multiplicity
 _atom_site_fract_x
 _atom_site_fract_y
 _atom_site_fract_z
 _atom_site_occupancy
  Gd  Gd0  1  0.84185700  0.00794600  0.12575000  1
  Gd  Gd1  1  0.15814300  0.50794600  0.87425000  1
  Gd  Gd2  1  0.65814300  0.00794600  0.62575000  1
  Gd  Gd3  1  0.34185700  0.50794600  0.37425000  1
  Gd  Gd4  1  0.84185700  0.49205400  0.12575000  1
  Gd  Gd5  1  0.15814300  0.99205400  0.87425000  1
  Gd  Gd6  1  0.65814300  0.49205400  0.62575000  1
  Gd  Gd7  1  0.34185700  0.99205400  0.37425000  1
  Si  Si8  1  0.12494400  0.75000000  0.53868100  1
  Si  Si9  1  0.87505600  0.25000000  0.46131900  1
  Si  Si10  1  0.37505600  0.75000000  0.03868100  1
  Si  Si11  1  0.62494400  0.25000000  0.96131900  1
  Si  Si12  1  0.87873900  0.75000000  0.31999500  1
  Si  Si13  1  0.12126100  0.25000000  0.68000500  1
  Si  Si14  1  0.62126100  0.75000000  0.81999500  1
  Si  Si15  1  0.37873900  0.25000000  0.18000500  1
  O  O16  1  0.85182500  0.75000000  0.59833200  1
  O  O17  1  0.14817500  0.25000000  0.40166800  1
  O  O18  1  0.64817500  0.75000000  0.09833200  1
  O  O19  1  0.35182500  0.25000000  0.90166800  1
  O  O20  1  0.29186900  0.91595200  0.54659400  1
  O  O21  1  0.70813100  0.41595200  0.45340600  1
  O  O22  1  0.20813100  0.91595200  0.04659400  1
  O  O23  1  0.79186900  0.41595200  0.95340600  1
  O  O24  1  0.29186900  0.58404800  0.54659400  1
  O  O25  1  0.70813100  0.08404800  0.45340600  1
  O  O26  1  0.20813100  0.58404800  0.04659400  1
  O  O27  1  0.79186900  0.08404800  0.95340600  1
  O  O28  1  0.06188100  0.75000000  0.41982900  1
  O  O29  1  0.93811900  0.25000000  0.58017100  1
  O  O30  1  0.43811900  0.75000000  0.91982900  1
  O  O31  1  0.56188100  0.25000000  0.08017100  1
  O  O32  1  0.48549000  0.08766000  0.23175200  1
  O  O33  1  0.51451000  0.58766000  0.76824800  1
  O  O34  1  0.01451000  0.08766000  0.73175200  1
  O  O35  1  0.98549000  0.58766000  0.26824800  1
  O  O36  1  0.48549000  0.41234000  0.23175200  1
  O  O37  1  0.51451000  0.91234000  0.76824800  1
  O  O38  1  0.01451000  0.41234000  0.73175200  1
  O  O39  1  0.98549000  0.91234000  0.26824800  1
  O  O40  1  0.06986000  0.25000000  0.15449900  1
  O  O41  1  0.93014000  0.75000000  0.84550100  1
  O  O42  1  0.43014000  0.25000000  0.65449900  1
  O  O43  1  0.56986000  0.75000000  0.34550100  1
