# generated using pymatgen
data_BaNaSc(BO3)2
_symmetry_space_group_name_H-M   'P 1'
_cell_length_a   12.02432538
_cell_length_b   12.02432538
_cell_length_c   12.02432492
_cell_angle_alpha   25.42715750
_cell_angle_beta   25.42715750
_cell_angle_gamma   25.42715560
_symmetry_Int_Tables_number   1
_chemical_formula_structural   BaNaSc(BO3)2
_chemical_formula_sum   'Ba2 Na2 Sc2 B4 O12'
_cell_volume   282.11568439
_cell_formula_units_Z   2
loop_
 _symmetry_equiv_pos_site_id
 _symmetry_equiv_pos_as_xyz
  1  'x, y, z'
loop_
 _atom_site_type_symbol
 _atom_site_label
 _atom_site_symmetry_multiplicity
 _atom_site_fract_x
 _atom_site_fract_y
 _atom_site_fract_z
 _atom_site_occupancy
  Ba  Ba0  1  0.89683100  0.89683100  0.89683100  1
  Ba  Ba1  1  0.10316900  0.10316900  0.10316900  1
  Na  Na2  1  0.62066300  0.62066300  0.62066300  1
  Na  Na3  1  0.37933700  0.37933700  0.37933700  1
  Sc  Sc4  1  0.00000000  0.00000000  0.00000000  1
  Sc  Sc5  1  0.50000000  0.50000000  0.50000000  1
  B  B6  1  0.29579500  0.29579500  0.29579500  1
  B  B7  1  0.70420500  0.70420500  0.70420500  1
  B  B8  1  0.20295000  0.20295000  0.20295000  1
  B  B9  1  0.79705000  0.79705000  0.79705000  1
  O  O10  1  0.18205500  0.10937400  0.59637500  1
  O  O11  1  0.59637500  0.18205500  0.10937400  1
  O  O12  1  0.10937400  0.59637500  0.18205500  1
  O  O13  1  0.81794500  0.89062600  0.40362500  1
  O  O14  1  0.40362500  0.81794500  0.89062600  1
  O  O15  1  0.89062600  0.40362500  0.81794500  1
  O  O16  1  0.35395300  0.35446300  0.90199000  1
  O  O17  1  0.90199000  0.35395300  0.35446300  1
  O  O18  1  0.35446300  0.90199000  0.35395300  1
  O  O19  1  0.64604700  0.64553700  0.09801000  1
  O  O20  1  0.09801000  0.64604700  0.64553700  1
  O  O21  1  0.64553700  0.09801000  0.64604700  1
