# generated using pymatgen
data_SrGa2(SiO4)2
_symmetry_space_group_name_H-M   'P 1'
_cell_length_a   9.61765900
_cell_length_b   8.50431000
_cell_length_c   9.13560829
_cell_angle_alpha   89.31636239
_cell_angle_beta   90.00000000
_cell_angle_gamma   90.00000000
_symmetry_Int_Tables_number   1
_chemical_formula_structural   SrGa2(SiO4)2
_chemical_formula_sum   'Sr4 Ga8 Si8 O32'
_cell_volume   747.16240698
_cell_formula_units_Z   4
loop_
 _symmetry_equiv_pos_site_id
 _symmetry_equiv_pos_as_xyz
  1  'x, y, z'
loop_
 _atom_site_type_symbol
 _atom_site_label
 _atom_site_symmetry_multiplicity
 _atom_site_fract_x
 _atom_site_fract_y
 _atom_site_fract_z
 _atom_site_occupancy
  Sr  Sr0  1  0.08543500  0.74853600  0.38900600  1
  Sr  Sr1  1  0.58543500  0.25146400  0.11099400  1
  Sr  Sr2  1  0.91456500  0.25146400  0.61099400  1
  Sr  Sr3  1  0.41456500  0.74853600  0.88900600  1
  Ga  Ga4  1  0.30950000  0.42693100  0.55442100  1
  Ga  Ga5  1  0.80950000  0.57306900  0.94557900  1
  Ga  Ga6  1  0.69050000  0.57306900  0.44557900  1
  Ga  Ga7  1  0.19050000  0.42693100  0.05442100  1
  Ga  Ga8  1  0.07595900  0.93007700  0.77407000  1
  Ga  Ga9  1  0.57595900  0.06992300  0.72593000  1
  Ga  Ga10  1  0.92404100  0.06992300  0.22593000  1
  Ga  Ga11  1  0.42404100  0.93007700  0.27407000  1
  Si  Si12  1  0.58262400  0.44026100  0.74190100  1
  Si  Si13  1  0.08262400  0.55973900  0.75809900  1
  Si  Si14  1  0.41737600  0.55973900  0.25809900  1
  Si  Si15  1  0.91737600  0.44026100  0.24190100  1
  Si  Si16  1  0.79864000  0.94578700  0.93703300  1
  Si  Si17  1  0.29864000  0.05421300  0.56296700  1
  Si  Si18  1  0.20136000  0.05421300  0.06296700  1
  Si  Si19  1  0.70136000  0.94578700  0.43703300  1
  O  O20  1  0.57578100  0.26368300  0.81828800  1
  O  O21  1  0.07578100  0.73631700  0.68171200  1
  O  O22  1  0.42421900  0.73631700  0.18171200  1
  O  O23  1  0.92421900  0.26368300  0.31828800  1
  O  O24  1  0.35383200  0.22559200  0.50714600  1
  O  O25  1  0.85383200  0.77440800  0.99285400  1
  O  O26  1  0.64616800  0.77440800  0.49285400  1
  O  O27  1  0.14616800  0.22559200  0.00714600  1
  O  O28  1  0.30584900  0.56350300  0.39379200  1
  O  O29  1  0.80584900  0.43649700  0.10620800  1
  O  O30  1  0.69415100  0.43649700  0.60620800  1
  O  O31  1  0.19415100  0.56350300  0.89379200  1
  O  O32  1  0.30101200  0.92695300  0.42819100  1
  O  O33  1  0.80101200  0.07304700  0.07180900  1
  O  O34  1  0.69898800  0.07304700  0.57180900  1
  O  O35  1  0.19898800  0.92695300  0.92819100  1
  O  O36  1  0.12836200  0.44091600  0.62495600  1
  O  O37  1  0.62836200  0.55908400  0.87504400  1
  O  O38  1  0.87163800  0.55908400  0.37504400  1
  O  O39  1  0.37163800  0.44091600  0.12495600  1
  O  O40  1  0.09732700  0.98434700  0.19303800  1
  O  O41  1  0.59732700  0.01565300  0.30696200  1
  O  O42  1  0.90267300  0.01565300  0.80696200  1
  O  O43  1  0.40267300  0.98434700  0.69303800  1
  O  O44  1  0.06808600  0.51142800  0.19001700  1
  O  O45  1  0.56808600  0.48857200  0.30998300  1
  O  O46  1  0.93191400  0.48857200  0.80998300  1
  O  O47  1  0.43191400  0.51142800  0.69001700  1
  O  O48  1  0.36363600  0.06161700  0.12166700  1
  O  O49  1  0.86363600  0.93838300  0.37833300  1
  O  O50  1  0.63636400  0.93838300  0.87833300  1
  O  O51  1  0.13636400  0.06161700  0.62166700  1
