# generated using pymatgen
data_CoSe2O5
_symmetry_space_group_name_H-M   'P 1'
_cell_length_a   6.14540000
_cell_length_b   6.98090200
_cell_length_c   10.51419800
_cell_angle_alpha   90.00000000
_cell_angle_beta   90.00000000
_cell_angle_gamma   90.00000000
_symmetry_Int_Tables_number   1
_chemical_formula_structural   CoSe2O5
_chemical_formula_sum   'Co4 Se8 O20'
_cell_volume   451.06366946
_cell_formula_units_Z   4
loop_
 _symmetry_equiv_pos_site_id
 _symmetry_equiv_pos_as_xyz
  1  'x, y, z'
loop_
 _atom_site_type_symbol
 _atom_site_label
 _atom_site_symmetry_multiplicity
 _atom_site_fract_x
 _atom_site_fract_y
 _atom_site_fract_z
 _atom_site_occupancy
  Co  Co0  1  0.75000000  0.00000000  0.06479600  1
  Co  Co1  1  0.25000000  0.50000000  0.43520400  1
  Co  Co2  1  0.25000000  0.00000000  0.93520400  1
  Co  Co3  1  0.75000000  0.50000000  0.56479600  1
  Se  Se4  1  0.46419000  0.63665800  0.15348500  1
  Se  Se5  1  0.96419000  0.86334200  0.34651500  1
  Se  Se6  1  0.53581000  0.13665800  0.34651500  1
  Se  Se7  1  0.03581000  0.36334200  0.15348500  1
  Se  Se8  1  0.96419000  0.63665800  0.84651400  1
  Se  Se9  1  0.46419000  0.86334200  0.65348600  1
  Se  Se10  1  0.03581000  0.13665800  0.65348600  1
  Se  Se11  1  0.53581000  0.36334200  0.84651400  1
  O  O12  1  0.75000000  0.00000000  0.43529100  1
  O  O13  1  0.25000000  0.50000000  0.06470900  1
  O  O14  1  0.25000000  0.00000000  0.56470900  1
  O  O15  1  0.75000000  0.50000000  0.93529100  1
  O  O16  1  0.05228200  0.15476400  0.06641200  1
  O  O17  1  0.55228200  0.34523600  0.43358800  1
  O  O18  1  0.94771800  0.65476400  0.43358800  1
  O  O19  1  0.44771800  0.84523600  0.06641200  1
  O  O20  1  0.94771800  0.84523600  0.93358800  1
  O  O21  1  0.44771800  0.65476400  0.56641200  1
  O  O22  1  0.05228200  0.34523600  0.56641200  1
  O  O23  1  0.55228200  0.15476400  0.93358800  1
  O  O24  1  0.67026700  0.19564500  0.21018800  1
  O  O25  1  0.17026700  0.30435500  0.28981200  1
  O  O26  1  0.32973300  0.69564500  0.28981200  1
  O  O27  1  0.82973300  0.80435500  0.21018800  1
  O  O28  1  0.32973300  0.80435500  0.78981200  1
  O  O29  1  0.82973300  0.69564500  0.71018800  1
  O  O30  1  0.67026700  0.30435500  0.71018800  1
  O  O31  1  0.17026700  0.19564500  0.78981200  1
