# generated using pymatgen
data_Ta3As
_symmetry_space_group_name_H-M   'P 1'
_cell_length_a   10.31967800
_cell_length_b   10.31967800
_cell_length_c   5.22642200
_cell_angle_alpha   90.00000000
_cell_angle_beta   90.00000000
_cell_angle_gamma   90.00000000
_symmetry_Int_Tables_number   1
_chemical_formula_structural   Ta3As
_chemical_formula_sum   'Ta24 As8'
_cell_volume   556.59175174
_cell_formula_units_Z   8
loop_
 _symmetry_equiv_pos_site_id
 _symmetry_equiv_pos_as_xyz
  1  'x, y, z'
loop_
 _atom_site_type_symbol
 _atom_site_label
 _atom_site_symmetry_multiplicity
 _atom_site_fract_x
 _atom_site_fract_y
 _atom_site_fract_z
 _atom_site_occupancy
  Ta  Ta0  1  0.90302200  0.58502700  0.02530400  1
  Ta  Ta1  1  0.09697800  0.41497300  0.02530400  1
  Ta  Ta2  1  0.91497300  0.40302200  0.52530400  1
  Ta  Ta3  1  0.08502700  0.59697800  0.52530400  1
  Ta  Ta4  1  0.59697800  0.91497300  0.47469600  1
  Ta  Ta5  1  0.40302200  0.08502700  0.47469600  1
  Ta  Ta6  1  0.58502700  0.09697800  0.97469600  1
  Ta  Ta7  1  0.41497300  0.90302200  0.97469600  1
  Ta  Ta8  1  0.85013300  0.01694400  0.72811300  1
  Ta  Ta9  1  0.14986700  0.98305600  0.72811300  1
  Ta  Ta10  1  0.48305600  0.35013300  0.22811300  1
  Ta  Ta11  1  0.51694400  0.64986700  0.22811300  1
  Ta  Ta12  1  0.64986700  0.48305600  0.77188700  1
  Ta  Ta13  1  0.35013300  0.51694400  0.77188700  1
  Ta  Ta14  1  0.01694400  0.14986700  0.27188700  1
  Ta  Ta15  1  0.98305600  0.85013300  0.27188700  1
  Ta  Ta16  1  0.28604800  0.18855400  0.98999000  1
  Ta  Ta17  1  0.71395200  0.81144600  0.98999000  1
  Ta  Ta18  1  0.31144600  0.78604800  0.48999000  1
  Ta  Ta19  1  0.68855400  0.21395200  0.48999000  1
  Ta  Ta20  1  0.21395200  0.31144600  0.51001000  1
  Ta  Ta21  1  0.78604800  0.68855400  0.51001000  1
  Ta  Ta22  1  0.18855400  0.71395200  0.01001000  1
  Ta  Ta23  1  0.81144600  0.28604800  0.01001000  1
  As  As24  1  0.79488900  0.02673100  0.22733900  1
  As  As25  1  0.20511100  0.97326900  0.22733900  1
  As  As26  1  0.47326900  0.29488900  0.72733900  1
  As  As27  1  0.52673100  0.70511100  0.72733900  1
  As  As28  1  0.70511100  0.47326900  0.27266100  1
  As  As29  1  0.29488900  0.52673100  0.27266100  1
  As  As30  1  0.02673100  0.20511100  0.77266100  1
  As  As31  1  0.97326900  0.79488900  0.77266100  1
