# generated using pymatgen
data_Na2Ge(S2O7)3
_symmetry_space_group_name_H-M   'P 1'
_cell_length_a   9.93818700
_cell_length_b   13.01521000
_cell_length_c   14.96375400
_cell_angle_alpha   90.00000000
_cell_angle_beta   90.00000000
_cell_angle_gamma   90.00000000
_symmetry_Int_Tables_number   1
_chemical_formula_structural   Na2Ge(S2O7)3
_chemical_formula_sum   'Na8 Ge4 S24 O84'
_cell_volume   1935.52552959
_cell_formula_units_Z   4
loop_
 _symmetry_equiv_pos_site_id
 _symmetry_equiv_pos_as_xyz
  1  'x, y, z'
loop_
 _atom_site_type_symbol
 _atom_site_label
 _atom_site_symmetry_multiplicity
 _atom_site_fract_x
 _atom_site_fract_y
 _atom_site_fract_z
 _atom_site_occupancy
  Na  Na0  1  0.55923100  0.19815100  0.95955200  1
  Na  Na1  1  0.94076900  0.80184900  0.45955100  1
  Na  Na2  1  0.05923100  0.30184900  0.04044800  1
  Na  Na3  1  0.44076900  0.69815100  0.54044800  1
  Na  Na4  1  0.88509700  0.18222700  0.38435200  1
  Na  Na5  1  0.61490300  0.81777300  0.88435200  1
  Na  Na6  1  0.38509700  0.31777300  0.61564800  1
  Na  Na7  1  0.11490300  0.68222700  0.11564800  1
  Ge  Ge8  1  0.43344600  0.03334200  0.27655800  1
  Ge  Ge9  1  0.06655400  0.96665800  0.77655800  1
  Ge  Ge10  1  0.93344600  0.46665800  0.72344200  1
  Ge  Ge11  1  0.56655400  0.53334200  0.22344200  1
  S  S12  1  0.16659200  0.90378300  0.27552700  1
  S  S13  1  0.33340800  0.09621700  0.77552700  1
  S  S14  1  0.66659200  0.59621700  0.72447300  1
  S  S15  1  0.83340800  0.40378300  0.22447300  1
  S  S16  1  0.52070800  0.96922700  0.08725500  1
  S  S17  1  0.97929200  0.03077300  0.58725500  1
  S  S18  1  0.02070800  0.53077300  0.91274500  1
  S  S19  1  0.47929200  0.46922700  0.41274500  1
  S  S20  1  0.15265300  0.11840700  0.22623300  1
  S  S21  1  0.34734700  0.88159300  0.72623300  1
  S  S22  1  0.65265300  0.38159300  0.77376700  1
  S  S23  1  0.84734700  0.61840700  0.27376700  1
  S  S24  1  0.69881800  0.10551900  0.17998300  1
  S  S25  1  0.80118200  0.89448100  0.67998300  1
  S  S26  1  0.19881800  0.39448100  0.82001700  1
  S  S27  1  0.30118200  0.60551900  0.32001700  1
  S  S28  1  0.52800500  0.11409200  0.46082800  1
  S  S29  1  0.97199500  0.88590800  0.96082800  1
  S  S30  1  0.02800500  0.38590800  0.53917200  1
  S  S31  1  0.47199500  0.61409200  0.03917200  1
  S  S32  1  0.61523300  0.90891400  0.41690200  1
  S  S33  1  0.88476700  0.09108600  0.91690200  1
  S  S34  1  0.11523300  0.59108600  0.58309800  1
  S  S35  1  0.38476700  0.40891400  0.08309800  1
  O  O36  1  0.56578500  0.12443900  0.22894100  1
  O  O37  1  0.93421500  0.87556000  0.72894100  1
  O  O38  1  0.06578500  0.37556100  0.77105900  1
  O  O39  1  0.43421500  0.62444000  0.27105900  1
  O  O40  1  0.30638500  0.12548800  0.22539200  1
  O  O41  1  0.19361500  0.87451200  0.72539200  1
  O  O42  1  0.80638500  0.37451200  0.77460800  1
  O  O43  1  0.69361500  0.62548800  0.27460800  1
  O  O44  1  0.29234500  0.94686400  0.32125800  1
  O  O45  1  0.20765500  0.05313600  0.82125800  1
  O  O46  1  0.79234500  0.55313600  0.67874200  1
  O  O47  1  0.70765500  0.44686400  0.17874200  1
  O  O48  1  0.47206300  0.05844800  0.04121400  1
  O  O49  1  0.02793700  0.94155200  0.54121400  1
  O  O50  1  0.97206300  0.44155200  0.95878600  1
  O  O51  1  0.52793700  0.55844800  0.45878600  1
  O  O52  1  0.56833500  0.94423300  0.32529100  1
  O  O53  1  0.93166500  0.05576700  0.82529100  1
  O  O54  1  0.06833500  0.55576700  0.67470900  1
  O  O55  1  0.43166500  0.44423300  0.17470900  1
  O  O56  1  0.12605400  0.99638000  0.20379400  1
  O  O57  1  0.37394600  0.00362000  0.70379400  1
  O  O58  1  0.62605400  0.50362000  0.79620600  1
  O  O59  1  0.87394600  0.49638000  0.29620600  1
  O  O60  1  0.44033500  0.94785800  0.17241700  1
  O  O61  1  0.05966500  0.05214200  0.67241700  1
  O  O62  1  0.94033500  0.55214200  0.82758300  1
  O  O63  1  0.55966500  0.44785800  0.32758300  1
  O  O64  1  0.75837700  0.92149800  0.42337200  1
  O  O65  1  0.74162300  0.07850200  0.92337200  1
  O  O66  1  0.25837700  0.57850200  0.57662800  1
  O  O67  1  0.24162300  0.42149800  0.07662800  1
  O  O68  1  0.42526000  0.11100400  0.38453200  1
  O  O69  1  0.07474000  0.88899600  0.88453200  1
  O  O70  1  0.92526000  0.38899600  0.61546800  1
  O  O71  1  0.57474000  0.61100400  0.11546800  1
  O  O72  1  0.19375200  0.81849300  0.21787300  1
  O  O73  1  0.30624800  0.18150700  0.71787300  1
  O  O74  1  0.69375200  0.68150700  0.78212700  1
  O  O75  1  0.80624800  0.31849300  0.28212700  1
  O  O76  1  0.10139700  0.16946200  0.14877400  1
  O  O77  1  0.39860300  0.83053800  0.64877400  1
  O  O78  1  0.60139700  0.33053800  0.85122600  1
  O  O79  1  0.89860300  0.66946200  0.35122600  1
  O  O80  1  0.06043300  0.89571800  0.33966200  1
  O  O81  1  0.43956700  0.10428200  0.83966200  1
  O  O82  1  0.56043300  0.60428200  0.66033800  1
  O  O83  1  0.93956700  0.39571800  0.16033800  1
  O  O84  1  0.46577800  0.15586100  0.53882100  1
  O  O85  1  0.03422200  0.84413900  0.03882100  1
  O  O86  1  0.96577800  0.34413900  0.46117900  1
  O  O87  1  0.53422200  0.65586100  0.96117900  1
  O  O88  1  0.09729500  0.14162700  0.31251100  1
  O  O89  1  0.40270500  0.85837300  0.81251100  1
  O  O90  1  0.59729500  0.35837300  0.68748900  1
  O  O91  1  0.90270500  0.64162700  0.18748900  1
  O  O92  1  0.54023700  0.87527800  0.03930500  1
  O  O93  1  0.95976300  0.12472200  0.53930500  1
  O  O94  1  0.04023700  0.62472200  0.96069500  1
  O  O95  1  0.45976300  0.37527800  0.46069500  1
  O  O96  1  0.54269100  0.99051300  0.48629600  1
  O  O97  1  0.95730900  0.00948700  0.98629600  1
  O  O98  1  0.04269100  0.50948700  0.51370400  1
  O  O99  1  0.45730900  0.49051300  0.01370400  1
  O  O100  1  0.80737600  0.08174600  0.23927800  1
  O  O101  1  0.69262400  0.91825400  0.73927800  1
  O  O102  1  0.30737600  0.41825400  0.76072200  1
  O  O103  1  0.19262400  0.58174600  0.26072200  1
  O  O104  1  0.65725200  0.15053400  0.43274500  1
  O  O105  1  0.84274800  0.84946600  0.93274500  1
  O  O106  1  0.15725200  0.34946600  0.56725500  1
  O  O107  1  0.34274800  0.65053400  0.06725500  1
  O  O108  1  0.71661800  0.18239400  0.11237400  1
  O  O109  1  0.78338200  0.81760600  0.61237400  1
  O  O110  1  0.21661800  0.31760600  0.88762600  1
  O  O111  1  0.28338200  0.68239400  0.38762600  1
  O  O112  1  0.55814200  0.81223000  0.44239600  1
  O  O113  1  0.94185800  0.18777000  0.94239600  1
  O  O114  1  0.05814200  0.68777000  0.55760400  1
  O  O115  1  0.44185800  0.31223000  0.05760400  1
  O  O116  1  0.67138400  0.99425100  0.12791000  1
  O  O117  1  0.82861600  0.00574900  0.62791000  1
  O  O118  1  0.17138400  0.50574900  0.87209000  1
  O  O119  1  0.32861600  0.49425100  0.37209000  1
