# generated using pymatgen
data_HfCoGe
_symmetry_space_group_name_H-M   'P 1'
_cell_length_a   3.90794300
_cell_length_b   6.52739200
_cell_length_c   7.24325800
_cell_angle_alpha   90.00000000
_cell_angle_beta   90.00000000
_cell_angle_gamma   90.00000000
_symmetry_Int_Tables_number   1
_chemical_formula_structural   HfCoGe
_chemical_formula_sum   'Hf4 Co4 Ge4'
_cell_volume   184.76592060
_cell_formula_units_Z   4
loop_
 _symmetry_equiv_pos_site_id
 _symmetry_equiv_pos_as_xyz
  1  'x, y, z'
loop_
 _atom_site_type_symbol
 _atom_site_label
 _atom_site_symmetry_multiplicity
 _atom_site_fract_x
 _atom_site_fract_y
 _atom_site_fract_z
 _atom_site_occupancy
  Hf  Hf0  1  0.25000000  0.01135600  0.80162900  1
  Hf  Hf1  1  0.25000000  0.51135600  0.69837100  1
  Hf  Hf2  1  0.75000000  0.98864400  0.19837100  1
  Hf  Hf3  1  0.75000000  0.48864400  0.30162900  1
  Co  Co4  1  0.25000000  0.14110200  0.42938400  1
  Co  Co5  1  0.25000000  0.64110200  0.07061600  1
  Co  Co6  1  0.75000000  0.85889800  0.57061600  1
  Co  Co7  1  0.75000000  0.35889800  0.92938400  1
  Ge  Ge8  1  0.25000000  0.77212400  0.39349200  1
  Ge  Ge9  1  0.25000000  0.27212400  0.10650800  1
  Ge  Ge10  1  0.75000000  0.22787600  0.60650800  1
  Ge  Ge11  1  0.75000000  0.72787600  0.89349200  1
