# generated using pymatgen
data_SrLaMgTaO6
_symmetry_space_group_name_H-M   'P 1'
_cell_length_a   5.71374700
_cell_length_b   5.68074900
_cell_length_c   9.84135966
_cell_angle_alpha   54.71060481
_cell_angle_beta   90.00000000
_cell_angle_gamma   90.00000000
_symmetry_Int_Tables_number   1
_chemical_formula_structural   SrLaMgTaO6
_chemical_formula_sum   'Sr2 La2 Mg2 Ta2 O12'
_cell_volume   260.73659825
_cell_formula_units_Z   2
loop_
 _symmetry_equiv_pos_site_id
 _symmetry_equiv_pos_as_xyz
  1  'x, y, z'
loop_
 _atom_site_type_symbol
 _atom_site_label
 _atom_site_symmetry_multiplicity
 _atom_site_fract_x
 _atom_site_fract_y
 _atom_site_fract_z
 _atom_site_occupancy
  Sr  Sr0  1  0.27272300  0.25620700  0.74935700  1
  Sr  Sr1  1  0.72727700  0.25620700  0.24935700  1
  La  La2  1  0.21562700  0.74030900  0.24700600  1
  La  La3  1  0.78437300  0.74030900  0.74700600  1
  Mg  Mg4  1  0.25253900  0.99928600  0.49976900  1
  Mg  Mg5  1  0.74746100  0.99928600  0.99976900  1
  Ta  Ta6  1  0.74791500  0.50065100  0.49898100  1
  Ta  Ta7  1  0.25208500  0.50065100  0.99898100  1
  O  O8  1  0.73556800  0.16548600  0.74240900  1
  O  O9  1  0.26443200  0.16548600  0.24240900  1
  O  O10  1  0.77124700  0.81224800  0.25750000  1
  O  O11  1  0.22875300  0.81224800  0.75750000  1
  O  O12  1  0.97340900  0.27493700  0.46146400  1
  O  O13  1  0.02659100  0.27493700  0.96146400  1
  O  O14  1  0.53991600  0.73232600  0.54511800  1
  O  O15  1  0.46008400  0.73232600  0.04511800  1
  O  O16  1  0.47023400  0.33925600  0.45444600  1
  O  O17  1  0.52976600  0.33925600  0.95444600  1
  O  O18  1  0.01402400  0.67929400  0.54395000  1
  O  O19  1  0.98597600  0.67929400  0.04395000  1
