# generated using pymatgen
data_PrHIClO13
_symmetry_space_group_name_H-M   'P 1'
_cell_length_a   7.37840700
_cell_length_b   12.56912629
_cell_length_c   13.36486082
_cell_angle_alpha   112.42604291
_cell_angle_beta   90.00000000
_cell_angle_gamma   90.00000000
_symmetry_Int_Tables_number   1
_chemical_formula_structural   PrHIClO13
_chemical_formula_sum   'Pr4 H4 I4 Cl4 O52'
_cell_volume   1145.72202538
_cell_formula_units_Z   4
loop_
 _symmetry_equiv_pos_site_id
 _symmetry_equiv_pos_as_xyz
  1  'x, y, z'
loop_
 _atom_site_type_symbol
 _atom_site_label
 _atom_site_symmetry_multiplicity
 _atom_site_fract_x
 _atom_site_fract_y
 _atom_site_fract_z
 _atom_site_occupancy
  Pr  Pr0  1  0.86533300  0.97734800  0.31227000  1
  Pr  Pr1  1  0.36533300  0.02265200  0.18773000  1
  Pr  Pr2  1  0.13466700  0.02265200  0.68773000  1
  Pr  Pr3  1  0.63466700  0.97734800  0.81227000  1
  H  H4  1  0.80636500  0.27228100  0.13756600  1
  H  H5  1  0.30636400  0.72771900  0.36243400  1
  H  H6  1  0.19363500  0.72771900  0.86243400  1
  H  H7  1  0.69363500  0.27228100  0.63756600  1
  I  I8  1  0.87055700  0.06960300  0.09225300  1
  I  I9  1  0.37055700  0.93039700  0.40774700  1
  I  I10  1  0.12944300  0.93039700  0.90774700  1
  I  I11  1  0.62944300  0.06960300  0.59225300  1
  Cl  Cl12  1  0.22702200  0.46445100  0.12311800  1
  Cl  Cl13  1  0.72702200  0.53554900  0.37688200  1
  Cl  Cl14  1  0.77297800  0.53554900  0.87688200  1
  Cl  Cl15  1  0.27297800  0.46445100  0.62311800  1
  O  O16  1  0.07654200  0.09287500  0.00587600  1
  O  O17  1  0.57654200  0.90712500  0.49412400  1
  O  O18  1  0.92345800  0.90712500  0.99412400  1
  O  O19  1  0.42345800  0.09287500  0.50587600  1
  O  O20  1  0.69860700  0.02102800  0.17004900  1
  O  O21  1  0.19860700  0.97897200  0.32995100  1
  O  O22  1  0.30139300  0.97897200  0.82995100  1
  O  O23  1  0.80139300  0.02102800  0.67004900  1
  O  O24  1  0.69813800  0.08020000  0.99629600  1
  O  O25  1  0.19813800  0.91980000  0.50370400  1
  O  O26  1  0.30186200  0.91980000  0.00370400  1
  O  O27  1  0.80186200  0.08020000  0.49629600  1
  O  O28  1  0.03701300  0.05520600  0.19424500  1
  O  O29  1  0.53701300  0.94479400  0.30575500  1
  O  O30  1  0.96298700  0.94479400  0.80575500  1
  O  O31  1  0.46298700  0.05520600  0.69424500  1
  O  O32  1  0.86803000  0.23003300  0.17729200  1
  O  O33  1  0.36803000  0.76996700  0.32270800  1
  O  O34  1  0.13197000  0.76996700  0.82270800  1
  O  O35  1  0.63197000  0.23003300  0.67729200  1
  O  O36  1  0.90346700  0.77994300  0.31345000  1
  O  O37  1  0.40346700  0.22005700  0.18655000  1
  O  O38  1  0.09653300  0.22005700  0.68655000  1
  O  O39  1  0.59653300  0.77994300  0.81345000  1
  O  O40  1  0.83042300  0.28693800  0.44902600  1
  O  O41  1  0.33042300  0.71306200  0.05097400  1
  O  O42  1  0.16957700  0.71306200  0.55097400  1
  O  O43  1  0.66957700  0.28693800  0.94902600  1
  O  O44  1  0.92518000  0.77134500  0.21424300  1
  O  O45  1  0.42518000  0.22865500  0.28575700  1
  O  O46  1  0.07482000  0.22865500  0.78575700  1
  O  O47  1  0.57482000  0.77134500  0.71424300  1
  O  O48  1  0.40009500  0.51573100  0.11700700  1
  O  O49  1  0.90009500  0.48426900  0.38299300  1
  O  O50  1  0.59990500  0.48426900  0.88299300  1
  O  O51  1  0.09990500  0.51573100  0.61700700  1
  O  O52  1  0.08449800  0.55255500  0.15459200  1
  O  O53  1  0.58449800  0.44744500  0.34540800  1
  O  O54  1  0.91550200  0.44744500  0.84540800  1
  O  O55  1  0.41550200  0.55255500  0.65459200  1
  O  O56  1  0.71564800  0.34738100  0.04177400  1
  O  O57  1  0.21564800  0.65261900  0.45822600  1
  O  O58  1  0.28435200  0.65261900  0.95822600  1
  O  O59  1  0.78435200  0.34738100  0.54177400  1
  O  O60  1  0.23068500  0.42048300  0.21150400  1
  O  O61  1  0.73068500  0.57951700  0.28849600  1
  O  O62  1  0.76931500  0.57951700  0.78849600  1
  O  O63  1  0.26931500  0.42048300  0.71150400  1
  O  O64  1  0.18240200  0.37164600  0.02198300  1
  O  O65  1  0.68240200  0.62835400  0.47801700  1
  O  O66  1  0.81759800  0.62835400  0.97801700  1
  O  O67  1  0.31759800  0.37164600  0.52198300  1
