# generated using pymatgen
data_Sc3Mn3Al7Si5
_symmetry_space_group_name_H-M   'P 1'
_cell_length_a   8.29500384
_cell_length_b   8.29500384
_cell_length_c   8.97180900
_cell_angle_alpha   90.00000000
_cell_angle_beta   90.00000000
_cell_angle_gamma   119.99999870
_symmetry_Int_Tables_number   1
_chemical_formula_structural   Sc3Mn3Al7Si5
_chemical_formula_sum   'Sc6 Mn6 Al14 Si10'
_cell_volume   534.61832294
_cell_formula_units_Z   2
loop_
 _symmetry_equiv_pos_site_id
 _symmetry_equiv_pos_as_xyz
  1  'x, y, z'
loop_
 _atom_site_type_symbol
 _atom_site_label
 _atom_site_symmetry_multiplicity
 _atom_site_fract_x
 _atom_site_fract_y
 _atom_site_fract_z
 _atom_site_occupancy
  Sc  Sc0  1  0.20035700  0.79964300  0.25000000  1
  Sc  Sc1  1  0.20035700  0.40071400  0.25000000  1
  Sc  Sc2  1  0.59928600  0.79964300  0.25000000  1
  Sc  Sc3  1  0.79964300  0.20035700  0.75000000  1
  Sc  Sc4  1  0.79964300  0.59928600  0.75000000  1
  Sc  Sc5  1  0.40071400  0.20035700  0.75000000  1
  Mn  Mn6  1  0.50000000  0.50000000  0.50000000  1
  Mn  Mn7  1  0.50000000  0.00000000  0.50000000  1
  Mn  Mn8  1  0.00000000  0.50000000  0.50000000  1
  Mn  Mn9  1  0.50000000  0.50000000  0.00000000  1
  Mn  Mn10  1  0.50000000  0.00000000  0.00000000  1
  Mn  Mn11  1  0.00000000  0.50000000  0.00000000  1
  Al  Al12  1  0.16359000  0.83641000  0.92049100  1
  Al  Al13  1  0.16359000  0.32718000  0.92049100  1
  Al  Al14  1  0.67282000  0.83641000  0.92049100  1
  Al  Al15  1  0.83641000  0.16359000  0.07950900  1
  Al  Al16  1  0.83641000  0.67282000  0.07950900  1
  Al  Al17  1  0.32718000  0.16359000  0.07950900  1
  Al  Al18  1  0.83641000  0.16359000  0.42049100  1
  Al  Al19  1  0.83641000  0.67282000  0.42049100  1
  Al  Al20  1  0.32718000  0.16359000  0.42049100  1
  Al  Al21  1  0.16359000  0.83641000  0.57950900  1
  Al  Al22  1  0.16359000  0.32718000  0.57950900  1
  Al  Al23  1  0.67282000  0.83641000  0.57950900  1
  Al  Al24  1  0.00000000  0.00000000  0.25000000  1
  Al  Al25  1  0.00000000  0.00000000  0.75000000  1
  Si  Si26  1  0.55984000  0.44016000  0.25000000  1
  Si  Si27  1  0.55984000  0.11968000  0.25000000  1
  Si  Si28  1  0.88032000  0.44016000  0.25000000  1
  Si  Si29  1  0.44016000  0.55984000  0.75000000  1
  Si  Si30  1  0.44016000  0.88032000  0.75000000  1
  Si  Si31  1  0.11968000  0.55984000  0.75000000  1
  Si  Si32  1  0.33333300  0.66666700  0.46008800  1
  Si  Si33  1  0.66666700  0.33333300  0.53991200  1
  Si  Si34  1  0.66666700  0.33333300  0.96008800  1
  Si  Si35  1  0.33333300  0.66666700  0.03991200  1
