# generated using pymatgen
data_Ba6Lu2Al4O15
_symmetry_space_group_name_H-M   'P 1'
_cell_length_a   5.90697800
_cell_length_b   7.89467200
_cell_length_c   18.37481977
_cell_angle_alpha   88.40103900
_cell_angle_beta   90.00000000
_cell_angle_gamma   90.00000000
_symmetry_Int_Tables_number   1
_chemical_formula_structural   Ba6Lu2Al4O15
_chemical_formula_sum   'Ba12 Lu4 Al8 O30'
_cell_volume   856.55133111
_cell_formula_units_Z   2
loop_
 _symmetry_equiv_pos_site_id
 _symmetry_equiv_pos_as_xyz
  1  'x, y, z'
loop_
 _atom_site_type_symbol
 _atom_site_label
 _atom_site_symmetry_multiplicity
 _atom_site_fract_x
 _atom_site_fract_y
 _atom_site_fract_z
 _atom_site_occupancy
  Ba  Ba0  1  0.75617600  0.50117000  0.08035600  1
  Ba  Ba1  1  0.24382400  0.49883000  0.91964400  1
  Ba  Ba2  1  0.75617600  0.49883000  0.41964400  1
  Ba  Ba3  1  0.24382400  0.50117000  0.58035600  1
  Ba  Ba4  1  0.74714400  0.97111000  0.08895900  1
  Ba  Ba5  1  0.25285600  0.02889000  0.91104100  1
  Ba  Ba6  1  0.74714400  0.02889000  0.41104100  1
  Ba  Ba7  1  0.25285600  0.97111000  0.58895900  1
  Ba  Ba8  1  0.72090200  0.00000000  0.75000000  1
  Ba  Ba9  1  0.27909800  0.00000000  0.25000000  1
  Ba  Ba10  1  0.67345500  0.50000000  0.75000000  1
  Ba  Ba11  1  0.32654500  0.50000000  0.25000000  1
  Lu  Lu12  1  0.74393700  0.75136300  0.91035900  1
  Lu  Lu13  1  0.25606300  0.24863700  0.08964100  1
  Lu  Lu14  1  0.74393700  0.24863700  0.58964100  1
  Lu  Lu15  1  0.25606300  0.75136300  0.41035900  1
  Al  Al16  1  0.75229700  0.75264300  0.55504800  1
  Al  Al17  1  0.24770300  0.24735700  0.44495200  1
  Al  Al18  1  0.75229700  0.24735700  0.94495200  1
  Al  Al19  1  0.24770300  0.75264300  0.05504800  1
  Al  Al20  1  0.77195400  0.77853000  0.26847700  1
  Al  Al21  1  0.22804600  0.22147000  0.73152300  1
  Al  Al22  1  0.77195400  0.22147000  0.23152300  1
  Al  Al23  1  0.22804600  0.77853000  0.76847700  1
  O  O24  1  0.21026900  0.00000000  0.75000000  1
  O  O25  1  0.78973100  0.00000000  0.25000000  1
  O  O26  1  0.49341600  0.76277800  0.99757400  1
  O  O27  1  0.50658400  0.23722200  0.00242600  1
  O  O28  1  0.49341600  0.23722200  0.50242600  1
  O  O29  1  0.50658400  0.76277800  0.49757400  1
  O  O30  1  0.75730000  0.94795300  0.60372800  1
  O  O31  1  0.24270000  0.05204700  0.39627200  1
  O  O32  1  0.75730000  0.05204700  0.89627200  1
  O  O33  1  0.24270000  0.94795300  0.10372800  1
  O  O34  1  0.00245000  0.76184600  0.99577700  1
  O  O35  1  0.99755000  0.23815400  0.00422300  1
  O  O36  1  0.00245000  0.23815400  0.50422300  1
  O  O37  1  0.99755000  0.76184600  0.49577700  1
  O  O38  1  0.31261100  0.69112500  0.68704600  1
  O  O39  1  0.68738900  0.30887500  0.31295400  1
  O  O40  1  0.31261100  0.30887500  0.81295400  1
  O  O41  1  0.68738900  0.69112500  0.18704600  1
  O  O42  1  0.45365200  0.75296000  0.83380600  1
  O  O43  1  0.54634800  0.24704000  0.16619400  1
  O  O44  1  0.45365200  0.24704000  0.66619400  1
  O  O45  1  0.54634800  0.75296000  0.33380600  1
  O  O46  1  0.96737300  0.73298300  0.81352400  1
  O  O47  1  0.03262700  0.26701700  0.18647600  1
  O  O48  1  0.96737300  0.26701700  0.68647600  1
  O  O49  1  0.03262700  0.73298300  0.31352400  1
  O  O50  1  0.75365800  0.53773800  0.59124100  1
  O  O51  1  0.24634200  0.46226200  0.40875900  1
  O  O52  1  0.75365800  0.46226200  0.90875900  1
  O  O53  1  0.24634200  0.53773800  0.09124100  1
