# generated using pymatgen
data_MnCO3
_symmetry_space_group_name_H-M   'P 1'
_cell_length_a   4.83657753
_cell_length_b   4.83602221
_cell_length_c   5.99032247
_cell_angle_alpha   66.10562476
_cell_angle_beta   66.11807885
_cell_angle_gamma   59.99725388
_symmetry_Int_Tables_number   1
_chemical_formula_structural   MnCO3
_chemical_formula_sum   'Mn2 C2 O6'
_cell_volume   107.25563227
_cell_formula_units_Z   2
loop_
 _symmetry_equiv_pos_site_id
 _symmetry_equiv_pos_as_xyz
  1  'x, y, z'
loop_
 _atom_site_type_symbol
 _atom_site_label
 _atom_site_symmetry_multiplicity
 _atom_site_fract_x
 _atom_site_fract_y
 _atom_site_fract_z
 _atom_site_occupancy
  Mn  Mn0  1  0.50994200  0.50946700  0.40043100  1
  Mn  Mn1  1  0.00940000  0.01009200  0.90042100  1
  C  C2  1  0.25893600  0.26105800  0.15042900  1
  C  C3  1  0.76110500  0.75897500  0.65043600  1
  O  O4  1  0.03010800  0.75841600  0.65069500  1
  O  O5  1  0.25842000  0.52996600  0.15068900  1
  O  O6  1  0.49229800  0.02726900  0.65187400  1
  O  O7  1  0.52726300  0.99223200  0.15182400  1
  O  O8  1  0.76165600  0.49094200  0.64911400  1
  O  O9  1  0.99087500  0.26158300  0.14908700  1
