# generated using pymatgen
data_Cs2NaAl3F12
_symmetry_space_group_name_H-M   'P 1'
_cell_length_a   7.43163338
_cell_length_b   7.43163338
_cell_length_c   7.43163279
_cell_angle_alpha   57.46966103
_cell_angle_beta   57.46966103
_cell_angle_gamma   57.46966040
_symmetry_Int_Tables_number   1
_chemical_formula_structural   Cs2NaAl3F12
_chemical_formula_sum   'Cs2 Na1 Al3 F12'
_cell_volume   273.33416247
_cell_formula_units_Z   1
loop_
 _symmetry_equiv_pos_site_id
 _symmetry_equiv_pos_as_xyz
  1  'x, y, z'
loop_
 _atom_site_type_symbol
 _atom_site_label
 _atom_site_symmetry_multiplicity
 _atom_site_fract_x
 _atom_site_fract_y
 _atom_site_fract_z
 _atom_site_occupancy
  Cs  Cs0  1  0.62298900  0.62298900  0.62298900  1
  Cs  Cs1  1  0.37701100  0.37701100  0.37701100  1
  Na  Na2  1  0.00000000  0.00000000  0.00000000  1
  Al  Al3  1  0.50000000  0.00000000  0.00000000  1
  Al  Al4  1  0.00000000  0.00000000  0.50000000  1
  Al  Al5  1  0.00000000  0.50000000  0.00000000  1
  F  F6  1  0.08475400  0.08475400  0.61745400  1
  F  F7  1  0.61745400  0.08475400  0.08475400  1
  F  F8  1  0.08475400  0.61745400  0.08475400  1
  F  F9  1  0.91524600  0.38254600  0.91524600  1
  F  F10  1  0.91524600  0.91524600  0.38254600  1
  F  F11  1  0.38254600  0.91524600  0.91524600  1
  F  F12  1  0.92254000  0.29711300  0.29711300  1
  F  F13  1  0.29711300  0.29711300  0.92254000  1
  F  F14  1  0.29711300  0.92254000  0.29711300  1
  F  F15  1  0.70288700  0.07746000  0.70288700  1
  F  F16  1  0.07746000  0.70288700  0.70288700  1
  F  F17  1  0.70288700  0.70288700  0.07746000  1
