# generated using pymatgen
data_Zr5NiSb3
_symmetry_space_group_name_H-M   'P 1'
_cell_length_a   8.58158800
_cell_length_b   8.58158782
_cell_length_c   5.79387500
_cell_angle_alpha   90.00000000
_cell_angle_beta   90.00000000
_cell_angle_gamma   120.00000071
_symmetry_Int_Tables_number   1
_chemical_formula_structural   Zr5NiSb3
_chemical_formula_sum   'Zr10 Ni2 Sb6'
_cell_volume   369.51754270
_cell_formula_units_Z   2
loop_
 _symmetry_equiv_pos_site_id
 _symmetry_equiv_pos_as_xyz
  1  'x, y, z'
loop_
 _atom_site_type_symbol
 _atom_site_label
 _atom_site_symmetry_multiplicity
 _atom_site_fract_x
 _atom_site_fract_y
 _atom_site_fract_z
 _atom_site_occupancy
  Zr  Zr0  1  0.74222400  0.74222400  0.75000000  1
  Zr  Zr1  1  0.25777600  0.00000000  0.75000000  1
  Zr  Zr2  1  0.00000000  0.25777600  0.75000000  1
  Zr  Zr3  1  0.25777600  0.25777600  0.25000000  1
  Zr  Zr4  1  0.74222400  0.00000000  0.25000000  1
  Zr  Zr5  1  0.00000000  0.74222400  0.25000000  1
  Zr  Zr6  1  0.66666700  0.33333300  0.00000000  1
  Zr  Zr7  1  0.33333300  0.66666700  0.00000000  1
  Zr  Zr8  1  0.33333300  0.66666700  0.50000000  1
  Zr  Zr9  1  0.66666700  0.33333300  0.50000000  1
  Ni  Ni10  1  0.00000000  0.00000000  0.00000000  1
  Ni  Ni11  1  0.00000000  0.00000000  0.50000000  1
  Sb  Sb12  1  0.38740700  0.38740700  0.75000000  1
  Sb  Sb13  1  0.61259300  0.00000000  0.75000000  1
  Sb  Sb14  1  0.00000000  0.61259300  0.75000000  1
  Sb  Sb15  1  0.61259300  0.61259300  0.25000000  1
  Sb  Sb16  1  0.38740700  0.00000000  0.25000000  1
  Sb  Sb17  1  0.00000000  0.38740700  0.25000000  1
