# generated using pymatgen
data_Ge(SeO3)2
_symmetry_space_group_name_H-M   'P 1'
_cell_length_a   6.89842900
_cell_length_b   5.14239400
_cell_length_c   8.95788458
_cell_angle_alpha   55.92361279
_cell_angle_beta   90.00000000
_cell_angle_gamma   90.00000000
_symmetry_Int_Tables_number   1
_chemical_formula_structural   Ge(SeO3)2
_chemical_formula_sum   'Ge2 Se4 O12'
_cell_volume   263.21104975
_cell_formula_units_Z   2
loop_
 _symmetry_equiv_pos_site_id
 _symmetry_equiv_pos_as_xyz
  1  'x, y, z'
loop_
 _atom_site_type_symbol
 _atom_site_label
 _atom_site_symmetry_multiplicity
 _atom_site_fract_x
 _atom_site_fract_y
 _atom_site_fract_z
 _atom_site_occupancy
  Ge  Ge0  1  0.00000000  0.00000000  0.00000000  1
  Ge  Ge1  1  0.50000000  0.00000000  0.50000000  1
  Se  Se2  1  0.82534200  0.31472100  0.19996600  1
  Se  Se3  1  0.67465800  0.31472100  0.69996600  1
  Se  Se4  1  0.17465800  0.68527900  0.80003400  1
  Se  Se5  1  0.32534200  0.68527900  0.30003400  1
  O  O6  1  0.83694400  0.28842300  0.01278800  1
  O  O7  1  0.66305600  0.28842300  0.51278800  1
  O  O8  1  0.16305600  0.71157700  0.98721200  1
  O  O9  1  0.33694400  0.71157700  0.48721200  1
  O  O10  1  0.58443600  0.19510900  0.25579100  1
  O  O11  1  0.91556400  0.19510900  0.75579100  1
  O  O12  1  0.41556400  0.80489100  0.74420900  1
  O  O13  1  0.08443600  0.80489100  0.24420900  1
  O  O14  1  0.78161300  0.71529700  0.08411100  1
  O  O15  1  0.71838700  0.71529700  0.58411100  1
  O  O16  1  0.21838700  0.28470300  0.91588900  1
  O  O17  1  0.28161300  0.28470300  0.41588900  1
