# generated using pymatgen
data_V2Pb4(Se2O7)3
_symmetry_space_group_name_H-M   'P 1'
_cell_length_a   14.45738494
_cell_length_b   14.26665234
_cell_length_c   9.12041561
_cell_angle_alpha   72.62715194
_cell_angle_beta   70.35454269
_cell_angle_gamma   37.01830537
_symmetry_Int_Tables_number   1
_chemical_formula_structural   V2Pb4(Se2O7)3
_chemical_formula_sum   'V4 Pb8 Se12 O42'
_cell_volume   1065.15586605
_cell_formula_units_Z   2
loop_
 _symmetry_equiv_pos_site_id
 _symmetry_equiv_pos_as_xyz
  1  'x, y, z'
loop_
 _atom_site_type_symbol
 _atom_site_label
 _atom_site_symmetry_multiplicity
 _atom_site_fract_x
 _atom_site_fract_y
 _atom_site_fract_z
 _atom_site_occupancy
  V  V0  1  0.96174800  0.30350400  0.91019700  1
  V  V1  1  0.91019700  0.82455100  0.96174800  1
  V  V2  1  0.94649600  0.28825200  0.42544900  1
  V  V3  1  0.42544900  0.33980300  0.94649600  1
  Pb  Pb4  1  0.40895000  0.84792500  0.38936400  1
  Pb  Pb5  1  0.38936400  0.35376100  0.40895000  1
  Pb  Pb6  1  0.40207500  0.84105000  0.89623900  1
  Pb  Pb7  1  0.89623900  0.86063600  0.40207500  1
  Pb  Pb8  1  0.57520500  0.00590400  0.78669000  1
  Pb  Pb9  1  0.78669000  0.63220100  0.57520500  1
  Pb  Pb10  1  0.24409600  0.67479500  0.61779900  1
  Pb  Pb11  1  0.61779900  0.46331000  0.24409600  1
  Se  Se12  1  0.21075500  0.18783400  0.09615200  1
  Se  Se13  1  0.09615200  0.50526000  0.21075500  1
  Se  Se14  1  0.06216600  0.03924500  0.74474000  1
  Se  Se15  1  0.74474000  0.15384800  0.06216600  1
  Se  Se16  1  0.29259000  0.15011000  0.58719600  1
  Se  Se17  1  0.58719600  0.97010400  0.29259000  1
  Se  Se18  1  0.09989000  0.95741000  0.27989600  1
  Se  Se19  1  0.27989600  0.66280400  0.09989000  1
  Se  Se20  1  0.73147900  0.64675000  0.04738500  1
  Se  Se21  1  0.04738500  0.57438700  0.73147900  1
  Se  Se22  1  0.60325000  0.51852100  0.67561300  1
  Se  Se23  1  0.67561300  0.20261500  0.60325000  1
  O  O24  1  0.79774200  0.36400600  0.98666100  1
  O  O25  1  0.98666100  0.85159100  0.79774200  1
  O  O26  1  0.88599400  0.45225800  0.39840900  1
  O  O27  1  0.39840900  0.26333900  0.88599400  1
  O  O28  1  0.94958600  0.38671200  0.73137900  1
  O  O29  1  0.73137900  0.93232300  0.94958600  1
  O  O30  1  0.86328800  0.30041400  0.31767700  1
  O  O31  1  0.31767700  0.51862100  0.86328800  1
  O  O32  1  0.90625400  0.44681900  0.01852400  1
  O  O33  1  0.01852400  0.62840200  0.90625400  1
  O  O34  1  0.80318100  0.34374600  0.62159800  1
  O  O35  1  0.62159800  0.23147600  0.80318100  1
  O  O36  1  0.16069500  0.15154100  0.98828800  1
  O  O37  1  0.98828800  0.69947600  0.16069500  1
  O  O38  1  0.09845900  0.08930500  0.55052400  1
  O  O39  1  0.55052400  0.26171200  0.09845900  1
  O  O40  1  0.15680400  0.15210300  0.28755200  1
  O  O41  1  0.28755200  0.40354100  0.15680400  1
  O  O42  1  0.09789700  0.09319600  0.84645900  1
  O  O43  1  0.84645900  0.96244800  0.09789700  1
  O  O44  1  0.40418400  0.01623800  0.07216300  1
  O  O45  1  0.07216300  0.50741500  0.40418400  1
  O  O46  1  0.23376200  0.84581600  0.74258500  1
  O  O47  1  0.74258500  0.17783700  0.23376200  1
  O  O48  1  0.33048000  0.21983200  0.64040600  1
  O  O49  1  0.64040600  0.80928200  0.33048000  1
  O  O50  1  0.03016800  0.91952000  0.44071800  1
  O  O51  1  0.44071800  0.60959400  0.03016800  1
  O  O52  1  0.42710800  0.96034700  0.65980400  1
  O  O53  1  0.65980400  0.95274100  0.42710800  1
  O  O54  1  0.28965300  0.82289200  0.29725900  1
  O  O55  1  0.29725900  0.59019600  0.28965300  1
  O  O56  1  0.37571900  0.12428100  0.37571900  1
  O  O57  1  0.12571900  0.87428100  0.12571900  1
  O  O58  1  0.66284900  0.72351500  0.87399900  1
  O  O59  1  0.87399900  0.73963600  0.66284900  1
  O  O60  1  0.52648500  0.58715100  0.51036400  1
  O  O61  1  0.51036400  0.37600100  0.52648500  1
  O  O62  1  0.59923800  0.66014700  0.16733100  1
  O  O63  1  0.16733100  0.57328400  0.59923800  1
  O  O64  1  0.58985300  0.65076200  0.67671600  1
  O  O65  1  0.67671600  0.08266900  0.58985300  1
