# generated using pymatgen
data_FePH12(CCl)4
_symmetry_space_group_name_H-M   'P 1'
_cell_length_a   8.11883000
_cell_length_b   8.11882997
_cell_length_c   13.27265700
_cell_angle_alpha   90.00000000
_cell_angle_beta   90.00000000
_cell_angle_gamma   120.00000010
_symmetry_Int_Tables_number   1
_chemical_formula_structural   FePH12(CCl)4
_chemical_formula_sum   'Fe2 P2 H24 C8 Cl8'
_cell_volume   757.66180934
_cell_formula_units_Z   2
loop_
 _symmetry_equiv_pos_site_id
 _symmetry_equiv_pos_as_xyz
  1  'x, y, z'
loop_
 _atom_site_type_symbol
 _atom_site_label
 _atom_site_symmetry_multiplicity
 _atom_site_fract_x
 _atom_site_fract_y
 _atom_site_fract_z
 _atom_site_occupancy
  Fe  Fe0  1  0.00000000  0.00000000  0.03913900  1
  Fe  Fe1  1  0.00000000  0.00000000  0.53913900  1
  P  P2  1  0.66666700  0.33333300  0.29576800  1
  P  P3  1  0.33333300  0.66666700  0.79576800  1
  H  H4  1  0.74059000  0.25941000  0.45756000  1
  H  H5  1  0.51882100  0.25941000  0.45756000  1
  H  H6  1  0.74059000  0.48117900  0.45756000  1
  H  H7  1  0.25941000  0.74059000  0.95756000  1
  H  H8  1  0.48117900  0.74059000  0.95756000  1
  H  H9  1  0.25941000  0.51882100  0.95756000  1
  H  H10  1  0.54717900  0.09435800  0.16802700  1
  H  H11  1  0.54717900  0.45282100  0.16802700  1
  H  H12  1  0.90564200  0.45282100  0.16802700  1
  H  H13  1  0.45282100  0.90564200  0.66802700  1
  H  H14  1  0.45282100  0.54717900  0.66802700  1
  H  H15  1  0.09435800  0.54717900  0.66802700  1
  H  H16  1  0.39944400  0.02084000  0.27876400  1
  H  H17  1  0.62139600  0.60055600  0.27876400  1
  H  H18  1  0.97916000  0.37860400  0.27876400  1
  H  H19  1  0.62139600  0.02084000  0.27876400  1
  H  H20  1  0.97916000  0.60055600  0.27876400  1
  H  H21  1  0.39944400  0.37860400  0.27876400  1
  H  H22  1  0.60055600  0.97916000  0.77876400  1
  H  H23  1  0.37860400  0.39944400  0.77876400  1
  H  H24  1  0.02084000  0.62139600  0.77876400  1
  H  H25  1  0.37860400  0.97916000  0.77876400  1
  H  H26  1  0.02084000  0.39944400  0.77876400  1
  H  H27  1  0.60055600  0.62139600  0.77876400  1
  C  C28  1  0.66666700  0.33333300  0.43086200  1
  C  C29  1  0.33333300  0.66666700  0.93086200  1
  C  C30  1  0.54650700  0.09301300  0.25082000  1
  C  C31  1  0.54650700  0.45349300  0.25082000  1
  C  C32  1  0.90698700  0.45349300  0.25082000  1
  C  C33  1  0.45349300  0.90698700  0.75082000  1
  C  C34  1  0.45349300  0.54650700  0.75082000  1
  C  C35  1  0.09301300  0.54650700  0.75082000  1
  Cl  Cl36  1  0.00000000  0.00000000  0.20565700  1
  Cl  Cl37  1  0.00000000  0.00000000  0.70565700  1
  Cl  Cl38  1  0.29779600  0.14889800  0.98498300  1
  Cl  Cl39  1  0.85110200  0.70220400  0.98498300  1
  Cl  Cl40  1  0.85110200  0.14889800  0.98498300  1
  Cl  Cl41  1  0.70220400  0.85110200  0.48498300  1
  Cl  Cl42  1  0.14889800  0.29779600  0.48498300  1
  Cl  Cl43  1  0.14889800  0.85110200  0.48498300  1
