# generated using pymatgen
data_KZn2CdB2O6F
_symmetry_space_group_name_H-M   'P 1'
_cell_length_a   5.09253330
_cell_length_b   5.09253330
_cell_length_c   15.41325300
_cell_angle_alpha   90.00000000
_cell_angle_beta   90.00000000
_cell_angle_gamma   119.99999085
_symmetry_Int_Tables_number   1
_chemical_formula_structural   KZn2CdB2O6F
_chemical_formula_sum   'K2 Zn4 Cd2 B4 O12 F2'
_cell_volume   346.17263447
_cell_formula_units_Z   2
loop_
 _symmetry_equiv_pos_site_id
 _symmetry_equiv_pos_as_xyz
  1  'x, y, z'
loop_
 _atom_site_type_symbol
 _atom_site_label
 _atom_site_symmetry_multiplicity
 _atom_site_fract_x
 _atom_site_fract_y
 _atom_site_fract_z
 _atom_site_occupancy
  K  K0  1  0.00000000  0.00000000  0.75000000  1
  K  K1  1  0.00000000  0.00000000  0.25000000  1
  Zn  Zn2  1  0.66666700  0.33333300  0.61625800  1
  Zn  Zn3  1  0.33333300  0.66666700  0.11625800  1
  Zn  Zn4  1  0.33333300  0.66666700  0.38374200  1
  Zn  Zn5  1  0.66666700  0.33333300  0.88374200  1
  Cd  Cd6  1  0.00000000  0.00000000  0.50000000  1
  Cd  Cd7  1  0.00000000  0.00000000  0.00000000  1
  B  B8  1  0.33333300  0.66666700  0.59514200  1
  B  B9  1  0.66666700  0.33333300  0.09514200  1
  B  B10  1  0.66666700  0.33333300  0.40485800  1
  B  B11  1  0.33333300  0.66666700  0.90485800  1
  O  O12  1  0.61315000  0.93171300  0.59554500  1
  O  O13  1  0.31856200  0.38685000  0.59554500  1
  O  O14  1  0.06828700  0.68143800  0.59554500  1
  O  O15  1  0.68143800  0.06828700  0.09554500  1
  O  O16  1  0.38685000  0.31856200  0.09554500  1
  O  O17  1  0.93171300  0.61315000  0.09554500  1
  O  O18  1  0.38685000  0.06828700  0.40445500  1
  O  O19  1  0.68143800  0.61315000  0.40445500  1
  O  O20  1  0.93171300  0.31856200  0.40445500  1
  O  O21  1  0.31856200  0.93171300  0.90445500  1
  O  O22  1  0.61315000  0.68143800  0.90445500  1
  O  O23  1  0.06828700  0.38685000  0.90445500  1
  F  F24  1  0.66666700  0.33333300  0.75000000  1
  F  F25  1  0.33333300  0.66666700  0.25000000  1
