# generated using pymatgen
data_Cs2PuO4
_symmetry_space_group_name_H-M   'P 1'
_cell_length_a   8.20600516
_cell_length_b   8.20600516
_cell_length_c   8.20600516
_cell_angle_alpha   148.92123886
_cell_angle_beta   148.92123886
_cell_angle_gamma   44.52725143
_symmetry_Int_Tables_number   1
_chemical_formula_structural   Cs2PuO4
_chemical_formula_sum   'Cs2 Pu1 O4'
_cell_volume   146.81012165
_cell_formula_units_Z   1
loop_
 _symmetry_equiv_pos_site_id
 _symmetry_equiv_pos_as_xyz
  1  'x, y, z'
loop_
 _atom_site_type_symbol
 _atom_site_label
 _atom_site_symmetry_multiplicity
 _atom_site_fract_x
 _atom_site_fract_y
 _atom_site_fract_z
 _atom_site_occupancy
  Cs  Cs0  1  0.34770400  0.34770400  0.00000000  1
  Cs  Cs1  1  0.65229600  0.65229600  0.00000000  1
  Pu  Pu2  1  0.00000000  0.00000000  0.00000000  1
  O  O3  1  0.12626500  0.12626500  0.00000000  1
  O  O4  1  0.87373500  0.87373500  0.00000000  1
  O  O5  1  0.50000000  0.00000000  0.50000000  1
  O  O6  1  0.00000000  0.50000000  0.50000000  1
