# generated using pymatgen
data_Be4AlCr
_symmetry_space_group_name_H-M   'P 1'
_cell_length_a   4.33169860
_cell_length_b   4.33088700
_cell_length_c   7.00148901
_cell_angle_alpha   90.00000000
_cell_angle_beta   90.00506982
_cell_angle_gamma   60.00619012
_symmetry_Int_Tables_number   1
_chemical_formula_structural   Be4AlCr
_chemical_formula_sum   'Be8 Al2 Cr2'
_cell_volume   113.75833068
_cell_formula_units_Z   2
loop_
 _symmetry_equiv_pos_site_id
 _symmetry_equiv_pos_as_xyz
  1  'x, y, z'
loop_
 _atom_site_type_symbol
 _atom_site_label
 _atom_site_symmetry_multiplicity
 _atom_site_fract_x
 _atom_site_fract_y
 _atom_site_fract_z
 _atom_site_occupancy
  Be  Be0  1  0.00000000  0.00000000  0.50000000  1
  Be  Be1  1  0.00000000  0.00000000  0.00000000  1
  Be  Be2  1  0.83149300  0.33704800  0.75849400  1
  Be  Be3  1  0.33706000  0.83147000  0.75850800  1
  Be  Be4  1  0.83149300  0.83145900  0.75849400  1
  Be  Be5  1  0.16850700  0.66295200  0.24150600  1
  Be  Be6  1  0.66294000  0.16853000  0.24149200  1
  Be  Be7  1  0.16850700  0.16854100  0.24150600  1
  Al  Al8  1  0.33332000  0.33334000  0.57607600  1
  Al  Al9  1  0.66668000  0.66666000  0.42392400  1
  Cr  Cr10  1  0.66641100  0.66679500  0.05229000  1
  Cr  Cr11  1  0.33358900  0.33320500  0.94771000  1
