# generated using pymatgen
data_Dy3Si3O10F
_symmetry_space_group_name_H-M   'P 1'
_cell_length_a   11.26885600
_cell_length_b   7.39099200
_cell_length_c   12.03352781
_cell_angle_alpha   59.71618529
_cell_angle_beta   90.00000000
_cell_angle_gamma   90.00000000
_symmetry_Int_Tables_number   1
_chemical_formula_structural   Dy3Si3O10F
_chemical_formula_sum   'Dy12 Si12 O40 F4'
_cell_volume   865.47992785
_cell_formula_units_Z   4
loop_
 _symmetry_equiv_pos_site_id
 _symmetry_equiv_pos_as_xyz
  1  'x, y, z'
loop_
 _atom_site_type_symbol
 _atom_site_label
 _atom_site_symmetry_multiplicity
 _atom_site_fract_x
 _atom_site_fract_y
 _atom_site_fract_z
 _atom_site_occupancy
  Dy  Dy0  1  0.46913800  0.74367500  0.01851300  1
  Dy  Dy1  1  0.96913800  0.25632500  0.48148700  1
  Dy  Dy2  1  0.53086200  0.25632500  0.98148700  1
  Dy  Dy3  1  0.03086200  0.74367500  0.51851300  1
  Dy  Dy4  1  0.22975600  0.59528800  0.31108300  1
  Dy  Dy5  1  0.72975600  0.40471200  0.18891700  1
  Dy  Dy6  1  0.77024400  0.40471200  0.68891700  1
  Dy  Dy7  1  0.27024400  0.59528800  0.81108300  1
  Dy  Dy8  1  0.09821600  0.80530100  0.99659400  1
  Dy  Dy9  1  0.59821600  0.19469900  0.50340600  1
  Dy  Dy10  1  0.90178400  0.19469900  0.00340600  1
  Dy  Dy11  1  0.40178400  0.80530100  0.49659400  1
  Si  Si12  1  0.46244200  0.28587300  0.70867500  1
  Si  Si13  1  0.75513200  0.87646900  0.88942500  1
  Si  Si14  1  0.74486800  0.87646900  0.38942500  1
  Si  Si15  1  0.24486800  0.12353100  0.11057500  1
  Si  Si16  1  0.41404200  0.28452800  0.24050100  1
  Si  Si17  1  0.91404200  0.71547200  0.25949900  1
  Si  Si18  1  0.58595800  0.71547200  0.75949900  1
  Si  Si19  1  0.08595800  0.28452800  0.74050100  1
  Si  Si20  1  0.03755800  0.28587300  0.20867500  1
  Si  Si21  1  0.53755800  0.71412700  0.29132500  1
  Si  Si22  1  0.25513200  0.12353100  0.61057500  1
  Si  Si23  1  0.96244200  0.71412700  0.79132500  1
  O  O24  1  0.08916400  0.65777900  0.86955500  1
  O  O25  1  0.58916400  0.34222100  0.63044500  1
  O  O26  1  0.91083600  0.34222100  0.13044500  1
  O  O27  1  0.41083600  0.65777900  0.36955500  1
  O  O28  1  0.47749200  0.10419900  0.86173500  1
  O  O29  1  0.97749200  0.89580100  0.63826500  1
  O  O30  1  0.52250800  0.89580100  0.13826500  1
  O  O31  1  0.02250800  0.10419900  0.36173500  1
  O  O32  1  0.10416700  0.49504000  0.19190700  1
  O  O33  1  0.60416700  0.50496000  0.30809300  1
  O  O34  1  0.89583300  0.50496000  0.80809300  1
  O  O35  1  0.39583300  0.49504000  0.69190700  1
  O  O36  1  0.39088200  0.19887600  0.62234800  1
  O  O37  1  0.89088200  0.80112400  0.87765200  1
  O  O38  1  0.60911800  0.80112400  0.37765200  1
  O  O39  1  0.10911800  0.19887600  0.12234800  1
  O  O40  1  0.35660800  0.51258800  0.19737400  1
  O  O41  1  0.27383800  0.89705000  0.62068000  1
  O  O42  1  0.72616200  0.10295000  0.37932000  1
  O  O43  1  0.22616200  0.89705000  0.12068000  1
  O  O44  1  0.18095400  0.28692000  0.48247400  1
  O  O45  1  0.68095400  0.71308000  0.01752600  1
  O  O46  1  0.81904600  0.71308000  0.51752600  1
  O  O47  1  0.31904600  0.28692000  0.98247400  1
  O  O48  1  0.17752100  0.11479000  0.73089600  1
  O  O49  1  0.67752100  0.88521000  0.76910400  1
  O  O50  1  0.82247900  0.88521000  0.26910400  1
  O  O51  1  0.32247900  0.11479000  0.23089600  1
  O  O52  1  0.02441700  0.64913600  0.36314600  1
  O  O53  1  0.52441700  0.35086400  0.13685400  1
  O  O54  1  0.97558300  0.35086400  0.63685400  1
  O  O55  1  0.47558300  0.64913600  0.86314600  1
  O  O56  1  0.04955900  0.14875700  0.89164400  1
  O  O57  1  0.54955900  0.85124300  0.60835600  1
  O  O58  1  0.95044100  0.85124300  0.10835600  1
  O  O59  1  0.45044100  0.14875700  0.39164400  1
  O  O60  1  0.14339200  0.51258800  0.69737400  1
  O  O61  1  0.64339200  0.48741200  0.80262600  1
  O  O62  1  0.85660800  0.48741200  0.30262600  1
  O  O63  1  0.77383800  0.10295000  0.87932000  1
  F  F64  1  0.71482800  0.24470800  0.05933200  1
  F  F65  1  0.21482800  0.75529200  0.44066800  1
  F  F66  1  0.78517200  0.24470800  0.55933200  1
  F  F67  1  0.28517200  0.75529200  0.94066800  1
