# generated using pymatgen
data_Th2Co17
_symmetry_space_group_name_H-M   'P 1'
_cell_length_a   6.31175849
_cell_length_b   6.31175849
_cell_length_c   6.31175864
_cell_angle_alpha   83.07583194
_cell_angle_beta   83.07583194
_cell_angle_gamma   83.07582990
_symmetry_Int_Tables_number   1
_chemical_formula_structural   Th2Co17
_chemical_formula_sum   'Th2 Co17'
_cell_volume   246.35697618
_cell_formula_units_Z   1
loop_
 _symmetry_equiv_pos_site_id
 _symmetry_equiv_pos_as_xyz
  1  'x, y, z'
loop_
 _atom_site_type_symbol
 _atom_site_label
 _atom_site_symmetry_multiplicity
 _atom_site_fract_x
 _atom_site_fract_y
 _atom_site_fract_z
 _atom_site_occupancy
  Th  Th0  1  0.65649000  0.65649000  0.65649000  1
  Th  Th1  1  0.34351000  0.34351000  0.34351000  1
  Co  Co2  1  0.34523400  0.34523400  0.85262900  1
  Co  Co3  1  0.85262900  0.34523400  0.34523400  1
  Co  Co4  1  0.09695100  0.09695100  0.09695100  1
  Co  Co5  1  0.90304900  0.90304900  0.90304900  1
  Co  Co6  1  0.00000000  0.00000000  0.50000000  1
  Co  Co7  1  0.00000000  0.50000000  0.00000000  1
  Co  Co8  1  0.50000000  0.00000000  0.00000000  1
  Co  Co9  1  0.71538000  0.28462000  0.00000000  1
  Co  Co10  1  0.28462000  0.00000000  0.71538000  1
  Co  Co11  1  0.00000000  0.71538000  0.28462000  1
  Co  Co12  1  0.28462000  0.71538000  0.00000000  1
  Co  Co13  1  0.71538000  0.00000000  0.28462000  1
  Co  Co14  1  0.00000000  0.28462000  0.71538000  1
  Co  Co15  1  0.14737100  0.65476600  0.65476600  1
  Co  Co16  1  0.65476600  0.65476600  0.14737100  1
  Co  Co17  1  0.65476600  0.14737100  0.65476600  1
  Co  Co18  1  0.34523400  0.85262900  0.34523400  1
