# generated using pymatgen
data_CsP(HO2)2
_symmetry_space_group_name_H-M   'P 1'
_cell_length_a   6.39275100
_cell_length_b   4.96226400
_cell_length_c   15.91968178
_cell_angle_alpha   71.96444025
_cell_angle_beta   90.00000000
_cell_angle_gamma   90.00000000
_symmetry_Int_Tables_number   1
_chemical_formula_structural   CsP(HO2)2
_chemical_formula_sum   'Cs4 P4 H8 O16'
_cell_volume   480.19838129
_cell_formula_units_Z   4
loop_
 _symmetry_equiv_pos_site_id
 _symmetry_equiv_pos_as_xyz
  1  'x, y, z'
loop_
 _atom_site_type_symbol
 _atom_site_label
 _atom_site_symmetry_multiplicity
 _atom_site_fract_x
 _atom_site_fract_y
 _atom_site_fract_z
 _atom_site_occupancy
  Cs  Cs0  1  0.24982200  0.02426500  0.61883800  1
  Cs  Cs1  1  0.74982200  0.97573500  0.88116200  1
  Cs  Cs2  1  0.25017800  0.02426500  0.11883800  1
  Cs  Cs3  1  0.75017800  0.97573500  0.38116200  1
  P  P4  1  0.75896500  0.52809500  0.62981800  1
  P  P5  1  0.25896500  0.47190500  0.87018200  1
  P  P6  1  0.74103500  0.52809500  0.12981800  1
  P  P7  1  0.24103500  0.47190500  0.37018200  1
  H  H8  1  0.75387000  0.17704000  0.56916400  1
  H  H9  1  0.25387000  0.82296000  0.93083600  1
  H  H10  1  0.01245400  0.51190300  0.76275900  1
  H  H11  1  0.51245400  0.48809700  0.73724100  1
  H  H12  1  0.74613000  0.17704000  0.06916400  1
  H  H13  1  0.24613000  0.82296000  0.43083600  1
  H  H14  1  0.98754600  0.48809700  0.23724100  1
  H  H15  1  0.48754600  0.51190300  0.26275900  1
  O  O16  1  0.75252100  0.84730300  0.58704900  1
  O  O17  1  0.25252100  0.15269700  0.91295100  1
  O  O18  1  0.74688500  0.39172900  0.55135500  1
  O  O19  1  0.24688500  0.60827100  0.94864500  1
  O  O20  1  0.95074800  0.41510400  0.68729500  1
  O  O21  1  0.45074800  0.58489600  0.81270500  1
  O  O22  1  0.54938500  0.41486000  0.68394200  1
  O  O23  1  0.04938500  0.58514000  0.81605800  1
  O  O24  1  0.74747900  0.84730300  0.08704900  1
  O  O25  1  0.24747900  0.15269700  0.41295100  1
  O  O26  1  0.75311500  0.39172900  0.05135500  1
  O  O27  1  0.25311500  0.60827100  0.44864500  1
  O  O28  1  0.95061500  0.41486000  0.18394200  1
  O  O29  1  0.45061500  0.58514000  0.31605800  1
  O  O30  1  0.54925200  0.41510400  0.18729500  1
  O  O31  1  0.04925200  0.58489600  0.31270500  1
