# generated using pymatgen
data_Tl2TeMo2(PO7)2
_symmetry_space_group_name_H-M   'P 1'
_cell_length_a   9.22945300
_cell_length_b   11.50348500
_cell_length_c   12.65698900
_cell_angle_alpha   90.00000000
_cell_angle_beta   90.00000000
_cell_angle_gamma   90.00000000
_symmetry_Int_Tables_number   1
_chemical_formula_structural   Tl2TeMo2(PO7)2
_chemical_formula_sum   'Tl8 Te4 Mo8 P8 O56'
_cell_volume   1343.80358616
_cell_formula_units_Z   4
loop_
 _symmetry_equiv_pos_site_id
 _symmetry_equiv_pos_as_xyz
  1  'x, y, z'
loop_
 _atom_site_type_symbol
 _atom_site_label
 _atom_site_symmetry_multiplicity
 _atom_site_fract_x
 _atom_site_fract_y
 _atom_site_fract_z
 _atom_site_occupancy
  Tl  Tl0  1  0.52635500  0.27559600  0.18289800  1
  Tl  Tl1  1  0.52635500  0.22440400  0.81710200  1
  Tl  Tl2  1  0.97364500  0.77559600  0.31710200  1
  Tl  Tl3  1  0.97364500  0.72440400  0.68289800  1
  Tl  Tl4  1  0.47364500  0.72440400  0.81710200  1
  Tl  Tl5  1  0.47364500  0.77559600  0.18289800  1
  Tl  Tl6  1  0.02635500  0.22440400  0.68289800  1
  Tl  Tl7  1  0.02635500  0.27559600  0.31710200  1
  Te  Te8  1  0.62811800  0.25000000  0.50000000  1
  Te  Te9  1  0.87188200  0.75000000  0.00000000  1
  Te  Te10  1  0.37188200  0.75000000  0.50000000  1
  Te  Te11  1  0.12811800  0.25000000  0.00000000  1
  Mo  Mo12  1  0.75106900  0.51818000  0.37704500  1
  Mo  Mo13  1  0.75106900  0.98182000  0.62295500  1
  Mo  Mo14  1  0.74893100  0.01818000  0.12295500  1
  Mo  Mo15  1  0.74893100  0.48182000  0.87704500  1
  Mo  Mo16  1  0.24893100  0.48182000  0.62295500  1
  Mo  Mo17  1  0.24893100  0.01818000  0.37704500  1
  Mo  Mo18  1  0.25106900  0.98182000  0.87704500  1
  Mo  Mo19  1  0.25106900  0.51818000  0.12295500  1
  P  P20  1  0.63520000  0.99604700  0.36845500  1
  P  P21  1  0.63520000  0.50395300  0.63154500  1
  P  P22  1  0.86480000  0.49604700  0.13154500  1
  P  P23  1  0.86480000  0.00395300  0.86845500  1
  P  P24  1  0.36480000  0.00395300  0.63154500  1
  P  P25  1  0.36480000  0.49604700  0.36845500  1
  P  P26  1  0.13520000  0.50395300  0.86845500  1
  P  P27  1  0.13520000  0.99604700  0.13154500  1
  O  O28  1  0.64181500  0.13109700  0.36890300  1
  O  O29  1  0.64181500  0.36890300  0.63109700  1
  O  O30  1  0.85818500  0.63109700  0.13109700  1
  O  O31  1  0.85818500  0.86890300  0.86890300  1
  O  O32  1  0.35818500  0.86890300  0.63109700  1
  O  O33  1  0.35818500  0.63109700  0.36890300  1
  O  O34  1  0.14181500  0.36890300  0.86890300  1
  O  O35  1  0.14181500  0.13109700  0.13109700  1
  O  O36  1  0.52070300  0.44952500  0.36072300  1
  O  O37  1  0.52070300  0.05047500  0.63927700  1
  O  O38  1  0.97929700  0.94952500  0.13927700  1
  O  O39  1  0.97929700  0.55047500  0.86072300  1
  O  O40  1  0.47929700  0.55047500  0.63927700  1
  O  O41  1  0.47929700  0.94952500  0.36072300  1
  O  O42  1  0.02070300  0.05047500  0.86072300  1
  O  O43  1  0.02070300  0.44952500  0.13927700  1
  O  O44  1  0.70623700  0.55413100  0.53021100  1
  O  O45  1  0.70623700  0.94586900  0.46978900  1
  O  O46  1  0.79376300  0.05413100  0.96978900  1
  O  O47  1  0.79376300  0.44586900  0.03021100  1
  O  O48  1  0.31271400  0.34637500  0.66467000  1
  O  O49  1  0.29376300  0.44586900  0.46978900  1
  O  O50  1  0.20623700  0.94586900  0.03021100  1
  O  O51  1  0.20623700  0.55413100  0.96978900  1
  O  O52  1  0.68728600  0.65362500  0.33533000  1
  O  O53  1  0.68728600  0.84637500  0.66467000  1
  O  O54  1  0.81271400  0.15362500  0.16467000  1
  O  O55  1  0.81271400  0.34637500  0.83533000  1
  O  O56  1  0.26461600  0.34259000  0.07312900  1
  O  O57  1  0.26461600  0.15741000  0.92687100  1
  O  O58  1  0.23538400  0.84259000  0.42687100  1
  O  O59  1  0.23538400  0.65741000  0.57312900  1
  O  O60  1  0.73538400  0.65741000  0.92687100  1
  O  O61  1  0.73538400  0.84259000  0.07312900  1
  O  O62  1  0.76461600  0.15741000  0.57312900  1
  O  O63  1  0.76461600  0.34259000  0.42687100  1
  O  O64  1  0.27313600  0.45074700  0.27294900  1
  O  O65  1  0.27313600  0.04925300  0.72705100  1
  O  O66  1  0.22686400  0.95074700  0.22705100  1
  O  O67  1  0.22686400  0.54925300  0.77294900  1
  O  O68  1  0.72686400  0.54925300  0.72705100  1
  O  O69  1  0.72686400  0.95074700  0.27294900  1
  O  O70  1  0.77313600  0.04925300  0.77294900  1
  O  O71  1  0.77313600  0.45074700  0.22705100  1
  O  O72  1  0.43655400  0.54259200  0.11307200  1
  O  O73  1  0.43655400  0.95740800  0.88692800  1
  O  O74  1  0.06344600  0.04259200  0.38692800  1
  O  O75  1  0.06344600  0.45740800  0.61307200  1
  O  O76  1  0.56344600  0.45740800  0.88692800  1
  O  O77  1  0.56344600  0.04259200  0.11307200  1
  O  O78  1  0.93655400  0.95740800  0.61307200  1
  O  O79  1  0.93655400  0.54259200  0.38692800  1
  O  O80  1  0.18728600  0.65362500  0.16467000  1
  O  O81  1  0.18728600  0.84637500  0.83533000  1
  O  O82  1  0.31271400  0.15362500  0.33533000  1
  O  O83  1  0.29376300  0.05413100  0.53021100  1
