# generated using pymatgen
data_TmAl4Ni
_symmetry_space_group_name_H-M   'P 1'
_cell_length_a   7.88136752
_cell_length_b   7.88136752
_cell_length_c   6.65822300
_cell_angle_alpha   90.00000000
_cell_angle_beta   90.00000000
_cell_angle_gamma   150.41602923
_symmetry_Int_Tables_number   1
_chemical_formula_structural   TmAl4Ni
_chemical_formula_sum   'Tm2 Al8 Ni2'
_cell_volume   204.18479003
_cell_formula_units_Z   2
loop_
 _symmetry_equiv_pos_site_id
 _symmetry_equiv_pos_as_xyz
  1  'x, y, z'
loop_
 _atom_site_type_symbol
 _atom_site_label
 _atom_site_symmetry_multiplicity
 _atom_site_fract_x
 _atom_site_fract_y
 _atom_site_fract_z
 _atom_site_occupancy
  Tm  Tm0  1  0.88052700  0.11947300  0.25000000  1
  Tm  Tm1  1  0.11947300  0.88052700  0.75000000  1
  Al  Al2  1  0.50000000  0.50000000  0.00000000  1
  Al  Al3  1  0.50000000  0.50000000  0.50000000  1
  Al  Al4  1  0.07527100  0.92472900  0.25000000  1
  Al  Al5  1  0.92472900  0.07527100  0.75000000  1
  Al  Al6  1  0.68754500  0.31245500  0.05339000  1
  Al  Al7  1  0.31245500  0.68754500  0.94661000  1
  Al  Al8  1  0.31245500  0.68754500  0.55339000  1
  Al  Al9  1  0.68754500  0.31245500  0.44661000  1
  Ni  Ni10  1  0.22795900  0.77204100  0.25000000  1
  Ni  Ni11  1  0.77204100  0.22795900  0.75000000  1
