# generated using pymatgen
data_KSr2Br5
_symmetry_space_group_name_H-M   'P 1'
_cell_length_a   8.49424600
_cell_length_b   9.42390800
_cell_length_c   13.58866197
_cell_angle_alpha   89.90943926
_cell_angle_beta   90.00000000
_cell_angle_gamma   90.00000000
_symmetry_Int_Tables_number   1
_chemical_formula_structural   KSr2Br5
_chemical_formula_sum   'K4 Sr8 Br20'
_cell_volume   1087.75734622
_cell_formula_units_Z   4
loop_
 _symmetry_equiv_pos_site_id
 _symmetry_equiv_pos_as_xyz
  1  'x, y, z'
loop_
 _atom_site_type_symbol
 _atom_site_label
 _atom_site_symmetry_multiplicity
 _atom_site_fract_x
 _atom_site_fract_y
 _atom_site_fract_z
 _atom_site_occupancy
  K  K0  1  0.47814100  0.50435200  0.82242900  1
  K  K1  1  0.52185900  0.49564800  0.17757100  1
  K  K2  1  0.97814100  0.49564800  0.67757100  1
  K  K3  1  0.02185900  0.50435200  0.32242900  1
  Sr  Sr4  1  0.47725700  0.00038900  0.82160500  1
  Sr  Sr5  1  0.52274300  0.99961100  0.17839500  1
  Sr  Sr6  1  0.97725700  0.99961100  0.67839500  1
  Sr  Sr7  1  0.02274300  0.00038900  0.32160500  1
  Sr  Sr8  1  0.42816900  0.75052900  0.50620600  1
  Sr  Sr9  1  0.57183100  0.24947100  0.49379400  1
  Sr  Sr10  1  0.92816900  0.24947100  0.99379400  1
  Sr  Sr11  1  0.07183100  0.75052900  0.00620600  1
  Br  Br12  1  0.33752900  0.46345000  0.59123600  1
  Br  Br13  1  0.66247100  0.53655000  0.40876400  1
  Br  Br14  1  0.83752900  0.53655000  0.90876400  1
  Br  Br15  1  0.16247100  0.46345000  0.09123600  1
  Br  Br16  1  0.66550400  0.78265900  0.68334100  1
  Br  Br17  1  0.33449600  0.21734100  0.31665900  1
  Br  Br18  1  0.16550400  0.21734100  0.81665900  1
  Br  Br19  1  0.83449600  0.78265900  0.18334100  1
  Br  Br20  1  0.19553100  0.77205400  0.78450900  1
  Br  Br21  1  0.80446900  0.22794600  0.21549100  1
  Br  Br22  1  0.69553100  0.22794600  0.71549100  1
  Br  Br23  1  0.30446900  0.77205400  0.28450900  1
  Br  Br24  1  0.04519300  0.78064000  0.50280600  1
  Br  Br25  1  0.95480700  0.21936000  0.49719400  1
  Br  Br26  1  0.54519300  0.21936000  0.99719400  1
  Br  Br27  1  0.45480700  0.78064000  0.00280600  1
  Br  Br28  1  0.83922100  0.95939400  0.89941400  1
  Br  Br29  1  0.16077900  0.04060600  0.10058600  1
  Br  Br30  1  0.33922100  0.04060600  0.60058600  1
  Br  Br31  1  0.66077900  0.95939400  0.39941400  1
