# generated using pymatgen
data_Lu8In3Co
_symmetry_space_group_name_H-M   'P 1'
_cell_length_a   10.15019772
_cell_length_b   10.15019772
_cell_length_c   6.84951600
_cell_angle_alpha   90.00000000
_cell_angle_beta   90.00000000
_cell_angle_gamma   119.99999819
_symmetry_Int_Tables_number   1
_chemical_formula_structural   Lu8In3Co
_chemical_formula_sum   'Lu16 In6 Co2'
_cell_volume   611.13833766
_cell_formula_units_Z   2
loop_
 _symmetry_equiv_pos_site_id
 _symmetry_equiv_pos_as_xyz
  1  'x, y, z'
loop_
 _atom_site_type_symbol
 _atom_site_label
 _atom_site_symmetry_multiplicity
 _atom_site_fract_x
 _atom_site_fract_y
 _atom_site_fract_z
 _atom_site_occupancy
  Lu  Lu0  1  0.53339600  0.06679200  0.52305700  1
  Lu  Lu1  1  0.93320800  0.46660400  0.52305700  1
  Lu  Lu2  1  0.53339600  0.46660400  0.52305700  1
  Lu  Lu3  1  0.46660400  0.93320800  0.02305700  1
  Lu  Lu4  1  0.06679200  0.53339600  0.02305700  1
  Lu  Lu5  1  0.46660400  0.53339600  0.02305700  1
  Lu  Lu6  1  0.17887500  0.35775000  0.73098800  1
  Lu  Lu7  1  0.64225000  0.82112500  0.73098800  1
  Lu  Lu8  1  0.17887500  0.82112500  0.73098800  1
  Lu  Lu9  1  0.82112500  0.64225000  0.23098800  1
  Lu  Lu10  1  0.35775000  0.17887500  0.23098800  1
  Lu  Lu11  1  0.82112500  0.17887500  0.23098800  1
  Lu  Lu12  1  0.66666700  0.33333300  0.90907800  1
  Lu  Lu13  1  0.33333300  0.66666700  0.40907800  1
  Lu  Lu14  1  0.00000000  0.00000000  0.50491000  1
  Lu  Lu15  1  0.00000000  0.00000000  0.00491000  1
  In  In16  1  0.83648500  0.67297000  0.76907200  1
  In  In17  1  0.32703000  0.16351500  0.76907200  1
  In  In18  1  0.83648500  0.16351500  0.76907200  1
  In  In19  1  0.16351500  0.32703000  0.26907200  1
  In  In20  1  0.67297000  0.83648500  0.26907200  1
  In  In21  1  0.16351500  0.83648500  0.26907200  1
  Co  Co22  1  0.66666700  0.33333300  0.29450100  1
  Co  Co23  1  0.33333300  0.66666700  0.79450100  1
