# generated using pymatgen
data_TiSi2
_symmetry_space_group_name_H-M   'P 1'
_cell_length_a   6.97971100
_cell_length_b   6.97971100
_cell_length_c   3.57180800
_cell_angle_alpha   90.00000000
_cell_angle_beta   90.00000000
_cell_angle_gamma   150.45694381
_symmetry_Int_Tables_number   1
_chemical_formula_structural   TiSi2
_chemical_formula_sum   'Ti2 Si4'
_cell_volume   85.79819382
_cell_formula_units_Z   2
loop_
 _symmetry_equiv_pos_site_id
 _symmetry_equiv_pos_as_xyz
  1  'x, y, z'
loop_
 _atom_site_type_symbol
 _atom_site_label
 _atom_site_symmetry_multiplicity
 _atom_site_fract_x
 _atom_site_fract_y
 _atom_site_fract_z
 _atom_site_occupancy
  Ti  Ti0  1  0.89724900  0.10275100  0.75000000  1
  Ti  Ti1  1  0.10275100  0.89724900  0.25000000  1
  Si  Si2  1  0.55977000  0.44023000  0.75000000  1
  Si  Si3  1  0.44023000  0.55977000  0.25000000  1
  Si  Si4  1  0.24984500  0.75015500  0.75000000  1
  Si  Si5  1  0.75015500  0.24984500  0.25000000  1
