# generated using pymatgen
data_RbFeBr4
_symmetry_space_group_name_H-M   'P 1'
_cell_length_a   7.74313600
_cell_length_b   10.12927200
_cell_length_c   12.19142400
_cell_angle_alpha   90.00000000
_cell_angle_beta   90.00000000
_cell_angle_gamma   90.00000000
_symmetry_Int_Tables_number   1
_chemical_formula_structural   RbFeBr4
_chemical_formula_sum   'Rb4 Fe4 Br16'
_cell_volume   956.20179859
_cell_formula_units_Z   4
loop_
 _symmetry_equiv_pos_site_id
 _symmetry_equiv_pos_as_xyz
  1  'x, y, z'
loop_
 _atom_site_type_symbol
 _atom_site_label
 _atom_site_symmetry_multiplicity
 _atom_site_fract_x
 _atom_site_fract_y
 _atom_site_fract_z
 _atom_site_occupancy
  Rb  Rb0  1  0.25000000  0.65954200  0.18419900  1
  Rb  Rb1  1  0.75000000  0.34045800  0.81580100  1
  Rb  Rb2  1  0.75000000  0.15954200  0.31580100  1
  Rb  Rb3  1  0.25000000  0.84045800  0.68419900  1
  Fe  Fe4  1  0.25000000  0.19156900  0.06274700  1
  Fe  Fe5  1  0.75000000  0.80843100  0.93725300  1
  Fe  Fe6  1  0.75000000  0.69156900  0.43725300  1
  Fe  Fe7  1  0.25000000  0.30843100  0.56274700  1
  Br  Br8  1  0.25000000  0.40361300  0.38812100  1
  Br  Br9  1  0.75000000  0.59638700  0.61187900  1
  Br  Br10  1  0.75000000  0.90361300  0.11187900  1
  Br  Br11  1  0.25000000  0.09638700  0.88812100  1
  Br  Br12  1  0.25000000  0.03052700  0.20193500  1
  Br  Br13  1  0.75000000  0.96947300  0.79806500  1
  Br  Br14  1  0.75000000  0.53052700  0.29806500  1
  Br  Br15  1  0.25000000  0.46947300  0.70193500  1
  Br  Br16  1  0.00189200  0.32577100  0.08247600  1
  Br  Br17  1  0.99810800  0.67422900  0.91752400  1
  Br  Br18  1  0.99810800  0.82577100  0.41752400  1
  Br  Br19  1  0.50189200  0.67422900  0.91752400  1
  Br  Br20  1  0.00189200  0.17422900  0.58247600  1
  Br  Br21  1  0.49810800  0.32577100  0.08247600  1
  Br  Br22  1  0.49810800  0.17422900  0.58247600  1
  Br  Br23  1  0.50189200  0.82577100  0.41752400  1
