# generated using pymatgen
data_Ba3(AlP2)2
_symmetry_space_group_name_H-M   'P 1'
_cell_length_a   7.37267100
_cell_length_b   11.66724800
_cell_length_c   11.70159300
_cell_angle_alpha   90.00000000
_cell_angle_beta   90.00000000
_cell_angle_gamma   90.00000000
_symmetry_Int_Tables_number   1
_chemical_formula_structural   Ba3(AlP2)2
_chemical_formula_sum   'Ba12 Al8 P16'
_cell_volume   1006.55676538
_cell_formula_units_Z   4
loop_
 _symmetry_equiv_pos_site_id
 _symmetry_equiv_pos_as_xyz
  1  'x, y, z'
loop_
 _atom_site_type_symbol
 _atom_site_label
 _atom_site_symmetry_multiplicity
 _atom_site_fract_x
 _atom_site_fract_y
 _atom_site_fract_z
 _atom_site_occupancy
  Ba  Ba0  1  0.57911300  0.07919500  0.35982600  1
  Ba  Ba1  1  0.07911300  0.42080500  0.14017400  1
  Ba  Ba2  1  0.42088700  0.57919500  0.64017400  1
  Ba  Ba3  1  0.92088700  0.92080500  0.85982600  1
  Ba  Ba4  1  0.42088700  0.92080500  0.64017400  1
  Ba  Ba5  1  0.92088700  0.57919500  0.85982600  1
  Ba  Ba6  1  0.57911300  0.42080500  0.35982600  1
  Ba  Ba7  1  0.07911300  0.07919500  0.14017400  1
  Ba  Ba8  1  0.59695400  0.25000000  0.73374900  1
  Ba  Ba9  1  0.09695400  0.25000000  0.76625100  1
  Ba  Ba10  1  0.40304600  0.75000000  0.26625100  1
  Ba  Ba11  1  0.90304600  0.75000000  0.23374900  1
  Al  Al12  1  0.55851400  0.12498400  0.03568500  1
  Al  Al13  1  0.05851400  0.37501600  0.46431500  1
  Al  Al14  1  0.44148600  0.62498400  0.96431500  1
  Al  Al15  1  0.94148600  0.87501600  0.53568500  1
  Al  Al16  1  0.44148600  0.87501600  0.96431500  1
  Al  Al17  1  0.94148600  0.62498400  0.53568500  1
  Al  Al18  1  0.55851400  0.37501600  0.03568500  1
  Al  Al19  1  0.05851400  0.12498400  0.46431500  1
  P  P20  1  0.65357000  0.55654200  0.11233200  1
  P  P21  1  0.15357000  0.94345800  0.38766800  1
  P  P22  1  0.34643000  0.05654200  0.88766800  1
  P  P23  1  0.84643000  0.44345800  0.61233200  1
  P  P24  1  0.34643000  0.44345800  0.88766800  1
  P  P25  1  0.84643000  0.05654200  0.61233200  1
  P  P26  1  0.65357000  0.94345800  0.11233200  1
  P  P27  1  0.15357000  0.55654200  0.38766800  1
  P  P28  1  0.80605400  0.25000000  0.97237800  1
  P  P29  1  0.30605400  0.25000000  0.52762200  1
  P  P30  1  0.19394600  0.75000000  0.02762200  1
  P  P31  1  0.69394600  0.75000000  0.47237800  1
  P  P32  1  0.91101100  0.25000000  0.33187600  1
  P  P33  1  0.41101100  0.25000000  0.16812400  1
  P  P34  1  0.08898900  0.75000000  0.66812400  1
  P  P35  1  0.58898900  0.75000000  0.83187600  1
