# generated using pymatgen
data_RbAlBr4
_symmetry_space_group_name_H-M   'P 1'
_cell_length_a   7.66960100
_cell_length_b   10.04505900
_cell_length_c   12.23380200
_cell_angle_alpha   90.00000000
_cell_angle_beta   90.00000000
_cell_angle_gamma   90.00000000
_symmetry_Int_Tables_number   1
_chemical_formula_structural   RbAlBr4
_chemical_formula_sum   'Rb4 Al4 Br16'
_cell_volume   942.51161351
_cell_formula_units_Z   4
loop_
 _symmetry_equiv_pos_site_id
 _symmetry_equiv_pos_as_xyz
  1  'x, y, z'
loop_
 _atom_site_type_symbol
 _atom_site_label
 _atom_site_symmetry_multiplicity
 _atom_site_fract_x
 _atom_site_fract_y
 _atom_site_fract_z
 _atom_site_occupancy
  Rb  Rb0  1  0.25000000  0.65991800  0.18466100  1
  Rb  Rb1  1  0.75000000  0.34008200  0.81533900  1
  Rb  Rb2  1  0.75000000  0.15991800  0.31533900  1
  Rb  Rb3  1  0.25000000  0.84008200  0.68466100  1
  Al  Al4  1  0.25000000  0.18881200  0.06250600  1
  Al  Al5  1  0.75000000  0.81118800  0.93749400  1
  Al  Al6  1  0.75000000  0.68881200  0.43749400  1
  Al  Al7  1  0.25000000  0.31118800  0.56250600  1
  Br  Br8  1  0.25000000  0.40123100  0.38825300  1
  Br  Br9  1  0.75000000  0.59876900  0.61174700  1
  Br  Br10  1  0.75000000  0.90123100  0.11174700  1
  Br  Br11  1  0.25000000  0.09876900  0.88825300  1
  Br  Br12  1  0.25000000  0.03336100  0.20307500  1
  Br  Br13  1  0.75000000  0.96663900  0.79692500  1
  Br  Br14  1  0.75000000  0.53336100  0.29692500  1
  Br  Br15  1  0.25000000  0.46663900  0.70307500  1
  Br  Br16  1  0.00424900  0.32509700  0.08288000  1
  Br  Br17  1  0.99575100  0.67490300  0.91712000  1
  Br  Br18  1  0.99575100  0.82509700  0.41712000  1
  Br  Br19  1  0.50424900  0.67490300  0.91712000  1
  Br  Br20  1  0.00424900  0.17490300  0.58288000  1
  Br  Br21  1  0.49575100  0.32509700  0.08288000  1
  Br  Br22  1  0.49575100  0.17490300  0.58288000  1
  Br  Br23  1  0.50424900  0.82509700  0.41712000  1
