# generated using pymatgen
data_BaFe2(P2O7)2
_symmetry_space_group_name_H-M   'P 1'
_cell_length_a   7.58652637
_cell_length_b   9.15661138
_cell_length_c   9.63660150
_cell_angle_alpha   64.62491659
_cell_angle_beta   100.88482230
_cell_angle_gamma   100.80971897
_symmetry_Int_Tables_number   1
_chemical_formula_structural   BaFe2(P2O7)2
_chemical_formula_sum   'Ba2 Fe4 P8 O28'
_cell_volume   589.65353377
_cell_formula_units_Z   2
loop_
 _symmetry_equiv_pos_site_id
 _symmetry_equiv_pos_as_xyz
  1  'x, y, z'
loop_
 _atom_site_type_symbol
 _atom_site_label
 _atom_site_symmetry_multiplicity
 _atom_site_fract_x
 _atom_site_fract_y
 _atom_site_fract_z
 _atom_site_occupancy
  Ba  Ba0  1  0.99999700  0.00000000  0.99999800  1
  Ba  Ba1  1  0.49999800  0.50000100  0.50000000  1
  Fe  Fe2  1  0.08097900  0.45738400  0.77231100  1
  Fe  Fe3  1  0.91901600  0.54262500  0.22767200  1
  Fe  Fe4  1  0.58097300  0.95736800  0.27234000  1
  Fe  Fe5  1  0.41902600  0.04263600  0.72767000  1
  P  P6  1  0.69515600  0.21501100  0.45032800  1
  P  P7  1  0.19516300  0.71501700  0.95031400  1
  P  P8  1  0.80483800  0.28498200  0.04968300  1
  P  P9  1  0.30484400  0.78498800  0.54967300  1
  P  P10  1  0.42193200  0.23733900  0.95434200  1
  P  P11  1  0.92191600  0.73734300  0.45434200  1
  P  P12  1  0.07808400  0.26265800  0.54565800  1
  P  P13  1  0.57807100  0.76265900  0.04566100  1
  O  O14  1  0.59154800  0.12061200  0.35886200  1
  O  O15  1  0.09155700  0.62062000  0.85886000  1
  O  O16  1  0.90844200  0.37937900  0.14113800  1
  O  O17  1  0.40845000  0.87938400  0.64114000  1
  O  O18  1  0.61383300  0.18567300  0.59575300  1
  O  O19  1  0.11383700  0.68568300  0.09573900  1
  O  O20  1  0.88616600  0.31432000  0.90425900  1
  O  O21  1  0.38616500  0.81432800  0.40424900  1
  O  O22  1  0.71671900  0.40195300  0.35611400  1
  O  O23  1  0.21670500  0.90194600  0.85611900  1
  O  O24  1  0.78329500  0.09805500  0.14387900  1
  O  O25  1  0.28328100  0.59804900  0.64389100  1
  O  O26  1  0.89627600  0.15804100  0.50285200  1
  O  O27  1  0.39627700  0.65804400  0.00284900  1
  O  O28  1  0.60372300  0.34195300  0.99714900  1
  O  O29  1  0.10372600  0.84196100  0.49714800  1
  O  O30  1  0.76404800  0.82756000  0.43779200  1
  O  O31  1  0.26405000  0.32755300  0.93780300  1
  O  O32  1  0.73595600  0.67244900  0.06219800  1
  O  O33  1  0.23595100  0.17243900  0.56221000  1
  O  O34  1  0.05404700  0.27268400  0.69599700  1
  O  O35  1  0.55405900  0.77269600  0.19598900  1
  O  O36  1  0.44594300  0.22730100  0.80401400  1
  O  O37  1  0.94594900  0.72731300  0.30400800  1
  O  O38  1  0.39817100  0.06943400  0.09063800  1
  O  O39  1  0.89817500  0.56942900  0.59064100  1
  O  O40  1  0.10182200  0.43057200  0.40935800  1
  O  O41  1  0.60183300  0.93056100  0.90936300  1
