# generated using pymatgen
data_KNd(SeO4)2
_symmetry_space_group_name_H-M   'P 1'
_cell_length_a   7.49310000
_cell_length_b   8.87122000
_cell_length_c   11.16156658
_cell_angle_alpha   88.29000491
_cell_angle_beta   90.00000000
_cell_angle_gamma   90.00000000
_symmetry_Int_Tables_number   1
_chemical_formula_structural   KNd(SeO4)2
_chemical_formula_sum   'K4 Nd4 Se8 O32'
_cell_volume   741.61172069
_cell_formula_units_Z   4
loop_
 _symmetry_equiv_pos_site_id
 _symmetry_equiv_pos_as_xyz
  1  'x, y, z'
loop_
 _atom_site_type_symbol
 _atom_site_label
 _atom_site_symmetry_multiplicity
 _atom_site_fract_x
 _atom_site_fract_y
 _atom_site_fract_z
 _atom_site_occupancy
  K  K0  1  0.34822000  0.43314500  0.83743200  1
  K  K1  1  0.65178000  0.56685500  0.16256800  1
  K  K2  1  0.84822000  0.56685500  0.66256800  1
  K  K3  1  0.15178000  0.43314500  0.33743200  1
  Nd  Nd4  1  0.16236400  0.94242900  0.84772500  1
  Nd  Nd5  1  0.83763600  0.05757100  0.15227500  1
  Nd  Nd6  1  0.66236400  0.05757100  0.65227500  1
  Nd  Nd7  1  0.33763600  0.94242900  0.34772500  1
  Se  Se8  1  0.16339600  0.19188000  0.60595000  1
  Se  Se9  1  0.83660400  0.80812000  0.39405000  1
  Se  Se10  1  0.66339600  0.80812000  0.89405000  1
  Se  Se11  1  0.33660400  0.19188000  0.10595000  1
  Se  Se12  1  0.33792300  0.71770700  0.58902900  1
  Se  Se13  1  0.66207700  0.28229300  0.41097100  1
  Se  Se14  1  0.83792300  0.28229300  0.91097100  1
  Se  Se15  1  0.16207700  0.71770700  0.08902900  1
  O  O16  1  0.81752600  0.86513600  0.53409100  1
  O  O17  1  0.18247400  0.13486400  0.46590900  1
  O  O18  1  0.31752600  0.13486400  0.96590900  1
  O  O19  1  0.68247400  0.86513600  0.03409100  1
  O  O20  1  0.50080400  0.90939600  0.82082700  1
  O  O21  1  0.49919600  0.09060400  0.17917300  1
  O  O22  1  0.00080400  0.09060400  0.67917300  1
  O  O23  1  0.99919600  0.90939600  0.32082700  1
  O  O24  1  0.13388000  0.37504700  0.60590500  1
  O  O25  1  0.86612000  0.62495300  0.39409500  1
  O  O26  1  0.63388000  0.62495300  0.89409500  1
  O  O27  1  0.36612000  0.37504700  0.10590500  1
  O  O28  1  0.25301500  0.69689500  0.95307500  1
  O  O29  1  0.74698500  0.30310500  0.04692500  1
  O  O30  1  0.75301500  0.30310500  0.54692500  1
  O  O31  1  0.24698500  0.69689500  0.45307500  1
  O  O32  1  0.43832400  0.88766800  0.55952300  1
  O  O33  1  0.56167600  0.11233200  0.44047700  1
  O  O34  1  0.93832400  0.11233200  0.94047700  1
  O  O35  1  0.06167600  0.88766800  0.05952300  1
  O  O36  1  0.48075800  0.58639600  0.63104600  1
  O  O37  1  0.51924200  0.41360400  0.36895400  1
  O  O38  1  0.98075800  0.41360400  0.86895400  1
  O  O39  1  0.01924200  0.58639600  0.13104600  1
  O  O40  1  0.83947600  0.85698800  0.80398500  1
  O  O41  1  0.16052400  0.14301200  0.19601500  1
  O  O42  1  0.33947600  0.14301200  0.69601500  1
  O  O43  1  0.66052400  0.85698800  0.30398500  1
  O  O44  1  0.18018100  0.74247900  0.69360300  1
  O  O45  1  0.81981900  0.25752100  0.30639700  1
  O  O46  1  0.68018100  0.25752100  0.80639700  1
  O  O47  1  0.31981900  0.74247900  0.19360300  1
