# generated using pymatgen
data_YB4Ru
_symmetry_space_group_name_H-M   'P 1'
_cell_length_a   3.56310300
_cell_length_b   5.96849900
_cell_length_c   11.54497500
_cell_angle_alpha   90.00000000
_cell_angle_beta   90.00000000
_cell_angle_gamma   90.00000000
_symmetry_Int_Tables_number   1
_chemical_formula_structural   YB4Ru
_chemical_formula_sum   'Y4 B16 Ru4'
_cell_volume   245.51978725
_cell_formula_units_Z   4
loop_
 _symmetry_equiv_pos_site_id
 _symmetry_equiv_pos_as_xyz
  1  'x, y, z'
loop_
 _atom_site_type_symbol
 _atom_site_label
 _atom_site_symmetry_multiplicity
 _atom_site_fract_x
 _atom_site_fract_y
 _atom_site_fract_z
 _atom_site_occupancy
  Y  Y0  1  0.00000000  0.62965600  0.35019600  1
  Y  Y1  1  0.00000000  0.37034400  0.64980400  1
  Y  Y2  1  0.00000000  0.12965600  0.14980400  1
  Y  Y3  1  0.00000000  0.87034400  0.85019600  1
  B  B4  1  0.50000000  0.79001700  0.18546900  1
  B  B5  1  0.50000000  0.20998300  0.81453100  1
  B  B6  1  0.50000000  0.29001700  0.31453100  1
  B  B7  1  0.50000000  0.70998300  0.68546900  1
  B  B8  1  0.50000000  0.86398100  0.03025400  1
  B  B9  1  0.50000000  0.13601900  0.96974600  1
  B  B10  1  0.50000000  0.36398100  0.46974600  1
  B  B11  1  0.50000000  0.63601900  0.53025400  1
  B  B12  1  0.50000000  0.88796900  0.45316800  1
  B  B13  1  0.50000000  0.11203100  0.54683200  1
  B  B14  1  0.50000000  0.38796900  0.04683200  1
  B  B15  1  0.50000000  0.61203100  0.95316800  1
  B  B16  1  0.50000000  0.97716700  0.30819300  1
  B  B17  1  0.50000000  0.02283300  0.69180700  1
  B  B18  1  0.50000000  0.47716700  0.19180700  1
  B  B19  1  0.50000000  0.52283300  0.80819300  1
  Ru  Ru20  1  0.00000000  0.64073500  0.09249700  1
  Ru  Ru21  1  0.00000000  0.35926500  0.90750300  1
  Ru  Ru22  1  0.00000000  0.14073500  0.40750300  1
  Ru  Ru23  1  0.00000000  0.85926500  0.59249700  1
