# generated using pymatgen
data_Ta6Zn7
_symmetry_space_group_name_H-M   'P 1'
_cell_length_a   9.61748458
_cell_length_b   9.61748458
_cell_length_c   9.61748458
_cell_angle_alpha   30.53998057
_cell_angle_beta   30.53998057
_cell_angle_gamma   30.53998250
_symmetry_Int_Tables_number   1
_chemical_formula_structural   Ta6Zn7
_chemical_formula_sum   'Ta6 Zn7'
_cell_volume   203.62344927
_cell_formula_units_Z   1
loop_
 _symmetry_equiv_pos_site_id
 _symmetry_equiv_pos_as_xyz
  1  'x, y, z'
loop_
 _atom_site_type_symbol
 _atom_site_label
 _atom_site_symmetry_multiplicity
 _atom_site_fract_x
 _atom_site_fract_y
 _atom_site_fract_z
 _atom_site_occupancy
  Ta  Ta0  1  0.83534500  0.83534500  0.83534500  1
  Ta  Ta1  1  0.16465500  0.16465500  0.16465500  1
  Ta  Ta2  1  0.65019600  0.65019600  0.65019600  1
  Ta  Ta3  1  0.34980400  0.34980400  0.34980400  1
  Ta  Ta4  1  0.54528600  0.54528600  0.54528600  1
  Ta  Ta5  1  0.45471400  0.45471400  0.45471400  1
  Zn  Zn6  1  0.00000000  0.00000000  0.00000000  1
  Zn  Zn7  1  0.90649600  0.41453800  0.90649600  1
  Zn  Zn8  1  0.90649600  0.90649600  0.41453800  1
  Zn  Zn9  1  0.41453800  0.90649600  0.90649600  1
  Zn  Zn10  1  0.09350400  0.58546200  0.09350400  1
  Zn  Zn11  1  0.09350400  0.09350400  0.58546200  1
  Zn  Zn12  1  0.58546200  0.09350400  0.09350400  1
