# generated using pymatgen
data_K2Hg3Se4
_symmetry_space_group_name_H-M   'P 1'
_cell_length_a   6.99901800
_cell_length_b   11.23402500
_cell_length_c   14.44474900
_cell_angle_alpha   90.00000000
_cell_angle_beta   90.00000000
_cell_angle_gamma   90.00000000
_symmetry_Int_Tables_number   1
_chemical_formula_structural   K2Hg3Se4
_chemical_formula_sum   'K8 Hg12 Se16'
_cell_volume   1135.74934793
_cell_formula_units_Z   4
loop_
 _symmetry_equiv_pos_site_id
 _symmetry_equiv_pos_as_xyz
  1  'x, y, z'
loop_
 _atom_site_type_symbol
 _atom_site_label
 _atom_site_symmetry_multiplicity
 _atom_site_fract_x
 _atom_site_fract_y
 _atom_site_fract_z
 _atom_site_occupancy
  K  K0  1  0.72981000  0.88187500  0.50113900  1
  K  K1  1  0.27019000  0.11812500  0.49886100  1
  K  K2  1  0.77019000  0.61812500  0.00113900  1
  K  K3  1  0.72981000  0.11812500  0.99886100  1
  K  K4  1  0.22981000  0.38187500  0.99886100  1
  K  K5  1  0.27019000  0.88187500  0.00113900  1
  K  K6  1  0.77019000  0.38187500  0.49886100  1
  K  K7  1  0.22981000  0.61812500  0.50113900  1
  Hg  Hg8  1  0.58752000  0.50000000  0.75000000  1
  Hg  Hg9  1  0.41248000  0.50000000  0.25000000  1
  Hg  Hg10  1  0.91248000  0.00000000  0.25000000  1
  Hg  Hg11  1  0.08752000  0.00000000  0.75000000  1
  Hg  Hg12  1  0.58830400  0.83840600  0.75827300  1
  Hg  Hg13  1  0.41169600  0.16159400  0.24172700  1
  Hg  Hg14  1  0.91169600  0.66159400  0.25827300  1
  Hg  Hg15  1  0.58830400  0.16159400  0.74172700  1
  Hg  Hg16  1  0.08830400  0.33840600  0.74172700  1
  Hg  Hg17  1  0.41169600  0.83840600  0.25827300  1
  Hg  Hg18  1  0.91169600  0.33840600  0.24172700  1
  Hg  Hg19  1  0.08830400  0.66159400  0.75827300  1
  Se  Se20  1  0.82546700  0.63414700  0.63918400  1
  Se  Se21  1  0.17453300  0.36585300  0.36081600  1
  Se  Se22  1  0.67453300  0.86585300  0.13918400  1
  Se  Se23  1  0.82546700  0.36585300  0.86081600  1
  Se  Se24  1  0.32546700  0.13414700  0.86081600  1
  Se  Se25  1  0.17453300  0.63414700  0.13918400  1
  Se  Se26  1  0.67453300  0.13414700  0.36081600  1
  Se  Se27  1  0.32546700  0.86585300  0.63918400  1
  Se  Se28  1  0.86455700  0.87212200  0.86992500  1
  Se  Se29  1  0.13544300  0.12787800  0.13007500  1
  Se  Se30  1  0.63544300  0.62787800  0.36992500  1
  Se  Se31  1  0.86455700  0.12787800  0.63007500  1
  Se  Se32  1  0.36455700  0.37212200  0.63007500  1
  Se  Se33  1  0.13544300  0.87212200  0.36992500  1
  Se  Se34  1  0.63544300  0.37212200  0.13007500  1
  Se  Se35  1  0.36455700  0.62787800  0.86992500  1
