# generated using pymatgen
data_KNb13O33
_symmetry_space_group_name_H-M   'P 1'
_cell_length_a   3.88473700
_cell_length_b   11.66200730
_cell_length_c   15.64544569
_cell_angle_alpha   90.95531307
_cell_angle_beta   90.00000000
_cell_angle_gamma   99.58759133
_symmetry_Int_Tables_number   1
_chemical_formula_structural   KNb13O33
_chemical_formula_sum   'K1 Nb13 O33'
_cell_volume   698.79830839
_cell_formula_units_Z   1
loop_
 _symmetry_equiv_pos_site_id
 _symmetry_equiv_pos_as_xyz
  1  'x, y, z'
loop_
 _atom_site_type_symbol
 _atom_site_label
 _atom_site_symmetry_multiplicity
 _atom_site_fract_x
 _atom_site_fract_y
 _atom_site_fract_z
 _atom_site_occupancy
  K  K0  1  0.50000000  0.00000000  0.50000000  1
  Nb  Nb1  1  0.70667100  0.41334100  0.62577100  1
  Nb  Nb2  1  0.29332900  0.58665900  0.37422900  1
  Nb  Nb3  1  0.91305100  0.82610200  0.32462500  1
  Nb  Nb4  1  0.08694900  0.17389800  0.67537500  1
  Nb  Nb5  1  0.15511900  0.31023900  0.90392900  1
  Nb  Nb6  1  0.84488100  0.68976100  0.09607100  1
  Nb  Nb7  1  0.92944200  0.85888400  0.77194000  1
  Nb  Nb8  1  0.07055800  0.14111600  0.22806000  1
  Nb  Nb9  1  0.77515400  0.55030800  0.86307400  1
  Nb  Nb10  1  0.22484600  0.44969200  0.13692600  1
  Nb  Nb11  1  0.86143900  0.72287800  0.53347800  1
  Nb  Nb12  1  0.13856100  0.27712200  0.46652200  1
  Nb  Nb13  1  0.00000000  0.00000000  0.00000000  1
  O  O14  1  0.08183100  0.16366200  0.95123600  1
  O  O15  1  0.91816900  0.83633800  0.04876400  1
  O  O16  1  0.42969900  0.85939800  0.75542600  1
  O  O17  1  0.57030100  0.14060200  0.24457400  1
  O  O18  1  0.73184200  0.46368300  0.73531900  1
  O  O19  1  0.26815800  0.53631700  0.26468100  1
  O  O20  1  0.67960300  0.35920700  0.90136300  1
  O  O21  1  0.32039700  0.64079300  0.09863700  1
  O  O22  1  0.65234700  0.30469400  0.49459900  1
  O  O23  1  0.34765300  0.69530600  0.50540100  1
  O  O24  1  0.25007700  0.50015400  0.86232000  1
  O  O25  1  0.74992300  0.49984600  0.13768000  1
  O  O26  1  0.80573900  0.61147800  0.97225900  1
  O  O27  1  0.19426100  0.38852200  0.02774100  1
  O  O28  1  0.90007900  0.80015800  0.63466200  1
  O  O29  1  0.09992100  0.19984200  0.36533800  1
  O  O30  1  0.60967100  0.21934100  0.66338500  1
  O  O31  1  0.39032900  0.78065900  0.33661500  1
  O  O32  1  0.96444200  0.92888400  0.88066300  1
  O  O33  1  0.03555800  0.07111600  0.11933700  1
  O  O34  1  0.87202800  0.74405700  0.21226900  1
  O  O35  1  0.12797200  0.25594300  0.78773100  1
  O  O36  1  0.92754100  0.85508200  0.45317400  1
  O  O37  1  0.07245900  0.14491800  0.54682600  1
  O  O38  1  0.84641200  0.69282500  0.80469300  1
  O  O39  1  0.15358800  0.30717500  0.19530700  1
  O  O40  1  0.77657300  0.55314700  0.56876700  1
  O  O41  1  0.22342700  0.44685300  0.43123300  1
  O  O42  1  0.81805300  0.63610600  0.38884500  1
  O  O43  1  0.18194700  0.36389400  0.61115500  1
  O  O44  1  0.50000000  0.00000000  0.00000000  1
  O  O45  1  0.98835100  0.97670100  0.29178700  1
  O  O46  1  0.01164900  0.02329900  0.70821300  1
