# generated using pymatgen
data_Gd4C2Cl3
_symmetry_space_group_name_H-M   'P 1'
_cell_length_a   3.70697600
_cell_length_b   10.69447700
_cell_length_c   19.94707200
_cell_angle_alpha   90.00000000
_cell_angle_beta   90.00000000
_cell_angle_gamma   90.00000000
_symmetry_Int_Tables_number   1
_chemical_formula_structural   Gd4C2Cl3
_chemical_formula_sum   'Gd16 C8 Cl12'
_cell_volume   790.78510482
_cell_formula_units_Z   4
loop_
 _symmetry_equiv_pos_site_id
 _symmetry_equiv_pos_as_xyz
  1  'x, y, z'
loop_
 _atom_site_type_symbol
 _atom_site_label
 _atom_site_symmetry_multiplicity
 _atom_site_fract_x
 _atom_site_fract_y
 _atom_site_fract_z
 _atom_site_occupancy
  Gd  Gd0  1  0.25000000  0.13931600  0.57234200  1
  Gd  Gd1  1  0.25000000  0.63931600  0.92765800  1
  Gd  Gd2  1  0.75000000  0.86068400  0.42765800  1
  Gd  Gd3  1  0.75000000  0.36068400  0.07234200  1
  Gd  Gd4  1  0.25000000  0.63797100  0.75638800  1
  Gd  Gd5  1  0.25000000  0.13797100  0.74361200  1
  Gd  Gd6  1  0.75000000  0.36202900  0.24361200  1
  Gd  Gd7  1  0.75000000  0.86202900  0.25638800  1
  Gd  Gd8  1  0.25000000  0.10027400  0.33155000  1
  Gd  Gd9  1  0.25000000  0.60027400  0.16845000  1
  Gd  Gd10  1  0.75000000  0.89972600  0.66845000  1
  Gd  Gd11  1  0.75000000  0.39972600  0.83155000  1
  Gd  Gd12  1  0.25000000  0.12376900  0.16333700  1
  Gd  Gd13  1  0.25000000  0.62376900  0.33666300  1
  Gd  Gd14  1  0.75000000  0.87623100  0.83666300  1
  Gd  Gd15  1  0.75000000  0.37623100  0.66333700  1
  C  C16  1  0.25000000  0.86357900  0.34871600  1
  C  C17  1  0.25000000  0.36357900  0.15128400  1
  C  C18  1  0.75000000  0.13642100  0.65128400  1
  C  C19  1  0.75000000  0.63642100  0.84871600  1
  C  C20  1  0.25000000  0.38870000  0.74919200  1
  C  C21  1  0.25000000  0.88870000  0.75080800  1
  C  C22  1  0.75000000  0.61130000  0.25080800  1
  C  C23  1  0.75000000  0.11130000  0.24919200  1
  Cl  Cl24  1  0.25000000  0.37996200  0.95171700  1
  Cl  Cl25  1  0.25000000  0.87996200  0.54828300  1
  Cl  Cl26  1  0.75000000  0.62003800  0.04828300  1
  Cl  Cl27  1  0.75000000  0.12003800  0.45171700  1
  Cl  Cl28  1  0.25000000  0.88759300  0.94662500  1
  Cl  Cl29  1  0.25000000  0.38759300  0.55337500  1
  Cl  Cl30  1  0.75000000  0.11240700  0.05337500  1
  Cl  Cl31  1  0.75000000  0.61240700  0.44662500  1
  Cl  Cl32  1  0.25000000  0.36005300  0.35522700  1
  Cl  Cl33  1  0.25000000  0.86005300  0.14477300  1
  Cl  Cl34  1  0.75000000  0.63994700  0.64477300  1
  Cl  Cl35  1  0.75000000  0.13994700  0.85522700  1
