# generated using pymatgen
data_K3VSe4
_symmetry_space_group_name_H-M   'P 1'
_cell_length_a   7.81163314
_cell_length_b   7.81163314
_cell_length_c   7.81163314
_cell_angle_alpha   122.77853218
_cell_angle_beta   122.77853218
_cell_angle_gamma   85.25125088
_symmetry_Int_Tables_number   1
_chemical_formula_structural   K3VSe4
_chemical_formula_sum   'K3 V1 Se4'
_cell_volume   321.70098340
_cell_formula_units_Z   1
loop_
 _symmetry_equiv_pos_site_id
 _symmetry_equiv_pos_as_xyz
  1  'x, y, z'
loop_
 _atom_site_type_symbol
 _atom_site_label
 _atom_site_symmetry_multiplicity
 _atom_site_fract_x
 _atom_site_fract_y
 _atom_site_fract_z
 _atom_site_occupancy
  K  K0  1  0.50000000  0.50000000  0.00000000  1
  K  K1  1  0.75000000  0.25000000  0.50000000  1
  K  K2  1  0.25000000  0.75000000  0.50000000  1
  V  V3  1  0.00000000  0.00000000  0.00000000  1
  Se  Se4  1  0.29100300  0.92902800  0.00000000  1
  Se  Se5  1  0.92902800  0.29100300  0.00000000  1
  Se  Se6  1  0.70899700  0.70899700  0.63802500  1
  Se  Se7  1  0.07097200  0.07097200  0.36197500  1
