# generated using pymatgen
data_Ga3Sb7(S4Cl7)2
_symmetry_space_group_name_H-M   'P 1'
_cell_length_a   12.29762800
_cell_length_b   8.99959900
_cell_length_c   17.46858480
_cell_angle_alpha   86.88261153
_cell_angle_beta   90.00000000
_cell_angle_gamma   90.00000000
_symmetry_Int_Tables_number   1
_chemical_formula_structural   Ga3Sb7(S4Cl7)2
_chemical_formula_sum   'Ga6 Sb14 S16 Cl28'
_cell_volume   1930.45238078
_cell_formula_units_Z   2
loop_
 _symmetry_equiv_pos_site_id
 _symmetry_equiv_pos_as_xyz
  1  'x, y, z'
loop_
 _atom_site_type_symbol
 _atom_site_label
 _atom_site_symmetry_multiplicity
 _atom_site_fract_x
 _atom_site_fract_y
 _atom_site_fract_z
 _atom_site_occupancy
  Ga  Ga0  1  0.14271600  0.72000500  0.96320900  1
  Ga  Ga1  1  0.64271600  0.27999500  0.03679100  1
  Ga  Ga2  1  0.61931200  0.76683100  0.73577100  1
  Ga  Ga3  1  0.11931200  0.23316900  0.26422900  1
  Ga  Ga4  1  0.13195400  0.73393600  0.52999900  1
  Ga  Ga5  1  0.63195400  0.26606400  0.47000100  1
  Sb  Sb6  1  0.13077600  0.31499800  0.75527600  1
  Sb  Sb7  1  0.63077600  0.68500200  0.24472400  1
  Sb  Sb8  1  0.92474200  0.04671600  0.85272000  1
  Sb  Sb9  1  0.42474200  0.95328400  0.14728000  1
  Sb  Sb10  1  0.85684100  0.43757400  0.84921100  1
  Sb  Sb11  1  0.35684100  0.56242600  0.15078900  1
  Sb  Sb12  1  0.84960600  0.24903500  0.65554900  1
  Sb  Sb13  1  0.34960600  0.75096500  0.34445100  1
  Sb  Sb14  1  0.40359800  0.42793800  0.65607100  1
  Sb  Sb15  1  0.90359800  0.57206200  0.34392900  1
  Sb  Sb16  1  0.33554400  0.03788600  0.67549200  1
  Sb  Sb17  1  0.83554400  0.96211400  0.32450800  1
  Sb  Sb18  1  0.41517100  0.24378100  0.85930000  1
  Sb  Sb19  1  0.91517100  0.75621900  0.14070000  1
  S  S20  1  0.00955700  0.08747200  0.71731400  1
  S  S21  1  0.50955700  0.91252800  0.28268600  1
  S  S22  1  0.75983800  0.20058700  0.82595100  1
  S  S23  1  0.25983800  0.79941300  0.17404900  1
  S  S24  1  0.02162900  0.27803100  0.89317900  1
  S  S25  1  0.52162900  0.72196900  0.10682100  1
  S  S26  1  0.92251800  0.47619000  0.71299000  1
  S  S27  1  0.42251800  0.52381000  0.28701000  1
  S  S28  1  0.24045500  0.26792100  0.61948500  1
  S  S29  1  0.74045500  0.73207900  0.38051500  1
  S  S30  1  0.50077400  0.18942400  0.69298000  1
  S  S31  1  0.00077400  0.81057600  0.30702000  1
  S  S32  1  0.25297300  0.08808400  0.80922100  1
  S  S33  1  0.75297300  0.91191600  0.19077900  1
  S  S34  1  0.33987700  0.47254200  0.79050900  1
  S  S35  1  0.83987700  0.52745800  0.20949100  1
  Cl  Cl36  1  0.30900500  0.27763300  0.97398100  1
  Cl  Cl37  1  0.80900500  0.72236700  0.02601900  1
  Cl  Cl38  1  0.96411100  0.30521700  0.54658100  1
  Cl  Cl39  1  0.46411100  0.69478300  0.45341900  1
  Cl  Cl40  1  0.32028800  0.71410100  0.96198500  1
  Cl  Cl41  1  0.82028800  0.28589900  0.03801500  1
  Cl  Cl42  1  0.07979100  0.54601000  0.04576400  1
  Cl  Cl43  1  0.57979100  0.45399000  0.95423600  1
  Cl  Cl44  1  0.08814800  0.94096200  0.99773500  1
  Cl  Cl45  1  0.58814800  0.05903800  0.00226500  1
  Cl  Cl46  1  0.07352400  0.68356100  0.84784600  1
  Cl  Cl47  1  0.57352400  0.31643900  0.15215400  1
  Cl  Cl48  1  0.63045800  0.51897000  0.75343100  1
  Cl  Cl49  1  0.13045800  0.48103000  0.24656900  1
  Cl  Cl50  1  0.54173500  0.81175100  0.62431000  1
  Cl  Cl51  1  0.04173500  0.18824900  0.37569000  1
  Cl  Cl52  1  0.78969500  0.84775500  0.73737600  1
  Cl  Cl53  1  0.28969500  0.15224500  0.26262400  1
  Cl  Cl54  1  0.51843700  0.86110700  0.82432100  1
  Cl  Cl55  1  0.01843700  0.13889300  0.17567900  1
  Cl  Cl56  1  0.18961200  0.66167800  0.64803800  1
  Cl  Cl57  1  0.68961200  0.33832200  0.35196200  1
  Cl  Cl58  1  0.95593100  0.76316700  0.52884300  1
  Cl  Cl59  1  0.45593100  0.23683300  0.47115700  1
  Cl  Cl60  1  0.17861600  0.56035300  0.45036800  1
  Cl  Cl61  1  0.67861600  0.43964700  0.54963200  1
  Cl  Cl62  1  0.22071700  0.94061600  0.49799500  1
  Cl  Cl63  1  0.72071700  0.05938400  0.50200500  1
