# generated using pymatgen
data_Tl2(ReS2)3
_symmetry_space_group_name_H-M   'P 1'
_cell_length_a   9.75487668
_cell_length_b   9.75487668
_cell_length_c   11.99814908
_cell_angle_alpha   89.93928463
_cell_angle_beta   89.93928463
_cell_angle_gamma   61.01266407
_symmetry_Int_Tables_number   1
_chemical_formula_structural   Tl2(ReS2)3
_chemical_formula_sum   'Tl8 Re12 S24'
_cell_volume   998.68826463
_cell_formula_units_Z   4
loop_
 _symmetry_equiv_pos_site_id
 _symmetry_equiv_pos_as_xyz
  1  'x, y, z'
loop_
 _atom_site_type_symbol
 _atom_site_label
 _atom_site_symmetry_multiplicity
 _atom_site_fract_x
 _atom_site_fract_y
 _atom_site_fract_z
 _atom_site_occupancy
  Tl  Tl0  1  0.58560700  0.41439300  0.25000000  1
  Tl  Tl1  1  0.41439300  0.58560700  0.75000000  1
  Tl  Tl2  1  0.20702400  0.79297600  0.25000000  1
  Tl  Tl3  1  0.79297600  0.20702400  0.75000000  1
  Tl  Tl4  1  0.35369800  0.87642600  0.51316600  1
  Tl  Tl5  1  0.12357400  0.64630200  0.98683400  1
  Tl  Tl6  1  0.64630200  0.12357400  0.48683400  1
  Tl  Tl7  1  0.87642600  0.35369800  0.01316600  1
  Re  Re8  1  0.69209000  0.99234300  0.02538400  1
  Re  Re9  1  0.00765700  0.30791000  0.47461600  1
  Re  Re10  1  0.30791000  0.00765700  0.97461600  1
  Re  Re11  1  0.99234300  0.69209000  0.52538400  1
  Re  Re12  1  0.52614200  0.88430000  0.13111000  1
  Re  Re13  1  0.11570000  0.47385800  0.36889000  1
  Re  Re14  1  0.47385800  0.11570000  0.86889000  1
  Re  Re15  1  0.88430000  0.52614200  0.63111000  1
  Re  Re16  1  0.39874800  0.18681300  0.08247900  1
  Re  Re17  1  0.81318700  0.60125200  0.41752100  1
  Re  Re18  1  0.60125200  0.81318700  0.91752100  1
  Re  Re19  1  0.18681300  0.39874800  0.58247900  1
  S  S20  1  0.99060200  0.94224300  0.57269900  1
  S  S21  1  0.05775700  0.00939800  0.92730100  1
  S  S22  1  0.00939800  0.05775700  0.42730100  1
  S  S23  1  0.94224300  0.99060200  0.07269900  1
  S  S24  1  0.74610500  0.92600200  0.83097400  1
  S  S25  1  0.07399800  0.25389500  0.66902600  1
  S  S26  1  0.25389500  0.07399800  0.16902600  1
  S  S27  1  0.92600200  0.74610500  0.33097400  1
  S  S28  1  0.28392000  0.20891600  0.43122200  1
  S  S29  1  0.79108400  0.71608000  0.06877800  1
  S  S30  1  0.71608000  0.79108400  0.56877800  1
  S  S31  1  0.20891600  0.28392000  0.93122200  1
  S  S32  1  0.39256100  0.94360000  0.78306800  1
  S  S33  1  0.05640000  0.60743900  0.71693200  1
  S  S34  1  0.60743900  0.05640000  0.21693200  1
  S  S35  1  0.94360000  0.39256100  0.28306800  1
  S  S36  1  0.43807200  0.72981700  0.02089700  1
  S  S37  1  0.27018300  0.56192800  0.47910300  1
  S  S38  1  0.56192800  0.27018300  0.97910300  1
  S  S39  1  0.72981700  0.43807200  0.52089700  1
  S  S40  1  0.56140500  0.73142700  0.30654300  1
  S  S41  1  0.26857300  0.43859500  0.19345700  1
  S  S42  1  0.43859500  0.26857300  0.69345700  1
  S  S43  1  0.73142700  0.56140500  0.80654300  1
