# generated using pymatgen
data_K2NdF5
_symmetry_space_group_name_H-M   'P 1'
_cell_length_a   6.77666300
_cell_length_b   7.55803300
_cell_length_c   11.10499900
_cell_angle_alpha   90.00000000
_cell_angle_beta   90.00000000
_cell_angle_gamma   90.00000000
_symmetry_Int_Tables_number   1
_chemical_formula_structural   K2NdF5
_chemical_formula_sum   'K8 Nd4 F20'
_cell_volume   568.77853268
_cell_formula_units_Z   4
loop_
 _symmetry_equiv_pos_site_id
 _symmetry_equiv_pos_as_xyz
  1  'x, y, z'
loop_
 _atom_site_type_symbol
 _atom_site_label
 _atom_site_symmetry_multiplicity
 _atom_site_fract_x
 _atom_site_fract_y
 _atom_site_fract_z
 _atom_site_occupancy
  K  K0  1  0.52538900  0.49677900  0.82747900  1
  K  K1  1  0.47461100  0.50322100  0.17252100  1
  K  K2  1  0.02538900  0.50322100  0.67252100  1
  K  K3  1  0.47461100  0.99677900  0.17252100  1
  K  K4  1  0.97461100  0.49677900  0.32747900  1
  K  K5  1  0.52538900  0.00322100  0.82747900  1
  K  K6  1  0.97461100  0.00322100  0.32747900  1
  K  K7  1  0.02538900  0.99677900  0.67252100  1
  Nd  Nd8  1  0.56741700  0.75000000  0.50238900  1
  Nd  Nd9  1  0.43258300  0.25000000  0.49761100  1
  Nd  Nd10  1  0.06741700  0.25000000  0.99761100  1
  Nd  Nd11  1  0.93258300  0.75000000  0.00238900  1
  F  F12  1  0.82814800  0.75000000  0.80276000  1
  F  F13  1  0.17185200  0.25000000  0.19724000  1
  F  F14  1  0.32814800  0.25000000  0.69724000  1
  F  F15  1  0.67185200  0.75000000  0.30276000  1
  F  F16  1  0.36062300  0.75000000  0.66677500  1
  F  F17  1  0.63937700  0.25000000  0.33322500  1
  F  F18  1  0.86062300  0.25000000  0.83322500  1
  F  F19  1  0.13937700  0.75000000  0.16677500  1
  F  F20  1  0.90547700  0.75000000  0.51105500  1
  F  F21  1  0.09452300  0.25000000  0.48894500  1
  F  F22  1  0.40547700  0.25000000  0.98894500  1
  F  F23  1  0.59452300  0.75000000  0.01105500  1
  F  F24  1  0.64523500  0.03237000  0.58262700  1
  F  F25  1  0.35476500  0.96763000  0.41737300  1
  F  F26  1  0.14523500  0.96763000  0.91737300  1
  F  F27  1  0.35476500  0.53237000  0.41737300  1
  F  F28  1  0.85476500  0.03237000  0.08262700  1
  F  F29  1  0.64523500  0.46763000  0.58262700  1
  F  F30  1  0.85476500  0.46763000  0.08262700  1
  F  F31  1  0.14523500  0.53237000  0.91737300  1
