# generated using pymatgen
data_TbZnRh
_symmetry_space_group_name_H-M   'P 1'
_cell_length_a   4.06467400
_cell_length_b   6.96257500
_cell_length_c   8.15552700
_cell_angle_alpha   90.00000000
_cell_angle_beta   90.00000000
_cell_angle_gamma   90.00000000
_symmetry_Int_Tables_number   1
_chemical_formula_structural   TbZnRh
_chemical_formula_sum   'Tb4 Zn4 Rh4'
_cell_volume   230.80628764
_cell_formula_units_Z   4
loop_
 _symmetry_equiv_pos_site_id
 _symmetry_equiv_pos_as_xyz
  1  'x, y, z'
loop_
 _atom_site_type_symbol
 _atom_site_label
 _atom_site_symmetry_multiplicity
 _atom_site_fract_x
 _atom_site_fract_y
 _atom_site_fract_z
 _atom_site_occupancy
  Tb  Tb0  1  0.25000000  0.53853000  0.18442900  1
  Tb  Tb1  1  0.75000000  0.46147000  0.81557100  1
  Tb  Tb2  1  0.25000000  0.03853000  0.31557100  1
  Tb  Tb3  1  0.75000000  0.96147000  0.68442900  1
  Zn  Zn4  1  0.25000000  0.13709700  0.93655200  1
  Zn  Zn5  1  0.75000000  0.86290300  0.06344800  1
  Zn  Zn6  1  0.25000000  0.63709700  0.56344800  1
  Zn  Zn7  1  0.75000000  0.36290300  0.43655200  1
  Rh  Rh8  1  0.75000000  0.74434900  0.37682600  1
  Rh  Rh9  1  0.25000000  0.25565100  0.62317400  1
  Rh  Rh10  1  0.75000000  0.24434900  0.12317400  1
  Rh  Rh11  1  0.25000000  0.75565100  0.87682600  1
