# generated using pymatgen
data_CsErP2O7
_symmetry_space_group_name_H-M   'P 1'
_cell_length_a   10.96953900
_cell_length_b   8.00211000
_cell_length_c   8.86254219
_cell_angle_alpha   75.58095390
_cell_angle_beta   90.00000000
_cell_angle_gamma   90.00000000
_symmetry_Int_Tables_number   1
_chemical_formula_structural   CsErP2O7
_chemical_formula_sum   'Cs4 Er4 P8 O28'
_cell_volume   753.44409075
_cell_formula_units_Z   4
loop_
 _symmetry_equiv_pos_site_id
 _symmetry_equiv_pos_as_xyz
  1  'x, y, z'
loop_
 _atom_site_type_symbol
 _atom_site_label
 _atom_site_symmetry_multiplicity
 _atom_site_fract_x
 _atom_site_fract_y
 _atom_site_fract_z
 _atom_site_occupancy
  Cs  Cs0  1  0.80726100  0.30148200  0.05125700  1
  Cs  Cs1  1  0.30726100  0.69851800  0.44874300  1
  Cs  Cs2  1  0.19273900  0.69851800  0.94874300  1
  Cs  Cs3  1  0.69273900  0.30148200  0.55125700  1
  Er  Er4  1  0.09967200  0.26342400  0.75369300  1
  Er  Er5  1  0.59967200  0.73657600  0.74630700  1
  Er  Er6  1  0.90032800  0.73657600  0.24630700  1
  Er  Er7  1  0.40032800  0.26342400  0.25369300  1
  P  P8  1  0.90419400  0.63192600  0.67739200  1
  P  P9  1  0.40419400  0.36807400  0.82260800  1
  P  P10  1  0.09580600  0.36807400  0.32260800  1
  P  P11  1  0.59580600  0.63192600  0.17739200  1
  P  P12  1  0.36947400  0.07359400  0.68216500  1
  P  P13  1  0.86947400  0.92640600  0.81783500  1
  P  P14  1  0.63052600  0.92640600  0.31783500  1
  P  P15  1  0.13052600  0.07359400  0.18216500  1
  O  O16  1  0.99820900  0.50423800  0.77033000  1
  O  O17  1  0.49820900  0.49576200  0.72967000  1
  O  O18  1  0.00179100  0.49576200  0.22967000  1
  O  O19  1  0.50179100  0.50423800  0.27033000  1
  O  O20  1  0.08510400  0.34697800  0.49773500  1
  O  O21  1  0.58510400  0.65302200  0.00226500  1
  O  O22  1  0.91489600  0.65302200  0.50226500  1
  O  O23  1  0.41489600  0.34697800  0.99773500  1
  O  O24  1  0.23421000  0.06210300  0.72659500  1
  O  O25  1  0.73421000  0.93789700  0.77340500  1
  O  O26  1  0.76579000  0.93789700  0.27340500  1
  O  O27  1  0.26579000  0.06210300  0.22659500  1
  O  O28  1  0.27438600  0.41363400  0.76038400  1
  O  O29  1  0.77438600  0.58636600  0.73961600  1
  O  O30  1  0.72561400  0.58636600  0.23961600  1
  O  O31  1  0.22561400  0.41363400  0.26038400  1
  O  O32  1  0.92943900  0.10518200  0.77349200  1
  O  O33  1  0.42943900  0.89481800  0.72650800  1
  O  O34  1  0.07056100  0.89481800  0.22650800  1
  O  O35  1  0.57056100  0.10518200  0.27349200  1
  O  O36  1  0.93880200  0.81998900  0.70671100  1
  O  O37  1  0.43880200  0.18001100  0.79328900  1
  O  O38  1  0.06119800  0.18001100  0.29328900  1
  O  O39  1  0.56119800  0.81998900  0.20671100  1
  O  O40  1  0.10568000  0.17316200  0.01406700  1
  O  O41  1  0.60568000  0.82683800  0.48593300  1
  O  O42  1  0.89432000  0.82683800  0.98593300  1
  O  O43  1  0.39432000  0.17316200  0.51406700  1
