# generated using pymatgen
data_V2Co3TePb3O14
_symmetry_space_group_name_H-M   'P 1'
_cell_length_a   26.23218400
_cell_length_b   5.28148500
_cell_length_c   15.19193073
_cell_angle_alpha   89.98220247
_cell_angle_beta   90.00000000
_cell_angle_gamma   90.00000000
_symmetry_Int_Tables_number   1
_chemical_formula_structural   V2Co3TePb3O14
_chemical_formula_sum   'V12 Co18 Te6 Pb18 O84'
_cell_volume   2104.76421473
_cell_formula_units_Z   6
loop_
 _symmetry_equiv_pos_site_id
 _symmetry_equiv_pos_as_xyz
  1  'x, y, z'
loop_
 _atom_site_type_symbol
 _atom_site_label
 _atom_site_symmetry_multiplicity
 _atom_site_fract_x
 _atom_site_fract_y
 _atom_site_fract_z
 _atom_site_occupancy
  V  V0  1  0.83630900  0.54404100  0.16732400  1
  V  V1  1  0.83630900  0.45595900  0.83267600  1
  V  V2  1  0.33393100  0.45302200  0.33576300  1
  V  V3  1  0.33393100  0.54697800  0.66423700  1
  V  V4  1  0.17298100  0.55324000  0.16257600  1
  V  V5  1  0.17298100  0.44676000  0.83742400  1
  V  V6  1  0.67344100  0.46110200  0.33277200  1
  V  V7  1  0.67344100  0.53889800  0.66722800  1
  V  V8  1  0.50217200  0.50837500  0.17309200  1
  V  V9  1  0.50217200  0.49162500  0.82690800  1
  V  V10  1  0.00489100  0.45169000  0.32734100  1
  V  V11  1  0.00489100  0.54831000  0.67265900  1
  Co  Co12  1  0.42478000  0.50000000  0.00000000  1
  Co  Co13  1  0.92150500  0.50000000  0.50000000  1
  Co  Co14  1  0.08402700  0.50000000  0.00000000  1
  Co  Co15  1  0.58241200  0.50000000  0.50000000  1
  Co  Co16  1  0.74701500  0.50000000  0.00000000  1
  Co  Co17  1  0.24582800  0.50000000  0.50000000  1
  Co  Co18  1  0.96221900  0.49919400  0.11874000  1
  Co  Co19  1  0.96221900  0.50080600  0.88126000  1
  Co  Co20  1  0.45928400  0.51534400  0.61779700  1
  Co  Co21  1  0.45928400  0.48465600  0.38220300  1
  Co  Co22  1  0.30172700  0.50654500  0.11921400  1
  Co  Co23  1  0.30172700  0.49345500  0.88078600  1
  Co  Co24  1  0.80058700  0.50429600  0.61867000  1
  Co  Co25  1  0.80058700  0.49570400  0.38133000  1
  Co  Co26  1  0.62703900  0.49001000  0.12624200  1
  Co  Co27  1  0.62703900  0.50999000  0.87375800  1
  Co  Co28  1  0.13000500  0.48836600  0.62492100  1
  Co  Co29  1  0.13000500  0.51163400  0.37507900  1
  Te  Te30  1  0.34551500  0.00000000  0.00000000  1
  Te  Te31  1  0.84340400  0.00000000  0.50000000  1
  Te  Te32  1  0.00199100  0.00000000  0.00000000  1
  Te  Te33  1  0.50679000  0.00000000  0.50000000  1
  Te  Te34  1  0.66238900  0.00000000  0.00000000  1
  Te  Te35  1  0.16637300  0.00000000  0.50000000  1
  Pb  Pb36  1  0.52642600  0.00000000  0.00000000  1
  Pb  Pb37  1  0.03703000  0.00000000  0.50000000  1
  Pb  Pb38  1  0.21363500  0.00000000  0.00000000  1
  Pb  Pb39  1  0.71344900  0.00000000  0.50000000  1
  Pb  Pb40  1  0.87134100  0.00000000  0.00000000  1
  Pb  Pb41  1  0.37473300  0.00000000  0.50000000  1
  Pb  Pb42  1  0.90326900  0.99492900  0.29761400  1
  Pb  Pb43  1  0.90326900  0.00507100  0.70238600  1
  Pb  Pb44  1  0.40294800  0.98773200  0.79379200  1
  Pb  Pb45  1  0.40294800  0.01226800  0.20620800  1
  Pb  Pb46  1  0.23293300  0.00476300  0.30472300  1
  Pb  Pb47  1  0.23293300  0.99523700  0.69527700  1
  Pb  Pb48  1  0.73227300  0.00197500  0.80895100  1
  Pb  Pb49  1  0.73227300  0.99802500  0.19104900  1
  Pb  Pb50  1  0.57875400  0.01809400  0.30524300  1
  Pb  Pb51  1  0.57875400  0.98190600  0.69475700  1
  Pb  Pb52  1  0.06799700  0.00091800  0.80510300  1
  Pb  Pb53  1  0.06799700  0.99908200  0.19489700  1
  O  O54  1  0.28938600  0.21598700  0.04136900  1
  O  O55  1  0.28938600  0.78401300  0.95863100  1
  O  O56  1  0.35200500  0.21990500  0.89582600  1
  O  O57  1  0.35200500  0.78009500  0.10417400  1
  O  O58  1  0.39416500  0.21355200  0.06266600  1
  O  O59  1  0.39416500  0.78644800  0.93733400  1
  O  O60  1  0.78722400  0.21672500  0.54073000  1
  O  O61  1  0.78722400  0.78327500  0.45927000  1
  O  O62  1  0.84814100  0.21414700  0.39512700  1
  O  O63  1  0.84814100  0.78585300  0.60487300  1
  O  O64  1  0.89185900  0.21295700  0.56263700  1
  O  O65  1  0.89185900  0.78704300  0.43736300  1
  O  O66  1  0.94593900  0.21560200  0.04110400  1
  O  O67  1  0.94593900  0.78439800  0.95889600  1
  O  O68  1  0.05035100  0.21906400  0.06148900  1
  O  O69  1  0.05035100  0.78093600  0.93851100  1
  O  O70  1  0.00869400  0.21389500  0.89546800  1
  O  O71  1  0.00869400  0.78610500  0.10453200  1
  O  O72  1  0.45107100  0.21068100  0.54533500  1
  O  O73  1  0.45107100  0.78931900  0.45466500  1
  O  O74  1  0.51232600  0.22608900  0.39840400  1
  O  O75  1  0.51232600  0.77391100  0.60159600  1
  O  O76  1  0.55740300  0.20383200  0.56474000  1
  O  O77  1  0.55740300  0.79616800  0.43526000  1
  O  O78  1  0.60828600  0.22374400  0.04145100  1
  O  O79  1  0.60828600  0.77625600  0.95854900  1
  O  O80  1  0.66885200  0.20564800  0.89268800  1
  O  O81  1  0.66885200  0.79435200  0.10731200  1
  O  O82  1  0.71357100  0.21501200  0.05844800  1
  O  O83  1  0.71357100  0.78498800  0.94155200  1
  O  O84  1  0.11085000  0.21084400  0.54557000  1
  O  O85  1  0.11085000  0.78915600  0.45443000  1
  O  O86  1  0.17378700  0.21832500  0.39675600  1
  O  O87  1  0.17378700  0.78167500  0.60324400  1
  O  O88  1  0.21477200  0.21568300  0.56271100  1
  O  O89  1  0.21477200  0.78431700  0.43728900  1
  O  O90  1  0.83905200  0.22064800  0.16896700  1
  O  O91  1  0.83905200  0.77935200  0.83103300  1
  O  O92  1  0.89479100  0.67181100  0.13201100  1
  O  O93  1  0.89479100  0.32818900  0.86798900  1
  O  O94  1  0.78798000  0.65366000  0.09658800  1
  O  O95  1  0.78798000  0.34634000  0.90341200  1
  O  O96  1  0.82545900  0.66685600  0.27317000  1
  O  O97  1  0.82545900  0.33314400  0.72683000  1
  O  O98  1  0.33507500  0.77621600  0.33498200  1
  O  O99  1  0.33507500  0.22378400  0.66501800  1
  O  O100  1  0.28429000  0.33809800  0.40180500  1
  O  O101  1  0.28429000  0.66190200  0.59819500  1
  O  O102  1  0.32547900  0.33154900  0.22890300  1
  O  O103  1  0.32547900  0.66845100  0.77109700  1
  O  O104  1  0.39078500  0.32465100  0.37940000  1
  O  O105  1  0.39078500  0.67534900  0.62060000  1
  O  O106  1  0.17310500  0.23049400  0.16328500  1
  O  O107  1  0.17310500  0.76950600  0.83671500  1
  O  O108  1  0.12641900  0.67171200  0.09044000  1
  O  O109  1  0.12641900  0.32828800  0.90956000  1
  O  O110  1  0.15915600  0.67433200  0.26818300  1
  O  O111  1  0.15915600  0.32566800  0.73181700  1
  O  O112  1  0.23308000  0.67088800  0.13000300  1
  O  O113  1  0.23308000  0.32911200  0.86999700  1
  O  O114  1  0.67274300  0.78615600  0.32773700  1
  O  O115  1  0.67274300  0.21384400  0.67226300  1
  O  O116  1  0.62500800  0.34680700  0.40152600  1
  O  O117  1  0.62500800  0.65319300  0.59847400  1
  O  O118  1  0.66352100  0.32473800  0.22840700  1
  O  O119  1  0.66352100  0.67526200  0.77159300  1
  O  O120  1  0.73144900  0.34237800  0.37263700  1
  O  O121  1  0.73144900  0.65762200  0.62736300  1
  O  O122  1  0.50082200  0.18374800  0.16202600  1
  O  O123  1  0.50082200  0.81625200  0.83797400  1
  O  O124  1  0.47748500  0.65355700  0.07798200  1
  O  O125  1  0.47748500  0.34644300  0.92201800  1
  O  O126  1  0.46206700  0.60086200  0.25917700  1
  O  O127  1  0.46206700  0.39913800  0.74082300  1
  O  O128  1  0.56503900  0.60939700  0.19107500  1
  O  O129  1  0.56503900  0.39060300  0.80892500  1
  O  O130  1  0.00561400  0.77622200  0.32216600  1
  O  O131  1  0.00561400  0.22377800  0.67783400  1
  O  O132  1  0.96054600  0.33851100  0.40376700  1
  O  O133  1  0.96054600  0.66148900  0.59623300  1
  O  O134  1  0.98936000  0.31944500  0.22439600  1
  O  O135  1  0.98936000  0.68055500  0.77560400  1
  O  O136  1  0.06440000  0.33075100  0.35855400  1
  O  O137  1  0.06440000  0.66924900  0.64144600  1
