# generated using pymatgen
data_ErFe2SiC
_symmetry_space_group_name_H-M   'P 1'
_cell_length_a   5.53181432
_cell_length_b   5.53181432
_cell_length_c   6.73833900
_cell_angle_alpha   90.00000000
_cell_angle_beta   90.00000000
_cell_angle_gamma   140.87980615
_symmetry_Int_Tables_number   1
_chemical_formula_structural   ErFe2SiC
_chemical_formula_sum   'Er2 Fe4 Si2 C2'
_cell_volume   130.10155815
_cell_formula_units_Z   2
loop_
 _symmetry_equiv_pos_site_id
 _symmetry_equiv_pos_as_xyz
  1  'x, y, z'
loop_
 _atom_site_type_symbol
 _atom_site_label
 _atom_site_symmetry_multiplicity
 _atom_site_fract_x
 _atom_site_fract_y
 _atom_site_fract_z
 _atom_site_occupancy
  Er  Er0  1  0.54730200  0.45269800  0.25000000  1
  Er  Er1  1  0.45269800  0.54730200  0.75000000  1
  Fe  Fe2  1  0.83461600  0.16538400  0.06211400  1
  Fe  Fe3  1  0.16538400  0.83461600  0.93788600  1
  Fe  Fe4  1  0.16538400  0.83461600  0.56211400  1
  Fe  Fe5  1  0.83461600  0.16538400  0.43788600  1
  Si  Si6  1  0.26728200  0.73271800  0.25000000  1
  Si  Si7  1  0.73271800  0.26728200  0.75000000  1
  C  C8  1  0.00000000  0.00000000  0.00000000  1
  C  C9  1  0.00000000  0.00000000  0.50000000  1
