# generated using pymatgen
data_Nd(In2Pd)2
_symmetry_space_group_name_H-M   'P 1'
_cell_length_a   4.61859400
_cell_length_b   10.03358300
_cell_length_c   33.48447300
_cell_angle_alpha   90.00000000
_cell_angle_beta   90.00000000
_cell_angle_gamma   90.00000000
_symmetry_Int_Tables_number   1
_chemical_formula_structural   Nd(In2Pd)2
_chemical_formula_sum   'Nd10 In40 Pd20'
_cell_volume   1551.70551169
_cell_formula_units_Z   10
loop_
 _symmetry_equiv_pos_site_id
 _symmetry_equiv_pos_as_xyz
  1  'x, y, z'
loop_
 _atom_site_type_symbol
 _atom_site_label
 _atom_site_symmetry_multiplicity
 _atom_site_fract_x
 _atom_site_fract_y
 _atom_site_fract_z
 _atom_site_occupancy
  Nd  Nd0  1  0.50000000  0.95747300  0.63889100  1
  Nd  Nd1  1  0.50000000  0.04252700  0.13889100  1
  Nd  Nd2  1  0.50000000  0.82716100  0.33767100  1
  Nd  Nd3  1  0.50000000  0.17283900  0.83767100  1
  Nd  Nd4  1  0.50000000  0.78305900  0.93837500  1
  Nd  Nd5  1  0.50000000  0.21694100  0.43837500  1
  Nd  Nd6  1  0.00000000  0.70354800  0.49982800  1
  Nd  Nd7  1  0.00000000  0.29645200  0.99982800  1
  Nd  Nd8  1  0.00000000  0.45536700  0.69912800  1
  Nd  Nd9  1  0.00000000  0.54463300  0.19912800  1
  In  In10  1  0.50000000  0.96529000  0.75018500  1
  In  In11  1  0.50000000  0.03471000  0.25018500  1
  In  In12  1  0.50000000  0.88092700  0.43920900  1
  In  In13  1  0.50000000  0.11907300  0.93920900  1
  In  In14  1  0.50000000  0.82600800  0.83376600  1
  In  In15  1  0.50000000  0.17399200  0.33376600  1
  In  In16  1  0.50000000  0.80652600  0.05203200  1
  In  In17  1  0.50000000  0.19347400  0.55203200  1
  In  In18  1  0.50000000  0.71151800  0.56760100  1
  In  In19  1  0.50000000  0.28848200  0.06760100  1
  In  In20  1  0.50000000  0.61479800  0.65132900  1
  In  In21  1  0.50000000  0.38520200  0.15132900  1
  In  In22  1  0.50000000  0.52737900  0.86197100  1
  In  In23  1  0.50000000  0.47262100  0.36197100  1
  In  In24  1  0.50000000  0.47031400  0.50857400  1
  In  In25  1  0.50000000  0.52968600  0.00857400  1
  In  In26  1  0.50000000  0.44680800  0.77136800  1
  In  In27  1  0.50000000  0.55319200  0.27136800  1
  In  In28  1  0.50000000  0.30791000  0.64044700  1
  In  In29  1  0.50000000  0.69209000  0.14044700  1
  In  In30  1  0.00000000  0.97846300  0.89046800  1
  In  In31  1  0.00000000  0.02153700  0.39046800  1
  In  In32  1  0.00000000  0.95095400  0.57027400  1
  In  In33  1  0.00000000  0.04904600  0.07027400  1
  In  In34  1  0.00000000  0.94786700  0.98617100  1
  In  In35  1  0.00000000  0.05213300  0.48617100  1
  In  In36  1  0.00000000  0.87941300  0.18391800  1
  In  In37  1  0.00000000  0.12058700  0.68391800  1
  In  In38  1  0.00000000  0.80749900  0.69541200  1
  In  In39  1  0.00000000  0.19250100  0.19541200  1
  In  In40  1  0.00000000  0.79651300  0.26961000  1
  In  In41  1  0.00000000  0.20348700  0.76961000  1
  In  In42  1  0.00000000  0.67239800  0.78113200  1
  In  In43  1  0.00000000  0.32760200  0.28113200  1
  In  In44  1  0.00000000  0.56088600  0.93663600  1
  In  In45  1  0.00000000  0.43911400  0.43663600  1
  In  In46  1  0.00000000  0.46586100  0.58300200  1
  In  In47  1  0.00000000  0.53413900  0.08300200  1
  In  In48  1  0.00000000  0.29689700  0.89511200  1
  In  In49  1  0.00000000  0.70310300  0.39511200  1
  Pd  Pd50  1  0.50000000  0.93809500  0.51970100  1
  Pd  Pd51  1  0.50000000  0.06190500  0.01970100  1
  Pd  Pd52  1  0.50000000  0.77706500  0.22051400  1
  Pd  Pd53  1  0.50000000  0.22293500  0.72051400  1
  Pd  Pd54  1  0.50000000  0.69590500  0.73076400  1
  Pd  Pd55  1  0.50000000  0.30409500  0.23076400  1
  Pd  Pd56  1  0.50000000  0.39309300  0.93455600  1
  Pd  Pd57  1  0.50000000  0.60690700  0.43455600  1
  Pd  Pd58  1  0.00000000  0.95307600  0.80603000  1
  Pd  Pd59  1  0.00000000  0.04692400  0.30603000  1
  Pd  Pd60  1  0.00000000  0.79771200  0.10459800  1
  Pd  Pd61  1  0.00000000  0.20228800  0.60459800  1
  Pd  Pd62  1  0.00000000  0.71549700  0.61563700  1
  Pd  Pd63  1  0.00000000  0.28450300  0.11563700  1
  Pd  Pd64  1  0.00000000  0.70742700  0.86551300  1
  Pd  Pd65  1  0.00000000  0.29257300  0.36551300  1
  Pd  Pd66  1  0.00000000  0.68437000  0.01280500  1
  Pd  Pd67  1  0.00000000  0.31563000  0.51280500  1
  Pd  Pd68  1  0.00000000  0.42231200  0.82039600  1
  Pd  Pd69  1  0.00000000  0.57768800  0.32039600  1
