# generated using pymatgen
data_Ba3P14
_symmetry_space_group_name_H-M   'P 1'
_cell_length_a   13.25005900
_cell_length_b   6.56855000
_cell_length_c   12.22044064
_cell_angle_alpha   57.85994694
_cell_angle_beta   90.00000000
_cell_angle_gamma   90.00000000
_symmetry_Int_Tables_number   1
_chemical_formula_structural   Ba3P14
_chemical_formula_sum   'Ba6 P28'
_cell_volume   900.59496494
_cell_formula_units_Z   2
loop_
 _symmetry_equiv_pos_site_id
 _symmetry_equiv_pos_as_xyz
  1  'x, y, z'
loop_
 _atom_site_type_symbol
 _atom_site_label
 _atom_site_symmetry_multiplicity
 _atom_site_fract_x
 _atom_site_fract_y
 _atom_site_fract_z
 _atom_site_occupancy
  Ba  Ba0  1  0.65275700  0.18278300  0.61242400  1
  Ba  Ba1  1  0.15275700  0.81721700  0.88757600  1
  Ba  Ba2  1  0.34724300  0.81721700  0.38757600  1
  Ba  Ba3  1  0.84724300  0.18278300  0.11242400  1
  Ba  Ba4  1  0.50000000  0.00000000  0.00000000  1
  Ba  Ba5  1  0.00000000  0.00000000  0.50000000  1
  P  P6  1  0.84736100  0.04944200  0.84825700  1
  P  P7  1  0.34736100  0.95055800  0.65174300  1
  P  P8  1  0.15263900  0.95055800  0.15174300  1
  P  P9  1  0.65263900  0.04944200  0.34825700  1
  P  P10  1  0.48722200  0.72372500  0.68698500  1
  P  P11  1  0.98722200  0.27627500  0.81301500  1
  P  P12  1  0.68216500  0.61295700  0.05383700  1
  P  P13  1  0.18216500  0.38704300  0.44616300  1
  P  P14  1  0.31783500  0.38704300  0.94616300  1
  P  P15  1  0.81783500  0.61295700  0.55383700  1
  P  P16  1  0.58797500  0.29557700  0.14315100  1
  P  P17  1  0.08797500  0.70442300  0.35684900  1
  P  P18  1  0.41202500  0.70442300  0.85684900  1
  P  P19  1  0.91202500  0.29557700  0.64315100  1
  P  P20  1  0.71454300  0.62470300  0.22699800  1
  P  P21  1  0.21454300  0.37529700  0.27300200  1
  P  P22  1  0.28545700  0.37529700  0.77300200  1
  P  P23  1  0.78545700  0.62470300  0.72699800  1
  P  P24  1  0.56386400  0.58866900  0.31381300  1
  P  P25  1  0.06386400  0.41133100  0.18618700  1
  P  P26  1  0.43613600  0.41133100  0.68618700  1
  P  P27  1  0.93613600  0.58866900  0.81381300  1
  P  P28  1  0.77565700  0.25972800  0.35573300  1
  P  P29  1  0.27565700  0.74027200  0.14426700  1
  P  P30  1  0.22434300  0.74027200  0.64426700  1
  P  P31  1  0.72434300  0.25972800  0.85573300  1
  P  P32  1  0.01277800  0.72372500  0.18698500  1
  P  P33  1  0.51277800  0.27627500  0.31301500  1
