# generated using pymatgen
data_La4B2N5
_symmetry_space_group_name_H-M   'P 1'
_cell_length_a   6.58228933
_cell_length_b   6.58228933
_cell_length_c   9.18991668
_cell_angle_alpha   52.31496290
_cell_angle_beta   52.31496290
_cell_angle_gamma   32.51355442
_symmetry_Int_Tables_number   1
_chemical_formula_structural   La4B2N5
_chemical_formula_sum   'La4 B2 N5'
_cell_volume   165.01478080
_cell_formula_units_Z   1
loop_
 _symmetry_equiv_pos_site_id
 _symmetry_equiv_pos_as_xyz
  1  'x, y, z'
loop_
 _atom_site_type_symbol
 _atom_site_label
 _atom_site_symmetry_multiplicity
 _atom_site_fract_x
 _atom_site_fract_y
 _atom_site_fract_z
 _atom_site_occupancy
  La  La0  1  0.81223400  0.81223400  0.61422000  1
  La  La1  1  0.18776600  0.18776600  0.38578000  1
  La  La2  1  0.57673900  0.57673900  0.15520600  1
  La  La3  1  0.42326100  0.42326100  0.84479400  1
  B  B4  1  0.91157000  0.91157000  0.11003000  1
  B  B5  1  0.08843000  0.08843000  0.88997000  1
  N  N6  1  0.88346300  0.88346300  0.29383400  1
  N  N7  1  0.11653700  0.11653700  0.70616600  1
  N  N8  1  0.79861900  0.79861900  0.10137800  1
  N  N9  1  0.20138100  0.20138100  0.89862200  1
  N  N10  1  0.50000000  0.50000000  0.50000000  1
