# generated using pymatgen
data_Tl4GeSe4
_symmetry_space_group_name_H-M   'P 1'
_cell_length_a   7.10523186
_cell_length_b   7.10523186
_cell_length_c   25.41904812
_cell_angle_alpha   81.16601189
_cell_angle_beta   81.16601189
_cell_angle_gamma   63.99946293
_symmetry_Int_Tables_number   1
_chemical_formula_structural   Tl4GeSe4
_chemical_formula_sum   'Tl16 Ge4 Se16'
_cell_volume   1134.31510771
_cell_formula_units_Z   4
loop_
 _symmetry_equiv_pos_site_id
 _symmetry_equiv_pos_as_xyz
  1  'x, y, z'
loop_
 _atom_site_type_symbol
 _atom_site_label
 _atom_site_symmetry_multiplicity
 _atom_site_fract_x
 _atom_site_fract_y
 _atom_site_fract_z
 _atom_site_occupancy
  Tl  Tl0  1  0.34536000  0.27402100  0.50292100  1
  Tl  Tl1  1  0.72597900  0.65464000  0.99707900  1
  Tl  Tl2  1  0.65464000  0.72597900  0.49707900  1
  Tl  Tl3  1  0.27402100  0.34536000  0.00292100  1
  Tl  Tl4  1  0.89383100  0.32744300  0.67835200  1
  Tl  Tl5  1  0.67255700  0.10616900  0.82164800  1
  Tl  Tl6  1  0.10616900  0.67255700  0.32164800  1
  Tl  Tl7  1  0.32744300  0.89383100  0.17835200  1
  Tl  Tl8  1  0.05666100  0.32481900  0.83676000  1
  Tl  Tl9  1  0.67518100  0.94333900  0.66324000  1
  Tl  Tl10  1  0.94333900  0.67518100  0.16324000  1
  Tl  Tl11  1  0.32481900  0.05666100  0.33676000  1
  Tl  Tl12  1  0.00000000  0.00000000  0.50000000  1
  Tl  Tl13  1  0.00000000  0.00000000  0.00000000  1
  Tl  Tl14  1  0.18004800  0.81995200  0.75000000  1
  Tl  Tl15  1  0.81995200  0.18004800  0.25000000  1
  Ge  Ge16  1  0.31681600  0.55833100  0.62394600  1
  Ge  Ge17  1  0.44166900  0.68318400  0.87605400  1
  Ge  Ge18  1  0.68318400  0.44166900  0.37605400  1
  Ge  Ge19  1  0.55833100  0.31681600  0.12394600  1
  Se  Se20  1  0.02264100  0.58508500  0.58291900  1
  Se  Se21  1  0.41491500  0.97735900  0.91708100  1
  Se  Se22  1  0.97735900  0.41491500  0.41708100  1
  Se  Se23  1  0.58508500  0.02264100  0.08291900  1
  Se  Se24  1  0.63864500  0.33290900  0.57557700  1
  Se  Se25  1  0.66709100  0.36135500  0.92442300  1
  Se  Se26  1  0.36135500  0.66709100  0.42442300  1
  Se  Se27  1  0.33290900  0.63864500  0.07557700  1
  Se  Se28  1  0.09651800  0.69936500  0.88100600  1
  Se  Se29  1  0.30063500  0.90348200  0.61899300  1
  Se  Se30  1  0.90348200  0.30063500  0.11899300  1
  Se  Se31  1  0.69936500  0.09651800  0.38100700  1
  Se  Se32  1  0.30237000  0.38560800  0.71203000  1
  Se  Se33  1  0.61439200  0.69763000  0.78797000  1
  Se  Se34  1  0.69763000  0.61439200  0.28797000  1
  Se  Se35  1  0.38560800  0.30237000  0.21203000  1
