# generated using pymatgen
data_RbErSe2
_symmetry_space_group_name_H-M   'P 1'
_cell_length_a   8.35170152
_cell_length_b   8.35170152
_cell_length_c   8.35170216
_cell_angle_alpha   29.21931910
_cell_angle_beta   29.21931910
_cell_angle_gamma   29.21932524
_symmetry_Int_Tables_number   1
_chemical_formula_structural   RbErSe2
_chemical_formula_sum   'Rb1 Er1 Se2'
_cell_volume   122.81997063
_cell_formula_units_Z   1
loop_
 _symmetry_equiv_pos_site_id
 _symmetry_equiv_pos_as_xyz
  1  'x, y, z'
loop_
 _atom_site_type_symbol
 _atom_site_label
 _atom_site_symmetry_multiplicity
 _atom_site_fract_x
 _atom_site_fract_y
 _atom_site_fract_z
 _atom_site_occupancy
  Rb  Rb0  1  0.00000000  0.00000000  0.00000000  1
  Er  Er1  1  0.50000000  0.50000000  0.50000000  1
  Se  Se2  1  0.23127300  0.23127300  0.23127300  1
  Se  Se3  1  0.76872700  0.76872700  0.76872700  1
