# generated using pymatgen
data_Na3RuO4
_symmetry_space_group_name_H-M   'P 1'
_cell_length_a   8.54554924
_cell_length_b   8.54554924
_cell_length_c   5.76808251
_cell_angle_alpha   77.26081322
_cell_angle_beta   77.26081322
_cell_angle_gamma   98.68460823
_symmetry_Int_Tables_number   1
_chemical_formula_structural   Na3RuO4
_chemical_formula_sum   'Na12 Ru4 O16'
_cell_volume   391.81911718
_cell_formula_units_Z   4
loop_
 _symmetry_equiv_pos_site_id
 _symmetry_equiv_pos_as_xyz
  1  'x, y, z'
loop_
 _atom_site_type_symbol
 _atom_site_label
 _atom_site_symmetry_multiplicity
 _atom_site_fract_x
 _atom_site_fract_y
 _atom_site_fract_z
 _atom_site_occupancy
  Na  Na0  1  0.62425400  0.37574600  0.00000000  1
  Na  Na1  1  0.37574600  0.62425400  0.00000000  1
  Na  Na2  1  0.00000000  0.50000000  0.00000000  1
  Na  Na3  1  0.50000000  0.00000000  0.00000000  1
  Na  Na4  1  0.11975600  0.37030700  0.48110100  1
  Na  Na5  1  0.37030700  0.11975600  0.48110100  1
  Na  Na6  1  0.88024400  0.62969300  0.51889900  1
  Na  Na7  1  0.62969300  0.88024400  0.51889900  1
  Na  Na8  1  0.00000000  0.00000000  0.50000000  1
  Na  Na9  1  0.74193000  0.25807000  0.50000000  1
  Na  Na10  1  0.25807000  0.74193000  0.50000000  1
  Na  Na11  1  0.50000000  0.50000000  0.50000000  1
  Ru  Ru12  1  0.87276500  0.12723500  0.00000000  1
  Ru  Ru13  1  0.12723500  0.87276500  0.00000000  1
  Ru  Ru14  1  0.25382000  0.25382000  0.97517200  1
  Ru  Ru15  1  0.74618000  0.74618000  0.02482800  1
  O  O16  1  0.11191900  0.11191900  0.79680800  1
  O  O17  1  0.88808100  0.88808100  0.20319200  1
  O  O18  1  0.87518300  0.32812100  0.77686400  1
  O  O19  1  0.32812100  0.87518300  0.77686400  1
  O  O20  1  0.12481700  0.67187900  0.22313600  1
  O  O21  1  0.67187900  0.12481700  0.22313600  1
  O  O22  1  0.65520100  0.65520100  0.79916900  1
  O  O23  1  0.34479900  0.34479900  0.20083100  1
  O  O24  1  0.01019700  0.23390600  0.18910900  1
  O  O25  1  0.23390600  0.01019700  0.18910900  1
  O  O26  1  0.98980300  0.76609400  0.81089100  1
  O  O27  1  0.76609400  0.98980300  0.81089100  1
  O  O28  1  0.75367900  0.53877000  0.23183100  1
  O  O29  1  0.53877000  0.75367900  0.23183100  1
  O  O30  1  0.24632100  0.46123000  0.76816900  1
  O  O31  1  0.46123000  0.24632100  0.76816900  1
