# generated using pymatgen
data_Nb6TlCl15
_symmetry_space_group_name_H-M   'P 1'
_cell_length_a   9.48283800
_cell_length_b   13.70425500
_cell_length_c   18.20218900
_cell_angle_alpha   90.00000000
_cell_angle_beta   90.00000000
_cell_angle_gamma   90.00000000
_symmetry_Int_Tables_number   1
_chemical_formula_structural   Nb6TlCl15
_chemical_formula_sum   'Nb24 Tl4 Cl60'
_cell_volume   2365.46965938
_cell_formula_units_Z   4
loop_
 _symmetry_equiv_pos_site_id
 _symmetry_equiv_pos_as_xyz
  1  'x, y, z'
loop_
 _atom_site_type_symbol
 _atom_site_label
 _atom_site_symmetry_multiplicity
 _atom_site_fract_x
 _atom_site_fract_y
 _atom_site_fract_z
 _atom_site_occupancy
  Nb  Nb0  1  0.07917100  0.50000000  0.10515600  1
  Nb  Nb1  1  0.92082900  0.50000000  0.89484400  1
  Nb  Nb2  1  0.07917100  0.50000000  0.39484400  1
  Nb  Nb3  1  0.92082900  0.50000000  0.60515600  1
  Nb  Nb4  1  0.14614200  0.39200300  0.52894400  1
  Nb  Nb5  1  0.85385800  0.60799700  0.47105600  1
  Nb  Nb6  1  0.14614200  0.60799700  0.97105600  1
  Nb  Nb7  1  0.85385800  0.39200300  0.47105600  1
  Nb  Nb8  1  0.85385800  0.39200300  0.02894400  1
  Nb  Nb9  1  0.14614200  0.60799700  0.52894400  1
  Nb  Nb10  1  0.85385800  0.60799700  0.02894400  1
  Nb  Nb11  1  0.14614200  0.39200300  0.97105600  1
  Nb  Nb12  1  0.33326100  0.10846700  0.66846300  1
  Nb  Nb13  1  0.66673900  0.89153300  0.33153700  1
  Nb  Nb14  1  0.33326100  0.89153300  0.83153700  1
  Nb  Nb15  1  0.66673900  0.10846700  0.33153700  1
  Nb  Nb16  1  0.66673900  0.10846700  0.16846300  1
  Nb  Nb17  1  0.33326100  0.89153300  0.66846300  1
  Nb  Nb18  1  0.66673900  0.89153300  0.16846300  1
  Nb  Nb19  1  0.33326100  0.10846700  0.83153700  1
  Nb  Nb20  1  0.54946200  0.00000000  0.75000000  1
  Nb  Nb21  1  0.45053800  0.00000000  0.25000000  1
  Nb  Nb22  1  0.11878000  0.00000000  0.75000000  1
  Nb  Nb23  1  0.88122000  0.00000000  0.25000000  1
  Tl  Tl24  1  0.81752000  0.25517200  0.75000000  1
  Tl  Tl25  1  0.18248000  0.74482800  0.25000000  1
  Tl  Tl26  1  0.81752000  0.74482800  0.75000000  1
  Tl  Tl27  1  0.18248000  0.25517200  0.25000000  1
  Cl  Cl28  1  0.33293200  0.25029000  0.56506400  1
  Cl  Cl29  1  0.66706800  0.74971000  0.43493600  1
  Cl  Cl30  1  0.33293200  0.74971000  0.93493600  1
  Cl  Cl31  1  0.66706800  0.25029000  0.43493600  1
  Cl  Cl32  1  0.66706800  0.25029000  0.06506500  1
  Cl  Cl33  1  0.33293200  0.74971000  0.56506400  1
  Cl  Cl34  1  0.66706800  0.74971000  0.06506500  1
  Cl  Cl35  1  0.33293200  0.25029000  0.93493600  1
  Cl  Cl36  1  0.07876900  0.37672100  0.65904300  1
  Cl  Cl37  1  0.92123100  0.62327900  0.34095700  1
  Cl  Cl38  1  0.07876900  0.62327900  0.84095700  1
  Cl  Cl39  1  0.92123100  0.37672100  0.34095700  1
  Cl  Cl40  1  0.92123100  0.37672100  0.15904300  1
  Cl  Cl41  1  0.07876900  0.62327900  0.65904300  1
  Cl  Cl42  1  0.92123100  0.62327900  0.15904300  1
  Cl  Cl43  1  0.07876900  0.37672100  0.84095700  1
  Cl  Cl44  1  0.59215800  0.12378100  0.65225200  1
  Cl  Cl45  1  0.40784200  0.87621900  0.34774800  1
  Cl  Cl46  1  0.59215800  0.87621900  0.84774800  1
  Cl  Cl47  1  0.40784200  0.12378100  0.34774800  1
  Cl  Cl48  1  0.40784200  0.12378100  0.15225200  1
  Cl  Cl49  1  0.59215800  0.87621900  0.65225200  1
  Cl  Cl50  1  0.40784200  0.87621900  0.15225200  1
  Cl  Cl51  1  0.59215800  0.12378100  0.84774800  1
  Cl  Cl52  1  0.34049000  0.50000000  0.56890200  1
  Cl  Cl53  1  0.65951000  0.50000000  0.43109800  1
  Cl  Cl54  1  0.34049000  0.50000000  0.93109800  1
  Cl  Cl55  1  0.65951000  0.50000000  0.06890200  1
  Cl  Cl56  1  0.34474600  0.25209700  0.75000000  1
  Cl  Cl57  1  0.65525400  0.74790300  0.25000000  1
  Cl  Cl58  1  0.34474600  0.74790300  0.75000000  1
  Cl  Cl59  1  0.65525400  0.25209700  0.25000000  1
  Cl  Cl60  1  0.33042400  0.00000000  0.55998800  1
  Cl  Cl61  1  0.66957600  0.00000000  0.44001200  1
  Cl  Cl62  1  0.33042400  0.00000000  0.94001200  1
  Cl  Cl63  1  0.66957600  0.00000000  0.05998800  1
  Cl  Cl64  1  0.81371900  0.50000000  0.75000000  1
  Cl  Cl65  1  0.18628100  0.50000000  0.25000000  1
  Cl  Cl66  1  0.83275600  0.00000000  0.75000000  1
  Cl  Cl67  1  0.16724400  0.00000000  0.25000000  1
  Cl  Cl68  1  0.26674500  0.37464400  0.09196100  1
  Cl  Cl69  1  0.73325500  0.62535600  0.90803900  1
  Cl  Cl70  1  0.26674500  0.62535600  0.40803900  1
  Cl  Cl71  1  0.73325500  0.37464400  0.90803900  1
  Cl  Cl72  1  0.73325500  0.37464400  0.59196100  1
  Cl  Cl73  1  0.26674500  0.62535600  0.09196100  1
  Cl  Cl74  1  0.73325500  0.62535600  0.59196100  1
  Cl  Cl75  1  0.26674500  0.37464400  0.40803900  1
  Cl  Cl76  1  0.07495700  0.12361000  0.65444000  1
  Cl  Cl77  1  0.92504300  0.87639000  0.34556000  1
  Cl  Cl78  1  0.07495700  0.87639000  0.84556000  1
  Cl  Cl79  1  0.92504300  0.12361000  0.34556000  1
  Cl  Cl80  1  0.92504300  0.12361000  0.15444000  1
  Cl  Cl81  1  0.07495700  0.87639000  0.65444000  1
  Cl  Cl82  1  0.92504300  0.87639000  0.15444000  1
  Cl  Cl83  1  0.07495700  0.12361000  0.84556000  1
  Cl  Cl84  1  0.00000000  0.24867600  0.50000000  1
  Cl  Cl85  1  0.00000000  0.75132400  0.50000000  1
  Cl  Cl86  1  0.00000000  0.75132400  0.00000000  1
  Cl  Cl87  1  0.00000000  0.24867600  0.00000000  1
