# generated using pymatgen
data_Ce2H16S3O20
_symmetry_space_group_name_H-M   'P 1'
_cell_length_a   17.53017100
_cell_length_b   6.90179100
_cell_length_c   9.47142404
_cell_angle_alpha   47.13604385
_cell_angle_beta   90.00000000
_cell_angle_gamma   90.00000000
_symmetry_Int_Tables_number   1
_chemical_formula_structural   Ce2H16S3O20
_chemical_formula_sum   'Ce4 H32 S6 O40'
_cell_volume   839.94339571
_cell_formula_units_Z   2
loop_
 _symmetry_equiv_pos_site_id
 _symmetry_equiv_pos_as_xyz
  1  'x, y, z'
loop_
 _atom_site_type_symbol
 _atom_site_label
 _atom_site_symmetry_multiplicity
 _atom_site_fract_x
 _atom_site_fract_y
 _atom_site_fract_z
 _atom_site_occupancy
  Ce  Ce0  1  0.38189600  0.65526500  0.32975300  1
  Ce  Ce1  1  0.61810400  0.65526500  0.82975300  1
  Ce  Ce2  1  0.11785200  0.61423900  0.87471200  1
  Ce  Ce3  1  0.88214800  0.61423900  0.37471200  1
  H  H4  1  0.37022400  0.20747100  0.18519300  1
  H  H5  1  0.62977600  0.20747100  0.68519300  1
  H  H6  1  0.35241400  0.04873800  0.40391800  1
  H  H7  1  0.64758600  0.04873800  0.90391800  1
  H  H8  1  0.25612800  0.51555800  0.61889600  1
  H  H9  1  0.74387200  0.51555800  0.11889600  1
  H  H10  1  0.20629900  0.49843400  0.48991900  1
  H  H11  1  0.79370100  0.49843400  0.98991900  1
  H  H12  1  0.52671600  0.87194900  0.40561600  1
  H  H13  1  0.47328400  0.87194900  0.90561600  1
  H  H14  1  0.55520300  0.67080200  0.38742100  1
  H  H15  1  0.44479700  0.67080200  0.88742100  1
  H  H16  1  0.31536000  0.05974900  0.65057400  1
  H  H17  1  0.68464000  0.05974900  0.15057400  1
  H  H18  1  0.40382300  0.04465000  0.63166700  1
  H  H19  1  0.59617700  0.04465000  0.13166700  1
  H  H20  1  0.14146500  0.15610600  0.48539500  1
  H  H21  1  0.85853500  0.15610600  0.98539500  1
  H  H22  1  0.14585900  0.00756800  0.41114300  1
  H  H23  1  0.85414100  0.00756800  0.91114300  1
  H  H24  1  0.24328700  0.25285600  0.91871500  1
  H  H25  1  0.75671300  0.25285600  0.41871500  1
  H  H26  1  0.29501000  0.48041500  0.86270000  1
  H  H27  1  0.70499000  0.48041500  0.36270000  1
  H  H28  1  0.08813400  0.99941500  0.19463500  1
  H  H29  1  0.91186600  0.99941500  0.69463500  1
  H  H30  1  0.17627900  0.99595100  0.17230700  1
  H  H31  1  0.82372100  0.99595100  0.67230700  1
  H  H32  1  0.97247400  0.81677000  0.58437500  1
  H  H33  1  0.02752600  0.81677000  0.08437500  1
  H  H34  1  0.94436300  0.61852600  0.80186100  1
  H  H35  1  0.05563700  0.61852600  0.30186100  1
  S  S36  1  0.24845400  0.73707800  0.04559800  1
  S  S37  1  0.75154600  0.73707800  0.54559800  1
  S  S38  1  0.06381300  0.28860100  0.68249500  1
  S  S39  1  0.93618700  0.28860100  0.18249500  1
  S  S40  1  0.56255700  0.33088200  0.34612200  1
  S  S41  1  0.43744300  0.33088200  0.84612200  1
  O  O42  1  0.36134200  0.02854300  0.31117600  1
  O  O43  1  0.63865800  0.02854300  0.81117600  1
  O  O44  1  0.25783100  0.54579400  0.50065500  1
  O  O45  1  0.74216900  0.54579400  0.00065500  1
  O  O46  1  0.51889500  0.81810300  0.33330400  1
  O  O47  1  0.48110500  0.81810300  0.83330400  1
  O  O48  1  0.35677200  0.13212100  0.55454200  1
  O  O49  1  0.64322800  0.13212100  0.05454200  1
  O  O50  1  0.14658800  0.98019100  0.52852100  1
  O  O51  1  0.85341200  0.98019100  0.02852100  1
  O  O52  1  0.24302000  0.44697800  0.84116500  1
  O  O53  1  0.75698000  0.44697800  0.34116500  1
  O  O54  1  0.13611800  0.08128200  0.18764000  1
  O  O55  1  0.86388200  0.08128200  0.68764000  1
  O  O56  1  0.98088300  0.76402900  0.70946900  1
  O  O57  1  0.01911700  0.76402900  0.20946900  1
  O  O58  1  0.32059200  0.58166200  0.13036400  1
  O  O59  1  0.67940800  0.58166200  0.63036400  1
  O  O60  1  0.25047900  0.91834700  0.08150700  1
  O  O61  1  0.74952100  0.91834700  0.58150700  1
  O  O62  1  0.24199900  0.88575800  0.83662000  1
  O  O63  1  0.75800100  0.88575800  0.33662000  1
  O  O64  1  0.18056500  0.55915100  0.13985000  1
  O  O65  1  0.81943500  0.55915100  0.63985000  1
  O  O66  1  0.06443400  0.99318800  0.83006200  1
  O  O67  1  0.93556600  0.99318800  0.33006200  1
  O  O68  1  0.11114900  0.38805100  0.51290800  1
  O  O69  1  0.88885100  0.38805100  0.01290800  1
  O  O70  1  0.09541500  0.38486600  0.77013300  1
  O  O71  1  0.90458500  0.38486600  0.27013300  1
  O  O72  1  0.01553300  0.38675600  0.11758800  1
  O  O73  1  0.98446700  0.38675600  0.61758800  1
  O  O74  1  0.48186500  0.41523800  0.31958800  1
  O  O75  1  0.51813500  0.41523800  0.81958800  1
  O  O76  1  0.59399400  0.43843200  0.15959000  1
  O  O77  1  0.40600600  0.43843200  0.65959000  1
  O  O78  1  0.60764000  0.43447300  0.41733800  1
  O  O79  1  0.39236000  0.43447300  0.91733800  1
  O  O80  1  0.43200400  0.03657100  0.98878300  1
  O  O81  1  0.56799600  0.03657100  0.48878300  1
