# generated using pymatgen
data_CaSn(BO3)2
_symmetry_space_group_name_H-M   'P 1'
_cell_length_a   6.14354486
_cell_length_b   6.14354486
_cell_length_c   6.14354583
_cell_angle_alpha   47.20608608
_cell_angle_beta   47.20608608
_cell_angle_gamma   47.20608126
_symmetry_Int_Tables_number   1
_chemical_formula_structural   CaSn(BO3)2
_chemical_formula_sum   'Ca1 Sn1 B2 O6'
_cell_volume   114.18501297
_cell_formula_units_Z   1
loop_
 _symmetry_equiv_pos_site_id
 _symmetry_equiv_pos_as_xyz
  1  'x, y, z'
loop_
 _atom_site_type_symbol
 _atom_site_label
 _atom_site_symmetry_multiplicity
 _atom_site_fract_x
 _atom_site_fract_y
 _atom_site_fract_z
 _atom_site_occupancy
  Ca  Ca0  1  0.00000000  0.00000000  0.00000000  1
  Sn  Sn1  1  0.50000000  0.50000000  0.50000000  1
  B  B2  1  0.76069100  0.76069100  0.76069100  1
  B  B3  1  0.23930900  0.23930900  0.23930900  1
  O  O4  1  0.49121000  0.73012100  0.05265200  1
  O  O5  1  0.73012100  0.05265200  0.49121000  1
  O  O6  1  0.94734800  0.50879000  0.26987900  1
  O  O7  1  0.50879000  0.26987900  0.94734800  1
  O  O8  1  0.26987900  0.94734800  0.50879000  1
  O  O9  1  0.05265200  0.49121000  0.73012100  1
