# generated using pymatgen
data_HoAl3
_symmetry_space_group_name_H-M   'P 1'
_cell_length_a   7.90684022
_cell_length_b   7.90684022
_cell_length_c   7.90684006
_cell_angle_alpha   45.83990805
_cell_angle_beta   45.83990805
_cell_angle_gamma   45.83990260
_symmetry_Int_Tables_number   1
_chemical_formula_structural   HoAl3
_chemical_formula_sum   'Ho3 Al9'
_cell_volume   231.97005950
_cell_formula_units_Z   3
loop_
 _symmetry_equiv_pos_site_id
 _symmetry_equiv_pos_as_xyz
  1  'x, y, z'
loop_
 _atom_site_type_symbol
 _atom_site_label
 _atom_site_symmetry_multiplicity
 _atom_site_fract_x
 _atom_site_fract_y
 _atom_site_fract_z
 _atom_site_occupancy
  Ho  Ho0  1  0.00000000  0.00000000  0.00000000  1
  Ho  Ho1  1  0.78182200  0.78182200  0.78182200  1
  Ho  Ho2  1  0.21817800  0.21817800  0.21817800  1
  Al  Al3  1  0.50000000  0.50000000  0.00000000  1
  Al  Al4  1  0.00000000  0.50000000  0.50000000  1
  Al  Al5  1  0.50000000  0.00000000  0.50000000  1
  Al  Al6  1  0.70398800  0.70398800  0.26131900  1
  Al  Al7  1  0.26131900  0.70398800  0.70398800  1
  Al  Al8  1  0.70398800  0.26131900  0.70398800  1
  Al  Al9  1  0.29601200  0.29601200  0.73868100  1
  Al  Al10  1  0.73868100  0.29601200  0.29601200  1
  Al  Al11  1  0.29601200  0.73868100  0.29601200  1
