# generated using pymatgen
data_SmCoC2
_symmetry_space_group_name_H-M   'P 1'
_cell_length_a   3.74510431
_cell_length_b   3.74510431
_cell_length_c   7.35585096
_cell_angle_alpha   81.97256315
_cell_angle_beta   81.97256315
_cell_angle_gamma   90.03918250
_symmetry_Int_Tables_number   1
_chemical_formula_structural   SmCoC2
_chemical_formula_sum   'Sm2 Co2 C4'
_cell_volume   101.13831237
_cell_formula_units_Z   2
loop_
 _symmetry_equiv_pos_site_id
 _symmetry_equiv_pos_as_xyz
  1  'x, y, z'
loop_
 _atom_site_type_symbol
 _atom_site_label
 _atom_site_symmetry_multiplicity
 _atom_site_fract_x
 _atom_site_fract_y
 _atom_site_fract_z
 _atom_site_occupancy
  Sm  Sm0  1  0.62890800  0.48666300  0.30659800  1
  Sm  Sm1  1  0.48666300  0.62890800  0.80659800  1
  Co  Co2  1  0.06998100  0.93103000  0.50044900  1
  Co  Co3  1  0.93103000  0.06998100  0.00044900  1
  C  C4  1  0.41200600  0.04770900  0.08003700  1
  C  C5  1  0.04770900  0.41200600  0.58003700  1
  C  C6  1  0.15108500  0.00061800  0.23391600  1
  C  C7  1  0.00061800  0.15108500  0.73391600  1
