# generated using pymatgen
data_SrLaAl3O7
_symmetry_space_group_name_H-M   'P 1'
_cell_length_a   7.95617405
_cell_length_b   7.95617405
_cell_length_c   5.28786100
_cell_angle_alpha   90.00000000
_cell_angle_beta   90.00000000
_cell_angle_gamma   90.16907047
_symmetry_Int_Tables_number   1
_chemical_formula_structural   SrLaAl3O7
_chemical_formula_sum   'Sr2 La2 Al6 O14'
_cell_volume   334.72387470
_cell_formula_units_Z   2
loop_
 _symmetry_equiv_pos_site_id
 _symmetry_equiv_pos_as_xyz
  1  'x, y, z'
loop_
 _atom_site_type_symbol
 _atom_site_label
 _atom_site_symmetry_multiplicity
 _atom_site_fract_x
 _atom_site_fract_y
 _atom_site_fract_z
 _atom_site_occupancy
  Sr  Sr0  1  0.66209700  0.66209700  0.48981400  1
  Sr  Sr1  1  0.33790300  0.33790300  0.48981400  1
  La  La2  1  0.83581000  0.16419000  0.51015600  1
  La  La3  1  0.16419000  0.83581000  0.51015600  1
  Al  Al4  1  0.85806100  0.85806100  0.03850900  1
  Al  Al5  1  0.64335200  0.35664800  0.96187600  1
  Al  Al6  1  0.14193900  0.14193900  0.03850900  1
  Al  Al7  1  0.35664800  0.64335200  0.96187600  1
  Al  Al8  1  0.50000000  0.00000000  0.99973300  1
  Al  Al9  1  0.00000000  0.50000000  0.99973300  1
  O  O10  1  0.66614300  0.91798700  0.18650300  1
  O  O11  1  0.83779800  0.40974200  0.80872200  1
  O  O12  1  0.33385700  0.08201300  0.18650300  1
  O  O13  1  0.16220200  0.59025800  0.80872200  1
  O  O14  1  0.40974200  0.83779800  0.80872200  1
  O  O15  1  0.08201300  0.33385700  0.18650300  1
  O  O16  1  0.59025800  0.16220200  0.80872200  1
  O  O17  1  0.91798700  0.66614300  0.18650300  1
  O  O18  1  0.86780600  0.86780600  0.70730600  1
  O  O19  1  0.65064400  0.34935600  0.29157600  1
  O  O20  1  0.13219400  0.13219400  0.70730600  1
  O  O21  1  0.34935600  0.65064400  0.29157600  1
  O  O22  1  0.50000000  0.50000000  0.83346400  1
  O  O23  1  0.00000000  0.00000000  0.18769700  1
