# generated using pymatgen
data_LaHgPd
_symmetry_space_group_name_H-M   'P 1'
_cell_length_a   7.89362631
_cell_length_b   7.89362631
_cell_length_c   4.06052900
_cell_angle_alpha   90.00000000
_cell_angle_beta   90.00000000
_cell_angle_gamma   120.00000258
_symmetry_Int_Tables_number   1
_chemical_formula_structural   LaHgPd
_chemical_formula_sum   'La3 Hg3 Pd3'
_cell_volume   219.11210050
_cell_formula_units_Z   3
loop_
 _symmetry_equiv_pos_site_id
 _symmetry_equiv_pos_as_xyz
  1  'x, y, z'
loop_
 _atom_site_type_symbol
 _atom_site_label
 _atom_site_symmetry_multiplicity
 _atom_site_fract_x
 _atom_site_fract_y
 _atom_site_fract_z
 _atom_site_occupancy
  La  La0  1  0.40532900  0.40532900  0.50000000  1
  La  La1  1  0.59467100  0.00000000  0.50000000  1
  La  La2  1  0.00000000  0.59467100  0.50000000  1
  Hg  Hg3  1  0.74442900  0.74442900  0.00000000  1
  Hg  Hg4  1  0.25557100  0.00000000  0.00000000  1
  Hg  Hg5  1  0.00000000  0.25557100  0.00000000  1
  Pd  Pd6  1  0.66666700  0.33333300  0.00000000  1
  Pd  Pd7  1  0.33333300  0.66666700  0.00000000  1
  Pd  Pd8  1  0.00000000  0.00000000  0.50000000  1
