# generated using pymatgen
data_NaSr3GdP3O12F
_symmetry_space_group_name_H-M   'P 1'
_cell_length_a   9.68743405
_cell_length_b   9.68743405
_cell_length_c   7.20672600
_cell_angle_alpha   90.00000000
_cell_angle_beta   90.00000000
_cell_angle_gamma   120.00000035
_symmetry_Int_Tables_number   1
_chemical_formula_structural   NaSr3GdP3O12F
_chemical_formula_sum   'Na2 Sr6 Gd2 P6 O24 F2'
_cell_volume   585.71474681
_cell_formula_units_Z   2
loop_
 _symmetry_equiv_pos_site_id
 _symmetry_equiv_pos_as_xyz
  1  'x, y, z'
loop_
 _atom_site_type_symbol
 _atom_site_label
 _atom_site_symmetry_multiplicity
 _atom_site_fract_x
 _atom_site_fract_y
 _atom_site_fract_z
 _atom_site_occupancy
  Na  Na0  1  0.66666700  0.33333300  0.98462800  1
  Na  Na1  1  0.33333300  0.66666700  0.01537200  1
  Sr  Sr2  1  0.98087500  0.24042500  0.76188100  1
  Sr  Sr3  1  0.25955000  0.01912500  0.76188100  1
  Sr  Sr4  1  0.75957500  0.74045000  0.76188100  1
  Sr  Sr5  1  0.01912500  0.75957500  0.23811900  1
  Sr  Sr6  1  0.74045000  0.98087500  0.23811900  1
  Sr  Sr7  1  0.24042500  0.25955000  0.23811900  1
  Gd  Gd8  1  0.66666700  0.33333300  0.48260000  1
  Gd  Gd9  1  0.33333300  0.66666700  0.51740000  1
  P  P10  1  0.96685500  0.37432300  0.26116200  1
  P  P11  1  0.40746700  0.03314500  0.26116200  1
  P  P12  1  0.62567700  0.59253300  0.26116200  1
  P  P13  1  0.03314500  0.62567700  0.73883800  1
  P  P14  1  0.59253300  0.96685500  0.73883800  1
  P  P15  1  0.37432300  0.40746700  0.73883800  1
  O  O16  1  0.14756600  0.49779400  0.28089200  1
  O  O17  1  0.35022700  0.85243400  0.28089200  1
  O  O18  1  0.50220600  0.64977300  0.28089200  1
  O  O19  1  0.85243400  0.50220600  0.71910800  1
  O  O20  1  0.64977300  0.14756600  0.71910800  1
  O  O21  1  0.49779400  0.35022700  0.71910800  1
  O  O22  1  0.86904700  0.46007400  0.23270000  1
  O  O23  1  0.59102700  0.13095300  0.23270000  1
  O  O24  1  0.53992600  0.40897300  0.23270000  1
  O  O25  1  0.13095300  0.53992600  0.76730000  1
  O  O26  1  0.40897300  0.86904700  0.76730000  1
  O  O27  1  0.46007400  0.59102700  0.76730000  1
  O  O28  1  0.94452200  0.26017400  0.09912700  1
  O  O29  1  0.31565200  0.05547800  0.09912700  1
  O  O30  1  0.73982600  0.68434800  0.09912700  1
  O  O31  1  0.05547800  0.73982600  0.90087300  1
  O  O32  1  0.68434800  0.94452200  0.90087300  1
  O  O33  1  0.26017400  0.31565200  0.90087300  1
  O  O34  1  0.89488000  0.27105000  0.43986700  1
  O  O35  1  0.37616900  0.10512000  0.43986700  1
  O  O36  1  0.72895000  0.62383100  0.43986700  1
  O  O37  1  0.10512000  0.72895000  0.56013300  1
  O  O38  1  0.62383100  0.89488000  0.56013300  1
  O  O39  1  0.27105000  0.37616900  0.56013300  1
  F  F40  1  0.00000000  0.00000000  0.73739000  1
  F  F41  1  0.00000000  0.00000000  0.26261000  1
