# generated using pymatgen
data_TiCuF6
_symmetry_space_group_name_H-M   'P 1'
_cell_length_a   5.08900312
_cell_length_b   5.31730717
_cell_length_c   5.60571958
_cell_angle_alpha   58.56010357
_cell_angle_beta   61.54767670
_cell_angle_gamma   60.14413413
_symmetry_Int_Tables_number   1
_chemical_formula_structural   TiCuF6
_chemical_formula_sum   'Ti1 Cu1 F6'
_cell_volume   107.31915021
_cell_formula_units_Z   1
loop_
 _symmetry_equiv_pos_site_id
 _symmetry_equiv_pos_as_xyz
  1  'x, y, z'
loop_
 _atom_site_type_symbol
 _atom_site_label
 _atom_site_symmetry_multiplicity
 _atom_site_fract_x
 _atom_site_fract_y
 _atom_site_fract_z
 _atom_site_occupancy
  Ti  Ti0  1  0.50000000  0.50000000  0.50000000  1
  Cu  Cu1  1  0.00000000  0.00000000  0.00000000  1
  F  F2  1  0.74501400  0.35650600  0.74888300  1
  F  F3  1  0.25498600  0.64349400  0.25111700  1
  F  F4  1  0.63814200  0.85778300  0.25442700  1
  F  F5  1  0.36185800  0.14221700  0.74557300  1
  F  F6  1  0.15892000  0.72290300  0.72352700  1
  F  F7  1  0.84108000  0.27709700  0.27647300  1
