# generated using pymatgen
data_Nd2CO5
_symmetry_space_group_name_H-M   'P 1'
_cell_length_a   3.82130537
_cell_length_b   3.82130544
_cell_length_c   15.70079200
_cell_angle_alpha   90.00000000
_cell_angle_beta   90.00000000
_cell_angle_gamma   118.89901565
_symmetry_Int_Tables_number   1
_chemical_formula_structural   Nd2CO5
_chemical_formula_sum   'Nd4 C2 O10'
_cell_volume   200.71865128
_cell_formula_units_Z   2
loop_
 _symmetry_equiv_pos_site_id
 _symmetry_equiv_pos_as_xyz
  1  'x, y, z'
loop_
 _atom_site_type_symbol
 _atom_site_label
 _atom_site_symmetry_multiplicity
 _atom_site_fract_x
 _atom_site_fract_y
 _atom_site_fract_z
 _atom_site_occupancy
  Nd  Nd0  1  0.35512900  0.64487100  0.40197500  1
  Nd  Nd1  1  0.35512900  0.64487100  0.09802500  1
  Nd  Nd2  1  0.64487100  0.35512900  0.90197500  1
  Nd  Nd3  1  0.64487100  0.35512900  0.59802500  1
  C  C4  1  0.09605100  0.90394900  0.25000000  1
  C  C5  1  0.90394900  0.09605100  0.75000000  1
  O  O6  1  0.00025600  0.99974400  0.67841900  1
  O  O7  1  0.29067900  0.70932100  0.25000000  1
  O  O8  1  0.99974400  0.00025600  0.32158100  1
  O  O9  1  0.00025600  0.99974400  0.82158100  1
  O  O10  1  0.31519400  0.68480600  0.93050600  1
  O  O11  1  0.31519400  0.68480600  0.56949400  1
  O  O12  1  0.68480600  0.31519400  0.43050600  1
  O  O13  1  0.68480600  0.31519400  0.06949400  1
  O  O14  1  0.99974400  0.00025600  0.17841900  1
  O  O15  1  0.70932100  0.29067900  0.75000000  1
