# generated using pymatgen
data_NbTc
_symmetry_space_group_name_H-M   'P 1'
_cell_length_a   2.81692898
_cell_length_b   2.81692898
_cell_length_c   4.41925500
_cell_angle_alpha   90.00000000
_cell_angle_beta   90.00000000
_cell_angle_gamma   110.83728334
_symmetry_Int_Tables_number   1
_chemical_formula_structural   NbTc
_chemical_formula_sum   'Nb1 Tc1'
_cell_volume   32.77359122
_cell_formula_units_Z   1
loop_
 _symmetry_equiv_pos_site_id
 _symmetry_equiv_pos_as_xyz
  1  'x, y, z'
loop_
 _atom_site_type_symbol
 _atom_site_label
 _atom_site_symmetry_multiplicity
 _atom_site_fract_x
 _atom_site_fract_y
 _atom_site_fract_z
 _atom_site_occupancy
  Nb  Nb0  1  0.00000000  0.00000000  0.00000000  1
  Tc  Tc1  1  0.50000000  0.50000000  0.50000000  1
