# generated using pymatgen
data_Li4SiO4
_symmetry_space_group_name_H-M   'P 1'
_cell_length_a   6.15152800
_cell_length_b   11.70898000
_cell_length_c   16.89851675
_cell_angle_alpha   81.03988206
_cell_angle_beta   90.00000000
_cell_angle_gamma   90.00000000
_symmetry_Int_Tables_number   1
_chemical_formula_structural   Li4SiO4
_chemical_formula_sum   'Li56 Si14 O56'
_cell_volume   1202.31524757
_cell_formula_units_Z   14
loop_
 _symmetry_equiv_pos_site_id
 _symmetry_equiv_pos_as_xyz
  1  'x, y, z'
loop_
 _atom_site_type_symbol
 _atom_site_label
 _atom_site_symmetry_multiplicity
 _atom_site_fract_x
 _atom_site_fract_y
 _atom_site_fract_z
 _atom_site_occupancy
  Li  Li0  1  0.52835500  0.80967000  0.01095100  1
  Li  Li1  1  0.02835500  0.19033000  0.98904900  1
  Li  Li2  1  0.46718800  0.19418100  0.98426900  1
  Li  Li3  1  0.96718800  0.80581900  0.01573100  1
  Li  Li4  1  0.75528400  0.27246000  0.13948000  1
  Li  Li5  1  0.25528400  0.72754000  0.86052000  1
  Li  Li6  1  0.00348500  0.61701900  0.40779300  1
  Li  Li7  1  0.50348500  0.38298100  0.59220700  1
  Li  Li8  1  0.99638700  0.38292400  0.59227000  1
  Li  Li9  1  0.49638700  0.61707600  0.40773000  1
  Li  Li10  1  0.25500700  0.86446000  0.14370600  1
  Li  Li11  1  0.75500700  0.13554000  0.85629400  1
  Li  Li12  1  0.50296600  0.81245300  0.45410900  1
  Li  Li13  1  0.00296600  0.18754700  0.54589100  1
  Li  Li14  1  0.49701300  0.18778600  0.54560700  1
  Li  Li15  1  0.99701300  0.81221400  0.45439300  1
  Li  Li16  1  0.25137100  0.99710000  0.01201200  1
  Li  Li17  1  0.75137100  0.00290000  0.98798800  1
  Li  Li18  1  0.49407000  0.47601800  0.11695100  1
  Li  Li19  1  0.99407000  0.52398200  0.88304900  1
  Li  Li20  1  0.50569400  0.52372100  0.88306700  1
  Li  Li21  1  0.00569400  0.47627900  0.11693300  1
  Li  Li22  1  0.04147600  0.76166400  0.59765100  1
  Li  Li23  1  0.54147600  0.23833600  0.40234900  1
  Li  Li24  1  0.95857100  0.23828500  0.40235100  1
  Li  Li25  1  0.45857100  0.76171500  0.59764900  1
  Li  Li26  1  0.74964000  0.58961800  0.01681900  1
  Li  Li27  1  0.24964000  0.41038200  0.98318100  1
  Li  Li28  1  0.50796500  0.66261300  0.17282100  1
  Li  Li29  1  0.00796500  0.33738700  0.82717900  1
  Li  Li30  1  0.49189400  0.33724600  0.82704600  1
  Li  Li31  1  0.99189400  0.66275400  0.17295400  1
  Li  Li32  1  0.25004700  0.54764300  0.27662900  1
  Li  Li33  1  0.75004700  0.45235700  0.72337100  1
  Li  Li34  1  0.75009600  0.97391200  0.57015800  1
  Li  Li35  1  0.25009600  0.02608800  0.42984200  1
  Li  Li36  1  0.74958400  0.72905300  0.30381700  1
  Li  Li37  1  0.24958400  0.27094700  0.69618300  1
  Li  Li38  1  0.25000500  0.58197900  0.54981600  1
  Li  Li39  1  0.75000500  0.41802100  0.45018400  1
  Li  Li40  1  0.52540000  0.95181000  0.29129300  1
  Li  Li41  1  0.02540000  0.04819000  0.70870700  1
  Li  Li42  1  0.46945200  0.05193100  0.70409200  1
  Li  Li43  1  0.96945200  0.94806900  0.29590800  1
  Li  Li44  1  0.03300200  0.33525000  0.26669300  1
  Li  Li45  1  0.53300200  0.66475000  0.73330700  1
  Li  Li46  1  0.96755100  0.66463300  0.73353000  1
  Li  Li47  1  0.46755100  0.33536700  0.26647000  1
  Li  Li48  1  0.74929600  0.14046400  0.26658000  1
  Li  Li49  1  0.24929600  0.85953600  0.73342000  1
  Li  Li50  1  0.25129500  0.14232200  0.29571400  1
  Li  Li51  1  0.75129500  0.85767800  0.70428600  1
  Li  Li52  1  0.04266300  0.91169900  0.87462200  1
  Li  Li53  1  0.54266300  0.08830100  0.12537800  1
  Li  Li54  1  0.54302200  0.94752300  0.84528700  1
  Li  Li55  1  0.04302200  0.05247700  0.15471300  1
  Si  Si56  1  0.24825500  0.79850300  0.29111300  1
  Si  Si57  1  0.74825500  0.20149700  0.70888700  1
  Si  Si58  1  0.75113100  0.89467300  0.14379200  1
  Si  Si59  1  0.25113100  0.10532700  0.85620800  1
  Si  Si60  1  0.74998100  0.47754300  0.28637900  1
  Si  Si61  1  0.24998100  0.52245700  0.71362100  1
  Si  Si62  1  0.24976100  0.95942900  0.57838800  1
  Si  Si63  1  0.74976100  0.04057100  0.42161200  1
  Si  Si64  1  0.25164300  0.24599100  0.13872300  1
  Si  Si65  1  0.75164300  0.75400900  0.86127700  1
  Si  Si66  1  0.24821100  0.65841700  0.00653300  1
  Si  Si67  1  0.74821100  0.34158300  0.99346700  1
  Si  Si68  1  0.25003500  0.38410200  0.42864100  1
  Si  Si69  1  0.75003500  0.61589800  0.57135900  1
  O  O70  1  0.03132100  0.92982000  0.63725500  1
  O  O71  1  0.53132100  0.07018000  0.36274500  1
  O  O72  1  0.96841100  0.07010400  0.36294200  1
  O  O73  1  0.46841100  0.92989600  0.63705800  1
  O  O74  1  0.25006900  0.09056100  0.53001100  1
  O  O75  1  0.75006900  0.90943900  0.46998900  1
  O  O76  1  0.03555900  0.21306500  0.19820300  1
  O  O77  1  0.53555900  0.78693500  0.80179700  1
  O  O78  1  0.97188600  0.78445600  0.80334400  1
  O  O79  1  0.47188600  0.21554400  0.19665600  1
  O  O80  1  0.02587700  0.64060200  0.06113300  1
  O  O81  1  0.52587700  0.35939800  0.93886700  1
  O  O82  1  0.97239900  0.35750400  0.93976900  1
  O  O83  1  0.47239900  0.64249600  0.06023100  1
  O  O84  1  0.53569100  0.92722500  0.08352200  1
  O  O85  1  0.03569100  0.07277500  0.91647800  1
  O  O86  1  0.47100300  0.07538700  0.91473800  1
  O  O87  1  0.97100300  0.92461300  0.08526200  1
  O  O88  1  0.24892300  0.38070600  0.09901700  1
  O  O89  1  0.74892300  0.61929400  0.90098300  1
  O  O90  1  0.74990900  0.55577100  0.35904500  1
  O  O91  1  0.24990900  0.44422900  0.64095500  1
  O  O92  1  0.24999200  0.57924400  0.93416000  1
  O  O93  1  0.74999200  0.42075600  0.06584000  1
  O  O94  1  0.74887500  0.76182700  0.18735100  1
  O  O95  1  0.24887500  0.23817300  0.81264900  1
  O  O96  1  0.52916900  0.49815100  0.23031900  1
  O  O97  1  0.02916900  0.50184900  0.76968100  1
  O  O98  1  0.47084800  0.50199900  0.76963400  1
  O  O99  1  0.97084800  0.49800100  0.23036600  1
  O  O100  1  0.25425600  0.15332800  0.07277200  1
  O  O101  1  0.75425600  0.84667200  0.92722800  1
  O  O102  1  0.02600000  0.78278700  0.34598600  1
  O  O103  1  0.52600000  0.21721300  0.65401400  1
  O  O104  1  0.97229800  0.21548100  0.65495900  1
  O  O105  1  0.47229800  0.78451900  0.34504100  1
  O  O106  1  0.24998900  0.52247400  0.39480500  1
  O  O107  1  0.74998900  0.47752600  0.60519500  1
  O  O108  1  0.25012500  0.30304600  0.35302600  1
  O  O109  1  0.75012500  0.69695400  0.64697400  1
  O  O110  1  0.25005900  0.71613100  0.22105600  1
  O  O111  1  0.75005900  0.28386900  0.77894400  1
  O  O112  1  0.02903600  0.34512000  0.48153500  1
  O  O113  1  0.52903600  0.65488000  0.51846500  1
  O  O114  1  0.97105500  0.65482600  0.51853300  1
  O  O115  1  0.47105500  0.34517400  0.48146700  1
  O  O116  1  0.75007600  0.33469800  0.32454200  1
  O  O117  1  0.25007600  0.66530200  0.67545800  1
  O  O118  1  0.24293800  0.93634800  0.24285700  1
  O  O119  1  0.74293800  0.06365200  0.75714300  1
  O  O120  1  0.24995600  0.86714400  0.51391100  1
  O  O121  1  0.74995600  0.13285600  0.48608900  1
  O  O122  1  0.24301700  0.79807700  0.96143000  1
  O  O123  1  0.74301700  0.20192300  0.03857000  1
  O  O124  1  0.75406200  0.99006500  0.20791600  1
  O  O125  1  0.25406200  0.00993500  0.79208400  1
