# generated using pymatgen
data_Zr6SiI14
_symmetry_space_group_name_H-M   'P 1'
_cell_length_a   11.01801731
_cell_length_b   11.01801731
_cell_length_c   13.25695700
_cell_angle_alpha   90.00000000
_cell_angle_beta   90.00000000
_cell_angle_gamma   95.12736739
_symmetry_Int_Tables_number   1
_chemical_formula_structural   Zr6SiI14
_chemical_formula_sum   'Zr12 Si2 I28'
_cell_volume   1602.91107258
_cell_formula_units_Z   2
loop_
 _symmetry_equiv_pos_site_id
 _symmetry_equiv_pos_as_xyz
  1  'x, y, z'
loop_
 _atom_site_type_symbol
 _atom_site_label
 _atom_site_symmetry_multiplicity
 _atom_site_fract_x
 _atom_site_fract_y
 _atom_site_fract_z
 _atom_site_occupancy
  Zr  Zr0  1  0.95315300  0.17835300  0.11490200  1
  Zr  Zr1  1  0.04684700  0.82164700  0.88509800  1
  Zr  Zr2  1  0.54684700  0.32164700  0.61490200  1
  Zr  Zr3  1  0.67835300  0.45315300  0.38509800  1
  Zr  Zr4  1  0.45315300  0.67835300  0.38509800  1
  Zr  Zr5  1  0.32164700  0.54684700  0.61490200  1
  Zr  Zr6  1  0.82164700  0.04684700  0.88509800  1
  Zr  Zr7  1  0.17835300  0.95315300  0.11490200  1
  Zr  Zr8  1  0.35817200  0.35817200  0.39715200  1
  Zr  Zr9  1  0.64182800  0.64182800  0.60284800  1
  Zr  Zr10  1  0.14182800  0.14182800  0.89715200  1
  Zr  Zr11  1  0.85817200  0.85817200  0.10284800  1
  Si  Si12  1  0.00000000  0.00000000  0.00000000  1
  Si  Si13  1  0.50000000  0.50000000  0.50000000  1
  I  I14  1  0.28705400  0.53422200  0.25195900  1
  I  I15  1  0.71294600  0.46577800  0.74804100  1
  I  I16  1  0.21294600  0.96577800  0.75195900  1
  I  I17  1  0.03422200  0.78705400  0.24804100  1
  I  I18  1  0.78705400  0.03422200  0.24804100  1
  I  I19  1  0.96577800  0.21294600  0.75195900  1
  I  I20  1  0.46577800  0.71294600  0.74804100  1
  I  I21  1  0.53422200  0.28705400  0.25195900  1
  I  I22  1  0.11363200  0.36270800  0.01043200  1
  I  I23  1  0.88636800  0.63729300  0.98956800  1
  I  I24  1  0.38636800  0.13729300  0.51043200  1
  I  I25  1  0.86270800  0.61363200  0.48956800  1
  I  I26  1  0.61363200  0.86270700  0.48956800  1
  I  I27  1  0.13729200  0.38636800  0.51043200  1
  I  I28  1  0.63729300  0.88636800  0.98956800  1
  I  I29  1  0.36270800  0.11363200  0.01043200  1
  I  I30  1  0.89748900  0.39748900  0.25000000  1
  I  I31  1  0.10251100  0.60251100  0.75000000  1
  I  I32  1  0.60251100  0.10251100  0.75000000  1
  I  I33  1  0.39748900  0.89748900  0.25000000  1
  I  I34  1  0.74892700  0.25107300  0.00000000  1
  I  I35  1  0.25107300  0.74892700  0.00000000  1
  I  I36  1  0.75107300  0.24892700  0.50000000  1
  I  I37  1  0.24892700  0.75107300  0.50000000  1
  I  I38  1  0.15256300  0.15256300  0.26357300  1
  I  I39  1  0.84743700  0.84743700  0.73642700  1
  I  I40  1  0.34743700  0.34743700  0.76357300  1
  I  I41  1  0.65256300  0.65256300  0.23642700  1
