# generated using pymatgen
data_K4Zn2Sn21
_symmetry_space_group_name_H-M   'P 1'
_cell_length_a   12.28494997
_cell_length_b   12.28494997
_cell_length_c   12.28863300
_cell_angle_alpha   90.00000000
_cell_angle_beta   90.00000000
_cell_angle_gamma   90.03615791
_symmetry_Int_Tables_number   1
_chemical_formula_structural   K4Zn2Sn21
_chemical_formula_sum   'K8 Zn4 Sn42'
_cell_volume   1854.60007193
_cell_formula_units_Z   2
loop_
 _symmetry_equiv_pos_site_id
 _symmetry_equiv_pos_as_xyz
  1  'x, y, z'
loop_
 _atom_site_type_symbol
 _atom_site_label
 _atom_site_symmetry_multiplicity
 _atom_site_fract_x
 _atom_site_fract_y
 _atom_site_fract_z
 _atom_site_occupancy
  K  K0  1  0.25126700  0.49894900  0.25000000  1
  K  K1  1  0.50105100  0.74873300  0.75000000  1
  K  K2  1  0.99894700  0.00105300  0.50000000  1
  K  K3  1  0.74879900  0.49895400  0.25000000  1
  K  K4  1  0.50104600  0.25120100  0.75000000  1
  K  K5  1  0.99894700  0.00105300  0.00000000  1
  K  K6  1  0.50057800  0.00064500  0.25000000  1
  K  K7  1  0.99935500  0.49942200  0.75000000  1
  Zn  Zn8  1  0.49985300  0.50014700  0.50000000  1
  Zn  Zn9  1  0.74997700  0.99985300  0.75000000  1
  Zn  Zn10  1  0.00014700  0.25002300  0.25000000  1
  Zn  Zn11  1  0.49985300  0.50014700  0.00000000  1
  Sn  Sn12  1  0.31785300  0.81552700  0.43272100  1
  Sn  Sn13  1  0.68207400  0.18211400  0.06793100  1
  Sn  Sn14  1  0.68207400  0.18211400  0.43206900  1
  Sn  Sn15  1  0.31785300  0.81552700  0.06727900  1
  Sn  Sn16  1  0.31702500  0.18368100  0.06873200  1
  Sn  Sn17  1  0.68130500  0.81693800  0.43373700  1
  Sn  Sn18  1  0.68130500  0.81693800  0.06626300  1
  Sn  Sn19  1  0.31702500  0.18368100  0.43126800  1
  Sn  Sn20  1  0.18447300  0.68214700  0.93272100  1
  Sn  Sn21  1  0.81788600  0.31792600  0.56793100  1
  Sn  Sn22  1  0.81788600  0.31792600  0.93206900  1
  Sn  Sn23  1  0.18447300  0.68214700  0.56727900  1
  Sn  Sn24  1  0.81631900  0.68297500  0.56873200  1
  Sn  Sn25  1  0.18306200  0.31869500  0.93373700  1
  Sn  Sn26  1  0.18306200  0.31869500  0.56626300  1
  Sn  Sn27  1  0.81631900  0.68297500  0.93126800  1
  Sn  Sn28  1  0.49995100  0.68044500  0.36976400  1
  Sn  Sn29  1  0.38581900  0.00010100  0.55902900  1
  Sn  Sn30  1  0.19061900  0.88627200  0.25000000  1
  Sn  Sn31  1  0.50005400  0.31941900  0.12998000  1
  Sn  Sn32  1  0.62325800  0.99995100  0.92953000  1
  Sn  Sn33  1  0.82041300  0.12302400  0.25000000  1
  Sn  Sn34  1  0.50005400  0.31941900  0.37002000  1
  Sn  Sn35  1  0.62325800  0.99995100  0.57047000  1
  Sn  Sn36  1  0.49995100  0.68044500  0.13023600  1
  Sn  Sn37  1  0.38581900  0.00010100  0.94097100  1
  Sn  Sn38  1  0.17920600  0.12280500  0.25000000  1
  Sn  Sn39  1  0.80914700  0.88584700  0.25000000  1
  Sn  Sn40  1  0.31955500  0.50004900  0.86976400  1
  Sn  Sn41  1  0.99989900  0.61418100  0.05902900  1
  Sn  Sn42  1  0.11372800  0.80938100  0.75000000  1
  Sn  Sn43  1  0.68058100  0.49994600  0.62998000  1
  Sn  Sn44  1  0.00004900  0.37674200  0.42953000  1
  Sn  Sn45  1  0.87697600  0.17958700  0.75000000  1
  Sn  Sn46  1  0.68058100  0.49994600  0.87002000  1
  Sn  Sn47  1  0.00004900  0.37674200  0.07047000  1
  Sn  Sn48  1  0.31955500  0.50004900  0.63023600  1
  Sn  Sn49  1  0.99989900  0.61418100  0.44097100  1
  Sn  Sn50  1  0.87719500  0.82079400  0.75000000  1
  Sn  Sn51  1  0.11415300  0.19085300  0.75000000  1
  Sn  Sn52  1  0.25010000  0.99968400  0.75000000  1
  Sn  Sn53  1  0.00031600  0.74990000  0.25000000  1
