# generated using pymatgen
data_Cs2Hf(WO4)3
_symmetry_space_group_name_H-M   'P 1'
_cell_length_a   7.43840413
_cell_length_b   7.43842676
_cell_length_c   7.51180551
_cell_angle_alpha   90.00000000
_cell_angle_beta   60.32333580
_cell_angle_gamma   120.00010063
_symmetry_Int_Tables_number   1
_chemical_formula_structural   Cs2Hf(WO4)3
_chemical_formula_sum   'Cs2 Hf1 W3 O12'
_cell_volume   295.32134440
_cell_formula_units_Z   1
loop_
 _symmetry_equiv_pos_site_id
 _symmetry_equiv_pos_as_xyz
  1  'x, y, z'
loop_
 _atom_site_type_symbol
 _atom_site_label
 _atom_site_symmetry_multiplicity
 _atom_site_fract_x
 _atom_site_fract_y
 _atom_site_fract_z
 _atom_site_occupancy
  Cs  Cs0  1  0.25476500  0.13135100  0.11769300  1
  Cs  Cs1  1  0.74523500  0.87658600  0.88230700  1
  Hf  Hf2  1  0.00000000  0.50370000  0.00000000  1
  W  W3  1  0.50000800  0.00388800  0.50006700  1
  W  W4  1  0.49999200  0.50388000  0.49993300  1
  W  W5  1  0.00000000  0.50386700  0.50000000  1
  O  O6  1  0.61727100  0.81239300  0.44447800  1
  O  O7  1  0.87329400  0.44034900  0.80043000  1
  O  O8  1  0.26293200  0.82997500  0.80044100  1
  O  O9  1  0.24689400  0.44201100  0.44445000  1
  O  O10  1  0.26291900  0.44033600  0.80042700  1
  O  O11  1  0.24687500  0.81239300  0.44450700  1
  O  O12  1  0.38272900  0.19512200  0.55552200  1
  O  O13  1  0.12670600  0.56705500  0.19957000  1
  O  O14  1  0.73708100  0.17741600  0.19957300  1
  O  O15  1  0.75312500  0.56551800  0.55549300  1
  O  O16  1  0.73706800  0.56704300  0.19955900  1
  O  O17  1  0.75310600  0.19511600  0.55555000  1
