# generated using pymatgen
data_RbGa(SeO4)2
_symmetry_space_group_name_H-M   'P 1'
_cell_length_a   5.14955436
_cell_length_b   5.14955436
_cell_length_c   9.07224100
_cell_angle_alpha   90.00000000
_cell_angle_beta   90.00000000
_cell_angle_gamma   120.00000465
_symmetry_Int_Tables_number   1
_chemical_formula_structural   RbGa(SeO4)2
_chemical_formula_sum   'Rb1 Ga1 Se2 O8'
_cell_volume   208.34567250
_cell_formula_units_Z   1
loop_
 _symmetry_equiv_pos_site_id
 _symmetry_equiv_pos_as_xyz
  1  'x, y, z'
loop_
 _atom_site_type_symbol
 _atom_site_label
 _atom_site_symmetry_multiplicity
 _atom_site_fract_x
 _atom_site_fract_y
 _atom_site_fract_z
 _atom_site_occupancy
  Rb  Rb0  1  0.00000000  0.00000000  0.50000000  1
  Ga  Ga1  1  0.00000000  0.00000000  0.00000000  1
  Se  Se2  1  0.66666700  0.33333300  0.80013100  1
  Se  Se3  1  0.33333300  0.66666700  0.19986900  1
  O  O4  1  0.93175600  0.25807400  0.85835500  1
  O  O5  1  0.32631700  0.06824400  0.85835500  1
  O  O6  1  0.67368300  0.74192600  0.14164500  1
  O  O7  1  0.74192600  0.67368300  0.85835500  1
  O  O8  1  0.25807400  0.93175600  0.14164500  1
  O  O9  1  0.06824400  0.32631700  0.14164500  1
  O  O10  1  0.66666700  0.33333300  0.61891300  1
  O  O11  1  0.33333300  0.66666700  0.38108700  1
