# generated using pymatgen
data_CaSnN2
_symmetry_space_group_name_H-M   'P 1'
_cell_length_a   5.69174700
_cell_length_b   6.19344600
_cell_length_c   7.70403400
_cell_angle_alpha   90.00000000
_cell_angle_beta   90.00000000
_cell_angle_gamma   90.00000000
_symmetry_Int_Tables_number   1
_chemical_formula_structural   CaSnN2
_chemical_formula_sum   'Ca4 Sn4 N8'
_cell_volume   271.57896788
_cell_formula_units_Z   4
loop_
 _symmetry_equiv_pos_site_id
 _symmetry_equiv_pos_as_xyz
  1  'x, y, z'
loop_
 _atom_site_type_symbol
 _atom_site_label
 _atom_site_symmetry_multiplicity
 _atom_site_fract_x
 _atom_site_fract_y
 _atom_site_fract_z
 _atom_site_occupancy
  Ca  Ca0  1  0.98009700  0.58486500  0.87712600  1
  Ca  Ca1  1  0.48009700  0.41513500  0.12287400  1
  Ca  Ca2  1  0.48009700  0.91513500  0.37712600  1
  Ca  Ca3  1  0.98009700  0.08486500  0.62287400  1
  Sn  Sn4  1  0.99461500  0.56994800  0.37293500  1
  Sn  Sn5  1  0.49461500  0.43005200  0.62706500  1
  Sn  Sn6  1  0.49461500  0.93005200  0.87293500  1
  Sn  Sn7  1  0.99461500  0.06994800  0.12706500  1
  N  N8  1  0.36142600  0.55073100  0.39552400  1
  N  N9  1  0.86142600  0.44926900  0.60447600  1
  N  N10  1  0.86142600  0.94926900  0.89552400  1
  N  N11  1  0.36142600  0.05073100  0.10447600  1
  N  N12  1  0.40486200  0.60048000  0.85440300  1
  N  N13  1  0.90486200  0.39952000  0.14559700  1
  N  N14  1  0.90486200  0.89952000  0.35440300  1
  N  N15  1  0.40486200  0.10048000  0.64559700  1
