# generated using pymatgen
data_NaAuS
_symmetry_space_group_name_H-M   'P 1'
_cell_length_a   13.06986489
_cell_length_b   13.06986489
_cell_length_c   7.19171000
_cell_angle_alpha   90.00000000
_cell_angle_beta   90.00000000
_cell_angle_gamma   110.59937567
_symmetry_Int_Tables_number   1
_chemical_formula_structural   NaAuS
_chemical_formula_sum   'Na16 Au16 S16'
_cell_volume   1149.95173629
_cell_formula_units_Z   16
loop_
 _symmetry_equiv_pos_site_id
 _symmetry_equiv_pos_as_xyz
  1  'x, y, z'
loop_
 _atom_site_type_symbol
 _atom_site_label
 _atom_site_symmetry_multiplicity
 _atom_site_fract_x
 _atom_site_fract_y
 _atom_site_fract_z
 _atom_site_occupancy
  Na  Na0  1  0.74911800  0.74911800  0.00000000  1
  Na  Na1  1  0.75088200  0.75088200  0.50000000  1
  Na  Na2  1  0.24911800  0.24911800  0.50000000  1
  Na  Na3  1  0.25088200  0.25088200  0.00000000  1
  Na  Na4  1  0.61265200  0.38734800  0.00000000  1
  Na  Na5  1  0.11265200  0.88734800  0.50000000  1
  Na  Na6  1  0.88734800  0.11265200  0.50000000  1
  Na  Na7  1  0.38734800  0.61265200  0.00000000  1
  Na  Na8  1  0.37383500  0.00558500  0.65910500  1
  Na  Na9  1  0.49441500  0.12616500  0.15910500  1
  Na  Na10  1  0.50558500  0.87383500  0.15910500  1
  Na  Na11  1  0.62616500  0.99441500  0.65910500  1
  Na  Na12  1  0.12616500  0.49441500  0.84089500  1
  Na  Na13  1  0.00558500  0.37383500  0.34089500  1
  Na  Na14  1  0.99441500  0.62616500  0.34089500  1
  Na  Na15  1  0.87383500  0.50558500  0.84089500  1
  Au  Au16  1  0.49668800  0.74421600  0.52953200  1
  Au  Au17  1  0.75578400  0.00331200  0.02953200  1
  Au  Au18  1  0.24421600  0.99668800  0.02953200  1
  Au  Au19  1  0.50331200  0.25578400  0.52953200  1
  Au  Au20  1  0.00331200  0.75578400  0.97046800  1
  Au  Au21  1  0.74421600  0.49668800  0.47046800  1
  Au  Au22  1  0.25578400  0.50331200  0.47046800  1
  Au  Au23  1  0.99668800  0.24421600  0.97046800  1
  Au  Au24  1  0.50000000  0.50000000  0.28088500  1
  Au  Au25  1  0.00000000  0.00000000  0.78088500  1
  Au  Au26  1  0.00000000  0.00000000  0.21911500  1
  Au  Au27  1  0.50000000  0.50000000  0.71911500  1
  Au  Au28  1  0.25000000  0.75000000  0.75000000  1
  Au  Au29  1  0.75000000  0.25000000  0.25000000  1
  Au  Au30  1  0.25000000  0.75000000  0.25000000  1
  Au  Au31  1  0.75000000  0.25000000  0.75000000  1
  S  S32  1  0.56637400  0.69128000  0.26091000  1
  S  S33  1  0.80872000  0.93362600  0.76091000  1
  S  S34  1  0.19128000  0.06637400  0.76091000  1
  S  S35  1  0.43362600  0.30872000  0.26091000  1
  S  S36  1  0.93362600  0.80872000  0.23909000  1
  S  S37  1  0.69128000  0.56637400  0.73909000  1
  S  S38  1  0.30872000  0.43362600  0.73909000  1
  S  S39  1  0.06637400  0.19128000  0.23909000  1
  S  S40  1  0.43953900  0.81848700  0.78720100  1
  S  S41  1  0.68151300  0.06046100  0.28720100  1
  S  S42  1  0.31848700  0.93953900  0.28720100  1
  S  S43  1  0.56046100  0.18151300  0.78720100  1
  S  S44  1  0.06046100  0.68151300  0.71279900  1
  S  S45  1  0.81848700  0.43953900  0.21279900  1
  S  S46  1  0.18151300  0.56046100  0.21279900  1
  S  S47  1  0.93953900  0.31848700  0.71279900  1
