# generated using pymatgen
data_Cs2Li14Pb3O14
_symmetry_space_group_name_H-M   'P 1'
_cell_length_a   7.39925700
_cell_length_b   8.18930700
_cell_length_c   8.59750885
_cell_angle_alpha   118.44145387
_cell_angle_beta   115.48748590
_cell_angle_gamma   90.00000000
_symmetry_Int_Tables_number   1
_chemical_formula_structural   Cs2Li14Pb3O14
_chemical_formula_sum   'Cs2 Li14 Pb3 O14'
_cell_volume   399.48337440
_cell_formula_units_Z   1
loop_
 _symmetry_equiv_pos_site_id
 _symmetry_equiv_pos_as_xyz
  1  'x, y, z'
loop_
 _atom_site_type_symbol
 _atom_site_label
 _atom_site_symmetry_multiplicity
 _atom_site_fract_x
 _atom_site_fract_y
 _atom_site_fract_z
 _atom_site_occupancy
  Cs  Cs0  1  0.76292400  0.50000000  0.00000000  1
  Cs  Cs1  1  0.23707600  0.50000000  0.00000000  1
  Li  Li2  1  0.22787100  0.87467900  0.45574200  1
  Li  Li3  1  0.77212900  0.12532100  0.54425800  1
  Li  Li4  1  0.22787100  0.58106400  0.45574200  1
  Li  Li5  1  0.77212900  0.41893600  0.54425800  1
  Li  Li6  1  0.50000000  0.15730300  0.00000000  1
  Li  Li7  1  0.50000000  0.84269700  0.00000000  1
  Li  Li8  1  0.86243300  0.98254100  0.27095000  1
  Li  Li9  1  0.13756700  0.01745800  0.72905000  1
  Li  Li10  1  0.40851800  0.28840900  0.27095000  1
  Li  Li11  1  0.13756700  0.71159100  0.72905000  1
  Li  Li12  1  0.59148200  0.71159100  0.72905000  1
  Li  Li13  1  0.86243300  0.28840900  0.27095000  1
  Li  Li14  1  0.59148200  0.01745800  0.72905000  1
  Li  Li15  1  0.40851800  0.98254100  0.27095000  1
  Pb  Pb16  1  0.27100200  0.27100200  0.54200400  1
  Pb  Pb17  1  0.72899800  0.72899800  0.45799600  1
  Pb  Pb18  1  0.00000000  0.00000000  0.00000000  1
  O  O19  1  0.70411600  0.00000000  0.00000000  1
  O  O20  1  0.29588400  0.00000000  0.00000000  1
  O  O21  1  0.95843200  0.25067700  0.50135500  1
  O  O22  1  0.04156800  0.74932300  0.49864600  1
  O  O23  1  0.54292300  0.25067700  0.50135500  1
  O  O24  1  0.45707700  0.74932300  0.49864600  1
  O  O25  1  0.12758500  0.94521000  0.25517100  1
  O  O26  1  0.87241500  0.05479000  0.74482900  1
  O  O27  1  0.12758500  0.30996100  0.25517100  1
  O  O28  1  0.87241500  0.69003900  0.74482900  1
  O  O29  1  0.36874500  0.14890400  0.73749100  1
  O  O30  1  0.63125500  0.85109600  0.26250900  1
  O  O31  1  0.36874500  0.58858700  0.73749100  1
  O  O32  1  0.63125500  0.41141300  0.26250900  1
