# generated using pymatgen
data_ErZnNi
_symmetry_space_group_name_H-M   'P 1'
_cell_length_a   6.98941033
_cell_length_b   6.98941033
_cell_length_c   3.72166500
_cell_angle_alpha   90.00000000
_cell_angle_beta   90.00000000
_cell_angle_gamma   120.00000314
_symmetry_Int_Tables_number   1
_chemical_formula_structural   ErZnNi
_chemical_formula_sum   'Er3 Zn3 Ni3'
_cell_volume   157.45228635
_cell_formula_units_Z   3
loop_
 _symmetry_equiv_pos_site_id
 _symmetry_equiv_pos_as_xyz
  1  'x, y, z'
loop_
 _atom_site_type_symbol
 _atom_site_label
 _atom_site_symmetry_multiplicity
 _atom_site_fract_x
 _atom_site_fract_y
 _atom_site_fract_z
 _atom_site_occupancy
  Er  Er0  1  0.00000000  0.41335700  0.50000000  1
  Er  Er1  1  0.58664300  0.58664300  0.50000000  1
  Er  Er2  1  0.41335700  0.00000000  0.50000000  1
  Zn  Zn3  1  0.00000000  0.75806300  0.00000000  1
  Zn  Zn4  1  0.24193700  0.24193700  0.00000000  1
  Zn  Zn5  1  0.75806300  0.00000000  0.00000000  1
  Ni  Ni6  1  0.33333300  0.66666700  0.00000000  1
  Ni  Ni7  1  0.66666700  0.33333300  0.00000000  1
  Ni  Ni8  1  0.00000000  0.00000000  0.50000000  1
