# generated using pymatgen
data_Sr2V2OF10
_symmetry_space_group_name_H-M   'P 1'
_cell_length_a   10.80665313
_cell_length_b   10.80665313
_cell_length_c   10.78762600
_cell_angle_alpha   90.00000000
_cell_angle_beta   90.00000000
_cell_angle_gamma   137.26534103
_symmetry_Int_Tables_number   1
_chemical_formula_structural   Sr2V2OF10
_chemical_formula_sum   'Sr8 V8 O4 F40'
_cell_volume   854.91864308
_cell_formula_units_Z   4
loop_
 _symmetry_equiv_pos_site_id
 _symmetry_equiv_pos_as_xyz
  1  'x, y, z'
loop_
 _atom_site_type_symbol
 _atom_site_label
 _atom_site_symmetry_multiplicity
 _atom_site_fract_x
 _atom_site_fract_y
 _atom_site_fract_z
 _atom_site_occupancy
  Sr  Sr0  1  0.38156900  0.61843100  0.95567900  1
  Sr  Sr1  1  0.61843100  0.38156900  0.04432100  1
  Sr  Sr2  1  0.11843100  0.88156900  0.45567900  1
  Sr  Sr3  1  0.88156900  0.11843100  0.54432100  1
  Sr  Sr4  1  0.46849800  0.03150200  0.75000000  1
  Sr  Sr5  1  0.53150200  0.96849800  0.25000000  1
  Sr  Sr6  1  0.03150200  0.46849800  0.25000000  1
  Sr  Sr7  1  0.96849800  0.53150200  0.75000000  1
  V  V8  1  0.32855600  0.67144400  0.56569200  1
  V  V9  1  0.67144400  0.32855600  0.43430800  1
  V  V10  1  0.17144400  0.82855600  0.06569200  1
  V  V11  1  0.82855600  0.17144400  0.93430800  1
  V  V12  1  0.28073000  0.21927000  0.75000000  1
  V  V13  1  0.71927000  0.78073000  0.25000000  1
  V  V14  1  0.21927000  0.28073000  0.25000000  1
  V  V15  1  0.78073000  0.71927000  0.75000000  1
  O  O16  1  0.40718200  0.59281800  0.54821800  1
  O  O17  1  0.59281800  0.40718200  0.45178200  1
  O  O18  1  0.09281800  0.90718200  0.04821800  1
  O  O19  1  0.90718200  0.09281800  0.95178200  1
  F  F20  1  0.21844200  0.78155800  0.60400400  1
  F  F21  1  0.78155800  0.21844200  0.39599600  1
  F  F22  1  0.28155800  0.71844200  0.10400400  1
  F  F23  1  0.71844200  0.28155800  0.89599600  1
  F  F24  1  0.19899100  0.80100900  0.89215900  1
  F  F25  1  0.80100900  0.19899100  0.10784100  1
  F  F26  1  0.30100900  0.69899100  0.39215900  1
  F  F27  1  0.69899100  0.30100900  0.60784100  1
  F  F28  1  0.03168500  0.96831500  0.79014900  1
  F  F29  1  0.96831500  0.03168500  0.20985100  1
  F  F30  1  0.46831500  0.53168500  0.29014900  1
  F  F31  1  0.53168500  0.46831500  0.70985100  1
  F  F32  1  0.32112200  0.67887800  0.74613000  1
  F  F33  1  0.67887800  0.32112200  0.25387000  1
  F  F34  1  0.17887800  0.82112200  0.24613000  1
  F  F35  1  0.82112200  0.17887800  0.75387000  1
  F  F36  1  0.76841000  0.83440800  0.62932800  1
  F  F37  1  0.23159000  0.16559200  0.37067200  1
  F  F38  1  0.73159000  0.66559200  0.12932800  1
  F  F39  1  0.66559200  0.73159000  0.87067200  1
  F  F40  1  0.26841000  0.33440800  0.87067200  1
  F  F41  1  0.33440800  0.26841000  0.12932800  1
  F  F42  1  0.83440800  0.76841000  0.37067200  1
  F  F43  1  0.16559200  0.23159000  0.62932800  1
  F  F44  1  0.30515800  0.09811000  0.63784700  1
  F  F45  1  0.69484200  0.90189000  0.36215300  1
  F  F46  1  0.19484200  0.40189000  0.13784700  1
  F  F47  1  0.40189000  0.19484200  0.86215300  1
  F  F48  1  0.80515800  0.59811000  0.86215300  1
  F  F49  1  0.59811000  0.80515800  0.13784700  1
  F  F50  1  0.09811000  0.30515800  0.36215300  1
  F  F51  1  0.90189000  0.69484200  0.63784700  1
  F  F52  1  0.54932300  0.92787800  0.57810100  1
  F  F53  1  0.45067700  0.07212200  0.42189900  1
  F  F54  1  0.95067700  0.57212200  0.07810100  1
  F  F55  1  0.57212200  0.95067700  0.92189900  1
  F  F56  1  0.04932300  0.42787800  0.92189900  1
  F  F57  1  0.42787800  0.04932300  0.07810100  1
  F  F58  1  0.92787800  0.54932300  0.42189900  1
  F  F59  1  0.07212200  0.45067700  0.57810100  1
