# generated using pymatgen
data_Cs(CoAs)2
_symmetry_space_group_name_H-M   'P 1'
_cell_length_a   7.98276822
_cell_length_b   7.98276822
_cell_length_c   7.98276822
_cell_angle_alpha   152.24376693
_cell_angle_beta   152.24376693
_cell_angle_gamma   39.65742823
_symmetry_Int_Tables_number   1
_chemical_formula_structural   Cs(CoAs)2
_chemical_formula_sum   'Cs1 Co2 As2'
_cell_volume   110.12413201
_cell_formula_units_Z   1
loop_
 _symmetry_equiv_pos_site_id
 _symmetry_equiv_pos_as_xyz
  1  'x, y, z'
loop_
 _atom_site_type_symbol
 _atom_site_label
 _atom_site_symmetry_multiplicity
 _atom_site_fract_x
 _atom_site_fract_y
 _atom_site_fract_z
 _atom_site_occupancy
  Cs  Cs0  1  0.00000000  0.00000000  0.00000000  1
  Co  Co1  1  0.75000000  0.25000000  0.50000000  1
  Co  Co2  1  0.25000000  0.75000000  0.50000000  1
  As  As3  1  0.33615900  0.33615900  0.00000000  1
  As  As4  1  0.66384100  0.66384100  0.00000000  1
