# generated using pymatgen
data_YbMgGa4
_symmetry_space_group_name_H-M   'P 1'
_cell_length_a   4.38712105
_cell_length_b   4.38712105
_cell_length_c   7.01530700
_cell_angle_alpha   90.00000000
_cell_angle_beta   90.00000000
_cell_angle_gamma   119.99998561
_symmetry_Int_Tables_number   1
_chemical_formula_structural   YbMgGa4
_chemical_formula_sum   'Yb1 Mg1 Ga4'
_cell_volume   116.93287033
_cell_formula_units_Z   1
loop_
 _symmetry_equiv_pos_site_id
 _symmetry_equiv_pos_as_xyz
  1  'x, y, z'
loop_
 _atom_site_type_symbol
 _atom_site_label
 _atom_site_symmetry_multiplicity
 _atom_site_fract_x
 _atom_site_fract_y
 _atom_site_fract_z
 _atom_site_occupancy
  Yb  Yb0  1  0.00000000  0.00000000  0.50000000  1
  Mg  Mg1  1  0.00000000  0.00000000  0.00000000  1
  Ga  Ga2  1  0.66666700  0.33333300  0.28844400  1
  Ga  Ga3  1  0.66666700  0.33333300  0.71155600  1
  Ga  Ga4  1  0.33333300  0.66666700  0.19945500  1
  Ga  Ga5  1  0.33333300  0.66666700  0.80054500  1
