# generated using pymatgen
data_ZrBr
_symmetry_space_group_name_H-M   'P 1'
_cell_length_a   3.52862155
_cell_length_b   3.52862155
_cell_length_c   10.11347829
_cell_angle_alpha   76.68426343
_cell_angle_beta   76.68426343
_cell_angle_gamma   60.38151326
_symmetry_Int_Tables_number   1
_chemical_formula_structural   ZrBr
_chemical_formula_sum   'Zr2 Br2'
_cell_volume   105.51292545
_cell_formula_units_Z   2
loop_
 _symmetry_equiv_pos_site_id
 _symmetry_equiv_pos_as_xyz
  1  'x, y, z'
loop_
 _atom_site_type_symbol
 _atom_site_label
 _atom_site_symmetry_multiplicity
 _atom_site_fract_x
 _atom_site_fract_y
 _atom_site_fract_z
 _atom_site_occupancy
  Zr  Zr0  1  0.27955500  0.27955500  0.62051300  1
  Zr  Zr1  1  0.72044500  0.72044500  0.37948700  1
  Br  Br2  1  0.85845200  0.85845200  0.81641600  1
  Br  Br3  1  0.14154800  0.14154800  0.18358400  1
