# generated using pymatgen
data_Dy8In3Co
_symmetry_space_group_name_H-M   'P 1'
_cell_length_a   10.38883473
_cell_length_b   10.38883473
_cell_length_c   6.98323100
_cell_angle_alpha   90.00000000
_cell_angle_beta   90.00000000
_cell_angle_gamma   120.00000463
_symmetry_Int_Tables_number   1
_chemical_formula_structural   Dy8In3Co
_chemical_formula_sum   'Dy16 In6 Co2'
_cell_volume   652.71064316
_cell_formula_units_Z   2
loop_
 _symmetry_equiv_pos_site_id
 _symmetry_equiv_pos_as_xyz
  1  'x, y, z'
loop_
 _atom_site_type_symbol
 _atom_site_label
 _atom_site_symmetry_multiplicity
 _atom_site_fract_x
 _atom_site_fract_y
 _atom_site_fract_z
 _atom_site_occupancy
  Dy  Dy0  1  0.53392000  0.06783900  0.51167200  1
  Dy  Dy1  1  0.93216100  0.46608000  0.51167200  1
  Dy  Dy2  1  0.53392000  0.46608000  0.51167200  1
  Dy  Dy3  1  0.46608000  0.93216100  0.01167200  1
  Dy  Dy4  1  0.06783900  0.53392000  0.01167200  1
  Dy  Dy5  1  0.46608000  0.53392000  0.01167200  1
  Dy  Dy6  1  0.17727200  0.35454400  0.72229100  1
  Dy  Dy7  1  0.64545600  0.82272800  0.72229100  1
  Dy  Dy8  1  0.17727200  0.82272800  0.72229100  1
  Dy  Dy9  1  0.82272800  0.64545600  0.22229100  1
  Dy  Dy10  1  0.35454400  0.17727200  0.22229100  1
  Dy  Dy11  1  0.82272800  0.17727200  0.22229100  1
  Dy  Dy12  1  0.66666700  0.33333300  0.90183300  1
  Dy  Dy13  1  0.33333300  0.66666700  0.40183300  1
  Dy  Dy14  1  0.00000000  0.00000000  0.50098000  1
  Dy  Dy15  1  0.00000000  0.00000000  0.00098000  1
  In  In16  1  0.83616300  0.67232600  0.75952900  1
  In  In17  1  0.32767400  0.16383700  0.75952900  1
  In  In18  1  0.83616300  0.16383700  0.75952900  1
  In  In19  1  0.16383700  0.32767400  0.25952900  1
  In  In20  1  0.67232600  0.83616300  0.25952900  1
  In  In21  1  0.16383700  0.83616300  0.25952900  1
  Co  Co22  1  0.66666700  0.33333300  0.28881200  1
  Co  Co23  1  0.33333300  0.66666700  0.78881200  1
