# generated using pymatgen
data_Nb3B2Ru5
_symmetry_space_group_name_H-M   'P 1'
_cell_length_a   9.48621900
_cell_length_b   9.48621900
_cell_length_c   3.01969300
_cell_angle_alpha   90.00000000
_cell_angle_beta   90.00000000
_cell_angle_gamma   90.00000000
_symmetry_Int_Tables_number   1
_chemical_formula_structural   Nb3B2Ru5
_chemical_formula_sum   'Nb6 B4 Ru10'
_cell_volume   271.73719334
_cell_formula_units_Z   2
loop_
 _symmetry_equiv_pos_site_id
 _symmetry_equiv_pos_as_xyz
  1  'x, y, z'
loop_
 _atom_site_type_symbol
 _atom_site_label
 _atom_site_symmetry_multiplicity
 _atom_site_fract_x
 _atom_site_fract_y
 _atom_site_fract_z
 _atom_site_occupancy
  Nb  Nb0  1  0.82380100  0.67619900  0.00000000  1
  Nb  Nb1  1  0.17619900  0.32380100  0.00000000  1
  Nb  Nb2  1  0.32380100  0.82380100  0.00000000  1
  Nb  Nb3  1  0.67619900  0.17619900  0.00000000  1
  Nb  Nb4  1  0.50000000  0.50000000  0.00000000  1
  Nb  Nb5  1  0.00000000  0.00000000  0.00000000  1
  B  B6  1  0.62177200  0.87822800  0.00000000  1
  B  B7  1  0.37822800  0.12177200  0.00000000  1
  B  B8  1  0.12177200  0.62177200  0.00000000  1
  B  B9  1  0.87822800  0.37822800  0.00000000  1
  Ru  Ru10  1  0.57103900  0.71897800  0.50000000  1
  Ru  Ru11  1  0.42896100  0.28102200  0.50000000  1
  Ru  Ru12  1  0.07103900  0.78102200  0.50000000  1
  Ru  Ru13  1  0.92896100  0.21897800  0.50000000  1
  Ru  Ru14  1  0.28102200  0.57103900  0.50000000  1
  Ru  Ru15  1  0.71897800  0.42896100  0.50000000  1
  Ru  Ru16  1  0.21897800  0.07103900  0.50000000  1
  Ru  Ru17  1  0.78102200  0.92896100  0.50000000  1
  Ru  Ru18  1  0.50000000  0.00000000  0.50000000  1
  Ru  Ru19  1  0.00000000  0.50000000  0.50000000  1
