# generated using pymatgen
data_Eu5Si3
_symmetry_space_group_name_H-M   'P 1'
_cell_length_a   9.30015500
_cell_length_b   9.30015500
_cell_length_c   9.30015500
_cell_angle_alpha   130.41645539
_cell_angle_beta   130.41645539
_cell_angle_gamma   72.74186444
_symmetry_Int_Tables_number   1
_chemical_formula_structural   Eu5Si3
_chemical_formula_sum   'Eu10 Si6'
_cell_volume   455.53967368
_cell_formula_units_Z   2
loop_
 _symmetry_equiv_pos_site_id
 _symmetry_equiv_pos_as_xyz
  1  'x, y, z'
loop_
 _atom_site_type_symbol
 _atom_site_label
 _atom_site_symmetry_multiplicity
 _atom_site_fract_x
 _atom_site_fract_y
 _atom_site_fract_z
 _atom_site_occupancy
  Eu  Eu0  1  0.53288700  0.03288700  0.85547700  1
  Eu  Eu1  1  0.17741100  0.67741100  0.14452300  1
  Eu  Eu2  1  0.03288700  0.17741100  0.50000000  1
  Eu  Eu3  1  0.67741100  0.53288700  0.50000000  1
  Eu  Eu4  1  0.46711300  0.96711300  0.14452300  1
  Eu  Eu5  1  0.82258900  0.32258900  0.85547700  1
  Eu  Eu6  1  0.96711300  0.82258900  0.50000000  1
  Eu  Eu7  1  0.32258900  0.46711300  0.50000000  1
  Eu  Eu8  1  0.50000000  0.50000000  0.00000000  1
  Eu  Eu9  1  0.00000000  0.00000000  0.00000000  1
  Si  Si10  1  0.88955700  0.38955700  0.27911400  1
  Si  Si11  1  0.11044300  0.61044300  0.72088600  1
  Si  Si12  1  0.38955700  0.11044300  0.50000000  1
  Si  Si13  1  0.61044300  0.88955700  0.50000000  1
  Si  Si14  1  0.25000000  0.25000000  0.00000000  1
  Si  Si15  1  0.75000000  0.75000000  0.00000000  1
