# generated using pymatgen
data_H3C3N5
_symmetry_space_group_name_H-M   'P 1'
_cell_length_a   8.76197600
_cell_length_b   8.62383100
_cell_length_c   14.24543566
_cell_angle_alpha   74.01403399
_cell_angle_beta   90.00000000
_cell_angle_gamma   90.00000000
_symmetry_Int_Tables_number   1
_chemical_formula_structural   H3C3N5
_chemical_formula_sum   'H24 C24 N40'
_cell_volume   1034.78507830
_cell_formula_units_Z   8
loop_
 _symmetry_equiv_pos_site_id
 _symmetry_equiv_pos_as_xyz
  1  'x, y, z'
loop_
 _atom_site_type_symbol
 _atom_site_label
 _atom_site_symmetry_multiplicity
 _atom_site_fract_x
 _atom_site_fract_y
 _atom_site_fract_z
 _atom_site_occupancy
  H  H0  1  0.58296100  0.30054900  0.10297800  1
  H  H1  1  0.41703900  0.69945100  0.89702200  1
  H  H2  1  0.08296100  0.69945100  0.39702200  1
  H  H3  1  0.91703900  0.30054900  0.60297800  1
  H  H4  1  0.78446400  0.49831200  0.30938400  1
  H  H5  1  0.21553600  0.50168800  0.69061600  1
  H  H6  1  0.28446400  0.50168800  0.19061600  1
  H  H7  1  0.71553600  0.49831200  0.80938400  1
  H  H8  1  0.40281100  0.90841700  0.20707100  1
  H  H9  1  0.59718900  0.09158300  0.79292900  1
  H  H10  1  0.90281100  0.09158300  0.29292900  1
  H  H11  1  0.09718900  0.90841700  0.70707100  1
  H  H12  1  0.15883600  0.84034100  0.29280100  1
  H  H13  1  0.84116400  0.15965900  0.70719900  1
  H  H14  1  0.65883600  0.15965900  0.20719900  1
  H  H15  1  0.34116400  0.84034100  0.79280100  1
  H  H16  1  0.97684100  0.43393100  0.30944300  1
  H  H17  1  0.02315900  0.56606900  0.69055700  1
  H  H18  1  0.47684100  0.56606900  0.19055700  1
  H  H19  1  0.52315900  0.43393100  0.80944300  1
  H  H20  1  0.49888900  0.93951800  0.09309300  1
  H  H21  1  0.50111100  0.06048200  0.90690700  1
  H  H22  1  0.99888900  0.06048200  0.40690700  1
  H  H23  1  0.00111100  0.93951800  0.59309300  1
  C  C24  1  0.54659800  0.86235900  0.40363200  1
  C  C25  1  0.45340200  0.13764100  0.59636800  1
  C  C26  1  0.04659800  0.13764100  0.09636800  1
  C  C27  1  0.95340200  0.86235900  0.90363200  1
  C  C28  1  0.44112600  0.67230500  0.54919100  1
  C  C29  1  0.55887400  0.32769500  0.45080900  1
  C  C30  1  0.94112600  0.32769500  0.95080900  1
  C  C31  1  0.05887400  0.67230500  0.04919100  1
  C  C32  1  0.90590700  0.59506700  0.18457700  1
  C  C33  1  0.09409300  0.40493300  0.81542300  1
  C  C34  1  0.40590700  0.40493300  0.31542300  1
  C  C35  1  0.59409300  0.59506700  0.68457700  1
  C  C36  1  0.80003700  0.77531000  0.05191000  1
  C  C37  1  0.19996300  0.22469000  0.94809000  1
  C  C38  1  0.30003700  0.22469000  0.44809000  1
  C  C39  1  0.69996300  0.77531000  0.55191000  1
  C  C40  1  0.78950400  0.95489600  0.41245000  1
  C  C41  1  0.21049600  0.04510400  0.58755000  1
  C  C42  1  0.28950400  0.04510400  0.08755000  1
  C  C43  1  0.71049600  0.95489600  0.91245000  1
  C  C44  1  0.80378500  0.23742800  0.09147700  1
  C  C45  1  0.19621500  0.76257200  0.90852300  1
  C  C46  1  0.30378500  0.76257200  0.40852300  1
  C  C47  1  0.69621500  0.23742800  0.59147700  1
  N  N48  1  0.89033400  0.50923800  0.27801800  1
  N  N49  1  0.10966600  0.49076200  0.72198200  1
  N  N50  1  0.39033400  0.49076200  0.22198200  1
  N  N51  1  0.60966600  0.50923800  0.77801800  1
  N  N52  1  0.66102000  0.95487000  0.35904300  1
  N  N53  1  0.33898000  0.04513000  0.64095700  1
  N  N54  1  0.16102000  0.04513000  0.14095700  1
  N  N55  1  0.83898000  0.95487000  0.85904300  1
  N  N56  1  0.68717100  0.87064900  0.00687500  1
  N  N57  1  0.31282900  0.12935100  0.99312500  1
  N  N58  1  0.18717100  0.12935100  0.49312500  1
  N  N59  1  0.81282900  0.87064900  0.50687500  1
  N  N60  1  0.18912400  0.66882700  0.00145300  1
  N  N61  1  0.81087600  0.33117300  0.99854700  1
  N  N62  1  0.68912400  0.33117300  0.49854700  1
  N  N63  1  0.31087600  0.66882700  0.50145300  1
  N  N64  1  0.54246200  0.41509100  0.35856400  1
  N  N65  1  0.45753800  0.58490900  0.64143600  1
  N  N66  1  0.04246200  0.58490900  0.14143600  1
  N  N67  1  0.95753800  0.41509100  0.85856400  1
  N  N68  1  0.93781500  0.77061300  0.00164900  1
  N  N69  1  0.06218500  0.22938700  0.99835100  1
  N  N70  1  0.43781500  0.22938700  0.49835100  1
  N  N71  1  0.56218500  0.77061300  0.50164900  1
  N  N72  1  0.78384600  0.68443400  0.14327500  1
  N  N73  1  0.21615400  0.31556600  0.85672500  1
  N  N74  1  0.28384600  0.31556600  0.35672500  1
  N  N75  1  0.71615400  0.68443400  0.64327500  1
  N  N76  1  0.40430000  0.95219800  0.13242600  1
  N  N77  1  0.59570000  0.04780200  0.86757400  1
  N  N78  1  0.90430000  0.04780200  0.36757400  1
  N  N79  1  0.09570000  0.95219800  0.63242600  1
  N  N80  1  0.41587700  0.85674800  0.35692300  1
  N  N81  1  0.58412300  0.14325200  0.64307700  1
  N  N82  1  0.91587700  0.14325200  0.14307700  1
  N  N83  1  0.08412300  0.85674800  0.85692300  1
  N  N84  1  0.67227300  0.23722800  0.13944500  1
  N  N85  1  0.32772700  0.76277200  0.86055500  1
  N  N86  1  0.17227300  0.76277200  0.36055500  1
  N  N87  1  0.82772700  0.23722800  0.63944500  1
