# generated using pymatgen
data_ZnCu2SnS4
_symmetry_space_group_name_H-M   'P 1'
_cell_length_a   6.68212227
_cell_length_b   6.68212227
_cell_length_c   6.68212227
_cell_angle_alpha   131.73886254
_cell_angle_beta   131.73886254
_cell_angle_gamma   70.64177911
_symmetry_Int_Tables_number   1
_chemical_formula_structural   ZnCu2SnS4
_chemical_formula_sum   'Zn1 Cu2 Sn1 S4'
_cell_volume   162.74710168
_cell_formula_units_Z   1
loop_
 _symmetry_equiv_pos_site_id
 _symmetry_equiv_pos_as_xyz
  1  'x, y, z'
loop_
 _atom_site_type_symbol
 _atom_site_label
 _atom_site_symmetry_multiplicity
 _atom_site_fract_x
 _atom_site_fract_y
 _atom_site_fract_z
 _atom_site_occupancy
  Zn  Zn0  1  0.75000000  0.25000000  0.50000000  1
  Cu  Cu1  1  0.00000000  0.00000000  0.00000000  1
  Cu  Cu2  1  0.25000000  0.75000000  0.50000000  1
  Sn  Sn3  1  0.50000000  0.50000000  0.00000000  1
  S  S4  1  0.36281700  0.37147600  0.47598700  1
  S  S5  1  0.89548900  0.88683100  0.52401300  1
  S  S6  1  0.11316900  0.63718300  0.00865800  1
  S  S7  1  0.62852400  0.10451100  0.99134200  1
