# generated using pymatgen
data_Sc36In5Co13
_symmetry_space_group_name_H-M   'P 1'
_cell_length_a   7.80057688
_cell_length_b   7.80057688
_cell_length_c   19.94998444
_cell_angle_alpha   77.16286867
_cell_angle_beta   77.16286867
_cell_angle_gamma   68.62997933
_symmetry_Int_Tables_number   1
_chemical_formula_structural   Sc36In5Co13
_chemical_formula_sum   'Sc36 In5 Co13'
_cell_volume   1088.80538907
_cell_formula_units_Z   1
loop_
 _symmetry_equiv_pos_site_id
 _symmetry_equiv_pos_as_xyz
  1  'x, y, z'
loop_
 _atom_site_type_symbol
 _atom_site_label
 _atom_site_symmetry_multiplicity
 _atom_site_fract_x
 _atom_site_fract_y
 _atom_site_fract_z
 _atom_site_occupancy
  Sc  Sc0  1  0.10347100  0.10347100  0.83986400  1
  Sc  Sc1  1  0.43740000  0.43740000  0.17344000  1
  Sc  Sc2  1  0.78846100  0.78846100  0.50816900  1
  Sc  Sc3  1  0.89652900  0.89652900  0.16013600  1
  Sc  Sc4  1  0.21153900  0.21153900  0.49183100  1
  Sc  Sc5  1  0.56260000  0.56260000  0.82656000  1
  Sc  Sc6  1  0.75290600  0.75290600  0.01565100  1
  Sc  Sc7  1  0.08015700  0.08015700  0.36379800  1
  Sc  Sc8  1  0.42151300  0.42151300  0.67992200  1
  Sc  Sc9  1  0.24709400  0.24709400  0.98434900  1
  Sc  Sc10  1  0.57848700  0.57848700  0.32007800  1
  Sc  Sc11  1  0.91984300  0.91984300  0.63620200  1
  Sc  Sc12  1  0.82654300  0.42286300  0.93790500  1
  Sc  Sc13  1  0.15890200  0.75888800  0.27248200  1
  Sc  Sc14  1  0.48802100  0.08997700  0.60349600  1
  Sc  Sc15  1  0.57713700  0.17345700  0.06209500  1
  Sc  Sc16  1  0.91002300  0.51197900  0.39650400  1
  Sc  Sc17  1  0.24111200  0.84109800  0.72751800  1
  Sc  Sc18  1  0.17345700  0.57713700  0.06209500  1
  Sc  Sc19  1  0.51197900  0.91002300  0.39650400  1
  Sc  Sc20  1  0.84109800  0.24111200  0.72751800  1
  Sc  Sc21  1  0.42286300  0.82654300  0.93790500  1
  Sc  Sc22  1  0.75888800  0.15890200  0.27248200  1
  Sc  Sc23  1  0.08997700  0.48802100  0.60349600  1
  Sc  Sc24  1  0.31839800  0.88868000  0.10332500  1
  Sc  Sc25  1  0.66639700  0.21113600  0.44096900  1
  Sc  Sc26  1  0.98431600  0.55744000  0.76824400  1
  Sc  Sc27  1  0.11132000  0.68160200  0.89667500  1
  Sc  Sc28  1  0.44256000  0.01568400  0.23175600  1
  Sc  Sc29  1  0.78886400  0.33360300  0.55903100  1
  Sc  Sc30  1  0.88868000  0.31839800  0.10332500  1
  Sc  Sc31  1  0.21113600  0.66639700  0.44096900  1
  Sc  Sc32  1  0.55744000  0.98431600  0.76824400  1
  Sc  Sc33  1  0.68160200  0.11132000  0.89667500  1
  Sc  Sc34  1  0.01568400  0.44256000  0.23175600  1
  Sc  Sc35  1  0.33360300  0.78886400  0.55903100  1
  In  In36  1  0.00000000  0.00000000  0.00000000  1
  In  In37  1  0.33347500  0.33347500  0.33345800  1
  In  In38  1  0.66652500  0.66652500  0.66654200  1
  In  In39  1  0.33314800  0.33314800  0.83263300  1
  In  In40  1  0.66685200  0.66685200  0.16736700  1
  Co  Co41  1  0.45519000  0.45519000  0.95616900  1
  Co  Co42  1  0.78896300  0.78896300  0.28965900  1
  Co  Co43  1  0.12239100  0.12239100  0.62225100  1
  Co  Co44  1  0.54481000  0.54481000  0.04383100  1
  Co  Co45  1  0.87760900  0.87760900  0.37774900  1
  Co  Co46  1  0.21103700  0.21103700  0.71034100  1
  Co  Co47  1  0.00000000  0.00000000  0.50000000  1
  Co  Co48  1  0.75283400  0.75283400  0.87187800  1
  Co  Co49  1  0.08536100  0.08536100  0.20482900  1
  Co  Co50  1  0.42287000  0.42287000  0.54000900  1
  Co  Co51  1  0.24716600  0.24716600  0.12812200  1
  Co  Co52  1  0.57713000  0.57713000  0.45999100  1
  Co  Co53  1  0.91463900  0.91463900  0.79517100  1
