# generated using pymatgen
data_Y2Ga3Cu
_symmetry_space_group_name_H-M   'P 1'
_cell_length_a   4.37320644
_cell_length_b   4.37320644
_cell_length_c   7.29686800
_cell_angle_alpha   90.00000000
_cell_angle_beta   90.00000000
_cell_angle_gamma   120.00000666
_symmetry_Int_Tables_number   1
_chemical_formula_structural   Y2Ga3Cu
_chemical_formula_sum   'Y2 Ga3 Cu1'
_cell_volume   120.85567560
_cell_formula_units_Z   1
loop_
 _symmetry_equiv_pos_site_id
 _symmetry_equiv_pos_as_xyz
  1  'x, y, z'
loop_
 _atom_site_type_symbol
 _atom_site_label
 _atom_site_symmetry_multiplicity
 _atom_site_fract_x
 _atom_site_fract_y
 _atom_site_fract_z
 _atom_site_occupancy
  Y  Y0  1  0.33333300  0.66666700  0.76895000  1
  Y  Y1  1  0.33333300  0.66666700  0.23702400  1
  Ga  Ga2  1  0.00000000  0.00000000  0.01858600  1
  Ga  Ga3  1  0.00000000  0.00000000  0.45919100  1
  Ga  Ga4  1  0.66666700  0.33333300  0.54346300  1
  Cu  Cu5  1  0.66666700  0.33333300  0.97278600  1
