# generated using pymatgen
data_TaAlCu
_symmetry_space_group_name_H-M   'P 1'
_cell_length_a   4.98079558
_cell_length_b   4.98076941
_cell_length_c   8.09193700
_cell_angle_alpha   90.00000000
_cell_angle_beta   90.00000000
_cell_angle_gamma   61.14926344
_symmetry_Int_Tables_number   1
_chemical_formula_structural   TaAlCu
_chemical_formula_sum   'Ta4 Al4 Cu4'
_cell_volume   175.82965533
_cell_formula_units_Z   4
loop_
 _symmetry_equiv_pos_site_id
 _symmetry_equiv_pos_as_xyz
  1  'x, y, z'
loop_
 _atom_site_type_symbol
 _atom_site_label
 _atom_site_symmetry_multiplicity
 _atom_site_fract_x
 _atom_site_fract_y
 _atom_site_fract_z
 _atom_site_occupancy
  Ta  Ta0  1  0.33478300  0.33478100  0.56184800  1
  Ta  Ta1  1  0.66311500  0.66311400  0.43372400  1
  Ta  Ta2  1  0.66311500  0.66311400  0.06627600  1
  Ta  Ta3  1  0.33478300  0.33478100  0.93815200  1
  Al  Al4  1  0.99481400  0.99481500  0.48702400  1
  Al  Al5  1  0.99481400  0.99481500  0.01297600  1
  Al  Al6  1  0.83322200  0.34956400  0.75000000  1
  Al  Al7  1  0.34956700  0.83321800  0.75000000  1
  Cu  Cu8  1  0.83654400  0.83654000  0.75000000  1
  Cu  Cu9  1  0.17263200  0.65129300  0.25000000  1
  Cu  Cu10  1  0.65129200  0.17263600  0.25000000  1
  Cu  Cu11  1  0.17132000  0.17132800  0.25000000  1
