# generated using pymatgen
data_KNaCaTh(Si2O5)4
_symmetry_space_group_name_H-M   'P 1'
_cell_length_a   7.63182300
_cell_length_b   7.63182300
_cell_length_c   14.96746800
_cell_angle_alpha   90.00000000
_cell_angle_beta   90.00000000
_cell_angle_gamma   90.00000000
_symmetry_Int_Tables_number   1
_chemical_formula_structural   KNaCaTh(Si2O5)4
_chemical_formula_sum   'K2 Na2 Ca2 Th2 Si16 O40'
_cell_volume   871.77601724
_cell_formula_units_Z   2
loop_
 _symmetry_equiv_pos_site_id
 _symmetry_equiv_pos_as_xyz
  1  'x, y, z'
loop_
 _atom_site_type_symbol
 _atom_site_label
 _atom_site_symmetry_multiplicity
 _atom_site_fract_x
 _atom_site_fract_y
 _atom_site_fract_z
 _atom_site_occupancy
  K  K0  1  0.00000000  0.00000000  0.50000000  1
  K  K1  1  0.00000000  0.00000000  0.00000000  1
  Na  Na2  1  0.00000000  0.50000000  0.25000000  1
  Na  Na3  1  0.50000000  0.00000000  0.75000000  1
  Ca  Ca4  1  0.50000000  0.00000000  0.25000000  1
  Ca  Ca5  1  0.00000000  0.50000000  0.75000000  1
  Th  Th6  1  0.00000000  0.00000000  0.25000000  1
  Th  Th7  1  0.00000000  0.00000000  0.75000000  1
  Si  Si8  1  0.25692500  0.33527600  0.39172500  1
  Si  Si9  1  0.74307500  0.66472400  0.39172500  1
  Si  Si10  1  0.66282800  0.26081200  0.39258300  1
  Si  Si11  1  0.33717200  0.73918800  0.39258300  1
  Si  Si12  1  0.73918800  0.33717200  0.89258300  1
  Si  Si13  1  0.26081200  0.66282800  0.89258300  1
  Si  Si14  1  0.33527600  0.25692500  0.89172500  1
  Si  Si15  1  0.66472400  0.74307500  0.89172500  1
  Si  Si16  1  0.73918800  0.66282800  0.60741700  1
  Si  Si17  1  0.26081200  0.33717200  0.60741700  1
  Si  Si18  1  0.33527600  0.74307500  0.60827500  1
  Si  Si19  1  0.66472400  0.25692500  0.60827500  1
  Si  Si20  1  0.25692500  0.66472400  0.10827500  1
  Si  Si21  1  0.74307500  0.33527600  0.10827500  1
  Si  Si22  1  0.66282800  0.73918800  0.10741700  1
  Si  Si23  1  0.33717200  0.26081200  0.10741700  1
  O  O24  1  0.10284100  0.24068800  0.33830100  1
  O  O25  1  0.89715900  0.75931200  0.33830100  1
  O  O26  1  0.74667300  0.10330400  0.33587300  1
  O  O27  1  0.25332700  0.89669600  0.33587300  1
  O  O28  1  0.89669600  0.25332700  0.83587300  1
  O  O29  1  0.10330400  0.74667300  0.83587300  1
  O  O30  1  0.24068800  0.10284100  0.83830100  1
  O  O31  1  0.75931200  0.89715900  0.83830100  1
  O  O32  1  0.89669600  0.74667300  0.66412700  1
  O  O33  1  0.10330400  0.25332700  0.66412700  1
  O  O34  1  0.24068800  0.89715900  0.66169900  1
  O  O35  1  0.75931200  0.10284100  0.66169900  1
  O  O36  1  0.10284100  0.75931200  0.16169900  1
  O  O37  1  0.89715900  0.24068800  0.16169900  1
  O  O38  1  0.74667300  0.89669600  0.16412700  1
  O  O39  1  0.25332700  0.10330400  0.16412700  1
  O  O40  1  0.23084700  0.31119100  0.50001300  1
  O  O41  1  0.76915300  0.68880900  0.50001300  1
  O  O42  1  0.68880900  0.23084700  0.49998700  1
  O  O43  1  0.31119100  0.76915300  0.49998700  1
  O  O44  1  0.76915300  0.31119100  0.99998700  1
  O  O45  1  0.23084700  0.68880900  0.99998700  1
  O  O46  1  0.31119100  0.23084700  0.00001300  1
  O  O47  1  0.68880900  0.76915300  0.00001300  1
  O  O48  1  0.45191000  0.25445500  0.36539200  1
  O  O49  1  0.54809000  0.74554500  0.36539200  1
  O  O50  1  0.74176500  0.45426300  0.36687300  1
  O  O51  1  0.25823500  0.54573700  0.36687300  1
  O  O52  1  0.54573700  0.25823500  0.86687300  1
  O  O53  1  0.45426300  0.74176500  0.86687300  1
  O  O54  1  0.25445500  0.45191000  0.86539200  1
  O  O55  1  0.74554500  0.54809000  0.86539200  1
  O  O56  1  0.54573700  0.74176500  0.63312700  1
  O  O57  1  0.45426300  0.25823500  0.63312700  1
  O  O58  1  0.25445500  0.54809000  0.63460800  1
  O  O59  1  0.74554500  0.45191000  0.63460800  1
  O  O60  1  0.45191000  0.74554500  0.13460800  1
  O  O61  1  0.54809000  0.25445500  0.13460800  1
  O  O62  1  0.74176500  0.54573700  0.13312700  1
  O  O63  1  0.25823500  0.45426300  0.13312700  1
