# generated using pymatgen
data_K2CdSnS4
_symmetry_space_group_name_H-M   'P 1'
_cell_length_a   7.95274791
_cell_length_b   7.95274791
_cell_length_c   15.21618560
_cell_angle_alpha   83.97450525
_cell_angle_beta   83.97450525
_cell_angle_gamma   89.71429729
_symmetry_Int_Tables_number   1
_chemical_formula_structural   K2CdSnS4
_chemical_formula_sum   'K8 Cd4 Sn4 S16'
_cell_volume   951.74398160
_cell_formula_units_Z   4
loop_
 _symmetry_equiv_pos_site_id
 _symmetry_equiv_pos_as_xyz
  1  'x, y, z'
loop_
 _atom_site_type_symbol
 _atom_site_label
 _atom_site_symmetry_multiplicity
 _atom_site_fract_x
 _atom_site_fract_y
 _atom_site_fract_z
 _atom_site_occupancy
  K  K0  1  0.85464100  0.72730200  0.11981900  1
  K  K1  1  0.27269800  0.14535900  0.38018100  1
  K  K2  1  0.14535900  0.27269800  0.88018100  1
  K  K3  1  0.72730200  0.85464100  0.61981900  1
  K  K4  1  0.34447300  0.72150200  0.11731300  1
  K  K5  1  0.27849800  0.65552700  0.38268700  1
  K  K6  1  0.65552700  0.27849800  0.88268700  1
  K  K7  1  0.72150200  0.34447300  0.61731300  1
  Cd  Cd8  1  0.91280300  0.80887900  0.83951300  1
  Cd  Cd9  1  0.19112100  0.08719700  0.66048700  1
  Cd  Cd10  1  0.08719700  0.19112100  0.16048700  1
  Cd  Cd11  1  0.80887900  0.91280300  0.33951300  1
  Sn  Sn12  1  0.40740700  0.79564700  0.85014000  1
  Sn  Sn13  1  0.20435300  0.59259300  0.64986000  1
  Sn  Sn14  1  0.59259300  0.20435300  0.14986000  1
  Sn  Sn15  1  0.79564700  0.40740700  0.35014000  1
  S  S16  1  0.14627100  0.75882500  0.94455900  1
  S  S17  1  0.24117500  0.85372900  0.55544100  1
  S  S18  1  0.85372900  0.24117500  0.05544100  1
  S  S19  1  0.75882500  0.14627100  0.44455900  1
  S  S20  1  0.63344400  0.73972900  0.94193600  1
  S  S21  1  0.26027100  0.36655600  0.55806400  1
  S  S22  1  0.36655600  0.26027100  0.05806400  1
  S  S23  1  0.73972900  0.63344400  0.44193600  1
  S  S24  1  0.91168100  0.08831900  0.75000000  1
  S  S25  1  0.08831900  0.91168100  0.25000000  1
  S  S26  1  0.93679500  0.56157200  0.73915900  1
  S  S27  1  0.43842800  0.06320500  0.76084100  1
  S  S28  1  0.06320500  0.43842800  0.26084100  1
  S  S29  1  0.56157200  0.93679500  0.23915900  1
  S  S30  1  0.43523500  0.56476500  0.75000000  1
  S  S31  1  0.56476500  0.43523500  0.25000000  1
