# generated using pymatgen
data_K4ZnBi2
_symmetry_space_group_name_H-M   'P 1'
_cell_length_a   6.20513699
_cell_length_b   6.20513699
_cell_length_c   17.81276000
_cell_angle_alpha   90.00000000
_cell_angle_beta   90.00000000
_cell_angle_gamma   119.28733330
_symmetry_Int_Tables_number   1
_chemical_formula_structural   K4ZnBi2
_chemical_formula_sum   'K8 Zn2 Bi4'
_cell_volume   598.18953808
_cell_formula_units_Z   2
loop_
 _symmetry_equiv_pos_site_id
 _symmetry_equiv_pos_as_xyz
  1  'x, y, z'
loop_
 _atom_site_type_symbol
 _atom_site_label
 _atom_site_symmetry_multiplicity
 _atom_site_fract_x
 _atom_site_fract_y
 _atom_site_fract_z
 _atom_site_occupancy
  K  K0  1  0.22211200  0.89428400  0.89595800  1
  K  K1  1  0.89428400  0.22211200  0.10404200  1
  K  K2  1  0.77788800  0.10571600  0.39595800  1
  K  K3  1  0.10571600  0.77788800  0.60404200  1
  K  K4  1  0.56297300  0.56297300  0.00000000  1
  K  K5  1  0.43702700  0.43702700  0.50000000  1
  K  K6  1  0.50607800  0.49392200  0.75000000  1
  K  K7  1  0.49392200  0.50607800  0.25000000  1
  Zn  Zn8  1  0.83620800  0.16379200  0.75000000  1
  Zn  Zn9  1  0.16379200  0.83620800  0.25000000  1
  Bi  Bi10  1  0.89642200  0.23718500  0.89360300  1
  Bi  Bi11  1  0.23718500  0.89642200  0.10639700  1
  Bi  Bi12  1  0.10357800  0.76281500  0.39360300  1
  Bi  Bi13  1  0.76281500  0.10357800  0.60639700  1
