# generated using pymatgen
data_Na20Zn8Sn11
_symmetry_space_group_name_H-M   'P 1'
_cell_length_a   9.38951828
_cell_length_b   9.38951828
_cell_length_c   27.84322005
_cell_angle_alpha   78.78366608
_cell_angle_beta   78.78366608
_cell_angle_gamma   59.68553983
_symmetry_Int_Tables_number   1
_chemical_formula_structural   Na20Zn8Sn11
_chemical_formula_sum   'Na40 Zn16 Sn22'
_cell_volume   2065.13131141
_cell_formula_units_Z   2
loop_
 _symmetry_equiv_pos_site_id
 _symmetry_equiv_pos_as_xyz
  1  'x, y, z'
loop_
 _atom_site_type_symbol
 _atom_site_label
 _atom_site_symmetry_multiplicity
 _atom_site_fract_x
 _atom_site_fract_y
 _atom_site_fract_z
 _atom_site_occupancy
  Na  Na0  1  0.81836500  0.76857000  0.43715500  1
  Na  Na1  1  0.23143000  0.18163500  0.56284500  1
  Na  Na2  1  0.18611900  0.22753800  0.06058000  1
  Na  Na3  1  0.77246200  0.81388100  0.93942000  1
  Na  Na4  1  0.19840500  0.39377400  0.43799400  1
  Na  Na5  1  0.60622600  0.80159500  0.56200600  1
  Na  Na6  1  0.80296000  0.61290700  0.06001900  1
  Na  Na7  1  0.38709300  0.19704000  0.93998100  1
  Na  Na8  1  0.20262300  0.76906900  0.43671000  1
  Na  Na9  1  0.23093100  0.79737700  0.56329000  1
  Na  Na10  1  0.80425100  0.22517200  0.06060700  1
  Na  Na11  1  0.77482800  0.19574900  0.93939300  1
  Na  Na12  1  0.00292400  0.81446600  0.75007100  1
  Na  Na13  1  0.18553400  0.99707600  0.24992900  1
  Na  Na14  1  0.99792500  0.18493600  0.75019000  1
  Na  Na15  1  0.81506400  0.00207500  0.24981000  1
  Na  Na16  1  0.66667500  0.20229200  0.68921000  1
  Na  Na17  1  0.79770800  0.33332500  0.31079000  1
  Na  Na18  1  0.33379700  0.79697200  0.81191400  1
  Na  Na19  1  0.20302800  0.66620300  0.18808600  1
  Na  Na20  1  0.40477100  0.02386300  0.68984800  1
  Na  Na21  1  0.97613700  0.59522900  0.31015200  1
  Na  Na22  1  0.59473000  0.97528500  0.81068900  1
  Na  Na23  1  0.02471500  0.40527000  0.18931100  1
  Na  Na24  1  0.86886400  0.81710300  0.64411200  1
  Na  Na25  1  0.18289700  0.13113600  0.35588800  1
  Na  Na26  1  0.13105100  0.18198500  0.85739300  1
  Na  Na27  1  0.81801500  0.86894900  0.14260700  1
  Na  Na28  1  0.24447100  0.44186500  0.64462100  1
  Na  Na29  1  0.55813500  0.75552900  0.35537900  1
  Na  Na30  1  0.75307400  0.55937300  0.85718800  1
  Na  Na31  1  0.44062700  0.24692600  0.14281200  1
  Na  Na32  1  0.86940800  0.43677300  0.64422000  1
  Na  Na33  1  0.56322700  0.13059200  0.35578000  1
  Na  Na34  1  0.13060100  0.56277400  0.85716800  1
  Na  Na35  1  0.43722600  0.86939900  0.14283200  1
  Na  Na36  1  0.40755000  0.64080400  0.68905900  1
  Na  Na37  1  0.35919600  0.59245000  0.31094100  1
  Na  Na38  1  0.59253600  0.35929200  0.81133400  1
  Na  Na39  1  0.64070800  0.40746400  0.18866600  1
  Zn  Zn40  1  0.86405600  0.44789800  0.51991000  1
  Zn  Zn41  1  0.55210200  0.13594400  0.48009000  1
  Zn  Zn42  1  0.12652600  0.55960800  0.98154100  1
  Zn  Zn43  1  0.44039200  0.87347400  0.01845900  1
  Zn  Zn44  1  0.99957600  0.50014300  0.75017800  1
  Zn  Zn45  1  0.49985700  0.00042400  0.24982200  1
  Zn  Zn46  1  0.38866200  0.44072600  0.51740300  1
  Zn  Zn47  1  0.55927400  0.61133800  0.48259700  1
  Zn  Zn48  1  0.61988600  0.55637800  0.98144200  1
  Zn  Zn49  1  0.44362200  0.38011400  0.01855800  1
  Zn  Zn50  1  0.89036800  0.16233400  0.58266800  1
  Zn  Zn51  1  0.83766600  0.10963200  0.41733200  1
  Zn  Zn52  1  0.10739800  0.84747700  0.92232700  1
  Zn  Zn53  1  0.15252300  0.89260200  0.07767300  1
  Zn  Zn54  1  0.12133600  0.04750400  0.98413300  1
  Zn  Zn55  1  0.95249600  0.87866400  0.01586700  1
  Sn  Sn56  1  0.68610500  0.66352900  0.73951700  1
  Sn  Sn57  1  0.33647100  0.31389500  0.26048300  1
  Sn  Sn58  1  0.31346600  0.33588600  0.76062800  1
  Sn  Sn59  1  0.66411400  0.68653400  0.23937200  1
  Sn  Sn60  1  0.58215000  0.46602000  0.58208900  1
  Sn  Sn61  1  0.53398000  0.41785000  0.41791100  1
  Sn  Sn62  1  0.41890800  0.53185600  0.91924200  1
  Sn  Sn63  1  0.46814400  0.58109200  0.08075800  1
  Sn  Sn64  1  0.04153800  0.58437100  0.54563300  1
  Sn  Sn65  1  0.41562900  0.95846200  0.45436700  1
  Sn  Sn66  1  0.96968300  0.39709300  0.95711700  1
  Sn  Sn67  1  0.60290700  0.03031700  0.04288300  1
  Sn  Sn68  1  0.56981500  0.15295200  0.58474000  1
  Sn  Sn69  1  0.84704800  0.43018500  0.41526000  1
  Sn  Sn70  1  0.41469300  0.85386200  0.92075800  1
  Sn  Sn71  1  0.14613800  0.58530700  0.07924200  1
  Sn  Sn72  1  0.08651200  0.01143700  0.65434300  1
  Sn  Sn73  1  0.98856300  0.91348800  0.34565700  1
  Sn  Sn74  1  0.91717800  0.98505500  0.84735300  1
  Sn  Sn75  1  0.01494500  0.08282200  0.15264700  1
  Sn  Sn76  1  0.86181800  0.95183000  0.51619600  1
  Sn  Sn77  1  0.04817000  0.13818200  0.48380400  1
