# generated using pymatgen
data_CeCo5P3
_symmetry_space_group_name_H-M   'P 1'
_cell_length_a   3.69271400
_cell_length_b   10.40203700
_cell_length_c   11.72889100
_cell_angle_alpha   90.00000000
_cell_angle_beta   90.00000000
_cell_angle_gamma   90.00000000
_symmetry_Int_Tables_number   1
_chemical_formula_structural   CeCo5P3
_chemical_formula_sum   'Ce4 Co20 P12'
_cell_volume   450.52720141
_cell_formula_units_Z   4
loop_
 _symmetry_equiv_pos_site_id
 _symmetry_equiv_pos_as_xyz
  1  'x, y, z'
loop_
 _atom_site_type_symbol
 _atom_site_label
 _atom_site_symmetry_multiplicity
 _atom_site_fract_x
 _atom_site_fract_y
 _atom_site_fract_z
 _atom_site_occupancy
  Ce  Ce0  1  0.25000000  0.58446800  0.70163000  1
  Ce  Ce1  1  0.25000000  0.91553200  0.20163000  1
  Ce  Ce2  1  0.75000000  0.41553200  0.29837000  1
  Ce  Ce3  1  0.75000000  0.08446800  0.79837000  1
  Co  Co4  1  0.25000000  0.71509800  0.98867500  1
  Co  Co5  1  0.25000000  0.78490200  0.48867500  1
  Co  Co6  1  0.75000000  0.28490200  0.01132500  1
  Co  Co7  1  0.75000000  0.21509800  0.51132500  1
  Co  Co8  1  0.25000000  0.40772900  0.48775600  1
  Co  Co9  1  0.25000000  0.09227100  0.98775600  1
  Co  Co10  1  0.75000000  0.59227100  0.51224400  1
  Co  Co11  1  0.75000000  0.90772900  0.01224400  1
  Co  Co12  1  0.25000000  0.22023500  0.17865100  1
  Co  Co13  1  0.25000000  0.27976500  0.67865100  1
  Co  Co14  1  0.75000000  0.77976500  0.82134900  1
  Co  Co15  1  0.75000000  0.72023500  0.32134900  1
  Co  Co16  1  0.25000000  0.88261400  0.69611600  1
  Co  Co17  1  0.25000000  0.61738600  0.19611600  1
  Co  Co18  1  0.75000000  0.11738600  0.30388400  1
  Co  Co19  1  0.75000000  0.38261400  0.80388400  1
  Co  Co20  1  0.25000000  0.47077000  0.93167800  1
  Co  Co21  1  0.25000000  0.02923000  0.43167800  1
  Co  Co22  1  0.75000000  0.52923000  0.06832200  1
  Co  Co23  1  0.75000000  0.97077000  0.56832200  1
  P  P24  1  0.25000000  0.41640800  0.11097200  1
  P  P25  1  0.25000000  0.08359200  0.61097200  1
  P  P26  1  0.75000000  0.58359200  0.88902800  1
  P  P27  1  0.75000000  0.91640800  0.38902800  1
  P  P28  1  0.25000000  0.27482500  0.87390900  1
  P  P29  1  0.25000000  0.22517500  0.37390900  1
  P  P30  1  0.75000000  0.72517500  0.12609100  1
  P  P31  1  0.75000000  0.77482500  0.62609100  1
  P  P32  1  0.25000000  0.60567500  0.39011300  1
  P  P33  1  0.25000000  0.89432500  0.89011300  1
  P  P34  1  0.75000000  0.39432500  0.60988700  1
  P  P35  1  0.75000000  0.10567500  0.10988700  1
