# generated using pymatgen
data_Y2TeS2
_symmetry_space_group_name_H-M   'P 1'
_cell_length_a   7.58832503
_cell_length_b   7.58832503
_cell_length_c   7.58832503
_cell_angle_alpha   147.62440817
_cell_angle_beta   138.68662814
_cell_angle_gamma   53.43986196
_symmetry_Int_Tables_number   1
_chemical_formula_structural   Y2TeS2
_chemical_formula_sum   'Y2 Te1 S2'
_cell_volume   153.53743213
_cell_formula_units_Z   1
loop_
 _symmetry_equiv_pos_site_id
 _symmetry_equiv_pos_as_xyz
  1  'x, y, z'
loop_
 _atom_site_type_symbol
 _atom_site_label
 _atom_site_symmetry_multiplicity
 _atom_site_fract_x
 _atom_site_fract_y
 _atom_site_fract_z
 _atom_site_occupancy
  Y  Y0  1  0.83484100  0.33484100  0.50000000  1
  Y  Y1  1  0.16515900  0.66515900  0.50000000  1
  Te  Te2  1  0.00000000  0.00000000  0.00000000  1
  S  S3  1  0.70552600  0.70552600  0.00000000  1
  S  S4  1  0.29447400  0.29447400  0.00000000  1
