# generated using pymatgen
data_TeSe2
_symmetry_space_group_name_H-M   'P 1'
_cell_length_a   4.47563634
_cell_length_b   4.47563634
_cell_length_c   5.35283480
_cell_angle_alpha   88.72626810
_cell_angle_beta   88.72626810
_cell_angle_gamma   59.38624071
_symmetry_Int_Tables_number   1
_chemical_formula_structural   TeSe2
_chemical_formula_sum   'Te1 Se2'
_cell_volume   92.24917710
_cell_formula_units_Z   1
loop_
 _symmetry_equiv_pos_site_id
 _symmetry_equiv_pos_as_xyz
  1  'x, y, z'
loop_
 _atom_site_type_symbol
 _atom_site_label
 _atom_site_symmetry_multiplicity
 _atom_site_fract_x
 _atom_site_fract_y
 _atom_site_fract_z
 _atom_site_occupancy
  Te  Te0  1  0.75328400  0.24671600  0.50000000  1
  Se  Se1  1  0.23782600  0.99111000  0.83811800  1
  Se  Se2  1  0.00889000  0.76217400  0.16188200  1
