# generated using pymatgen
data_Sm(GaFe)6
_symmetry_space_group_name_H-M   'P 1'
_cell_length_a   5.04576200
_cell_length_b   6.61647360
_cell_length_c   6.61647360
_cell_angle_alpha   97.79933262
_cell_angle_beta   112.41442402
_cell_angle_gamma   67.58557598
_symmetry_Int_Tables_number   1
_chemical_formula_structural   Sm(GaFe)6
_chemical_formula_sum   'Sm1 Ga6 Fe6'
_cell_volume   188.76390071
_cell_formula_units_Z   1
loop_
 _symmetry_equiv_pos_site_id
 _symmetry_equiv_pos_as_xyz
  1  'x, y, z'
loop_
 _atom_site_type_symbol
 _atom_site_label
 _atom_site_symmetry_multiplicity
 _atom_site_fract_x
 _atom_site_fract_y
 _atom_site_fract_z
 _atom_site_occupancy
  Sm  Sm0  1  0.00000000  0.00000000  0.00000000  1
  Ga  Ga1  1  0.66788200  0.33211800  0.66788200  1
  Ga  Ga2  1  0.33211800  0.66788200  0.33211800  1
  Ga  Ga3  1  0.00000000  0.34546700  0.34546700  1
  Ga  Ga4  1  0.00000000  0.65453300  0.65453300  1
  Ga  Ga5  1  0.50000000  0.81168800  0.81168800  1
  Ga  Ga6  1  0.50000000  0.18831200  0.18831200  1
  Fe  Fe7  1  0.50000000  0.00000000  0.50000000  1
  Fe  Fe8  1  0.00000000  0.00000000  0.50000000  1
  Fe  Fe9  1  0.50000000  0.50000000  0.00000000  1
  Fe  Fe10  1  0.00000000  0.50000000  0.00000000  1
  Fe  Fe11  1  0.74320500  0.75679500  0.24320500  1
  Fe  Fe12  1  0.25679500  0.24320500  0.75679500  1
