# generated using pymatgen
data_ErGeRh2
_symmetry_space_group_name_H-M   'P 1'
_cell_length_a   5.58126811
_cell_length_b   5.58126811
_cell_length_c   15.48977900
_cell_angle_alpha   90.00000000
_cell_angle_beta   90.00000000
_cell_angle_gamma   120.00000130
_symmetry_Int_Tables_number   1
_chemical_formula_structural   ErGeRh2
_chemical_formula_sum   'Er6 Ge6 Rh12'
_cell_volume   417.87040914
_cell_formula_units_Z   6
loop_
 _symmetry_equiv_pos_site_id
 _symmetry_equiv_pos_as_xyz
  1  'x, y, z'
loop_
 _atom_site_type_symbol
 _atom_site_label
 _atom_site_symmetry_multiplicity
 _atom_site_fract_x
 _atom_site_fract_y
 _atom_site_fract_z
 _atom_site_occupancy
  Er  Er0  1  0.33333300  0.66666700  0.53823800  1
  Er  Er1  1  0.66666700  0.33333300  0.46176200  1
  Er  Er2  1  0.66666700  0.33333300  0.03823800  1
  Er  Er3  1  0.33333300  0.66666700  0.96176200  1
  Er  Er4  1  0.33333300  0.66666700  0.75000000  1
  Er  Er5  1  0.66666700  0.33333300  0.25000000  1
  Ge  Ge6  1  0.00000000  0.00000000  0.25000000  1
  Ge  Ge7  1  0.00000000  0.00000000  0.75000000  1
  Ge  Ge8  1  0.33333300  0.66666700  0.25000000  1
  Ge  Ge9  1  0.66666700  0.33333300  0.75000000  1
  Ge  Ge10  1  0.00000000  0.00000000  0.00000000  1
  Ge  Ge11  1  0.00000000  0.00000000  0.50000000  1
  Rh  Rh12  1  0.16839900  0.33679800  0.12706000  1
  Rh  Rh13  1  0.83160100  0.66320200  0.87294000  1
  Rh  Rh14  1  0.66320200  0.83160100  0.12706000  1
  Rh  Rh15  1  0.83160100  0.66320200  0.62706000  1
  Rh  Rh16  1  0.33679800  0.16839900  0.87294000  1
  Rh  Rh17  1  0.16839900  0.33679800  0.37294000  1
  Rh  Rh18  1  0.16839900  0.83160100  0.12706000  1
  Rh  Rh19  1  0.33679800  0.16839900  0.62706000  1
  Rh  Rh20  1  0.83160100  0.16839900  0.87294000  1
  Rh  Rh21  1  0.66320200  0.83160100  0.37294000  1
  Rh  Rh22  1  0.83160100  0.16839900  0.62706000  1
  Rh  Rh23  1  0.16839900  0.83160100  0.37294000  1
