# generated using pymatgen
data_SbPbF7
_symmetry_space_group_name_H-M   'P 1'
_cell_length_a   4.84269200
_cell_length_b   7.58165918
_cell_length_c   7.88374404
_cell_angle_alpha   106.18502164
_cell_angle_beta   102.14537244
_cell_angle_gamma   90.46266166
_symmetry_Int_Tables_number   1
_chemical_formula_structural   SbPbF7
_chemical_formula_sum   'Sb2 Pb2 F14'
_cell_volume   271.07532750
_cell_formula_units_Z   2
loop_
 _symmetry_equiv_pos_site_id
 _symmetry_equiv_pos_as_xyz
  1  'x, y, z'
loop_
 _atom_site_type_symbol
 _atom_site_label
 _atom_site_symmetry_multiplicity
 _atom_site_fract_x
 _atom_site_fract_y
 _atom_site_fract_z
 _atom_site_occupancy
  Sb  Sb0  1  0.35439800  0.18527500  0.28416300  1
  Sb  Sb1  1  0.64560200  0.81472500  0.71583700  1
  Pb  Pb2  1  0.83370300  0.64415600  0.19468000  1
  Pb  Pb3  1  0.16629700  0.35584400  0.80532000  1
  F  F4  1  0.72217500  0.43263100  0.91190600  1
  F  F5  1  0.27782500  0.56736900  0.08809400  1
  F  F6  1  0.05980200  0.05439600  0.33691500  1
  F  F7  1  0.94019800  0.94560400  0.66308500  1
  F  F8  1  0.49083500  0.95453000  0.17664300  1
  F  F9  1  0.50916500  0.04547000  0.82335700  1
  F  F10  1  0.58235500  0.20246500  0.51998200  1
  F  F11  1  0.41764500  0.79753500  0.48001800  1
  F  F12  1  0.64905600  0.31834700  0.23064800  1
  F  F13  1  0.35094400  0.68165300  0.76935200  1
  F  F14  1  0.20563200  0.41351000  0.39277200  1
  F  F15  1  0.79436800  0.58649000  0.60722800  1
  F  F16  1  0.12437200  0.18640000  0.05194400  1
  F  F17  1  0.87562800  0.81360000  0.94805600  1
