# generated using pymatgen
data_ScBr3
_symmetry_space_group_name_H-M   'P 1'
_cell_length_a   10.32274800
_cell_length_b   10.32274800
_cell_length_c   3.52049900
_cell_angle_alpha   90.00000000
_cell_angle_beta   90.00000000
_cell_angle_gamma   119.99999997
_symmetry_Int_Tables_number   1
_chemical_formula_structural   ScBr3
_chemical_formula_sum   'Sc2 Br6'
_cell_volume   324.88189345
_cell_formula_units_Z   2
loop_
 _symmetry_equiv_pos_site_id
 _symmetry_equiv_pos_as_xyz
  1  'x, y, z'
loop_
 _atom_site_type_symbol
 _atom_site_label
 _atom_site_symmetry_multiplicity
 _atom_site_fract_x
 _atom_site_fract_y
 _atom_site_fract_z
 _atom_site_occupancy
  Sc  Sc0  1  0.33333300  0.66666700  0.75000000  1
  Sc  Sc1  1  0.66666700  0.33333300  0.25000000  1
  Br  Br2  1  0.22022300  0.44044600  0.25000000  1
  Br  Br3  1  0.55955400  0.77977700  0.25000000  1
  Br  Br4  1  0.22022300  0.77977700  0.25000000  1
  Br  Br5  1  0.77977700  0.55955400  0.75000000  1
  Br  Br6  1  0.44044600  0.22022300  0.75000000  1
  Br  Br7  1  0.77977700  0.22022300  0.75000000  1
