# generated using pymatgen
data_CsPr(CO3)2
_symmetry_space_group_name_H-M   'P 1'
_cell_length_a   8.71498600
_cell_length_b   9.03950531
_cell_length_c   9.04298748
_cell_angle_alpha   98.93797623
_cell_angle_beta   114.64703177
_cell_angle_gamma   96.31818791
_symmetry_Int_Tables_number   1
_chemical_formula_structural   CsPr(CO3)2
_chemical_formula_sum   'Cs4 Pr4 C8 O24'
_cell_volume   627.38797905
_cell_formula_units_Z   4
loop_
 _symmetry_equiv_pos_site_id
 _symmetry_equiv_pos_as_xyz
  1  'x, y, z'
loop_
 _atom_site_type_symbol
 _atom_site_label
 _atom_site_symmetry_multiplicity
 _atom_site_fract_x
 _atom_site_fract_y
 _atom_site_fract_z
 _atom_site_occupancy
  Cs  Cs0  1  0.75471400  0.97024000  0.96860600  1
  Cs  Cs1  1  0.24528600  0.02976000  0.03139400  1
  Cs  Cs2  1  0.75930700  0.47303800  0.80992800  1
  Cs  Cs3  1  0.24069300  0.52696200  0.19007200  1
  Pr  Pr4  1  0.73978500  0.95217400  0.47795500  1
  Pr  Pr5  1  0.26021500  0.04782600  0.52204500  1
  Pr  Pr6  1  0.75867200  0.45924700  0.28545100  1
  Pr  Pr7  1  0.24132800  0.54075300  0.71454900  1
  C  C8  1  0.02989200  0.28954400  0.29535800  1
  C  C9  1  0.97010800  0.71045600  0.70464200  1
  C  C10  1  0.45865200  0.25833600  0.85844700  1
  C  C11  1  0.00287300  0.21224100  0.72577600  1
  C  C12  1  0.99712700  0.78775900  0.27422400  1
  C  C13  1  0.54134800  0.74166400  0.14155300  1
  C  C14  1  0.41820000  0.76824200  0.60441700  1
  C  C15  1  0.58180000  0.23175800  0.39558300  1
  O  O16  1  0.06541100  0.40007500  0.42494600  1
  O  O17  1  0.50340900  0.12599100  0.43648200  1
  O  O18  1  0.27722300  0.79116700  0.61661500  1
  O  O19  1  0.72277700  0.20883300  0.38338500  1
  O  O20  1  0.52891900  0.35638200  0.36585400  1
  O  O21  1  0.47108100  0.64361800  0.63414600  1
  O  O22  1  0.93458900  0.59992500  0.57505400  1
  O  O23  1  0.49659100  0.87400900  0.56351800  1
  O  O24  1  0.95659000  0.88241700  0.37183100  1
  O  O25  1  0.04341000  0.11758300  0.62816900  1
  O  O26  1  0.86535900  0.16403200  0.74061400  1
  O  O27  1  0.13464100  0.83596800  0.25938600  1
  O  O28  1  0.90537300  0.65272900  0.19718100  1
  O  O29  1  0.09462700  0.34727100  0.80281900  1
  O  O30  1  0.09857300  0.70524300  0.84316500  1
  O  O31  1  0.88123900  0.81532400  0.69547300  1
  O  O32  1  0.39654400  0.32066100  0.72785600  1
  O  O33  1  0.60345600  0.67933900  0.27214400  1
  O  O34  1  0.43757700  0.11073700  0.82838200  1
  O  O35  1  0.56242300  0.88926300  0.17161800  1
  O  O36  1  0.46173900  0.65894600  0.99290600  1
  O  O37  1  0.53826100  0.34105400  0.00709400  1
  O  O38  1  0.11876100  0.18467600  0.30452700  1
  O  O39  1  0.90142700  0.29475700  0.15683500  1
