# generated using pymatgen
data_DyAsPt
_symmetry_space_group_name_H-M   'P 1'
_cell_length_a   4.28064808
_cell_length_b   4.28064808
_cell_length_c   15.58160100
_cell_angle_alpha   90.00000000
_cell_angle_beta   90.00000000
_cell_angle_gamma   120.00000117
_symmetry_Int_Tables_number   1
_chemical_formula_structural   DyAsPt
_chemical_formula_sum   'Dy4 As4 Pt4'
_cell_volume   247.26449223
_cell_formula_units_Z   4
loop_
 _symmetry_equiv_pos_site_id
 _symmetry_equiv_pos_as_xyz
  1  'x, y, z'
loop_
 _atom_site_type_symbol
 _atom_site_label
 _atom_site_symmetry_multiplicity
 _atom_site_fract_x
 _atom_site_fract_y
 _atom_site_fract_z
 _atom_site_occupancy
  Dy  Dy0  1  0.00000000  0.00000000  0.50000000  1
  Dy  Dy1  1  0.00000000  0.00000000  0.00000000  1
  Dy  Dy2  1  0.00000000  0.00000000  0.25000000  1
  Dy  Dy3  1  0.00000000  0.00000000  0.75000000  1
  As  As4  1  0.33333300  0.66666700  0.88347100  1
  As  As5  1  0.66666700  0.33333300  0.11652900  1
  As  As6  1  0.66666700  0.33333300  0.38347100  1
  As  As7  1  0.33333300  0.66666700  0.61652900  1
  Pt  Pt8  1  0.33333300  0.66666700  0.36554100  1
  Pt  Pt9  1  0.66666700  0.33333300  0.63445900  1
  Pt  Pt10  1  0.66666700  0.33333300  0.86554100  1
  Pt  Pt11  1  0.33333300  0.66666700  0.13445900  1
