# generated using pymatgen
data_CsV2SbO8
_symmetry_space_group_name_H-M   'P 1'
_cell_length_a   17.10545100
_cell_length_b   5.70986000
_cell_length_c   10.33904674
_cell_angle_alpha   57.05574773
_cell_angle_beta   90.00000000
_cell_angle_gamma   90.00000000
_symmetry_Int_Tables_number   1
_chemical_formula_structural   CsV2SbO8
_chemical_formula_sum   'Cs4 V8 Sb4 O32'
_cell_volume   847.43424864
_cell_formula_units_Z   4
loop_
 _symmetry_equiv_pos_site_id
 _symmetry_equiv_pos_as_xyz
  1  'x, y, z'
loop_
 _atom_site_type_symbol
 _atom_site_label
 _atom_site_symmetry_multiplicity
 _atom_site_fract_x
 _atom_site_fract_y
 _atom_site_fract_z
 _atom_site_occupancy
  Cs  Cs0  1  0.71789800  0.26681500  0.49557500  1
  Cs  Cs1  1  0.78210200  0.26681500  0.99557500  1
  Cs  Cs2  1  0.28210200  0.73318500  0.50442500  1
  Cs  Cs3  1  0.21789800  0.73318500  0.00442500  1
  V  V4  1  0.60703700  0.79688800  0.95827700  1
  V  V5  1  0.89296300  0.79688800  0.45827700  1
  V  V6  1  0.39296300  0.20311200  0.04172300  1
  V  V7  1  0.10703700  0.20311200  0.54172300  1
  V  V8  1  0.57481800  0.90480000  0.36425300  1
  V  V9  1  0.92518200  0.90480000  0.86425300  1
  V  V10  1  0.42518200  0.09520000  0.63574700  1
  V  V11  1  0.07481800  0.09520000  0.13574700  1
  Sb  Sb12  1  0.54745900  0.48264300  0.75876500  1
  Sb  Sb13  1  0.95254100  0.48264300  0.25876500  1
  Sb  Sb14  1  0.45254100  0.51735700  0.24123500  1
  Sb  Sb15  1  0.04745900  0.51735700  0.74123500  1
  O  O16  1  0.51405200  0.71165800  0.04501300  1
  O  O17  1  0.98594800  0.71165800  0.54501300  1
  O  O18  1  0.48594800  0.28834200  0.95498700  1
  O  O19  1  0.01405200  0.28834200  0.45498700  1
  O  O20  1  0.61501100  0.66952400  0.83317000  1
  O  O21  1  0.88498900  0.66952400  0.33317000  1
  O  O22  1  0.38498900  0.33047600  0.16683000  1
  O  O23  1  0.11501100  0.33047600  0.66683000  1
  O  O24  1  0.62458100  0.16933100  0.85033000  1
  O  O25  1  0.87541900  0.16933100  0.35033000  1
  O  O26  1  0.37541900  0.83066900  0.14967000  1
  O  O27  1  0.12458100  0.83066900  0.64967000  1
  O  O28  1  0.67901300  0.65784200  0.08314200  1
  O  O29  1  0.82098700  0.65784200  0.58314200  1
  O  O30  1  0.32098700  0.34215800  0.91685800  1
  O  O31  1  0.17901300  0.34215800  0.41685800  1
  O  O32  1  0.50958900  0.72328100  0.31851800  1
  O  O33  1  0.99041100  0.72328100  0.81851800  1
  O  O34  1  0.49041100  0.27671900  0.68148200  1
  O  O35  1  0.00958900  0.27671900  0.18148200  1
  O  O36  1  0.53301100  0.21668700  0.33345700  1
  O  O37  1  0.96698900  0.21668700  0.83345700  1
  O  O38  1  0.46698900  0.78331300  0.66654300  1
  O  O39  1  0.03301100  0.78331300  0.16654300  1
  O  O40  1  0.60712900  0.68369500  0.56168700  1
  O  O41  1  0.89287100  0.68369500  0.06168700  1
  O  O42  1  0.39287100  0.31630500  0.43831300  1
  O  O43  1  0.10712900  0.31630500  0.93831300  1
  O  O44  1  0.65609200  0.98042300  0.26399100  1
  O  O45  1  0.84390800  0.98042300  0.76399100  1
  O  O46  1  0.34390800  0.01957700  0.73600900  1
  O  O47  1  0.15609200  0.01957700  0.23600900  1
