# generated using pymatgen
data_YbMg149
_symmetry_space_group_name_H-M   'P 1'
_cell_length_a   15.99893565
_cell_length_b   15.99894031
_cell_length_c   15.66408639
_cell_angle_alpha   90.00000000
_cell_angle_beta   90.00000000
_cell_angle_gamma   120.00000965
_symmetry_Int_Tables_number   1
_chemical_formula_structural   YbMg149
_chemical_formula_sum   'Yb1 Mg149'
_cell_volume   3472.30582500
_cell_formula_units_Z   1
loop_
 _symmetry_equiv_pos_site_id
 _symmetry_equiv_pos_as_xyz
  1  'x, y, z'
loop_
 _atom_site_type_symbol
 _atom_site_label
 _atom_site_symmetry_multiplicity
 _atom_site_fract_x
 _atom_site_fract_y
 _atom_site_fract_z
 _atom_site_occupancy
  Yb  Yb0  1  -0.00000000  -0.00000000  0.00000000  1
  Mg  Mg1  1  0.60018060  0.20036220  0.00000000  1
  Mg  Mg2  1  0.40102348  0.20051124  0.00000000  1
  Mg  Mg3  1  0.79948876  0.20051224  0.00000000  1
  Mg  Mg4  1  0.00251697  0.20637614  0.00000000  1
  Mg  Mg5  1  0.20385916  0.20637614  0.00000000  1
  Mg  Mg6  1  0.60018060  0.39981840  0.00000000  1
  Mg  Mg7  1  0.79963780  0.39981840  0.00000000  1
  Mg  Mg8  1  0.00030704  0.40123786  0.00000000  1
  Mg  Mg9  1  0.40093082  0.40123786  0.00000000  1
  Mg  Mg10  1  0.20162160  0.40324219  0.00000000  1
  Mg  Mg11  1  0.79948876  0.59897652  0.00000000  1
  Mg  Mg12  1  0.00030704  0.59906818  0.00000000  1
  Mg  Mg13  1  0.59876114  0.59906818  0.00000000  1
  Mg  Mg14  1  0.39965764  0.60034136  0.00000000  1
  Mg  Mg15  1  0.20068371  0.60034136  0.00000000  1
  Mg  Mg16  1  0.00251697  0.79614084  0.00000000  1
  Mg  Mg17  1  0.79362386  0.79614084  0.00000000  1
  Mg  Mg18  1  0.59675881  0.79837940  0.00000000  1
  Mg  Mg19  1  0.20162160  0.79837940  0.00000000  1
  Mg  Mg20  1  0.39965764  0.79931629  0.00000000  1
  Mg  Mg21  1  0.20385916  0.99748403  0.00000000  1
  Mg  Mg22  1  0.79362386  0.99748403  0.00000000  1
  Mg  Mg23  1  0.40093082  0.99969296  0.00000000  1
  Mg  Mg24  1  0.59876114  0.99969296  0.00000000  1
  Mg  Mg25  1  0.26393083  0.13196541  0.16503597  1
  Mg  Mg26  1  0.86803459  0.13196541  0.16503597  1
  Mg  Mg27  1  0.86803459  0.73606917  0.16503597  1
  Mg  Mg28  1  0.66666700  0.33333300  0.16620097  1
  Mg  Mg29  1  0.46577835  0.13303283  0.16654286  1
  Mg  Mg30  1  0.66725449  0.13303283  0.16654286  1
  Mg  Mg31  1  0.86696717  0.33274551  0.16654286  1
  Mg  Mg32  1  0.46577835  0.33274551  0.16654286  1
  Mg  Mg33  1  0.66725449  0.53422165  0.16654286  1
  Mg  Mg34  1  0.86696717  0.53422165  0.16654286  1
  Mg  Mg35  1  0.46662511  0.53337389  0.16738977  1
  Mg  Mg36  1  0.06674978  0.53337489  0.16738977  1
  Mg  Mg37  1  0.46662511  0.93325022  0.16738977  1
  Mg  Mg38  1  0.26703926  0.53407953  0.16731508  1
  Mg  Mg39  1  0.26703926  0.73295974  0.16731508  1
  Mg  Mg40  1  0.46592047  0.73295974  0.16731508  1
  Mg  Mg41  1  0.26767001  0.33545475  0.16771699  1
  Mg  Mg42  1  0.06778574  0.33545575  0.16771699  1
  Mg  Mg43  1  0.06778574  0.73232999  0.16771699  1
  Mg  Mg44  1  0.66454525  0.73232999  0.16771699  1
  Mg  Mg45  1  0.26767001  0.93221426  0.16771699  1
  Mg  Mg46  1  0.66454525  0.93221426  0.16771699  1
  Mg  Mg47  1  0.06837507  0.13675114  0.17079600  1
  Mg  Mg48  1  0.86324986  0.93162493  0.17079600  1
  Mg  Mg49  1  0.06837507  0.93162493  0.17079600  1
  Mg  Mg50  1  0.80007367  0.19992633  0.33280045  1
  Mg  Mg51  1  0.39985166  0.19992633  0.33280045  1
  Mg  Mg52  1  0.80007367  0.60014734  0.33280045  1
  Mg  Mg53  1  0.60005677  0.20011355  0.33297031  1
  Mg  Mg54  1  0.79988545  0.39994323  0.33297031  1
  Mg  Mg55  1  0.60005677  0.39994323  0.33297031  1
  Mg  Mg56  1  0.59965695  0.00022757  0.33382189  1
  Mg  Mg57  1  0.40057062  0.00022757  0.33382189  1
  Mg  Mg58  1  0.40057062  0.40034305  0.33382189  1
  Mg  Mg59  1  0.99977343  0.40034305  0.33382189  1
  Mg  Mg60  1  0.59965695  0.59942938  0.33382189  1
  Mg  Mg61  1  0.99977343  0.59943038  0.33382189  1
  Mg  Mg62  1  0.40008169  0.59991831  0.33376692  1
  Mg  Mg63  1  0.19983762  0.59991831  0.33376692  1
  Mg  Mg64  1  0.40008169  0.80016238  0.33376692  1
  Mg  Mg65  1  0.20018700  0.40037500  0.33397919  1
  Mg  Mg66  1  0.59962600  0.79981300  0.33397919  1
  Mg  Mg67  1  0.20018700  0.79981300  0.33397919  1
  Mg  Mg68  1  0.79926602  0.00016971  0.33407160  1
  Mg  Mg69  1  0.20090369  0.00016971  0.33407160  1
  Mg  Mg70  1  0.20090369  0.20073398  0.33407160  1
  Mg  Mg71  1  0.99983029  0.20073398  0.33407160  1
  Mg  Mg72  1  0.79926602  0.79909631  0.33407160  1
  Mg  Mg73  1  0.99983029  0.79909631  0.33407160  1
  Mg  Mg74  1  -0.00000000  -0.00000000  0.33414221  1
  Mg  Mg75  1  0.06676134  0.13352268  0.50000000  1
  Mg  Mg76  1  0.26722341  0.13361121  0.50000000  1
  Mg  Mg77  1  0.86638779  0.13361221  0.50000000  1
  Mg  Mg78  1  0.66702299  0.13397549  0.50000000  1
  Mg  Mg79  1  0.46695251  0.13397549  0.50000000  1
  Mg  Mg80  1  0.46695251  0.33297701  0.50000000  1
  Mg  Mg81  1  0.86602451  0.33297701  0.50000000  1
  Mg  Mg82  1  0.66666700  0.33333300  0.50000000  1
  Mg  Mg83  1  0.06696066  0.33376464  0.50000000  1
  Mg  Mg84  1  0.26680498  0.33376564  0.50000000  1
  Mg  Mg85  1  0.86602451  0.53304749  0.50000000  1
  Mg  Mg86  1  0.66702299  0.53304749  0.50000000  1
  Mg  Mg87  1  0.46675659  0.53324341  0.50000000  1
  Mg  Mg88  1  0.06648682  0.53324341  0.50000000  1
  Mg  Mg89  1  0.26681848  0.53363797  0.50000000  1
  Mg  Mg90  1  0.86638779  0.73277659  0.50000000  1
  Mg  Mg91  1  0.06696066  0.73319502  0.50000000  1
  Mg  Mg92  1  0.66623536  0.73319602  0.50000000  1
  Mg  Mg93  1  0.46636203  0.73318052  0.50000000  1
  Mg  Mg94  1  0.26681848  0.73318152  0.50000000  1
  Mg  Mg95  1  0.26680498  0.93303934  0.50000000  1
  Mg  Mg96  1  0.66623536  0.93304034  0.50000000  1
  Mg  Mg97  1  0.06676134  0.93323866  0.50000000  1
  Mg  Mg98  1  0.86647732  0.93323866  0.50000000  1
  Mg  Mg99  1  0.46675659  0.93351318  0.50000000  1
  Mg  Mg100  1  -0.00000000  -0.00000000  0.66585779  1
  Mg  Mg101  1  0.79926602  0.00016971  0.66592840  1
  Mg  Mg102  1  0.20090369  0.00016971  0.66592840  1
  Mg  Mg103  1  0.20090369  0.20073398  0.66592840  1
  Mg  Mg104  1  0.99983029  0.20073398  0.66592840  1
  Mg  Mg105  1  0.79926602  0.79909631  0.66592840  1
  Mg  Mg106  1  0.99983029  0.79909631  0.66592840  1
  Mg  Mg107  1  0.20018700  0.40037500  0.66602081  1
  Mg  Mg108  1  0.59962600  0.79981300  0.66602081  1
  Mg  Mg109  1  0.20018700  0.79981300  0.66602081  1
  Mg  Mg110  1  0.40008169  0.59991831  0.66623308  1
  Mg  Mg111  1  0.19983762  0.59991831  0.66623308  1
  Mg  Mg112  1  0.40008169  0.80016238  0.66623308  1
  Mg  Mg113  1  0.59965695  0.00022757  0.66617811  1
  Mg  Mg114  1  0.40057062  0.00022757  0.66617811  1
  Mg  Mg115  1  0.40057062  0.40034305  0.66617811  1
  Mg  Mg116  1  0.99977343  0.40034305  0.66617811  1
  Mg  Mg117  1  0.59965695  0.59942938  0.66617811  1
  Mg  Mg118  1  0.99977343  0.59943038  0.66617811  1
  Mg  Mg119  1  0.60005677  0.20011355  0.66702969  1
  Mg  Mg120  1  0.79988545  0.39994323  0.66702969  1
  Mg  Mg121  1  0.60005677  0.39994323  0.66702969  1
  Mg  Mg122  1  0.80007367  0.19992633  0.66719955  1
  Mg  Mg123  1  0.39985166  0.19992633  0.66719955  1
  Mg  Mg124  1  0.80007367  0.60014734  0.66719955  1
  Mg  Mg125  1  0.06837507  0.13675114  0.82920500  1
  Mg  Mg126  1  0.86324986  0.93162493  0.82920500  1
  Mg  Mg127  1  0.06837507  0.93162493  0.82920500  1
  Mg  Mg128  1  0.26767001  0.33545475  0.83228201  1
  Mg  Mg129  1  0.06778574  0.33545575  0.83228201  1
  Mg  Mg130  1  0.06778574  0.73232999  0.83228201  1
  Mg  Mg131  1  0.66454525  0.73232999  0.83228201  1
  Mg  Mg132  1  0.26767001  0.93221426  0.83228201  1
  Mg  Mg133  1  0.66454525  0.93221426  0.83228201  1
  Mg  Mg134  1  0.26703926  0.53407953  0.83268492  1
  Mg  Mg135  1  0.26703926  0.73295974  0.83268492  1
  Mg  Mg136  1  0.46592047  0.73295974  0.83268492  1
  Mg  Mg137  1  0.46662511  0.53337389  0.83260923  1
  Mg  Mg138  1  0.06674978  0.53337489  0.83260923  1
  Mg  Mg139  1  0.46662511  0.93325022  0.83260923  1
  Mg  Mg140  1  0.46577835  0.13303283  0.83345714  1
  Mg  Mg141  1  0.66725449  0.13303283  0.83345714  1
  Mg  Mg142  1  0.86696717  0.33274551  0.83345714  1
  Mg  Mg143  1  0.46577835  0.33274551  0.83345714  1
  Mg  Mg144  1  0.66725449  0.53422165  0.83345714  1
  Mg  Mg145  1  0.86696717  0.53422165  0.83345714  1
  Mg  Mg146  1  0.66666700  0.33333300  0.83379903  1
  Mg  Mg147  1  0.26393083  0.13196541  0.83496403  1
  Mg  Mg148  1  0.86803459  0.13196541  0.83496403  1
  Mg  Mg149  1  0.86803459  0.73606917  0.83496403  1
