# generated using pymatgen
data_Zr6FeI14
_symmetry_space_group_name_H-M   'P 1'
_cell_length_a   11.09911838
_cell_length_b   11.09911838
_cell_length_c   13.36965300
_cell_angle_alpha   90.00000000
_cell_angle_beta   90.00000000
_cell_angle_gamma   94.69052952
_symmetry_Int_Tables_number   1
_chemical_formula_structural   Zr6FeI14
_chemical_formula_sum   'Zr12 Fe2 I28'
_cell_volume   1641.49730256
_cell_formula_units_Z   2
loop_
 _symmetry_equiv_pos_site_id
 _symmetry_equiv_pos_as_xyz
  1  'x, y, z'
loop_
 _atom_site_type_symbol
 _atom_site_label
 _atom_site_symmetry_multiplicity
 _atom_site_fract_x
 _atom_site_fract_y
 _atom_site_fract_z
 _atom_site_occupancy
  Zr  Zr0  1  0.95475200  0.17515700  0.11200600  1
  Zr  Zr1  1  0.04524800  0.82484300  0.88799400  1
  Zr  Zr2  1  0.54524800  0.32484300  0.61200600  1
  Zr  Zr3  1  0.67515700  0.45475200  0.38799400  1
  Zr  Zr4  1  0.45475200  0.67515700  0.38799400  1
  Zr  Zr5  1  0.32484300  0.54524800  0.61200600  1
  Zr  Zr6  1  0.82484300  0.04524800  0.88799400  1
  Zr  Zr7  1  0.17515700  0.95475200  0.11200600  1
  Zr  Zr8  1  0.36326800  0.36326800  0.39977300  1
  Zr  Zr9  1  0.63673200  0.63673200  0.60022700  1
  Zr  Zr10  1  0.13673200  0.13673200  0.89977300  1
  Zr  Zr11  1  0.86326800  0.86326800  0.10022700  1
  Fe  Fe12  1  0.00000000  0.00000000  0.00000000  1
  Fe  Fe13  1  0.50000000  0.50000000  0.50000000  1
  I  I14  1  0.28683900  0.53481000  0.25450000  1
  I  I15  1  0.71316100  0.46519000  0.74550000  1
  I  I16  1  0.21316100  0.96519000  0.75450000  1
  I  I17  1  0.03481000  0.78683900  0.24550000  1
  I  I18  1  0.78683900  0.03481000  0.24550000  1
  I  I19  1  0.96519000  0.21316100  0.75450000  1
  I  I20  1  0.46519000  0.71316100  0.74550000  1
  I  I21  1  0.53481000  0.28683900  0.25450000  1
  I  I22  1  0.11368100  0.36031800  0.00962400  1
  I  I23  1  0.88631900  0.63968200  0.99037600  1
  I  I24  1  0.38631900  0.13968200  0.50962400  1
  I  I25  1  0.86031800  0.61368100  0.49037600  1
  I  I26  1  0.61368100  0.86031800  0.49037600  1
  I  I27  1  0.13968200  0.38631900  0.50962400  1
  I  I28  1  0.63968200  0.88631900  0.99037600  1
  I  I29  1  0.36031800  0.11368100  0.00962400  1
  I  I30  1  0.89679700  0.39679700  0.25000000  1
  I  I31  1  0.10320300  0.60320300  0.75000000  1
  I  I32  1  0.60320300  0.10320300  0.75000000  1
  I  I33  1  0.39679700  0.89679700  0.25000000  1
  I  I34  1  0.74956800  0.25043200  0.00000000  1
  I  I35  1  0.25043200  0.74956800  0.00000000  1
  I  I36  1  0.75043200  0.24956800  0.50000000  1
  I  I37  1  0.24956800  0.75043200  0.50000000  1
  I  I38  1  0.14992900  0.14992900  0.26112200  1
  I  I39  1  0.85007100  0.85007100  0.73887800  1
  I  I40  1  0.35007100  0.35007100  0.76112200  1
  I  I41  1  0.64992900  0.64992900  0.23887800  1
