# generated using pymatgen
data_RbWCl6
_symmetry_space_group_name_H-M   'P 1'
_cell_length_a   6.89327254
_cell_length_b   6.89327254
_cell_length_c   12.38665788
_cell_angle_alpha   79.37987383
_cell_angle_beta   79.37987383
_cell_angle_gamma   55.55006933
_symmetry_Int_Tables_number   1
_chemical_formula_structural   RbWCl6
_chemical_formula_sum   'Rb2 W2 Cl12'
_cell_volume   474.70901330
_cell_formula_units_Z   2
loop_
 _symmetry_equiv_pos_site_id
 _symmetry_equiv_pos_as_xyz
  1  'x, y, z'
loop_
 _atom_site_type_symbol
 _atom_site_label
 _atom_site_symmetry_multiplicity
 _atom_site_fract_x
 _atom_site_fract_y
 _atom_site_fract_z
 _atom_site_occupancy
  Rb  Rb0  1  0.88112200  0.11887800  0.75000000  1
  Rb  Rb1  1  0.11887800  0.88112200  0.25000000  1
  W  W2  1  0.50000000  0.00000000  0.50000000  1
  W  W3  1  0.00000000  0.50000000  0.00000000  1
  Cl  Cl4  1  0.46289900  0.69870300  0.60346200  1
  Cl  Cl5  1  0.53710100  0.30129700  0.39653800  1
  Cl  Cl6  1  0.30129700  0.53710100  0.89653800  1
  Cl  Cl7  1  0.69870300  0.46289900  0.10346200  1
  Cl  Cl8  1  0.37052700  0.20106200  0.65857200  1
  Cl  Cl9  1  0.62947300  0.79893800  0.34142800  1
  Cl  Cl10  1  0.79893800  0.62947300  0.84142800  1
  Cl  Cl11  1  0.20106200  0.37052700  0.15857200  1
  Cl  Cl12  1  0.79506100  0.89354700  0.04033700  1
  Cl  Cl13  1  0.20493900  0.10645300  0.95966300  1
  Cl  Cl14  1  0.10645300  0.20493900  0.45966300  1
  Cl  Cl15  1  0.89354700  0.79506100  0.54033700  1
