# generated using pymatgen
data_Ba3TaFe3(SiO7)2
_symmetry_space_group_name_H-M   'P 1'
_cell_length_a   8.66028628
_cell_length_b   8.66028628
_cell_length_c   5.31484900
_cell_angle_alpha   90.00000000
_cell_angle_beta   90.00000000
_cell_angle_gamma   120.00000212
_symmetry_Int_Tables_number   1
_chemical_formula_structural   Ba3TaFe3(SiO7)2
_chemical_formula_sum   'Ba3 Ta1 Fe3 Si2 O14'
_cell_volume   345.21213169
_cell_formula_units_Z   1
loop_
 _symmetry_equiv_pos_site_id
 _symmetry_equiv_pos_as_xyz
  1  'x, y, z'
loop_
 _atom_site_type_symbol
 _atom_site_label
 _atom_site_symmetry_multiplicity
 _atom_site_fract_x
 _atom_site_fract_y
 _atom_site_fract_z
 _atom_site_occupancy
  Ba  Ba0  1  0.43340800  0.00000000  0.00000000  1
  Ba  Ba1  1  0.56659200  0.56659200  0.00000000  1
  Ba  Ba2  1  0.00000000  0.43340800  0.00000000  1
  Ta  Ta3  1  0.00000000  0.00000000  0.00000000  1
  Fe  Fe4  1  0.74911700  0.00000000  0.50000000  1
  Fe  Fe5  1  0.25088300  0.25088300  0.50000000  1
  Fe  Fe6  1  0.00000000  0.74911700  0.50000000  1
  Si  Si7  1  0.66666700  0.33333300  0.47800000  1
  Si  Si8  1  0.33333300  0.66666700  0.52200000  1
  O  O9  1  0.66666700  0.33333300  0.78241700  1
  O  O10  1  0.33333300  0.66666700  0.21758300  1
  O  O11  1  0.17753700  0.70270500  0.64563600  1
  O  O12  1  0.52516800  0.82246300  0.64563600  1
  O  O13  1  0.29729500  0.47483200  0.64563600  1
  O  O14  1  0.82246300  0.52516800  0.35436400  1
  O  O15  1  0.70270500  0.17753700  0.35436400  1
  O  O16  1  0.47483200  0.29729500  0.35436400  1
  O  O17  1  0.11507600  0.89996400  0.22335800  1
  O  O18  1  0.78488800  0.88492400  0.22335800  1
  O  O19  1  0.10003600  0.21511200  0.22335800  1
  O  O20  1  0.88492400  0.78488800  0.77664200  1
  O  O21  1  0.89996400  0.11507600  0.77664200  1
  O  O22  1  0.21511200  0.10003600  0.77664200  1
