# generated using pymatgen
data_K3W2N5
_symmetry_space_group_name_H-M   'P 1'
_cell_length_a   10.38646607
_cell_length_b   10.38646607
_cell_length_c   10.38646607
_cell_angle_alpha   102.23332499
_cell_angle_beta   102.23332499
_cell_angle_gamma   125.18465788
_symmetry_Int_Tables_number   1
_chemical_formula_structural   K3W2N5
_chemical_formula_sum   'K12 W8 N20'
_cell_volume   812.97469415
_cell_formula_units_Z   4
loop_
 _symmetry_equiv_pos_site_id
 _symmetry_equiv_pos_as_xyz
  1  'x, y, z'
loop_
 _atom_site_type_symbol
 _atom_site_label
 _atom_site_symmetry_multiplicity
 _atom_site_fract_x
 _atom_site_fract_y
 _atom_site_fract_z
 _atom_site_occupancy
  K  K0  1  0.86689800  0.54878300  0.87883400  1
  K  K1  1  0.66994900  0.98806400  0.12116600  1
  K  K2  1  0.79878300  0.41994900  0.18188500  1
  K  K3  1  0.23806400  0.61689800  0.81811500  1
  K  K4  1  0.51901600  0.71441600  0.35479600  1
  K  K5  1  0.35962000  0.16422000  0.64520400  1
  K  K6  1  0.96441600  0.10962000  0.69540000  1
  K  K7  1  0.41422000  0.26901600  0.30460000  1
  K  K8  1  0.94883700  0.94883700  0.00000000  1
  K  K9  1  0.19883700  0.69883700  0.50000000  1
  K  K10  1  0.74414800  0.24414800  0.50000000  1
  K  K11  1  0.49414800  0.49414800  0.00000000  1
  W  W12  1  0.62811900  0.05539700  0.79544200  1
  W  W13  1  0.25995500  0.83267700  0.20455800  1
  W  W14  1  0.30539700  0.00995500  0.92727800  1
  W  W15  1  0.08267700  0.37811900  0.07272200  1
  W  W16  1  0.92734000  0.74483900  0.62816400  1
  W  W17  1  0.11667400  0.29917600  0.37183600  1
  W  W18  1  0.99483900  0.86667400  0.31749800  1
  W  W19  1  0.54917600  0.67734000  0.68250200  1
  N  N20  1  0.64613200  0.19963100  0.71955600  1
  N  N21  1  0.48007500  0.92657700  0.28044400  1
  N  N22  1  0.44963100  0.23007500  0.05349900  1
  N  N23  1  0.17657700  0.39613200  0.94650100  1
  N  N24  1  0.85197000  0.70955600  0.13467000  1
  N  N25  1  0.57488500  0.71730000  0.86533000  1
  N  N26  1  0.95955600  0.32488500  0.35758600  1
  N  N27  1  0.96730000  0.60197000  0.64241400  1
  N  N28  1  0.83917100  0.18350000  0.96397400  1
  N  N29  1  0.21952600  0.87519700  0.03602600  1
  N  N30  1  0.43350000  0.96952600  0.84432900  1
  N  N31  1  0.12519700  0.58917100  0.15567100  1
  N  N32  1  0.91763400  0.76244000  0.44628000  1
  N  N33  1  0.31616000  0.47135400  0.55372000  1
  N  N34  1  0.01244000  0.06616000  0.34480600  1
  N  N35  1  0.72135400  0.66763400  0.65519400  1
  N  N36  1  0.11978400  0.97276800  0.78156200  1
  N  N37  1  0.19120600  0.33822200  0.21843800  1
  N  N38  1  0.22276800  0.94120600  0.35298400  1
  N  N39  1  0.58822200  0.86978400  0.64701600  1
