# generated using pymatgen
data_HoAsS
_symmetry_space_group_name_H-M   'P 1'
_cell_length_a   3.81260700
_cell_length_b   3.82922700
_cell_length_c   16.96747400
_cell_angle_alpha   90.00000000
_cell_angle_beta   90.00000000
_cell_angle_gamma   90.00000000
_symmetry_Int_Tables_number   1
_chemical_formula_structural   HoAsS
_chemical_formula_sum   'Ho4 As4 S4'
_cell_volume   247.71388224
_cell_formula_units_Z   4
loop_
 _symmetry_equiv_pos_site_id
 _symmetry_equiv_pos_as_xyz
  1  'x, y, z'
loop_
 _atom_site_type_symbol
 _atom_site_label
 _atom_site_symmetry_multiplicity
 _atom_site_fract_x
 _atom_site_fract_y
 _atom_site_fract_z
 _atom_site_occupancy
  Ho  Ho0  1  0.25000000  0.21854800  0.85425500  1
  Ho  Ho1  1  0.25000000  0.28145200  0.35425500  1
  Ho  Ho2  1  0.75000000  0.78145200  0.14574500  1
  Ho  Ho3  1  0.75000000  0.71854800  0.64574500  1
  As  As4  1  0.75000000  0.21999300  0.50176500  1
  As  As5  1  0.75000000  0.28000700  0.00176500  1
  As  As6  1  0.25000000  0.78000700  0.49823500  1
  As  As7  1  0.25000000  0.71999300  0.99823500  1
  S  S8  1  0.25000000  0.21873100  0.68698500  1
  S  S9  1  0.25000000  0.28126900  0.18698500  1
  S  S10  1  0.75000000  0.78126900  0.31301500  1
  S  S11  1  0.75000000  0.71873100  0.81301500  1
