# generated using pymatgen
data_Zr4GeSb7
_symmetry_space_group_name_H-M   'P 1'
_cell_length_a   3.99310100
_cell_length_b   7.38083300
_cell_length_c   9.68274454
_cell_angle_alpha   89.55083032
_cell_angle_beta   90.00000000
_cell_angle_gamma   90.00000000
_symmetry_Int_Tables_number   1
_chemical_formula_structural   Zr4GeSb7
_chemical_formula_sum   'Zr4 Ge1 Sb7'
_cell_volume   285.36506360
_cell_formula_units_Z   1
loop_
 _symmetry_equiv_pos_site_id
 _symmetry_equiv_pos_as_xyz
  1  'x, y, z'
loop_
 _atom_site_type_symbol
 _atom_site_label
 _atom_site_symmetry_multiplicity
 _atom_site_fract_x
 _atom_site_fract_y
 _atom_site_fract_z
 _atom_site_occupancy
  Zr  Zr0  1  0.00000000  0.75840800  0.66050300  1
  Zr  Zr1  1  0.00000000  0.26359200  0.83171000  1
  Zr  Zr2  1  0.50000000  0.24184800  0.34138100  1
  Zr  Zr3  1  0.50000000  0.73990200  0.16519000  1
  Ge  Ge4  1  0.00000000  0.36807900  0.54561300  1
  Sb  Sb5  1  0.00000000  0.43274400  0.14960300  1
  Sb  Sb6  1  0.00000000  0.93096300  0.35482900  1
  Sb  Sb7  1  0.50000000  0.56819400  0.84983000  1
  Sb  Sb8  1  0.50000000  0.07932200  0.64127700  1
  Sb  Sb9  1  0.00000000  0.86859900  0.95321400  1
  Sb  Sb10  1  0.50000000  0.61417100  0.46084800  1
  Sb  Sb11  1  0.50000000  0.13417800  0.04600200  1
