# generated using pymatgen
data_Mn2Nb
_symmetry_space_group_name_H-M   'P 1'
_cell_length_a   4.81796468
_cell_length_b   4.81796468
_cell_length_c   7.90152100
_cell_angle_alpha   90.00000000
_cell_angle_beta   90.00000000
_cell_angle_gamma   120.00000929
_symmetry_Int_Tables_number   1
_chemical_formula_structural   Mn2Nb
_chemical_formula_sum   'Mn8 Nb4'
_cell_volume   158.84315805
_cell_formula_units_Z   4
loop_
 _symmetry_equiv_pos_site_id
 _symmetry_equiv_pos_as_xyz
  1  'x, y, z'
loop_
 _atom_site_type_symbol
 _atom_site_label
 _atom_site_symmetry_multiplicity
 _atom_site_fract_x
 _atom_site_fract_y
 _atom_site_fract_z
 _atom_site_occupancy
  Mn  Mn0  1  0.17133000  0.34266000  0.75000000  1
  Mn  Mn1  1  0.82867000  0.17133000  0.25000000  1
  Mn  Mn2  1  0.34266000  0.17133000  0.25000000  1
  Mn  Mn3  1  0.65734000  0.82867000  0.75000000  1
  Mn  Mn4  1  0.00000000  0.00000000  0.00000000  1
  Mn  Mn5  1  0.00000000  0.00000000  0.50000000  1
  Mn  Mn6  1  0.82867000  0.65734000  0.25000000  1
  Mn  Mn7  1  0.17133000  0.82867000  0.75000000  1
  Nb  Nb8  1  0.33333300  0.66666700  0.43794700  1
  Nb  Nb9  1  0.66666700  0.33333300  0.93794700  1
  Nb  Nb10  1  0.66666700  0.33333300  0.56205300  1
  Nb  Nb11  1  0.33333300  0.66666700  0.06205300  1
