# generated using pymatgen
data_RbGd3F10
_symmetry_space_group_name_H-M   'P 1'
_cell_length_a   8.42898577
_cell_length_b   8.42898577
_cell_length_c   8.42898577
_cell_angle_alpha   60.00000000
_cell_angle_beta   60.00000000
_cell_angle_gamma   60.00000000
_symmetry_Int_Tables_number   1
_chemical_formula_structural   RbGd3F10
_chemical_formula_sum   'Rb2 Gd6 F20'
_cell_volume   423.45860734
_cell_formula_units_Z   2
loop_
 _symmetry_equiv_pos_site_id
 _symmetry_equiv_pos_as_xyz
  1  'x, y, z'
loop_
 _atom_site_type_symbol
 _atom_site_label
 _atom_site_symmetry_multiplicity
 _atom_site_fract_x
 _atom_site_fract_y
 _atom_site_fract_z
 _atom_site_occupancy
  Rb  Rb0  1  0.25000000  0.25000000  0.25000000  1
  Rb  Rb1  1  0.75000000  0.75000000  0.75000000  1
  Gd  Gd2  1  0.75958000  0.24042000  0.24042000  1
  Gd  Gd3  1  0.24042000  0.75958000  0.75958000  1
  Gd  Gd4  1  0.24042000  0.75958000  0.24042000  1
  Gd  Gd5  1  0.75958000  0.24042000  0.75958000  1
  Gd  Gd6  1  0.24042000  0.24042000  0.75958000  1
  Gd  Gd7  1  0.75958000  0.75958000  0.24042000  1
  F  F8  1  0.82958500  0.50000000  0.50000000  1
  F  F9  1  0.17041500  0.50000000  0.50000000  1
  F  F10  1  0.50000000  0.82958500  0.17041500  1
  F  F11  1  0.50000000  0.17041500  0.82958500  1
  F  F12  1  0.50000000  0.82958500  0.50000000  1
  F  F13  1  0.17041500  0.50000000  0.82958500  1
  F  F14  1  0.50000000  0.17041500  0.50000000  1
  F  F15  1  0.82958500  0.50000000  0.17041500  1
  F  F16  1  0.50000000  0.50000000  0.82958500  1
  F  F17  1  0.50000000  0.50000000  0.17041500  1
  F  F18  1  0.17041500  0.82958500  0.50000000  1
  F  F19  1  0.82958500  0.17041500  0.50000000  1
  F  F20  1  0.11126500  0.11126500  0.11126500  1
  F  F21  1  0.88873500  0.88873500  0.88873500  1
  F  F22  1  0.11126500  0.11126500  0.66620500  1
  F  F23  1  0.11126500  0.66620500  0.11126500  1
  F  F24  1  0.88873500  0.88873500  0.33379500  1
  F  F25  1  0.88873500  0.33379500  0.88873500  1
  F  F26  1  0.66620500  0.11126500  0.11126500  1
  F  F27  1  0.33379500  0.88873500  0.88873500  1
