# generated using pymatgen
data_Nd4Re2O11
_symmetry_space_group_name_H-M   'P 1'
_cell_length_a   12.82314400
_cell_length_b   12.82314400
_cell_length_c   5.65973000
_cell_angle_alpha   90.00000000
_cell_angle_beta   90.00000000
_cell_angle_gamma   90.00000000
_symmetry_Int_Tables_number   1
_chemical_formula_structural   Nd4Re2O11
_chemical_formula_sum   'Nd16 Re8 O44'
_cell_volume   930.64650786
_cell_formula_units_Z   4
loop_
 _symmetry_equiv_pos_site_id
 _symmetry_equiv_pos_as_xyz
  1  'x, y, z'
loop_
 _atom_site_type_symbol
 _atom_site_label
 _atom_site_symmetry_multiplicity
 _atom_site_fract_x
 _atom_site_fract_y
 _atom_site_fract_z
 _atom_site_occupancy
  Nd  Nd0  1  0.86816700  0.93481000  0.75186500  1
  Nd  Nd1  1  0.43481000  0.63183300  0.25186500  1
  Nd  Nd2  1  0.56519000  0.36816700  0.25186500  1
  Nd  Nd3  1  0.13183300  0.06519000  0.75186500  1
  Nd  Nd4  1  0.63183300  0.56519000  0.74813500  1
  Nd  Nd5  1  0.06519000  0.86816700  0.24813500  1
  Nd  Nd6  1  0.93481000  0.13183300  0.24813500  1
  Nd  Nd7  1  0.36816700  0.43481000  0.74813500  1
  Nd  Nd8  1  0.05650700  0.36133600  0.67999000  1
  Nd  Nd9  1  0.86133600  0.44349300  0.17999000  1
  Nd  Nd10  1  0.13866400  0.55650700  0.17999000  1
  Nd  Nd11  1  0.94349300  0.63866400  0.67999000  1
  Nd  Nd12  1  0.44349300  0.13866400  0.82001000  1
  Nd  Nd13  1  0.63866400  0.05650700  0.32001000  1
  Nd  Nd14  1  0.36133600  0.94349300  0.32001000  1
  Nd  Nd15  1  0.55650700  0.86133600  0.82001000  1
  Re  Re16  1  0.66373200  0.77390100  0.31928300  1
  Re  Re17  1  0.27390100  0.83626800  0.81928300  1
  Re  Re18  1  0.72609900  0.16373200  0.81928300  1
  Re  Re19  1  0.33626800  0.22609900  0.31928300  1
  Re  Re20  1  0.83626800  0.72609900  0.18071700  1
  Re  Re21  1  0.22609900  0.66373200  0.68071700  1
  Re  Re22  1  0.77390100  0.33626800  0.68071700  1
  Re  Re23  1  0.16373200  0.27390100  0.18071700  1
  O  O24  1  0.50000000  0.50000000  0.00000000  1
  O  O25  1  0.00000000  0.00000000  0.50000000  1
  O  O26  1  0.50000000  0.50000000  0.50000000  1
  O  O27  1  0.00000000  0.00000000  0.00000000  1
  O  O28  1  0.59181900  0.70522000  0.05767700  1
  O  O29  1  0.20522000  0.90818100  0.55767700  1
  O  O30  1  0.79478000  0.09181900  0.55767700  1
  O  O31  1  0.40818100  0.29478000  0.05767700  1
  O  O32  1  0.90818100  0.79478000  0.44232300  1
  O  O33  1  0.29478000  0.59181900  0.94232300  1
  O  O34  1  0.70522000  0.40818100  0.94232300  1
  O  O35  1  0.09181900  0.20522000  0.44232300  1
  O  O36  1  0.05443500  0.39898800  0.26395300  1
  O  O37  1  0.89898800  0.44556500  0.76395300  1
  O  O38  1  0.10101200  0.55443500  0.76395300  1
  O  O39  1  0.94556500  0.60101200  0.26395300  1
  O  O40  1  0.62163900  0.20614200  0.03892300  1
  O  O41  1  0.44556500  0.10101200  0.23604700  1
  O  O42  1  0.39898800  0.94556500  0.73604700  1
  O  O43  1  0.55443500  0.89898800  0.23604700  1
  O  O44  1  0.87836100  0.29385800  0.46107700  1
  O  O45  1  0.79385800  0.62163900  0.96107700  1
  O  O46  1  0.20614200  0.37836100  0.96107700  1
  O  O47  1  0.12163900  0.70614200  0.46107700  1
  O  O48  1  0.94161500  0.78006000  0.95691500  1
  O  O49  1  0.28006000  0.55838500  0.45691500  1
  O  O50  1  0.71994000  0.44161500  0.45691500  1
  O  O51  1  0.05838500  0.21994000  0.95691500  1
  O  O52  1  0.55838500  0.71994000  0.54308500  1
  O  O53  1  0.21994000  0.94161500  0.04308500  1
  O  O54  1  0.78006000  0.05838500  0.04308500  1
  O  O55  1  0.44161500  0.28006000  0.54308500  1
  O  O56  1  0.15875500  0.75237900  0.94496500  1
  O  O57  1  0.25237900  0.34124500  0.44496500  1
  O  O58  1  0.74762100  0.65875500  0.44496500  1
  O  O59  1  0.84124500  0.24762100  0.94496500  1
  O  O60  1  0.34124500  0.74762100  0.55503500  1
  O  O61  1  0.24762100  0.15875500  0.05503500  1
  O  O62  1  0.75237900  0.84124500  0.05503500  1
  O  O63  1  0.65875500  0.25237900  0.55503500  1
  O  O64  1  0.37836100  0.79385800  0.03892300  1
  O  O65  1  0.29385800  0.12163900  0.53892300  1
  O  O66  1  0.70614200  0.87836100  0.53892300  1
  O  O67  1  0.60101200  0.05443500  0.73604700  1
