# generated using pymatgen
data_LaIn2Ni9
_symmetry_space_group_name_H-M   'P 1'
_cell_length_a   8.30629000
_cell_length_b   8.30629000
_cell_length_c   4.86107200
_cell_angle_alpha   90.00000000
_cell_angle_beta   90.00000000
_cell_angle_gamma   90.00000000
_symmetry_Int_Tables_number   1
_chemical_formula_structural   LaIn2Ni9
_chemical_formula_sum   'La2 In4 Ni18'
_cell_volume   335.38700638
_cell_formula_units_Z   2
loop_
 _symmetry_equiv_pos_site_id
 _symmetry_equiv_pos_as_xyz
  1  'x, y, z'
loop_
 _atom_site_type_symbol
 _atom_site_label
 _atom_site_symmetry_multiplicity
 _atom_site_fract_x
 _atom_site_fract_y
 _atom_site_fract_z
 _atom_site_occupancy
  La  La0  1  0.50000000  0.50000000  0.00000000  1
  La  La1  1  0.00000000  0.00000000  0.00000000  1
  In  In2  1  0.62331700  0.12331700  0.00000000  1
  In  In3  1  0.37668300  0.87668300  0.00000000  1
  In  In4  1  0.12331700  0.37668300  0.00000000  1
  In  In5  1  0.87668300  0.62331700  0.00000000  1
  Ni  Ni6  1  0.50000000  0.00000000  0.50000000  1
  Ni  Ni7  1  0.00000000  0.50000000  0.50000000  1
  Ni  Ni8  1  0.70931600  0.56537000  0.50000000  1
  Ni  Ni9  1  0.29068400  0.43463000  0.50000000  1
  Ni  Ni10  1  0.20931600  0.93463000  0.50000000  1
  Ni  Ni11  1  0.79068400  0.06537000  0.50000000  1
  Ni  Ni12  1  0.43463000  0.70931600  0.50000000  1
  Ni  Ni13  1  0.56537000  0.29068400  0.50000000  1
  Ni  Ni14  1  0.06537000  0.20931600  0.50000000  1
  Ni  Ni15  1  0.93463000  0.79068400  0.50000000  1
  Ni  Ni16  1  0.82371300  0.32371300  0.75054400  1
  Ni  Ni17  1  0.17628700  0.67628700  0.75054400  1
  Ni  Ni18  1  0.32371300  0.17628700  0.75054400  1
  Ni  Ni19  1  0.67628700  0.82371300  0.75054400  1
  Ni  Ni20  1  0.17628700  0.67628700  0.24945600  1
  Ni  Ni21  1  0.82371300  0.32371300  0.24945600  1
  Ni  Ni22  1  0.67628700  0.82371300  0.24945600  1
  Ni  Ni23  1  0.32371300  0.17628700  0.24945600  1
