# generated using pymatgen
data_CePuFe4
_symmetry_space_group_name_H-M   'P 1'
_cell_length_a   4.94176989
_cell_length_b   4.94176989
_cell_length_c   4.94176989
_cell_angle_alpha   60.00000000
_cell_angle_beta   60.00000000
_cell_angle_gamma   60.00000000
_symmetry_Int_Tables_number   1
_chemical_formula_structural   CePuFe4
_chemical_formula_sum   'Ce1 Pu1 Fe4'
_cell_volume   85.33605438
_cell_formula_units_Z   1
loop_
 _symmetry_equiv_pos_site_id
 _symmetry_equiv_pos_as_xyz
  1  'x, y, z'
loop_
 _atom_site_type_symbol
 _atom_site_label
 _atom_site_symmetry_multiplicity
 _atom_site_fract_x
 _atom_site_fract_y
 _atom_site_fract_z
 _atom_site_occupancy
  Ce  Ce0  1  0.25000000  0.25000000  0.25000000  1
  Pu  Pu1  1  0.00000000  0.00000000  0.00000000  1
  Fe  Fe2  1  0.62593600  0.62593600  0.12219100  1
  Fe  Fe3  1  0.62593600  0.12219100  0.62593600  1
  Fe  Fe4  1  0.12219100  0.62593600  0.62593600  1
  Fe  Fe5  1  0.62593600  0.62593600  0.62593600  1
