# generated using pymatgen
data_CsH2F3
_symmetry_space_group_name_H-M   'P 1'
_cell_length_a   7.50100200
_cell_length_b   9.29336700
_cell_length_c   11.60490100
_cell_angle_alpha   90.00000000
_cell_angle_beta   90.00000000
_cell_angle_gamma   90.00000000
_symmetry_Int_Tables_number   1
_chemical_formula_structural   CsH2F3
_chemical_formula_sum   'Cs8 H16 F24'
_cell_volume   808.97259424
_cell_formula_units_Z   8
loop_
 _symmetry_equiv_pos_site_id
 _symmetry_equiv_pos_as_xyz
  1  'x, y, z'
loop_
 _atom_site_type_symbol
 _atom_site_label
 _atom_site_symmetry_multiplicity
 _atom_site_fract_x
 _atom_site_fract_y
 _atom_site_fract_z
 _atom_site_occupancy
  Cs  Cs0  1  0.01533600  0.35718800  0.11026400  1
  Cs  Cs1  1  0.48466400  0.64281200  0.61026400  1
  Cs  Cs2  1  0.98466400  0.85718800  0.38973600  1
  Cs  Cs3  1  0.51533600  0.14281200  0.88973600  1
  Cs  Cs4  1  0.52687500  0.21517400  0.33807100  1
  Cs  Cs5  1  0.97312500  0.78482600  0.83807100  1
  Cs  Cs6  1  0.47312500  0.71517400  0.16192900  1
  Cs  Cs7  1  0.02687500  0.28482600  0.66192900  1
  H  H8  1  0.53671900  0.41269900  0.05898300  1
  H  H9  1  0.96328100  0.58730100  0.55898300  1
  H  H10  1  0.46328100  0.91269900  0.44101700  1
  H  H11  1  0.03671900  0.08730100  0.94101700  1
  H  H12  1  0.21574700  0.49083000  0.37362300  1
  H  H13  1  0.28425300  0.50917000  0.87362300  1
  H  H14  1  0.78425300  0.99083000  0.12637700  1
  H  H15  1  0.71574700  0.00917000  0.62637700  1
  H  H16  1  0.20637800  0.02306500  0.11899400  1
  H  H17  1  0.29362200  0.97693500  0.61899400  1
  H  H18  1  0.79362200  0.52306500  0.38100600  1
  H  H19  1  0.70637800  0.47693500  0.88100600  1
  H  H20  1  0.03311300  0.26140700  0.38764000  1
  H  H21  1  0.46688700  0.73859300  0.88764000  1
  H  H22  1  0.96688700  0.76140700  0.11236000  1
  H  H23  1  0.53311300  0.23859300  0.61236000  1
  F  F24  1  0.16196900  0.35369800  0.36485800  1
  F  F25  1  0.33803100  0.64630200  0.86485800  1
  F  F26  1  0.83803100  0.85369800  0.13514200  1
  F  F27  1  0.66196900  0.14630200  0.63514200  1
  F  F28  1  0.16894200  0.04497000  0.00606400  1
  F  F29  1  0.33105800  0.95503000  0.50606400  1
  F  F30  1  0.83105800  0.54497000  0.49393600  1
  F  F31  1  0.66894200  0.45503000  0.99393600  1
  F  F32  1  0.26578200  0.59365700  0.37505300  1
  F  F33  1  0.23421800  0.40634300  0.87505300  1
  F  F34  1  0.73421800  0.09365700  0.12494700  1
  F  F35  1  0.76578200  0.90634300  0.62494700  1
  F  F36  1  0.24345500  0.01038700  0.20305200  1
  F  F37  1  0.25654500  0.98961300  0.70305200  1
  F  F38  1  0.75654500  0.51038700  0.29694800  1
  F  F39  1  0.74345500  0.48961300  0.79694800  1
  F  F40  1  0.43623500  0.37936100  0.11440200  1
  F  F41  1  0.06376500  0.62063900  0.61440200  1
  F  F42  1  0.56376500  0.87936100  0.38559800  1
  F  F43  1  0.93623500  0.12063900  0.88559800  1
  F  F44  1  0.06483600  0.68595300  0.09606700  1
  F  F45  1  0.43516400  0.31404700  0.59606700  1
  F  F46  1  0.93516400  0.18595300  0.40393300  1
  F  F47  1  0.56483600  0.81404700  0.90393300  1
