# generated using pymatgen
data_NaMn4(AsO4)3
_symmetry_space_group_name_H-M   'P 1'
_cell_length_a   9.12152656
_cell_length_b   9.12152656
_cell_length_c   6.92305674
_cell_angle_alpha   72.86393085
_cell_angle_beta   72.86393085
_cell_angle_gamma   93.54221250
_symmetry_Int_Tables_number   1
_chemical_formula_structural   NaMn4(AsO4)3
_chemical_formula_sum   'Na2 Mn8 As6 O24'
_cell_volume   518.99699738
_cell_formula_units_Z   2
loop_
 _symmetry_equiv_pos_site_id
 _symmetry_equiv_pos_as_xyz
  1  'x, y, z'
loop_
 _atom_site_type_symbol
 _atom_site_label
 _atom_site_symmetry_multiplicity
 _atom_site_fract_x
 _atom_site_fract_y
 _atom_site_fract_z
 _atom_site_occupancy
  Na  Na0  1  0.51209400  0.48790600  0.25000000  1
  Na  Na1  1  0.48790600  0.51209400  0.75000000  1
  Mn  Mn2  1  0.23534500  0.76465500  0.25000000  1
  Mn  Mn3  1  0.76465500  0.23534500  0.75000000  1
  Mn  Mn4  1  0.56277200  0.87401700  0.36555600  1
  Mn  Mn5  1  0.43722800  0.12598300  0.63444400  1
  Mn  Mn6  1  0.12598300  0.43722800  0.13444400  1
  Mn  Mn7  1  0.87401700  0.56277200  0.86555600  1
  Mn  Mn8  1  0.00000000  0.00000000  0.00000000  1
  Mn  Mn9  1  0.00000000  0.00000000  0.50000000  1
  As  As10  1  0.79185400  0.20814600  0.25000000  1
  As  As11  1  0.20814600  0.79185400  0.75000000  1
  As  As12  1  0.37811200  0.15767700  0.13184000  1
  As  As13  1  0.62188800  0.84232300  0.86816000  1
  As  As14  1  0.84232300  0.62188800  0.36816000  1
  As  As15  1  0.15767700  0.37811200  0.63184000  1
  O  O16  1  0.78479200  0.02430700  0.22044900  1
  O  O17  1  0.21520800  0.97569300  0.77955100  1
  O  O18  1  0.97569300  0.21520800  0.27955100  1
  O  O19  1  0.02430700  0.78479200  0.72044900  1
  O  O20  1  0.45999800  0.09398300  0.32844900  1
  O  O21  1  0.54000200  0.90601700  0.67155100  1
  O  O22  1  0.90601700  0.54000200  0.17155100  1
  O  O23  1  0.09398300  0.45999800  0.82844900  1
  O  O24  1  0.65704300  0.65962700  0.39276000  1
  O  O25  1  0.34295700  0.34037300  0.60724000  1
  O  O26  1  0.34037300  0.34295700  0.10724000  1
  O  O27  1  0.65962700  0.65704300  0.89276000  1
  O  O28  1  0.20821300  0.02355300  0.20477400  1
  O  O29  1  0.79178700  0.97644700  0.79522600  1
  O  O30  1  0.97644700  0.79178700  0.29522600  1
  O  O31  1  0.02355300  0.20821300  0.70477400  1
  O  O32  1  0.49095700  0.83192900  0.11177300  1
  O  O33  1  0.50904300  0.16807100  0.88822700  1
  O  O34  1  0.16807100  0.50904300  0.38822700  1
  O  O35  1  0.83192900  0.49095700  0.61177300  1
  O  O36  1  0.67701100  0.24189000  0.47296500  1
  O  O37  1  0.32298900  0.75811000  0.52703500  1
  O  O38  1  0.75811000  0.32298900  0.02703500  1
  O  O39  1  0.24189000  0.67701100  0.97296500  1
