# generated using pymatgen
data_VPb2Se2ClO8
_symmetry_space_group_name_H-M   'P 1'
_cell_length_a   5.38596700
_cell_length_b   8.53157314
_cell_length_c   10.98828046
_cell_angle_alpha   112.20829400
_cell_angle_beta   90.00000000
_cell_angle_gamma   90.00000000
_symmetry_Int_Tables_number   1
_chemical_formula_structural   VPb2Se2ClO8
_chemical_formula_sum   'V2 Pb4 Se4 Cl2 O16'
_cell_volume   467.46292009
_cell_formula_units_Z   2
loop_
 _symmetry_equiv_pos_site_id
 _symmetry_equiv_pos_as_xyz
  1  'x, y, z'
loop_
 _atom_site_type_symbol
 _atom_site_label
 _atom_site_symmetry_multiplicity
 _atom_site_fract_x
 _atom_site_fract_y
 _atom_site_fract_z
 _atom_site_occupancy
  V  V0  1  0.96565300  0.34876200  0.94342400  1
  V  V1  1  0.46565300  0.65123800  0.05657600  1
  Pb  Pb2  1  0.43559300  0.17841800  0.18702600  1
  Pb  Pb3  1  0.93559300  0.82158200  0.81297400  1
  Pb  Pb4  1  0.98013700  0.29582700  0.50136500  1
  Pb  Pb5  1  0.48013700  0.70417300  0.49863500  1
  Se  Se6  1  0.47469400  0.12659400  0.80855400  1
  Se  Se7  1  0.97469400  0.87340600  0.19144600  1
  Se  Se8  1  0.98614400  0.49190800  0.27438500  1
  Se  Se9  1  0.48614400  0.50809200  0.72561500  1
  Cl  Cl10  1  0.49566800  0.12425100  0.44660800  1
  Cl  Cl11  1  0.99566800  0.87574900  0.55339200  1
  O  O12  1  0.70263600  0.17790700  0.93637800  1
  O  O13  1  0.20263600  0.82209300  0.06362200  1
  O  O14  1  0.20614600  0.13211200  0.89809500  1
  O  O15  1  0.70614600  0.86788800  0.10190500  1
  O  O16  1  0.52356700  0.91262300  0.74185700  1
  O  O17  1  0.02356700  0.08737700  0.25814300  1
  O  O18  1  0.20685000  0.44195200  0.37232700  1
  O  O19  1  0.70685000  0.55804800  0.62767300  1
  O  O20  1  0.72497700  0.42300100  0.33147600  1
  O  O21  1  0.22497700  0.57699900  0.66852400  1
  O  O22  1  0.05833700  0.32698800  0.12792300  1
  O  O23  1  0.55833700  0.67301200  0.87207700  1
  O  O24  1  0.77625100  0.52433800  0.03192900  1
  O  O25  1  0.27625100  0.47566200  0.96807100  1
  O  O26  1  0.92685800  0.32716200  0.78764900  1
  O  O27  1  0.42685800  0.67283800  0.21235100  1
