# generated using pymatgen
data_AgBi(IO3)4
_symmetry_space_group_name_H-M   'P 1'
_cell_length_a   16.32565408
_cell_length_b   16.32565408
_cell_length_c   12.88148210
_cell_angle_alpha   89.39971611
_cell_angle_beta   89.39971611
_cell_angle_gamma   20.06705739
_symmetry_Int_Tables_number   1
_chemical_formula_structural   AgBi(IO3)4
_chemical_formula_sum   'Ag4 Bi4 I16 O48'
_cell_volume   1177.95333104
_cell_formula_units_Z   4
loop_
 _symmetry_equiv_pos_site_id
 _symmetry_equiv_pos_as_xyz
  1  'x, y, z'
loop_
 _atom_site_type_symbol
 _atom_site_label
 _atom_site_symmetry_multiplicity
 _atom_site_fract_x
 _atom_site_fract_y
 _atom_site_fract_z
 _atom_site_occupancy
  Ag  Ag0  1  0.57316900  0.15301500  0.28351900  1
  Ag  Ag1  1  0.15301500  0.57316900  0.78351900  1
  Ag  Ag2  1  0.70116800  0.17061900  0.87074300  1
  Ag  Ag3  1  0.17061900  0.70116800  0.37074300  1
  Bi  Bi4  1  0.76495300  0.19523600  0.16467100  1
  Bi  Bi5  1  0.19523600  0.76495300  0.66467100  1
  Bi  Bi6  1  0.95655500  0.58940200  0.16574800  1
  Bi  Bi7  1  0.58940200  0.95655500  0.66574800  1
  I  I8  1  0.31744000  0.79389100  0.25790400  1
  I  I9  1  0.79389100  0.31744000  0.75790400  1
  I  I10  1  0.91037400  0.27917700  0.02641000  1
  I  I11  1  0.27917700  0.91037400  0.52641000  1
  I  I12  1  0.29919100  0.69721600  0.95658600  1
  I  I13  1  0.69721600  0.29919100  0.45658600  1
  I  I14  1  0.14934500  0.63789700  0.12469700  1
  I  I15  1  0.63789700  0.14934500  0.62469700  1
  I  I16  1  0.63521500  0.03543400  0.96305200  1
  I  I17  1  0.03543400  0.63521500  0.46305200  1
  I  I18  1  0.42865500  0.96280900  0.06760500  1
  I  I19  1  0.96280900  0.42865500  0.56760500  1
  I  I20  1  0.83422300  0.47927200  0.29813400  1
  I  I21  1  0.47927200  0.83422300  0.79813400  1
  I  I22  1  0.45325400  0.05565600  0.37124200  1
  I  I23  1  0.05565600  0.45325400  0.87124200  1
  O  O24  1  0.07560200  0.94598200  0.28815800  1
  O  O25  1  0.94598200  0.07560200  0.78815800  1
  O  O26  1  0.50343800  0.60009600  0.37312300  1
  O  O27  1  0.60009600  0.50343800  0.87312300  1
  O  O28  1  0.48365200  0.57604000  0.16203300  1
  O  O29  1  0.57604000  0.48365200  0.66203300  1
  O  O30  1  0.98809200  0.10614700  0.08735100  1
  O  O31  1  0.10614700  0.98809200  0.58735100  1
  O  O32  1  0.10927600  0.15453400  0.10600100  1
  O  O33  1  0.15453400  0.10927600  0.60600100  1
  O  O34  1  0.08489800  0.10624700  0.90705500  1
  O  O35  1  0.10624700  0.08489800  0.40705500  1
  O  O36  1  0.06630700  0.85969000  0.03192400  1
  O  O37  1  0.85969000  0.06630700  0.53192400  1
  O  O38  1  0.56418400  0.39039000  0.00109100  1
  O  O39  1  0.39039000  0.56418400  0.50109100  1
  O  O40  1  0.29253500  0.64028500  0.83970100  1
  O  O41  1  0.64028500  0.29253500  0.33970100  1
  O  O42  1  0.94036200  0.89168000  0.21079500  1
  O  O43  1  0.89168000  0.94036200  0.71079500  1
  O  O44  1  0.42427300  0.41953800  0.18468700  1
  O  O45  1  0.41953800  0.42427300  0.68468700  1
  O  O46  1  0.17321600  0.51803100  0.20043300  1
  O  O47  1  0.51803100  0.17321600  0.70043300  1
  O  O48  1  0.73124100  0.93084000  0.09961500  1
  O  O49  1  0.93084000  0.73124100  0.59961500  1
  O  O50  1  0.42327200  0.31934100  0.97248000  1
  O  O51  1  0.31934100  0.42327200  0.47248000  1
  O  O52  1  0.88485800  0.86468800  0.91714300  1
  O  O53  1  0.86468800  0.88485800  0.41714300  1
  O  O54  1  0.67622800  0.80356500  0.03970900  1
  O  O55  1  0.80356500  0.67622800  0.53970900  1
  O  O56  1  0.25960300  0.14158700  0.94754200  1
  O  O57  1  0.14158700  0.25960300  0.44754200  1
  O  O58  1  0.25966100  0.18346900  0.16054000  1
  O  O59  1  0.18346900  0.25966100  0.66054000  1
  O  O60  1  0.75614600  0.65431600  0.24205300  1
  O  O61  1  0.65431600  0.75614600  0.74205300  1
  O  O62  1  0.63579500  0.60541100  0.21549800  1
  O  O63  1  0.60541100  0.63579500  0.71549800  1
  O  O64  1  0.65912700  0.64888500  0.41732500  1
  O  O65  1  0.64888500  0.65912700  0.91732500  1
  O  O66  1  0.69787700  0.88177800  0.30081700  1
  O  O67  1  0.88177800  0.69787700  0.80081700  1
  O  O68  1  0.20754900  0.34557600  0.31641900  1
  O  O69  1  0.34557600  0.20754900  0.81641900  1
  O  O70  1  0.46269500  0.10906600  0.48930700  1
  O  O71  1  0.10906600  0.46269500  0.98930700  1
