# generated using pymatgen
data_Sr2As2O7
_symmetry_space_group_name_H-M   'P 1'
_cell_length_a   7.24885800
_cell_length_b   7.24885800
_cell_length_c   26.11948700
_cell_angle_alpha   90.00000000
_cell_angle_beta   90.00000000
_cell_angle_gamma   90.00000000
_symmetry_Int_Tables_number   1
_chemical_formula_structural   Sr2As2O7
_chemical_formula_sum   'Sr16 As16 O56'
_cell_volume   1372.47305692
_cell_formula_units_Z   8
loop_
 _symmetry_equiv_pos_site_id
 _symmetry_equiv_pos_as_xyz
  1  'x, y, z'
loop_
 _atom_site_type_symbol
 _atom_site_label
 _atom_site_symmetry_multiplicity
 _atom_site_fract_x
 _atom_site_fract_y
 _atom_site_fract_z
 _atom_site_occupancy
  Sr  Sr0  1  0.22735600  0.73298700  0.67667500  1
  Sr  Sr1  1  0.77264400  0.26701300  0.17667500  1
  Sr  Sr2  1  0.73298700  0.77264400  0.92667500  1
  Sr  Sr3  1  0.26701300  0.22735600  0.42667500  1
  Sr  Sr4  1  0.34645800  0.97334400  0.82317800  1
  Sr  Sr5  1  0.65354200  0.02665600  0.32317800  1
  Sr  Sr6  1  0.97334400  0.65354200  0.07317800  1
  Sr  Sr7  1  0.02665600  0.34645800  0.57317800  1
  Sr  Sr8  1  0.39560300  0.84646000  0.17893600  1
  Sr  Sr9  1  0.60439700  0.15354000  0.67893600  1
  Sr  Sr10  1  0.84646000  0.60439700  0.42893600  1
  Sr  Sr11  1  0.15354000  0.39560300  0.92893600  1
  Sr  Sr12  1  0.25807000  0.62340000  0.31437400  1
  Sr  Sr13  1  0.74193000  0.37660000  0.81437400  1
  Sr  Sr14  1  0.62340000  0.74193000  0.56437400  1
  Sr  Sr15  1  0.37660000  0.25807000  0.06437400  1
  As  As16  1  0.23377700  0.85429600  0.94669400  1
  As  As17  1  0.76622300  0.14570400  0.44669400  1
  As  As18  1  0.85429600  0.76622300  0.19669400  1
  As  As19  1  0.14570400  0.23377700  0.69669400  1
  As  As20  1  0.48206300  0.77853000  0.04884400  1
  As  As21  1  0.51793700  0.22147000  0.54884400  1
  As  As22  1  0.77853000  0.51793700  0.29884400  1
  As  As23  1  0.22147000  0.48206300  0.79884400  1
  As  As24  1  0.10514700  0.81269300  0.54145800  1
  As  As25  1  0.89485300  0.18730700  0.04145800  1
  As  As26  1  0.81269300  0.89485300  0.79145800  1
  As  As27  1  0.18730700  0.10514700  0.29145800  1
  As  As28  1  0.35513700  0.75023100  0.43997000  1
  As  As29  1  0.64486300  0.24976900  0.93997000  1
  As  As30  1  0.75023100  0.64486300  0.68997000  1
  As  As31  1  0.24976900  0.35513700  0.18997000  1
  O  O32  1  0.32963300  0.54274700  0.22154500  1
  O  O33  1  0.67036700  0.45725300  0.72154500  1
  O  O34  1  0.54274700  0.67036700  0.47154500  1
  O  O35  1  0.45725300  0.32963300  0.97154500  1
  O  O36  1  0.38859100  0.90799100  0.39251700  1
  O  O37  1  0.61140900  0.09200900  0.89251700  1
  O  O38  1  0.90799100  0.61140900  0.64251700  1
  O  O39  1  0.09200900  0.38859100  0.14251700  1
  O  O40  1  0.21528000  0.57924600  0.41677700  1
  O  O41  1  0.78472000  0.42075400  0.91677700  1
  O  O42  1  0.57924600  0.78472000  0.66677700  1
  O  O43  1  0.42075400  0.21528000  0.16677700  1
  O  O44  1  0.22517100  0.89260900  0.48412600  1
  O  O45  1  0.77482900  0.10739100  0.98412600  1
  O  O46  1  0.89260900  0.77482900  0.73412600  1
  O  O47  1  0.10739100  0.22517100  0.23412600  1
  O  O48  1  0.26336500  0.70040500  0.57845900  1
  O  O49  1  0.73663500  0.29959500  0.07845900  1
  O  O50  1  0.70040500  0.73663500  0.82845900  1
  O  O51  1  0.29959500  0.26336500  0.32845900  1
  O  O52  1  0.36757600  0.92480100  0.00165200  1
  O  O53  1  0.63242400  0.07519900  0.50165200  1
  O  O54  1  0.92480100  0.63242400  0.25165200  1
  O  O55  1  0.07519900  0.36757600  0.75165200  1
  O  O56  1  0.37825400  0.72699800  0.90876000  1
  O  O57  1  0.62174600  0.27300200  0.40876000  1
  O  O58  1  0.72699800  0.62174600  0.15876000  1
  O  O59  1  0.27300200  0.37825400  0.65876000  1
  O  O60  1  0.34422700  0.94308000  0.27117600  1
  O  O61  1  0.65577300  0.05692000  0.77117600  1
  O  O62  1  0.94308000  0.65577300  0.52117600  1
  O  O63  1  0.05692000  0.34422700  0.02117600  1
  O  O64  1  0.30242700  0.67559300  0.77042500  1
  O  O65  1  0.69757300  0.32440700  0.27042500  1
  O  O66  1  0.67559300  0.69757300  0.02042500  1
  O  O67  1  0.32440700  0.30242700  0.52042500  1
  O  O68  1  0.05366100  0.51441100  0.84335400  1
  O  O69  1  0.94633900  0.48558900  0.34335400  1
  O  O70  1  0.51441100  0.94633900  0.09335400  1
  O  O71  1  0.48558900  0.05366100  0.59335400  1
  O  O72  1  0.00152100  0.99966300  0.56621800  1
  O  O73  1  0.99847900  0.00033700  0.06621800  1
  O  O74  1  0.99966300  0.99847900  0.81621800  1
  O  O75  1  0.00033700  0.00152100  0.31621800  1
  O  O76  1  0.33242200  0.61578800  0.07113100  1
  O  O77  1  0.66757800  0.38421200  0.57113100  1
  O  O78  1  0.61578800  0.66757800  0.32113100  1
  O  O79  1  0.38421200  0.33242200  0.82113100  1
  O  O80  1  0.05604900  0.71743500  0.96732200  1
  O  O81  1  0.94395100  0.28256500  0.46732200  1
  O  O82  1  0.71743500  0.94395100  0.21732200  1
  O  O83  1  0.28256500  0.05604900  0.71732200  1
  O  O84  1  0.05219400  0.83125800  0.16778100  1
  O  O85  1  0.94780600  0.16874200  0.66778100  1
  O  O86  1  0.83125800  0.94780600  0.41778100  1
  O  O87  1  0.16874200  0.05219400  0.91778100  1
