# generated using pymatgen
data_Yb2Mn12P7
_symmetry_space_group_name_H-M   'P 1'
_cell_length_a   9.37797338
_cell_length_b   9.37797338
_cell_length_c   3.51148300
_cell_angle_alpha   90.00000000
_cell_angle_beta   90.00000000
_cell_angle_gamma   119.99999560
_symmetry_Int_Tables_number   1
_chemical_formula_structural   Yb2Mn12P7
_chemical_formula_sum   'Yb2 Mn12 P7'
_cell_volume   267.44791228
_cell_formula_units_Z   1
loop_
 _symmetry_equiv_pos_site_id
 _symmetry_equiv_pos_as_xyz
  1  'x, y, z'
loop_
 _atom_site_type_symbol
 _atom_site_label
 _atom_site_symmetry_multiplicity
 _atom_site_fract_x
 _atom_site_fract_y
 _atom_site_fract_z
 _atom_site_occupancy
  Yb  Yb0  1  0.33333300  0.66666700  0.00000000  1
  Yb  Yb1  1  0.66666700  0.33333300  0.50000000  1
  Mn  Mn2  1  0.62235400  0.57102400  0.00000000  1
  Mn  Mn3  1  0.94867000  0.37764600  0.00000000  1
  Mn  Mn4  1  0.42897600  0.05133000  0.00000000  1
  Mn  Mn5  1  0.11943100  0.84291700  0.00000000  1
  Mn  Mn6  1  0.72348600  0.88056900  0.00000000  1
  Mn  Mn7  1  0.15708300  0.27651400  0.00000000  1
  Mn  Mn8  1  0.04901100  0.61581100  0.50000000  1
  Mn  Mn9  1  0.56680000  0.95098900  0.50000000  1
  Mn  Mn10  1  0.38418900  0.43320000  0.50000000  1
  Mn  Mn11  1  0.86984700  0.77118400  0.50000000  1
  Mn  Mn12  1  0.90133700  0.13015300  0.50000000  1
  Mn  Mn13  1  0.22881600  0.09866300  0.50000000  1
  P  P14  1  0.87828100  0.58881100  0.00000000  1
  P  P15  1  0.71053000  0.12171900  0.00000000  1
  P  P16  1  0.41118900  0.28947000  0.00000000  1
  P  P17  1  0.29073800  0.87521200  0.50000000  1
  P  P18  1  0.58447400  0.70926200  0.50000000  1
  P  P19  1  0.12478800  0.41552600  0.50000000  1
  P  P20  1  0.00000000  0.00000000  0.00000000  1
