# generated using pymatgen
data_CrB
_symmetry_space_group_name_H-M   'P 1'
_cell_length_a   8.10668601
_cell_length_b   8.10668601
_cell_length_c   8.10668601
_cell_angle_alpha   159.29480230
_cell_angle_beta   159.29480230
_cell_angle_gamma   29.44547390
_symmetry_Int_Tables_number   1
_chemical_formula_structural   CrB
_chemical_formula_sum   'Cr4 B4'
_cell_volume   66.56004577
_cell_formula_units_Z   4
loop_
 _symmetry_equiv_pos_site_id
 _symmetry_equiv_pos_as_xyz
  1  'x, y, z'
loop_
 _atom_site_type_symbol
 _atom_site_label
 _atom_site_symmetry_multiplicity
 _atom_site_fract_x
 _atom_site_fract_y
 _atom_site_fract_z
 _atom_site_occupancy
  Cr  Cr0  1  0.19759500  0.19759500  0.00000000  1
  Cr  Cr1  1  0.94759500  0.44759500  0.50000000  1
  Cr  Cr2  1  0.55240500  0.05240500  0.50000000  1
  Cr  Cr3  1  0.80240500  0.80240500  0.00000000  1
  B  B4  1  0.34269000  0.34269000  0.00000000  1
  B  B5  1  0.09269000  0.59269000  0.50000000  1
  B  B6  1  0.40731000  0.90731000  0.50000000  1
  B  B7  1  0.65731000  0.65731000  0.00000000  1
