# generated using pymatgen
data_Na8Zr6BBr20
_symmetry_space_group_name_H-M   'P 1'
_cell_length_a   11.23795898
_cell_length_b   11.23795898
_cell_length_c   11.23795898
_cell_angle_alpha   60.00000000
_cell_angle_beta   60.00000000
_cell_angle_gamma   60.00000000
_symmetry_Int_Tables_number   1
_chemical_formula_structural   Na8Zr6BBr20
_chemical_formula_sum   'Na8 Zr6 B1 Br20'
_cell_volume   1003.56921241
_cell_formula_units_Z   1
loop_
 _symmetry_equiv_pos_site_id
 _symmetry_equiv_pos_as_xyz
  1  'x, y, z'
loop_
 _atom_site_type_symbol
 _atom_site_label
 _atom_site_symmetry_multiplicity
 _atom_site_fract_x
 _atom_site_fract_y
 _atom_site_fract_z
 _atom_site_occupancy
  Na  Na0  1  0.36044700  0.36044700  0.36044700  1
  Na  Na1  1  0.63955300  0.63955300  0.63955300  1
  Na  Na2  1  0.36044700  0.36044700  0.91865900  1
  Na  Na3  1  0.36044700  0.91865900  0.36044700  1
  Na  Na4  1  0.63955300  0.63955300  0.08134100  1
  Na  Na5  1  0.63955300  0.08134100  0.63955300  1
  Na  Na6  1  0.91865900  0.36044700  0.36044700  1
  Na  Na7  1  0.08134100  0.63955300  0.63955300  1
  Zr  Zr8  1  0.85404500  0.14595500  0.14595500  1
  Zr  Zr9  1  0.14595500  0.85404500  0.85404500  1
  Zr  Zr10  1  0.14595500  0.85404500  0.14595500  1
  Zr  Zr11  1  0.85404500  0.14595500  0.85404500  1
  Zr  Zr12  1  0.14595500  0.14595500  0.85404500  1
  Zr  Zr13  1  0.85404500  0.85404500  0.14595500  1
  B  B14  1  0.00000000  0.00000000  0.00000000  1
  Br  Br15  1  0.34001300  0.00000000  0.00000000  1
  Br  Br16  1  0.65998700  0.00000000  0.00000000  1
  Br  Br17  1  0.00000000  0.34001300  0.65998700  1
  Br  Br18  1  0.00000000  0.65998700  0.34001300  1
  Br  Br19  1  0.00000000  0.34001300  0.00000000  1
  Br  Br20  1  0.65998700  0.00000000  0.34001300  1
  Br  Br21  1  0.00000000  0.65998700  0.00000000  1
  Br  Br22  1  0.34001300  0.00000000  0.65998700  1
  Br  Br23  1  0.00000000  0.00000000  0.34001300  1
  Br  Br24  1  0.00000000  0.00000000  0.65998700  1
  Br  Br25  1  0.65998700  0.34001300  0.00000000  1
  Br  Br26  1  0.34001300  0.65998700  0.00000000  1
  Br  Br27  1  0.67278900  0.32721100  0.32721100  1
  Br  Br28  1  0.32721100  0.67278900  0.67278900  1
  Br  Br29  1  0.32721100  0.67278900  0.32721100  1
  Br  Br30  1  0.67278900  0.32721100  0.67278900  1
  Br  Br31  1  0.32721100  0.32721100  0.67278900  1
  Br  Br32  1  0.67278900  0.67278900  0.32721100  1
  Br  Br33  1  0.25000000  0.25000000  0.25000000  1
  Br  Br34  1  0.75000000  0.75000000  0.75000000  1
