# generated using pymatgen
data_TmAu2F9
_symmetry_space_group_name_H-M   'P 1'
_cell_length_a   9.18500700
_cell_length_b   11.21885300
_cell_length_c   21.87257400
_cell_angle_alpha   90.00000000
_cell_angle_beta   90.00000000
_cell_angle_gamma   90.00000000
_symmetry_Int_Tables_number   1
_chemical_formula_structural   TmAu2F9
_chemical_formula_sum   'Tm12 Au24 F108'
_cell_volume   2253.86471024
_cell_formula_units_Z   12
loop_
 _symmetry_equiv_pos_site_id
 _symmetry_equiv_pos_as_xyz
  1  'x, y, z'
loop_
 _atom_site_type_symbol
 _atom_site_label
 _atom_site_symmetry_multiplicity
 _atom_site_fract_x
 _atom_site_fract_y
 _atom_site_fract_z
 _atom_site_occupancy
  Tm  Tm0  1  0.82282000  0.50000000  0.25000000  1
  Tm  Tm1  1  0.67718000  0.00000000  0.75000000  1
  Tm  Tm2  1  0.17718000  0.50000000  0.75000000  1
  Tm  Tm3  1  0.32282000  0.00000000  0.25000000  1
  Tm  Tm4  1  0.03921500  0.59320300  0.41637800  1
  Tm  Tm5  1  0.03921500  0.40679700  0.08362200  1
  Tm  Tm6  1  0.46078500  0.09320300  0.58362200  1
  Tm  Tm7  1  0.46078500  0.90679700  0.91637800  1
  Tm  Tm8  1  0.96078500  0.40679700  0.58362200  1
  Tm  Tm9  1  0.96078500  0.59320300  0.91637800  1
  Tm  Tm10  1  0.53921500  0.90679700  0.41637800  1
  Tm  Tm11  1  0.53921500  0.09320300  0.08362200  1
  Au  Au12  1  0.65976600  0.39049900  0.99097600  1
  Au  Au13  1  0.65976600  0.60950100  0.50902400  1
  Au  Au14  1  0.84023400  0.89049900  0.00902400  1
  Au  Au15  1  0.84023400  0.10950100  0.49097600  1
  Au  Au16  1  0.34023400  0.60950100  0.00902400  1
  Au  Au17  1  0.34023400  0.39049900  0.49097600  1
  Au  Au18  1  0.15976600  0.10950100  0.99097600  1
  Au  Au19  1  0.15976600  0.89049900  0.50902400  1
  Au  Au20  1  0.93237200  0.07471200  0.16480800  1
  Au  Au21  1  0.93237200  0.92528800  0.33519200  1
  Au  Au22  1  0.56762800  0.57471200  0.83519200  1
  Au  Au23  1  0.56762800  0.42528800  0.66480800  1
  Au  Au24  1  0.06762800  0.92528800  0.83519200  1
  Au  Au25  1  0.06762800  0.07471200  0.66480800  1
  Au  Au26  1  0.43237200  0.42528800  0.16480800  1
  Au  Au27  1  0.43237200  0.57471200  0.33519200  1
  Au  Au28  1  0.63850600  0.21406500  0.32849700  1
  Au  Au29  1  0.63850600  0.78593500  0.17150300  1
  Au  Au30  1  0.86149400  0.71406500  0.67150300  1
  Au  Au31  1  0.86149400  0.28593500  0.82849700  1
  Au  Au32  1  0.36149400  0.78593500  0.67150300  1
  Au  Au33  1  0.36149400  0.21406500  0.82849700  1
  Au  Au34  1  0.13850600  0.28593500  0.32849700  1
  Au  Au35  1  0.13850600  0.71406500  0.17150300  1
  F  F36  1  0.00000000  0.50000000  0.00000000  1
  F  F37  1  0.00000000  0.50000000  0.50000000  1
  F  F38  1  0.50000000  0.00000000  0.00000000  1
  F  F39  1  0.50000000  0.00000000  0.50000000  1
  F  F40  1  0.13453500  0.97672500  0.32140300  1
  F  F41  1  0.13453500  0.02327500  0.17859700  1
  F  F42  1  0.36546500  0.47672500  0.67859700  1
  F  F43  1  0.36546500  0.52327500  0.82140300  1
  F  F44  1  0.86546500  0.02327500  0.67859700  1
  F  F45  1  0.86546500  0.97672500  0.82140300  1
  F  F46  1  0.63453500  0.52327500  0.32140300  1
  F  F47  1  0.63453500  0.47672500  0.17859700  1
  F  F48  1  0.20140400  0.82150100  0.23828000  1
  F  F49  1  0.20140400  0.17849900  0.26172000  1
  F  F50  1  0.29859600  0.32150100  0.76172000  1
  F  F51  1  0.29859600  0.67849900  0.73828000  1
  F  F52  1  0.79859600  0.17849900  0.76172000  1
  F  F53  1  0.79859600  0.82150100  0.73828000  1
  F  F54  1  0.70140400  0.67849900  0.23828000  1
  F  F55  1  0.70140400  0.32150100  0.26172000  1
  F  F56  1  0.76612700  0.04783900  0.03535100  1
  F  F57  1  0.76612700  0.95216100  0.46464900  1
  F  F58  1  0.73387300  0.54783900  0.96464900  1
  F  F59  1  0.73387300  0.45216100  0.53535100  1
  F  F60  1  0.23387300  0.95216100  0.96464900  1
  F  F61  1  0.23387300  0.04783900  0.53535100  1
  F  F62  1  0.26612700  0.45216100  0.03535100  1
  F  F63  1  0.26612700  0.54783900  0.46464900  1
  F  F64  1  0.58834800  0.10365000  0.39609100  1
  F  F65  1  0.58834800  0.89635000  0.10390900  1
  F  F66  1  0.91165200  0.60365000  0.60390900  1
  F  F67  1  0.91165200  0.39635000  0.89609100  1
  F  F68  1  0.41165200  0.89635000  0.60390900  1
  F  F69  1  0.41165200  0.10365000  0.89609100  1
  F  F70  1  0.08834800  0.39635000  0.39609100  1
  F  F71  1  0.08834800  0.60365000  0.10390900  1
  F  F72  1  0.49586100  0.14021800  0.27081800  1
  F  F73  1  0.49586100  0.85978200  0.22918200  1
  F  F74  1  0.00413900  0.64021800  0.72918200  1
  F  F75  1  0.00413900  0.35978200  0.77081800  1
  F  F76  1  0.50413900  0.85978200  0.72918200  1
  F  F77  1  0.50413900  0.14021800  0.77081800  1
  F  F78  1  0.99586100  0.35978200  0.27081800  1
  F  F79  1  0.99586100  0.64021800  0.22918200  1
  F  F80  1  0.19134600  0.63824700  0.94449900  1
  F  F81  1  0.19134600  0.36175300  0.55550100  1
  F  F82  1  0.30865400  0.13824700  0.05550100  1
  F  F83  1  0.30865400  0.86175300  0.44449900  1
  F  F84  1  0.80865400  0.36175300  0.05550100  1
  F  F85  1  0.80865400  0.63824700  0.44449900  1
  F  F86  1  0.69134600  0.86175300  0.94449900  1
  F  F87  1  0.69134600  0.13824700  0.55550100  1
  F  F88  1  0.41494300  0.05124600  0.16377100  1
  F  F89  1  0.41494300  0.94875400  0.33622900  1
  F  F90  1  0.08505700  0.55124600  0.83622900  1
  F  F91  1  0.08505700  0.44875400  0.66377100  1
  F  F92  1  0.58505700  0.94875400  0.83622900  1
  F  F93  1  0.58505700  0.05124600  0.66377100  1
  F  F94  1  0.91494300  0.44875400  0.16377100  1
  F  F95  1  0.91494300  0.55124600  0.33622900  1
  F  F96  1  0.27964900  0.78805600  0.11804000  1
  F  F97  1  0.27964900  0.21194400  0.38196000  1
  F  F98  1  0.22035100  0.28805600  0.88196000  1
  F  F99  1  0.22035100  0.71194400  0.61804000  1
  F  F100  1  0.72035100  0.21194400  0.88196000  1
  F  F101  1  0.72035100  0.78805600  0.61804000  1
  F  F102  1  0.77964900  0.71194400  0.11804000  1
  F  F103  1  0.77964900  0.28805600  0.38196000  1
  F  F104  1  0.99661500  0.91493900  0.06728200  1
  F  F105  1  0.99661500  0.08506100  0.43271800  1
  F  F106  1  0.50338500  0.41493900  0.93271800  1
  F  F107  1  0.50338500  0.58506100  0.56728200  1
  F  F108  1  0.00338500  0.08506100  0.93271800  1
  F  F109  1  0.00338500  0.91493900  0.56728200  1
  F  F110  1  0.49661500  0.58506100  0.06728200  1
  F  F111  1  0.49661500  0.41493900  0.43271800  1
  F  F112  1  0.86922900  0.92443500  0.20014000  1
  F  F113  1  0.86922900  0.07556500  0.29986000  1
  F  F114  1  0.63077100  0.42443500  0.79986000  1
  F  F115  1  0.63077100  0.57556500  0.70014000  1
  F  F116  1  0.13077100  0.07556500  0.79986000  1
  F  F117  1  0.13077100  0.92443500  0.70014000  1
  F  F118  1  0.36922900  0.57556500  0.20014000  1
  F  F119  1  0.36922900  0.42443500  0.29986000  1
  F  F120  1  0.00339500  0.22484600  0.12705400  1
  F  F121  1  0.00339500  0.77515400  0.37294600  1
  F  F122  1  0.49660500  0.72484600  0.87294600  1
  F  F123  1  0.49660500  0.27515400  0.62705400  1
  F  F124  1  0.99660500  0.77515400  0.87294600  1
  F  F125  1  0.99660500  0.22484600  0.62705400  1
  F  F126  1  0.50339500  0.27515400  0.12705400  1
  F  F127  1  0.50339500  0.72484600  0.37294600  1
  F  F128  1  0.72619100  0.12191500  0.15127600  1
  F  F129  1  0.72619100  0.87808500  0.34872400  1
  F  F130  1  0.77380900  0.62191500  0.84872400  1
  F  F131  1  0.77380900  0.37808500  0.65127600  1
  F  F132  1  0.27380900  0.87808500  0.84872400  1
  F  F133  1  0.27380900  0.12191500  0.65127600  1
  F  F134  1  0.22619100  0.37808500  0.15127600  1
  F  F135  1  0.22619100  0.62191500  0.34872400  1
  F  F136  1  0.92090700  0.73289900  0.98835300  1
  F  F137  1  0.92090700  0.26710100  0.51164700  1
  F  F138  1  0.57909300  0.23289900  0.01164700  1
  F  F139  1  0.57909300  0.76710100  0.48835300  1
  F  F140  1  0.07909300  0.26710100  0.01164700  1
  F  F141  1  0.07909300  0.73289900  0.48835300  1
  F  F142  1  0.42090700  0.76710100  0.98835300  1
  F  F143  1  0.42090700  0.23289900  0.51164700  1
