# generated using pymatgen
data_HoWC2
_symmetry_space_group_name_H-M   'P 1'
_cell_length_a   3.36581200
_cell_length_b   5.71565500
_cell_length_c   10.79081200
_cell_angle_alpha   90.00000000
_cell_angle_beta   90.00000000
_cell_angle_gamma   90.00000000
_symmetry_Int_Tables_number   1
_chemical_formula_structural   HoWC2
_chemical_formula_sum   'Ho4 W4 C8'
_cell_volume   207.59170093
_cell_formula_units_Z   4
loop_
 _symmetry_equiv_pos_site_id
 _symmetry_equiv_pos_as_xyz
  1  'x, y, z'
loop_
 _atom_site_type_symbol
 _atom_site_label
 _atom_site_symmetry_multiplicity
 _atom_site_fract_x
 _atom_site_fract_y
 _atom_site_fract_z
 _atom_site_occupancy
  Ho  Ho0  1  0.25000000  0.58533800  0.36343400  1
  Ho  Ho1  1  0.25000000  0.08533800  0.13656600  1
  Ho  Ho2  1  0.75000000  0.41466200  0.63656600  1
  Ho  Ho3  1  0.75000000  0.91466200  0.86343400  1
  W  W4  1  0.25000000  0.90267800  0.61056800  1
  W  W5  1  0.25000000  0.40267800  0.88943200  1
  W  W6  1  0.75000000  0.09732200  0.38943200  1
  W  W7  1  0.75000000  0.59732200  0.11056800  1
  C  C8  1  0.25000000  0.66040300  0.74726400  1
  C  C9  1  0.25000000  0.16040300  0.75273600  1
  C  C10  1  0.75000000  0.33959700  0.25273600  1
  C  C11  1  0.75000000  0.83959700  0.24726400  1
  C  C12  1  0.25000000  0.22497300  0.48540800  1
  C  C13  1  0.25000000  0.72497300  0.01459200  1
  C  C14  1  0.75000000  0.77502700  0.51459200  1
  C  C15  1  0.75000000  0.27502700  0.98540800  1
