# generated using pymatgen
data_Er2CrSbO7
_symmetry_space_group_name_H-M   'P 1'
_cell_length_a   7.23299080
_cell_length_b   7.23299080
_cell_length_c   7.23299080
_cell_angle_alpha   120.17257105
_cell_angle_beta   119.44569718
_cell_angle_gamma   90.33205457
_symmetry_Int_Tables_number   1
_chemical_formula_structural   Er2CrSbO7
_chemical_formula_sum   'Er4 Cr2 Sb2 O14'
_cell_volume   268.32445890
_cell_formula_units_Z   2
loop_
 _symmetry_equiv_pos_site_id
 _symmetry_equiv_pos_as_xyz
  1  'x, y, z'
loop_
 _atom_site_type_symbol
 _atom_site_label
 _atom_site_symmetry_multiplicity
 _atom_site_fract_x
 _atom_site_fract_y
 _atom_site_fract_z
 _atom_site_occupancy
  Er  Er0  1  0.50000000  0.00000000  0.00000000  1
  Er  Er1  1  0.50000000  0.50000000  0.50000000  1
  Er  Er2  1  0.50000000  0.00000000  0.50000000  1
  Er  Er3  1  0.00000000  0.00000000  0.00000000  1
  Cr  Cr4  1  0.00000000  0.50000000  0.00000000  1
  Cr  Cr5  1  0.00000000  0.00000000  0.50000000  1
  Sb  Sb6  1  0.00000000  0.50000000  0.50000000  1
  Sb  Sb7  1  0.50000000  0.50000000  0.00000000  1
  O  O8  1  0.62215100  0.87215100  0.75000000  1
  O  O9  1  0.37784900  0.12784900  0.25000000  1
  O  O10  1  0.90768300  0.15768300  0.75000000  1
  O  O11  1  0.33386400  0.58386400  0.75000000  1
  O  O12  1  0.91040500  0.58112600  0.74348400  1
  O  O13  1  0.33764200  0.16692100  0.75651600  1
  O  O14  1  0.91040500  0.16692100  0.32927900  1
  O  O15  1  0.33764200  0.58112600  0.17072100  1
  O  O16  1  0.09231700  0.84231700  0.25000000  1
  O  O17  1  0.66613600  0.41613600  0.25000000  1
  O  O18  1  0.08959500  0.41887400  0.25651600  1
  O  O19  1  0.66235800  0.83307900  0.24348400  1
  O  O20  1  0.08959500  0.83307900  0.67072100  1
  O  O21  1  0.66235800  0.41887400  0.82927900  1
