# generated using pymatgen
data_MgCoGe
_symmetry_space_group_name_H-M   'P 1'
_cell_length_a   3.89962400
_cell_length_b   3.89962400
_cell_length_c   6.16451200
_cell_angle_alpha   90.00000000
_cell_angle_beta   90.00000000
_cell_angle_gamma   90.00000000
_symmetry_Int_Tables_number   1
_chemical_formula_structural   MgCoGe
_chemical_formula_sum   'Mg2 Co2 Ge2'
_cell_volume   93.74414911
_cell_formula_units_Z   2
loop_
 _symmetry_equiv_pos_site_id
 _symmetry_equiv_pos_as_xyz
  1  'x, y, z'
loop_
 _atom_site_type_symbol
 _atom_site_label
 _atom_site_symmetry_multiplicity
 _atom_site_fract_x
 _atom_site_fract_y
 _atom_site_fract_z
 _atom_site_occupancy
  Mg  Mg0  1  0.00000000  0.50000000  0.32156000  1
  Mg  Mg1  1  0.50000000  0.00000000  0.67844000  1
  Co  Co2  1  0.00000000  0.00000000  0.00000000  1
  Co  Co3  1  0.50000000  0.50000000  0.00000000  1
  Ge  Ge4  1  0.00000000  0.50000000  0.77444500  1
  Ge  Ge5  1  0.50000000  0.00000000  0.22555500  1
