# generated using pymatgen
data_LaB3F12
_symmetry_space_group_name_H-M   'P 1'
_cell_length_a   11.17074306
_cell_length_b   11.17074306
_cell_length_c   11.34975000
_cell_angle_alpha   90.00000000
_cell_angle_beta   90.00000000
_cell_angle_gamma   119.99999444
_symmetry_Int_Tables_number   1
_chemical_formula_structural   LaB3F12
_chemical_formula_sum   'La6 B18 F72'
_cell_volume   1226.53819510
_cell_formula_units_Z   6
loop_
 _symmetry_equiv_pos_site_id
 _symmetry_equiv_pos_as_xyz
  1  'x, y, z'
loop_
 _atom_site_type_symbol
 _atom_site_label
 _atom_site_symmetry_multiplicity
 _atom_site_fract_x
 _atom_site_fract_y
 _atom_site_fract_z
 _atom_site_occupancy
  La  La0  1  0.67726100  0.01061400  0.25016000  1
  La  La1  1  0.33335300  0.32273900  0.25016000  1
  La  La2  1  0.98938600  0.66664700  0.25016000  1
  La  La3  1  0.33335300  0.01061400  0.75016000  1
  La  La4  1  0.67726100  0.66664700  0.75016000  1
  La  La5  1  0.98938600  0.32273900  0.75016000  1
  B  B6  1  0.37797500  0.02847800  0.40709500  1
  B  B7  1  0.65050300  0.62202500  0.40709500  1
  B  B8  1  0.97152200  0.34949700  0.40709500  1
  B  B9  1  0.65050300  0.02847800  0.90709500  1
  B  B10  1  0.37797500  0.34949700  0.90709500  1
  B  B11  1  0.97152200  0.62202500  0.90709500  1
  B  B12  1  0.28884400  0.30522100  0.59306700  1
  B  B13  1  0.01637700  0.71115600  0.59306700  1
  B  B14  1  0.69477900  0.98362300  0.59306700  1
  B  B15  1  0.01637700  0.30522100  0.09306700  1
  B  B16  1  0.28884400  0.98362300  0.09306700  1
  B  B17  1  0.69477900  0.71115600  0.09306700  1
  B  B18  1  0.33333300  0.66666700  0.80033800  1
  B  B19  1  0.33333300  0.66666700  0.30033800  1
  B  B20  1  0.00000000  0.00000000  0.35252700  1
  B  B21  1  0.00000000  0.00000000  0.85252700  1
  B  B22  1  0.66666700  0.33333300  0.64750000  1
  B  B23  1  0.66666700  0.33333300  0.14750000  1
  F  F24  1  0.68833400  0.97742300  0.46713900  1
  F  F25  1  0.28908900  0.31166600  0.46713900  1
  F  F26  1  0.02257700  0.71091100  0.46713900  1
  F  F27  1  0.28908900  0.97742300  0.96713900  1
  F  F28  1  0.68833400  0.71091100  0.96713900  1
  F  F29  1  0.02257700  0.31166600  0.96713900  1
  F  F30  1  0.97829700  0.35583400  0.53294800  1
  F  F31  1  0.37753700  0.02170300  0.53294800  1
  F  F32  1  0.64416600  0.62246300  0.53294800  1
  F  F33  1  0.37753700  0.35583400  0.03294800  1
  F  F34  1  0.97829700  0.62246300  0.03294800  1
  F  F35  1  0.64416600  0.02170300  0.03294800  1
  F  F36  1  0.84656400  0.23040300  0.37156900  1
  F  F37  1  0.38383900  0.15343600  0.37156900  1
  F  F38  1  0.76959700  0.61616100  0.37156900  1
  F  F39  1  0.38383900  0.23040300  0.87156900  1
  F  F40  1  0.84656400  0.61616100  0.87156900  1
  F  F41  1  0.76959700  0.15343600  0.87156900  1
  F  F42  1  0.81991900  0.10269000  0.62848500  1
  F  F43  1  0.28277100  0.18008100  0.62848500  1
  F  F44  1  0.89731000  0.71722900  0.62848500  1
  F  F45  1  0.28277100  0.10269000  0.12848500  1
  F  F46  1  0.81991900  0.71722900  0.12848500  1
  F  F47  1  0.89731000  0.18008100  0.12848500  1
  F  F48  1  0.45351600  0.78679800  0.25363600  1
  F  F49  1  0.33328100  0.54648400  0.25363600  1
  F  F50  1  0.21320200  0.66671900  0.25363600  1
  F  F51  1  0.33328100  0.78679800  0.75363600  1
  F  F52  1  0.45351600  0.66671900  0.75363600  1
  F  F53  1  0.21320200  0.54648400  0.75363600  1
  F  F54  1  0.88434500  0.00583700  0.30472500  1
  F  F55  1  0.12149200  0.11565500  0.30472500  1
  F  F56  1  0.99416300  0.87850800  0.30472500  1
  F  F57  1  0.12149200  0.00583700  0.80472500  1
  F  F58  1  0.88434500  0.87850800  0.80472500  1
  F  F59  1  0.99416300  0.11565500  0.80472500  1
  F  F60  1  0.78233800  0.32750700  0.69528700  1
  F  F61  1  0.54516900  0.21766200  0.69528700  1
  F  F62  1  0.67249300  0.45483100  0.69528700  1
  F  F63  1  0.54516900  0.32750700  0.19528700  1
  F  F64  1  0.78233800  0.45483100  0.19528700  1
  F  F65  1  0.67249300  0.21766200  0.19528700  1
  F  F66  1  0.26255600  0.91449200  0.36219000  1
  F  F67  1  0.65193500  0.73744400  0.36219000  1
  F  F68  1  0.08550800  0.34806500  0.36219000  1
  F  F69  1  0.65193500  0.91449200  0.86219000  1
  F  F70  1  0.26255600  0.34806500  0.86219000  1
  F  F71  1  0.08550800  0.73744400  0.86219000  1
  F  F72  1  0.40430500  0.41916400  0.63783500  1
  F  F73  1  0.01485800  0.59569500  0.63783500  1
  F  F74  1  0.58083600  0.98514200  0.63783500  1
  F  F75  1  0.01485800  0.41916400  0.13783500  1
  F  F76  1  0.40430500  0.98514200  0.13783500  1
  F  F77  1  0.58083600  0.59569500  0.13783500  1
  F  F78  1  0.00000000  0.00000000  0.47236200  1
  F  F79  1  0.00000000  0.00000000  0.97236200  1
  F  F80  1  0.66666700  0.33333300  0.52765300  1
  F  F81  1  0.66666700  0.33333300  0.02765300  1
  F  F82  1  0.50275600  0.03333000  0.36781100  1
  F  F83  1  0.53057400  0.49724400  0.36781100  1
  F  F84  1  0.96667000  0.46942600  0.36781100  1
  F  F85  1  0.53057400  0.03333000  0.86781100  1
  F  F86  1  0.50275600  0.46942600  0.86781100  1
  F  F87  1  0.96667000  0.49724400  0.86781100  1
  F  F88  1  0.16409600  0.30059300  0.63236200  1
  F  F89  1  0.13649700  0.83590400  0.63236200  1
  F  F90  1  0.69940700  0.86350300  0.63236200  1
  F  F91  1  0.13649700  0.30059300  0.13236200  1
  F  F92  1  0.16409600  0.86350300  0.13236200  1
  F  F93  1  0.69940700  0.83590400  0.13236200  1
  F  F94  1  0.33333300  0.66666700  0.42051500  1
  F  F95  1  0.33333300  0.66666700  0.92051500  1
