# generated using pymatgen
data_Li3HoSb2
_symmetry_space_group_name_H-M   'P 1'
_cell_length_a   4.54263808
_cell_length_b   4.54263808
_cell_length_c   7.14971900
_cell_angle_alpha   90.00000000
_cell_angle_beta   90.00000000
_cell_angle_gamma   120.00000116
_symmetry_Int_Tables_number   1
_chemical_formula_structural   Li3HoSb2
_chemical_formula_sum   'Li3 Ho1 Sb2'
_cell_volume   127.77205339
_cell_formula_units_Z   1
loop_
 _symmetry_equiv_pos_site_id
 _symmetry_equiv_pos_as_xyz
  1  'x, y, z'
loop_
 _atom_site_type_symbol
 _atom_site_label
 _atom_site_symmetry_multiplicity
 _atom_site_fract_x
 _atom_site_fract_y
 _atom_site_fract_z
 _atom_site_occupancy
  Li  Li0  1  0.66666700  0.33333300  0.35107800  1
  Li  Li1  1  0.33333300  0.66666700  0.64892200  1
  Li  Li2  1  0.00000000  0.00000000  0.50000000  1
  Ho  Ho3  1  0.00000000  0.00000000  0.00000000  1
  Sb  Sb4  1  0.66666700  0.33333300  0.75383100  1
  Sb  Sb5  1  0.33333300  0.66666700  0.24616900  1
