# generated using pymatgen
data_Tb2SeOF2
_symmetry_space_group_name_H-M   'P 1'
_cell_length_a   13.48720015
_cell_length_b   13.48720015
_cell_length_c   3.76726800
_cell_angle_alpha   90.00000000
_cell_angle_beta   90.00000000
_cell_angle_gamma   120.00000074
_symmetry_Int_Tables_number   1
_chemical_formula_structural   Tb2SeOF2
_chemical_formula_sum   'Tb12 Se6 O6 F12'
_cell_volume   593.47270556
_cell_formula_units_Z   6
loop_
 _symmetry_equiv_pos_site_id
 _symmetry_equiv_pos_as_xyz
  1  'x, y, z'
loop_
 _atom_site_type_symbol
 _atom_site_label
 _atom_site_symmetry_multiplicity
 _atom_site_fract_x
 _atom_site_fract_y
 _atom_site_fract_z
 _atom_site_occupancy
  Tb  Tb0  1  0.39760700  0.88294300  0.25000000  1
  Tb  Tb1  1  0.48533600  0.60239300  0.25000000  1
  Tb  Tb2  1  0.11705700  0.51466400  0.25000000  1
  Tb  Tb3  1  0.60239300  0.11705700  0.75000000  1
  Tb  Tb4  1  0.51466400  0.39760700  0.75000000  1
  Tb  Tb5  1  0.88294300  0.48533600  0.75000000  1
  Tb  Tb6  1  0.05504600  0.76635000  0.25000000  1
  Tb  Tb7  1  0.71130400  0.94495400  0.25000000  1
  Tb  Tb8  1  0.23365000  0.28869600  0.25000000  1
  Tb  Tb9  1  0.94495400  0.23365000  0.75000000  1
  Tb  Tb10  1  0.28869600  0.05504600  0.75000000  1
  Tb  Tb11  1  0.76635000  0.71130400  0.75000000  1
  Se  Se12  1  0.71909700  0.51294600  0.25000000  1
  Se  Se13  1  0.79384800  0.28090300  0.25000000  1
  Se  Se14  1  0.48705400  0.20615200  0.25000000  1
  Se  Se15  1  0.28090300  0.48705400  0.75000000  1
  Se  Se16  1  0.20615200  0.71909700  0.75000000  1
  Se  Se17  1  0.51294600  0.79384800  0.75000000  1
  O  O18  1  0.98561300  0.57339500  0.25000000  1
  O  O19  1  0.58778200  0.01438700  0.25000000  1
  O  O20  1  0.42660500  0.41221800  0.25000000  1
  O  O21  1  0.01438700  0.42660500  0.75000000  1
  O  O22  1  0.41221800  0.98561300  0.75000000  1
  O  O23  1  0.57339500  0.58778200  0.75000000  1
  F  F24  1  0.89383100  0.79298600  0.25000000  1
  F  F25  1  0.89915500  0.10616900  0.25000000  1
  F  F26  1  0.20701400  0.10084500  0.25000000  1
  F  F27  1  0.10616900  0.20701400  0.75000000  1
  F  F28  1  0.10084500  0.89383100  0.75000000  1
  F  F29  1  0.79298600  0.89915500  0.75000000  1
  F  F30  1  0.24726400  0.93307200  0.25000000  1
  F  F31  1  0.68580800  0.75273600  0.25000000  1
  F  F32  1  0.06692800  0.31419200  0.25000000  1
  F  F33  1  0.75273600  0.06692800  0.75000000  1
  F  F34  1  0.31419200  0.24726400  0.75000000  1
  F  F35  1  0.93307200  0.68580800  0.75000000  1
