# generated using pymatgen
data_SmGaNi
_symmetry_space_group_name_H-M   'P 1'
_cell_length_a   4.36178500
_cell_length_b   7.01969600
_cell_length_c   7.49364400
_cell_angle_alpha   90.00000000
_cell_angle_beta   90.00000000
_cell_angle_gamma   90.00000000
_symmetry_Int_Tables_number   1
_chemical_formula_structural   SmGaNi
_chemical_formula_sum   'Sm4 Ga4 Ni4'
_cell_volume   229.44342480
_cell_formula_units_Z   4
loop_
 _symmetry_equiv_pos_site_id
 _symmetry_equiv_pos_as_xyz
  1  'x, y, z'
loop_
 _atom_site_type_symbol
 _atom_site_label
 _atom_site_symmetry_multiplicity
 _atom_site_fract_x
 _atom_site_fract_y
 _atom_site_fract_z
 _atom_site_occupancy
  Sm  Sm0  1  0.25000000  0.02027800  0.80092200  1
  Sm  Sm1  1  0.25000000  0.52027800  0.69907800  1
  Sm  Sm2  1  0.75000000  0.97972200  0.19907800  1
  Sm  Sm3  1  0.75000000  0.47972200  0.30092200  1
  Ga  Ga4  1  0.25000000  0.17934000  0.42079100  1
  Ga  Ga5  1  0.25000000  0.67934000  0.07920900  1
  Ga  Ga6  1  0.75000000  0.82066000  0.57920900  1
  Ga  Ga7  1  0.75000000  0.32066000  0.92079100  1
  Ni  Ni8  1  0.25000000  0.79393300  0.40949000  1
  Ni  Ni9  1  0.25000000  0.29393300  0.09051000  1
  Ni  Ni10  1  0.75000000  0.20606700  0.59051000  1
  Ni  Ni11  1  0.75000000  0.70606700  0.90949000  1
