# generated using pymatgen
data_Hg3Bi2(TeCl4)2
_symmetry_space_group_name_H-M   'P 1'
_cell_length_a   9.83583726
_cell_length_b   9.83583726
_cell_length_c   13.73814766
_cell_angle_alpha   76.89849328
_cell_angle_beta   76.89849328
_cell_angle_gamma   47.11138821
_symmetry_Int_Tables_number   1
_chemical_formula_structural   Hg3Bi2(TeCl4)2
_chemical_formula_sum   'Hg6 Bi4 Te4 Cl16'
_cell_volume   943.54482189
_cell_formula_units_Z   2
loop_
 _symmetry_equiv_pos_site_id
 _symmetry_equiv_pos_as_xyz
  1  'x, y, z'
loop_
 _atom_site_type_symbol
 _atom_site_label
 _atom_site_symmetry_multiplicity
 _atom_site_fract_x
 _atom_site_fract_y
 _atom_site_fract_z
 _atom_site_occupancy
  Hg  Hg0  1  0.50000000  0.00000000  0.00000000  1
  Hg  Hg1  1  0.00000000  0.50000000  0.50000000  1
  Hg  Hg2  1  0.26112200  0.23256500  0.74382700  1
  Hg  Hg3  1  0.76743500  0.73887800  0.75617300  1
  Hg  Hg4  1  0.73887800  0.76743500  0.25617300  1
  Hg  Hg5  1  0.23256500  0.26112200  0.24382700  1
  Bi  Bi6  1  0.18918000  0.72653700  0.93878300  1
  Bi  Bi7  1  0.27346300  0.81082000  0.56121700  1
  Bi  Bi8  1  0.81082000  0.27346300  0.06121700  1
  Bi  Bi9  1  0.72653700  0.18918000  0.43878300  1
  Te  Te10  1  0.58549100  0.08215900  0.80643300  1
  Te  Te11  1  0.91784100  0.41450900  0.69356700  1
  Te  Te12  1  0.41450900  0.91784100  0.19356700  1
  Te  Te13  1  0.08215900  0.58549100  0.30643300  1
  Cl  Cl14  1  0.41809100  0.37834900  0.03479200  1
  Cl  Cl15  1  0.62165100  0.58190900  0.46520800  1
  Cl  Cl16  1  0.58190900  0.62165100  0.96520800  1
  Cl  Cl17  1  0.37834900  0.41809100  0.53479200  1
  Cl  Cl18  1  0.16777300  0.62866700  0.77810000  1
  Cl  Cl19  1  0.37133300  0.83222700  0.72190000  1
  Cl  Cl20  1  0.83222700  0.37133300  0.22190000  1
  Cl  Cl21  1  0.62866700  0.16777300  0.27810000  1
  Cl  Cl22  1  0.93327600  0.71967500  0.02404700  1
  Cl  Cl23  1  0.28032500  0.06672400  0.47595300  1
  Cl  Cl24  1  0.06672400  0.28032500  0.97595300  1
  Cl  Cl25  1  0.71967500  0.93327600  0.52404700  1
  Cl  Cl26  1  0.10568300  0.89286500  0.11102700  1
  Cl  Cl27  1  0.10713500  0.89431700  0.38897300  1
  Cl  Cl28  1  0.89431700  0.10713500  0.88897300  1
  Cl  Cl29  1  0.89286500  0.10568300  0.61102700  1
