# generated using pymatgen
data_Ba3Ta4TiO15
_symmetry_space_group_name_H-M   'P 1'
_cell_length_a   12.76002100
_cell_length_b   4.01854500
_cell_length_c   12.68451842
_cell_angle_alpha   89.95216512
_cell_angle_beta   90.00000000
_cell_angle_gamma   90.00000000
_symmetry_Int_Tables_number   1
_chemical_formula_structural   Ba3Ta4TiO15
_chemical_formula_sum   'Ba6 Ta8 Ti2 O30'
_cell_volume   650.42025482
_cell_formula_units_Z   2
loop_
 _symmetry_equiv_pos_site_id
 _symmetry_equiv_pos_as_xyz
  1  'x, y, z'
loop_
 _atom_site_type_symbol
 _atom_site_label
 _atom_site_symmetry_multiplicity
 _atom_site_fract_x
 _atom_site_fract_y
 _atom_site_fract_z
 _atom_site_occupancy
  Ba  Ba0  1  0.74757100  0.70500600  0.49435800  1
  Ba  Ba1  1  0.25242900  0.70500600  0.99435800  1
  Ba  Ba2  1  0.57262400  0.70847400  0.82854400  1
  Ba  Ba3  1  0.91667600  0.70649000  0.17372000  1
  Ba  Ba4  1  0.08332400  0.70649000  0.67372000  1
  Ba  Ba5  1  0.42737600  0.70847400  0.32854400  1
  Ta  Ta6  1  0.75128400  0.19955700  0.00416600  1
  Ta  Ta7  1  0.24871600  0.19955700  0.50416600  1
  Ta  Ta8  1  0.82395100  0.20944000  0.71406800  1
  Ta  Ta9  1  0.17604900  0.20944000  0.21406800  1
  Ta  Ta10  1  0.96030600  0.20848500  0.42354600  1
  Ta  Ta11  1  0.53597100  0.20675400  0.57401100  1
  Ta  Ta12  1  0.03969400  0.20848500  0.92354600  1
  Ta  Ta13  1  0.46402900  0.20675400  0.07401100  1
  Ti  Ti14  1  0.67032000  0.23989500  0.28403100  1
  Ti  Ti15  1  0.32968000  0.23989500  0.78403100  1
  O  O16  1  0.46848300  0.19873400  0.71702300  1
  O  O17  1  0.03382700  0.20045100  0.28251800  1
  O  O18  1  0.96617300  0.20045100  0.78251800  1
  O  O19  1  0.53151700  0.19873400  0.21702300  1
  O  O20  1  0.60815500  0.19460800  0.43275000  1
  O  O21  1  0.89187100  0.19775500  0.56825900  1
  O  O22  1  0.10812900  0.19775500  0.06825900  1
  O  O23  1  0.39184500  0.19460800  0.93275000  1
  O  O24  1  0.82150200  0.19504700  0.35876500  1
  O  O25  1  0.68254300  0.19854500  0.64111600  1
  O  O26  1  0.17849800  0.19504700  0.85876500  1
  O  O27  1  0.31745700  0.19854500  0.14111600  1
  O  O28  1  0.40595900  0.19159200  0.49395600  1
  O  O29  1  0.09450600  0.18984100  0.50661900  1
  O  O30  1  0.90549400  0.18984100  0.00661900  1
  O  O31  1  0.59404100  0.19159200  0.99395600  1
  O  O32  1  0.75449400  0.18745000  0.15751900  1
  O  O33  1  0.74472000  0.19057800  0.84430300  1
  O  O34  1  0.24550600  0.18745000  0.65751900  1
  O  O35  1  0.25528000  0.19057800  0.34430300  1
  O  O36  1  0.74933000  0.68989400  0.00007100  1
  O  O37  1  0.25067000  0.68989400  0.50007100  1
  O  O38  1  0.67165800  0.68054900  0.29315200  1
  O  O39  1  0.82853100  0.69753100  0.70594500  1
  O  O40  1  0.17146900  0.69753100  0.20594500  1
  O  O41  1  0.32834200  0.68054900  0.79315200  1
  O  O42  1  0.95923300  0.69709500  0.42229500  1
  O  O43  1  0.54398200  0.69723200  0.57926500  1
  O  O44  1  0.04076700  0.69709500  0.92229500  1
  O  O45  1  0.45601800  0.69723200  0.07926500  1
