# generated using pymatgen
data_Tb2GaNi2
_symmetry_space_group_name_H-M   'P 1'
_cell_length_a   4.19860600
_cell_length_b   5.33169700
_cell_length_c   5.34610936
_cell_angle_alpha   119.91086786
_cell_angle_beta   113.12127576
_cell_angle_gamma   90.00000000
_symmetry_Int_Tables_number   1
_chemical_formula_structural   Tb2GaNi2
_chemical_formula_sum   'Tb2 Ga1 Ni2'
_cell_volume   92.48045481
_cell_formula_units_Z   1
loop_
 _symmetry_equiv_pos_site_id
 _symmetry_equiv_pos_as_xyz
  1  'x, y, z'
loop_
 _atom_site_type_symbol
 _atom_site_label
 _atom_site_symmetry_multiplicity
 _atom_site_fract_x
 _atom_site_fract_y
 _atom_site_fract_z
 _atom_site_occupancy
  Tb  Tb0  1  0.79928300  0.29928300  0.59856600  1
  Tb  Tb1  1  0.20071700  0.70071700  0.40143400  1
  Ga  Ga2  1  0.00000000  0.00000000  0.00000000  1
  Ni  Ni3  1  0.50000000  0.26751900  0.00000000  1
  Ni  Ni4  1  0.50000000  0.73248100  0.00000000  1
