# generated using pymatgen
data_SrGeN2
_symmetry_space_group_name_H-M   'P 1'
_cell_length_a   5.43757600
_cell_length_b   10.85156100
_cell_length_c   16.17708600
_cell_angle_alpha   90.00000000
_cell_angle_beta   90.00000000
_cell_angle_gamma   90.00000000
_symmetry_Int_Tables_number   1
_chemical_formula_structural   SrGeN2
_chemical_formula_sum   'Sr16 Ge16 N32'
_cell_volume   954.54817225
_cell_formula_units_Z   16
loop_
 _symmetry_equiv_pos_site_id
 _symmetry_equiv_pos_as_xyz
  1  'x, y, z'
loop_
 _atom_site_type_symbol
 _atom_site_label
 _atom_site_symmetry_multiplicity
 _atom_site_fract_x
 _atom_site_fract_y
 _atom_site_fract_z
 _atom_site_occupancy
  Sr  Sr0  1  0.74415100  0.01228000  0.43465300  1
  Sr  Sr1  1  0.24415100  0.48772000  0.56534700  1
  Sr  Sr2  1  0.25584900  0.51228000  0.06534700  1
  Sr  Sr3  1  0.75584900  0.98772000  0.93465300  1
  Sr  Sr4  1  0.25584900  0.98772000  0.56534700  1
  Sr  Sr5  1  0.75584900  0.51228000  0.43465300  1
  Sr  Sr6  1  0.74415100  0.48772000  0.93465300  1
  Sr  Sr7  1  0.24415100  0.01228000  0.06534700  1
  Sr  Sr8  1  0.84516200  0.27160300  0.31284800  1
  Sr  Sr9  1  0.34516200  0.22839700  0.68715200  1
  Sr  Sr10  1  0.15483800  0.77160300  0.18715200  1
  Sr  Sr11  1  0.65483800  0.72839700  0.81284800  1
  Sr  Sr12  1  0.15483800  0.72839700  0.68715200  1
  Sr  Sr13  1  0.65483800  0.77160300  0.31284800  1
  Sr  Sr14  1  0.84516200  0.22839700  0.81284800  1
  Sr  Sr15  1  0.34516200  0.27160300  0.18715200  1
  Ge  Ge16  1  0.73381700  0.01500600  0.18811200  1
  Ge  Ge17  1  0.23381700  0.48499400  0.81188800  1
  Ge  Ge18  1  0.26618300  0.51500600  0.31188800  1
  Ge  Ge19  1  0.76618300  0.98499400  0.68811200  1
  Ge  Ge20  1  0.26618300  0.98499400  0.81188800  1
  Ge  Ge21  1  0.76618300  0.51500600  0.18811200  1
  Ge  Ge22  1  0.73381700  0.48499400  0.68811200  1
  Ge  Ge23  1  0.23381700  0.01500600  0.31188800  1
  Ge  Ge24  1  0.81639800  0.26773100  0.06267200  1
  Ge  Ge25  1  0.31639800  0.23226900  0.93732800  1
  Ge  Ge26  1  0.18360200  0.76773100  0.43732800  1
  Ge  Ge27  1  0.68360200  0.73226900  0.56267200  1
  Ge  Ge28  1  0.18360200  0.73226900  0.93732800  1
  Ge  Ge29  1  0.68360200  0.76773100  0.06267200  1
  Ge  Ge30  1  0.81639800  0.23226900  0.56267200  1
  Ge  Ge31  1  0.31639800  0.26773100  0.43732800  1
  N  N32  1  0.59688200  0.47523100  0.28636100  1
  N  N33  1  0.09688200  0.02476900  0.71363900  1
  N  N34  1  0.40311800  0.97523100  0.21363900  1
  N  N35  1  0.90311800  0.52476900  0.78636100  1
  N  N36  1  0.40311800  0.52476900  0.71363900  1
  N  N37  1  0.90311800  0.97523100  0.28636100  1
  N  N38  1  0.59688200  0.02476900  0.78636100  1
  N  N39  1  0.09688200  0.47523100  0.21363900  1
  N  N40  1  0.65564200  0.27811700  0.46348900  1
  N  N41  1  0.15564200  0.22188300  0.53651100  1
  N  N42  1  0.34435800  0.77811700  0.03651100  1
  N  N43  1  0.84435800  0.72188300  0.96348900  1
  N  N44  1  0.34435800  0.72188300  0.53651100  1
  N  N45  1  0.84435800  0.77811700  0.46348900  1
  N  N46  1  0.65564200  0.22188300  0.96348900  1
  N  N47  1  0.15564200  0.27811700  0.03651100  1
  N  N48  1  0.68998400  0.42741000  0.09003100  1
  N  N49  1  0.18998400  0.07259000  0.90996900  1
  N  N50  1  0.31001600  0.92741000  0.40996900  1
  N  N51  1  0.81001600  0.57259000  0.59003100  1
  N  N52  1  0.31001600  0.57259000  0.90996900  1
  N  N53  1  0.81001600  0.92741000  0.09003100  1
  N  N54  1  0.68998400  0.07259000  0.59003100  1
  N  N55  1  0.18998400  0.42741000  0.40996900  1
  N  N56  1  0.79390700  0.18216900  0.16426200  1
  N  N57  1  0.29390700  0.31783100  0.83573800  1
  N  N58  1  0.20609300  0.68216900  0.33573800  1
  N  N59  1  0.70609300  0.81783100  0.66426200  1
  N  N60  1  0.20609300  0.81783100  0.83573800  1
  N  N61  1  0.70609300  0.68216900  0.16426200  1
  N  N62  1  0.79390700  0.31783100  0.66426200  1
  N  N63  1  0.29390700  0.18216900  0.33573800  1
