# generated using pymatgen
data_CrSbSe3
_symmetry_space_group_name_H-M   'P 1'
_cell_length_a   3.84649200
_cell_length_b   9.39370700
_cell_length_c   13.46076300
_cell_angle_alpha   90.00000000
_cell_angle_beta   90.00000000
_cell_angle_gamma   90.00000000
_symmetry_Int_Tables_number   1
_chemical_formula_structural   CrSbSe3
_chemical_formula_sum   'Cr4 Sb4 Se12'
_cell_volume   486.37531074
_cell_formula_units_Z   4
loop_
 _symmetry_equiv_pos_site_id
 _symmetry_equiv_pos_as_xyz
  1  'x, y, z'
loop_
 _atom_site_type_symbol
 _atom_site_label
 _atom_site_symmetry_multiplicity
 _atom_site_fract_x
 _atom_site_fract_y
 _atom_site_fract_z
 _atom_site_occupancy
  Cr  Cr0  1  0.75000000  0.15689500  0.45761100  1
  Cr  Cr1  1  0.25000000  0.84310500  0.54238900  1
  Cr  Cr2  1  0.75000000  0.65689500  0.04238900  1
  Cr  Cr3  1  0.25000000  0.34310500  0.95761100  1
  Sb  Sb4  1  0.25000000  0.47144500  0.34438900  1
  Sb  Sb5  1  0.75000000  0.52855500  0.65561100  1
  Sb  Sb6  1  0.25000000  0.97144500  0.15561100  1
  Sb  Sb7  1  0.75000000  0.02855500  0.84438900  1
  Se  Se8  1  0.75000000  0.17486000  0.01831000  1
  Se  Se9  1  0.25000000  0.82514000  0.98169000  1
  Se  Se10  1  0.75000000  0.67486000  0.48169000  1
  Se  Se11  1  0.25000000  0.32514000  0.51831000  1
  Se  Se12  1  0.25000000  0.21320500  0.79061400  1
  Se  Se13  1  0.75000000  0.78679500  0.20938600  1
  Se  Se14  1  0.25000000  0.71320500  0.70938600  1
  Se  Se15  1  0.75000000  0.28679500  0.29061400  1
  Se  Se16  1  0.75000000  0.49532200  0.89377200  1
  Se  Se17  1  0.25000000  0.50467800  0.10622800  1
  Se  Se18  1  0.75000000  0.99532200  0.60622800  1
  Se  Se19  1  0.25000000  0.00467800  0.39377200  1
