# generated using pymatgen
data_K2TiGe(PO5)2
_symmetry_space_group_name_H-M   'P 1'
_cell_length_a   6.49447700
_cell_length_b   10.44862700
_cell_length_c   12.79715800
_cell_angle_alpha   90.00000000
_cell_angle_beta   90.00000000
_cell_angle_gamma   90.00000000
_symmetry_Int_Tables_number   1
_chemical_formula_structural   K2TiGe(PO5)2
_chemical_formula_sum   'K8 Ti4 Ge4 P8 O40'
_cell_volume   868.39425350
_cell_formula_units_Z   4
loop_
 _symmetry_equiv_pos_site_id
 _symmetry_equiv_pos_as_xyz
  1  'x, y, z'
loop_
 _atom_site_type_symbol
 _atom_site_label
 _atom_site_symmetry_multiplicity
 _atom_site_fract_x
 _atom_site_fract_y
 _atom_site_fract_z
 _atom_site_occupancy
  K  K0  1  0.19793200  0.58252600  0.10550000  1
  K  K1  1  0.80206800  0.08252600  0.89450000  1
  K  K2  1  0.30206800  0.58252600  0.60550000  1
  K  K3  1  0.69793200  0.08252600  0.39450000  1
  K  K4  1  0.77962900  0.32847700  0.12130500  1
  K  K5  1  0.22037100  0.82847700  0.87869500  1
  K  K6  1  0.72037100  0.32847700  0.62130500  1
  K  K7  1  0.27962900  0.82847700  0.37869500  1
  Ti  Ti8  1  0.49818700  0.02318500  0.13163700  1
  Ti  Ti9  1  0.50181300  0.52318500  0.86836300  1
  Ti  Ti10  1  0.00181300  0.02318500  0.63163700  1
  Ti  Ti11  1  0.99818700  0.52318500  0.36836300  1
  Ge  Ge12  1  0.25622700  0.27231700  0.25427800  1
  Ge  Ge13  1  0.74377300  0.77231700  0.74572200  1
  Ge  Ge14  1  0.24377300  0.27231700  0.75427800  1
  Ge  Ge15  1  0.75622700  0.77231700  0.24572200  1
  P  P16  1  0.00368000  0.02594900  0.18137500  1
  P  P17  1  0.99632000  0.52594900  0.81862500  1
  P  P18  1  0.49632000  0.02594900  0.68137500  1
  P  P19  1  0.50368000  0.52594900  0.31862500  1
  P  P20  1  0.33665700  0.27540600  0.00049500  1
  P  P21  1  0.66334300  0.77540600  0.99950500  1
  P  P22  1  0.16334300  0.27540600  0.50049500  1
  P  P23  1  0.83665700  0.77540600  0.49950500  1
  O  O24  1  0.19374900  0.99778600  0.11279300  1
  O  O25  1  0.80625100  0.49778600  0.88720700  1
  O  O26  1  0.30625100  0.99778600  0.61279300  1
  O  O27  1  0.69374900  0.49778600  0.38720700  1
  O  O28  1  0.19548300  0.29401200  0.09844600  1
  O  O29  1  0.80451700  0.79401200  0.90155400  1
  O  O30  1  0.30451700  0.29401200  0.59844600  1
  O  O31  1  0.69548300  0.79401200  0.40155400  1
  O  O32  1  0.04136400  0.14253700  0.25598400  1
  O  O33  1  0.95863600  0.64253700  0.74401600  1
  O  O34  1  0.45863600  0.14253700  0.75598400  1
  O  O35  1  0.54136400  0.64253700  0.24401600  1
  O  O36  1  0.31371300  0.55640500  0.38697400  1
  O  O37  1  0.68628700  0.05640500  0.61302600  1
  O  O38  1  0.18628700  0.55640500  0.88697400  1
  O  O39  1  0.81371300  0.05640500  0.11302600  1
  O  O40  1  0.30942700  0.25263000  0.40503400  1
  O  O41  1  0.69057300  0.75263000  0.59496600  1
  O  O42  1  0.19057300  0.25263000  0.90503400  1
  O  O43  1  0.80942700  0.75263000  0.09496600  1
  O  O44  1  0.45743300  0.15463500  0.22740400  1
  O  O45  1  0.54256700  0.65463500  0.77259600  1
  O  O46  1  0.04256700  0.15463500  0.72740400  1
  O  O47  1  0.95743300  0.65463500  0.27259600  1
  O  O48  1  0.46114600  0.40979000  0.24473800  1
  O  O49  1  0.53885400  0.90979000  0.75526200  1
  O  O50  1  0.03885400  0.40979000  0.74473800  1
  O  O51  1  0.96114600  0.90979000  0.25526200  1
  O  O52  1  0.48648900  0.16172300  0.01397900  1
  O  O53  1  0.51351100  0.66172300  0.98602100  1
  O  O54  1  0.01351100  0.16172300  0.51397900  1
  O  O55  1  0.98648900  0.66172300  0.48602100  1
  O  O56  1  0.03288200  0.39865900  0.48865100  1
  O  O57  1  0.96711800  0.89865900  0.51134900  1
  O  O58  1  0.46711800  0.39865900  0.98865100  1
  O  O59  1  0.53288200  0.89865900  0.01134900  1
  O  O60  1  0.05667600  0.39606200  0.27411900  1
  O  O61  1  0.94332400  0.89606200  0.72588100  1
  O  O62  1  0.44332400  0.39606200  0.77411900  1
  O  O63  1  0.55667600  0.89606200  0.22588100  1
