# generated using pymatgen
data_Ba(CoSn4)2
_symmetry_space_group_name_H-M   'P 1'
_cell_length_a   9.16616749
_cell_length_b   9.16616749
_cell_length_c   14.25861500
_cell_angle_alpha   90.00000000
_cell_angle_beta   90.00000000
_cell_angle_gamma   112.20664345
_symmetry_Int_Tables_number   1
_chemical_formula_structural   Ba(CoSn4)2
_chemical_formula_sum   'Ba4 Co8 Sn32'
_cell_volume   1109.13051245
_cell_formula_units_Z   4
loop_
 _symmetry_equiv_pos_site_id
 _symmetry_equiv_pos_as_xyz
  1  'x, y, z'
loop_
 _atom_site_type_symbol
 _atom_site_label
 _atom_site_symmetry_multiplicity
 _atom_site_fract_x
 _atom_site_fract_y
 _atom_site_fract_z
 _atom_site_occupancy
  Ba  Ba0  1  0.79327000  0.10359500  0.50000000  1
  Ba  Ba1  1  0.20673000  0.89640500  0.50000000  1
  Ba  Ba2  1  0.89640500  0.20673000  0.00000000  1
  Ba  Ba3  1  0.10359500  0.79327000  0.00000000  1
  Co  Co4  1  0.27888000  0.57195000  0.67031800  1
  Co  Co5  1  0.72112000  0.42805000  0.67031800  1
  Co  Co6  1  0.42805000  0.72112000  0.82968200  1
  Co  Co7  1  0.57195000  0.27888000  0.82968200  1
  Co  Co8  1  0.72112000  0.42805000  0.32968200  1
  Co  Co9  1  0.27888000  0.57195000  0.32968200  1
  Co  Co10  1  0.57195000  0.27888000  0.17031800  1
  Co  Co11  1  0.42805000  0.72112000  0.17031800  1
  Sn  Sn12  1  0.39532200  0.59130200  0.50000000  1
  Sn  Sn13  1  0.60467800  0.40869800  0.50000000  1
  Sn  Sn14  1  0.40869800  0.60467800  0.00000000  1
  Sn  Sn15  1  0.59130200  0.39532200  0.00000000  1
  Sn  Sn16  1  0.00000000  0.00000000  0.75000000  1
  Sn  Sn17  1  0.00000000  0.00000000  0.25000000  1
  Sn  Sn18  1  0.20599700  0.79400300  0.75000000  1
  Sn  Sn19  1  0.79400300  0.20599700  0.75000000  1
  Sn  Sn20  1  0.79400300  0.20599700  0.25000000  1
  Sn  Sn21  1  0.20599700  0.79400300  0.25000000  1
  Sn  Sn22  1  0.00000000  0.50000000  0.60591100  1
  Sn  Sn23  1  0.50000000  0.00000000  0.89408900  1
  Sn  Sn24  1  0.00000000  0.50000000  0.39408900  1
  Sn  Sn25  1  0.50000000  0.00000000  0.10591100  1
  Sn  Sn26  1  0.53699100  0.84075000  0.66464200  1
  Sn  Sn27  1  0.46300900  0.15925000  0.66464200  1
  Sn  Sn28  1  0.15925000  0.46300900  0.83535800  1
  Sn  Sn29  1  0.84075000  0.53699100  0.83535800  1
  Sn  Sn30  1  0.46300900  0.15925000  0.33535800  1
  Sn  Sn31  1  0.53699100  0.84075000  0.33535800  1
  Sn  Sn32  1  0.84075000  0.53699100  0.16464200  1
  Sn  Sn33  1  0.15925000  0.46300900  0.16464200  1
  Sn  Sn34  1  0.19452100  0.27803600  0.61482600  1
  Sn  Sn35  1  0.80547900  0.72196400  0.61482600  1
  Sn  Sn36  1  0.72196400  0.80547900  0.88517400  1
  Sn  Sn37  1  0.27803600  0.19452100  0.88517400  1
  Sn  Sn38  1  0.80547900  0.72196400  0.38517400  1
  Sn  Sn39  1  0.19452100  0.27803600  0.38517400  1
  Sn  Sn40  1  0.27803600  0.19452100  0.11482600  1
  Sn  Sn41  1  0.72196400  0.80547900  0.11482600  1
  Sn  Sn42  1  0.50000000  0.50000000  0.75000000  1
  Sn  Sn43  1  0.50000000  0.50000000  0.25000000  1
