# generated using pymatgen
data_Rb6Si2O7
_symmetry_space_group_name_H-M   'P 1'
_cell_length_a   9.31789900
_cell_length_b   6.85814700
_cell_length_c   11.51824297
_cell_angle_alpha   54.56863473
_cell_angle_beta   90.00000000
_cell_angle_gamma   90.00000000
_symmetry_Int_Tables_number   1
_chemical_formula_structural   Rb6Si2O7
_chemical_formula_sum   'Rb12 Si4 O14'
_cell_volume   599.74643133
_cell_formula_units_Z   2
loop_
 _symmetry_equiv_pos_site_id
 _symmetry_equiv_pos_as_xyz
  1  'x, y, z'
loop_
 _atom_site_type_symbol
 _atom_site_label
 _atom_site_symmetry_multiplicity
 _atom_site_fract_x
 _atom_site_fract_y
 _atom_site_fract_z
 _atom_site_occupancy
  Rb  Rb0  1  0.35288200  0.52297400  0.59136300  1
  Rb  Rb1  1  0.14711800  0.52297400  0.09136300  1
  Rb  Rb2  1  0.64711800  0.47702600  0.40863700  1
  Rb  Rb3  1  0.97285000  0.70832900  0.54358200  1
  Rb  Rb4  1  0.47285000  0.29167100  0.95641800  1
  Rb  Rb5  1  0.02715000  0.29167100  0.45641800  1
  Rb  Rb6  1  0.52715000  0.70832900  0.04358200  1
  Rb  Rb7  1  0.27887100  0.89244300  0.72484300  1
  Rb  Rb8  1  0.77887100  0.10755700  0.77515700  1
  Rb  Rb9  1  0.72112900  0.10755700  0.27515700  1
  Rb  Rb10  1  0.22112900  0.89244300  0.22484300  1
  Rb  Rb11  1  0.85288200  0.47702600  0.90863700  1
  Si  Si12  1  0.63203400  0.83284600  0.62178500  1
  Si  Si13  1  0.86796600  0.83284600  0.12178500  1
  Si  Si14  1  0.36796600  0.16715400  0.37821500  1
  Si  Si15  1  0.13203400  0.16715400  0.87821500  1
  O  O16  1  0.27661600  0.99603100  0.93560700  1
  O  O17  1  0.00000000  0.00000000  0.00000000  1
  O  O18  1  0.50000000  0.00000000  0.50000000  1
  O  O19  1  0.92130300  0.76617700  0.27734800  1
  O  O20  1  0.77661600  0.00396900  0.56439300  1
  O  O21  1  0.72338400  0.00396900  0.06439300  1
  O  O22  1  0.22338400  0.99603100  0.43560700  1
  O  O23  1  0.65616900  0.59181500  0.62399800  1
  O  O24  1  0.15616900  0.40818500  0.87600200  1
  O  O25  1  0.34383100  0.40818500  0.37600200  1
  O  O26  1  0.84383100  0.59181500  0.12399800  1
  O  O27  1  0.57869700  0.76617700  0.77734800  1
  O  O28  1  0.07869700  0.23382300  0.72265200  1
  O  O29  1  0.42130300  0.23382300  0.22265200  1
