# generated using pymatgen
data_MnAg2SnSe4
_symmetry_space_group_name_H-M   'P 1'
_cell_length_a   7.06468000
_cell_length_b   7.48678300
_cell_length_c   8.39297000
_cell_angle_alpha   90.00000000
_cell_angle_beta   90.00000000
_cell_angle_gamma   90.00000000
_symmetry_Int_Tables_number   1
_chemical_formula_structural   MnAg2SnSe4
_chemical_formula_sum   'Mn2 Ag4 Sn2 Se8'
_cell_volume   443.91867061
_cell_formula_units_Z   2
loop_
 _symmetry_equiv_pos_site_id
 _symmetry_equiv_pos_as_xyz
  1  'x, y, z'
loop_
 _atom_site_type_symbol
 _atom_site_label
 _atom_site_symmetry_multiplicity
 _atom_site_fract_x
 _atom_site_fract_y
 _atom_site_fract_z
 _atom_site_occupancy
  Mn  Mn0  1  0.50401900  0.34388200  0.00000000  1
  Mn  Mn1  1  0.00401900  0.65611800  0.50000000  1
  Ag  Ag2  1  0.51611100  0.82630100  0.24904900  1
  Ag  Ag3  1  0.01611100  0.17369900  0.25095100  1
  Ag  Ag4  1  0.01611100  0.17369900  0.74904900  1
  Ag  Ag5  1  0.51611100  0.82630100  0.75095100  1
  Sn  Sn6  1  0.00123700  0.66162900  0.00000000  1
  Sn  Sn7  1  0.50123700  0.33837100  0.50000000  1
  Se  Se8  1  0.86209500  0.34203400  0.00000000  1
  Se  Se9  1  0.36209500  0.65796600  0.50000000  1
  Se  Se10  1  0.89181400  0.83256100  0.25506100  1
  Se  Se11  1  0.39181400  0.16743900  0.24493900  1
  Se  Se12  1  0.39181400  0.16743900  0.75506100  1
  Se  Se13  1  0.89181400  0.83256100  0.74493900  1
  Se  Se14  1  0.36929800  0.65456700  0.00000000  1
  Se  Se15  1  0.86929800  0.34543300  0.50000000  1
