# generated using pymatgen
data_Na3Al(AsO4)2
_symmetry_space_group_name_H-M   'P 1'
_cell_length_a   12.01336700
_cell_length_b   6.71366300
_cell_length_c   9.60481459
_cell_angle_alpha   83.45654108
_cell_angle_beta   90.00000000
_cell_angle_gamma   90.00000000
_symmetry_Int_Tables_number   1
_chemical_formula_structural   Na3Al(AsO4)2
_chemical_formula_sum   'Na12 Al4 As8 O32'
_cell_volume   769.61742267
_cell_formula_units_Z   4
loop_
 _symmetry_equiv_pos_site_id
 _symmetry_equiv_pos_as_xyz
  1  'x, y, z'
loop_
 _atom_site_type_symbol
 _atom_site_label
 _atom_site_symmetry_multiplicity
 _atom_site_fract_x
 _atom_site_fract_y
 _atom_site_fract_z
 _atom_site_occupancy
  Na  Na0  1  0.84672900  0.76759800  0.63081200  1
  Na  Na1  1  0.34672900  0.23240200  0.86918800  1
  Na  Na2  1  0.15327100  0.23240200  0.36918800  1
  Na  Na3  1  0.65327100  0.76759800  0.13081200  1
  Na  Na4  1  0.91866400  0.09724000  0.21384300  1
  Na  Na5  1  0.41866400  0.90276000  0.28615700  1
  Na  Na6  1  0.08133600  0.90276000  0.78615700  1
  Na  Na7  1  0.58133600  0.09724000  0.71384300  1
  Na  Na8  1  0.39518800  0.37600200  0.52295200  1
  Na  Na9  1  0.89518800  0.62399800  0.97704800  1
  Na  Na10  1  0.60481200  0.62399800  0.47704800  1
  Na  Na11  1  0.10481200  0.37600200  0.02295200  1
  Al  Al12  1  0.14639200  0.71931700  0.43851100  1
  Al  Al13  1  0.64639200  0.28068300  0.06148900  1
  Al  Al14  1  0.85360800  0.28068300  0.56148900  1
  Al  Al15  1  0.35360800  0.71931700  0.93851100  1
  As  As16  1  0.67391700  0.13621900  0.37779300  1
  As  As17  1  0.17391700  0.86378100  0.12220700  1
  As  As18  1  0.32608300  0.86378100  0.62220700  1
  As  As19  1  0.82608300  0.13621900  0.87779300  1
  As  As20  1  0.41608300  0.39558500  0.17785800  1
  As  As21  1  0.91608300  0.60441500  0.32214200  1
  As  As22  1  0.58391700  0.60441500  0.82214200  1
  As  As23  1  0.08391700  0.39558500  0.67785800  1
  O  O24  1  0.59651100  0.27187300  0.47961300  1
  O  O25  1  0.09651100  0.72812700  0.02038700  1
  O  O26  1  0.40348900  0.72812700  0.52038700  1
  O  O27  1  0.90348900  0.27187300  0.97961300  1
  O  O28  1  0.80296200  0.08709300  0.46481600  1
  O  O29  1  0.30296200  0.91290700  0.03518400  1
  O  O30  1  0.19703800  0.91290700  0.53518400  1
  O  O31  1  0.69703800  0.08709300  0.96481600  1
  O  O32  1  0.48929100  0.59116400  0.22694500  1
  O  O33  1  0.98929100  0.40883600  0.27305500  1
  O  O34  1  0.51070900  0.40883600  0.77305500  1
  O  O35  1  0.01070900  0.59116400  0.72694500  1
  O  O36  1  0.00353300  0.76876600  0.40210800  1
  O  O37  1  0.50353300  0.23123400  0.09789200  1
  O  O38  1  0.99646700  0.23123400  0.59789200  1
  O  O39  1  0.49646700  0.76876600  0.90210800  1
  O  O40  1  0.61773400  0.92094600  0.33541300  1
  O  O41  1  0.11773400  0.07905400  0.16458700  1
  O  O42  1  0.38226600  0.07905400  0.66458700  1
  O  O43  1  0.88226600  0.92094600  0.83541300  1
  O  O44  1  0.32824700  0.47931400  0.03446500  1
  O  O45  1  0.82824700  0.52068600  0.46553500  1
  O  O46  1  0.67175300  0.52068600  0.96553500  1
  O  O47  1  0.17175300  0.47931400  0.53446500  1
  O  O48  1  0.34432900  0.25284900  0.30310000  1
  O  O49  1  0.84432900  0.74715100  0.19690000  1
  O  O50  1  0.65567100  0.74715100  0.69690000  1
  O  O51  1  0.15567100  0.25284900  0.80310000  1
  O  O52  1  0.71923100  0.27590200  0.22268300  1
  O  O53  1  0.21923100  0.72409800  0.27731700  1
  O  O54  1  0.28076900  0.72409800  0.77731700  1
  O  O55  1  0.78076900  0.27590200  0.72268300  1
