# generated using pymatgen
data_EuZnPd
_symmetry_space_group_name_H-M   'P 1'
_cell_length_a   4.57320300
_cell_length_b   7.23927900
_cell_length_c   7.81607900
_cell_angle_alpha   90.00000000
_cell_angle_beta   90.00000000
_cell_angle_gamma   90.00000000
_symmetry_Int_Tables_number   1
_chemical_formula_structural   EuZnPd
_chemical_formula_sum   'Eu4 Zn4 Pd4'
_cell_volume   258.76452354
_cell_formula_units_Z   4
loop_
 _symmetry_equiv_pos_site_id
 _symmetry_equiv_pos_as_xyz
  1  'x, y, z'
loop_
 _atom_site_type_symbol
 _atom_site_label
 _atom_site_symmetry_multiplicity
 _atom_site_fract_x
 _atom_site_fract_y
 _atom_site_fract_z
 _atom_site_occupancy
  Eu  Eu0  1  0.25000000  0.01302700  0.30558000  1
  Eu  Eu1  1  0.25000000  0.51302700  0.19442000  1
  Eu  Eu2  1  0.75000000  0.98697300  0.69442000  1
  Eu  Eu3  1  0.75000000  0.48697300  0.80558000  1
  Zn  Zn4  1  0.25000000  0.66605500  0.57640200  1
  Zn  Zn5  1  0.25000000  0.16605500  0.92359800  1
  Zn  Zn6  1  0.75000000  0.33394500  0.42359800  1
  Zn  Zn7  1  0.75000000  0.83394500  0.07640200  1
  Pd  Pd8  1  0.25000000  0.29320900  0.60110900  1
  Pd  Pd9  1  0.25000000  0.79320900  0.89889100  1
  Pd  Pd10  1  0.75000000  0.70679100  0.39889100  1
  Pd  Pd11  1  0.75000000  0.20679100  0.10110900  1
