# generated using pymatgen
data_Yb6Ta4Al43
_symmetry_space_group_name_H-M   'P 1'
_cell_length_a   11.20473462
_cell_length_b   11.20473462
_cell_length_c   17.85702500
_cell_angle_alpha   90.00000000
_cell_angle_beta   90.00000000
_cell_angle_gamma   120.00000365
_symmetry_Int_Tables_number   1
_chemical_formula_structural   Yb6Ta4Al43
_chemical_formula_sum   'Yb12 Ta8 Al86'
_cell_volume   1941.52448534
_cell_formula_units_Z   2
loop_
 _symmetry_equiv_pos_site_id
 _symmetry_equiv_pos_as_xyz
  1  'x, y, z'
loop_
 _atom_site_type_symbol
 _atom_site_label
 _atom_site_symmetry_multiplicity
 _atom_site_fract_x
 _atom_site_fract_y
 _atom_site_fract_z
 _atom_site_occupancy
  Yb  Yb0  1  0.53029800  0.00000000  0.59471500  1
  Yb  Yb1  1  0.46970200  0.00000000  0.40528500  1
  Yb  Yb2  1  0.00000000  0.53029800  0.59471500  1
  Yb  Yb3  1  0.46970200  0.00000000  0.09471500  1
  Yb  Yb4  1  0.00000000  0.53029800  0.90528500  1
  Yb  Yb5  1  0.00000000  0.46970200  0.40528500  1
  Yb  Yb6  1  0.53029800  0.00000000  0.90528500  1
  Yb  Yb7  1  0.00000000  0.46970200  0.09471500  1
  Yb  Yb8  1  0.46970200  0.46970200  0.59471500  1
  Yb  Yb9  1  0.53029800  0.53029800  0.40528500  1
  Yb  Yb10  1  0.53029800  0.53029800  0.09471500  1
  Yb  Yb11  1  0.46970200  0.46970200  0.90528500  1
  Ta  Ta12  1  0.72833700  0.00000000  0.75000000  1
  Ta  Ta13  1  0.27166300  0.00000000  0.25000000  1
  Ta  Ta14  1  0.00000000  0.72833700  0.75000000  1
  Ta  Ta15  1  0.00000000  0.27166300  0.25000000  1
  Ta  Ta16  1  0.27166300  0.27166300  0.75000000  1
  Ta  Ta17  1  0.72833700  0.72833700  0.25000000  1
  Ta  Ta18  1  0.00000000  0.00000000  0.50000000  1
  Ta  Ta19  1  0.00000000  0.00000000  0.00000000  1
  Al  Al20  1  0.14890400  0.00000000  0.75000000  1
  Al  Al21  1  0.85109600  0.00000000  0.25000000  1
  Al  Al22  1  0.00000000  0.14890400  0.75000000  1
  Al  Al23  1  0.00000000  0.85109600  0.25000000  1
  Al  Al24  1  0.85109600  0.85109600  0.75000000  1
  Al  Al25  1  0.14890400  0.14890400  0.25000000  1
  Al  Al26  1  0.15894900  0.00000000  0.11473100  1
  Al  Al27  1  0.84105100  0.00000000  0.88526900  1
  Al  Al28  1  0.00000000  0.15894900  0.11473100  1
  Al  Al29  1  0.84105100  0.00000000  0.61473100  1
  Al  Al30  1  0.00000000  0.15894900  0.38526900  1
  Al  Al31  1  0.00000000  0.84105100  0.88526900  1
  Al  Al32  1  0.15894900  0.00000000  0.38526900  1
  Al  Al33  1  0.00000000  0.84105100  0.61473100  1
  Al  Al34  1  0.84105100  0.84105100  0.11473100  1
  Al  Al35  1  0.15894900  0.15894900  0.88526900  1
  Al  Al36  1  0.15894900  0.15894900  0.61473100  1
  Al  Al37  1  0.84105100  0.84105100  0.38526900  1
  Al  Al38  1  0.33333300  0.66666700  0.62542800  1
  Al  Al39  1  0.66666700  0.33333300  0.37457200  1
  Al  Al40  1  0.66666700  0.33333300  0.12542800  1
  Al  Al41  1  0.66666700  0.33333300  0.87457200  1
  Al  Al42  1  0.33333300  0.66666700  0.87457200  1
  Al  Al43  1  0.33333300  0.66666700  0.12542800  1
  Al  Al44  1  0.33333300  0.66666700  0.37457200  1
  Al  Al45  1  0.66666700  0.33333300  0.62542800  1
  Al  Al46  1  0.15854200  0.39515500  0.66334400  1
  Al  Al47  1  0.84145800  0.60484500  0.33665600  1
  Al  Al48  1  0.60484500  0.76338800  0.66334400  1
  Al  Al49  1  0.84145800  0.60484500  0.16334400  1
  Al  Al50  1  0.39515500  0.15854200  0.83665600  1
  Al  Al51  1  0.39515500  0.23661200  0.33665600  1
  Al  Al52  1  0.15854200  0.39515500  0.83665600  1
  Al  Al53  1  0.60484500  0.84145800  0.16334400  1
  Al  Al54  1  0.23661200  0.84145800  0.66334400  1
  Al  Al55  1  0.39515500  0.23661200  0.16334400  1
  Al  Al56  1  0.76338800  0.60484500  0.83665600  1
  Al  Al57  1  0.76338800  0.15854200  0.33665600  1
  Al  Al58  1  0.60484500  0.76338800  0.83665600  1
  Al  Al59  1  0.23661200  0.39515500  0.16334400  1
  Al  Al60  1  0.60484500  0.84145800  0.33665600  1
  Al  Al61  1  0.39515500  0.15854200  0.66334400  1
  Al  Al62  1  0.76338800  0.15854200  0.16334400  1
  Al  Al63  1  0.23661200  0.39515500  0.33665600  1
  Al  Al64  1  0.23661200  0.84145800  0.83665600  1
  Al  Al65  1  0.76338800  0.60484500  0.66334400  1
  Al  Al66  1  0.84145800  0.23661200  0.83665600  1
  Al  Al67  1  0.15854200  0.76338800  0.16334400  1
  Al  Al68  1  0.15854200  0.76338800  0.33665600  1
  Al  Al69  1  0.84145800  0.23661200  0.66334400  1
  Al  Al70  1  0.24701000  0.49402000  0.50000000  1
  Al  Al71  1  0.75299000  0.50598000  0.50000000  1
  Al  Al72  1  0.50598000  0.75299000  0.50000000  1
  Al  Al73  1  0.75299000  0.50598000  0.00000000  1
  Al  Al74  1  0.49402000  0.24701000  0.00000000  1
  Al  Al75  1  0.49402000  0.24701000  0.50000000  1
  Al  Al76  1  0.24701000  0.49402000  0.00000000  1
  Al  Al77  1  0.50598000  0.75299000  0.00000000  1
  Al  Al78  1  0.24701000  0.75299000  0.50000000  1
  Al  Al79  1  0.75299000  0.24701000  0.50000000  1
  Al  Al80  1  0.75299000  0.24701000  0.00000000  1
  Al  Al81  1  0.24701000  0.75299000  0.00000000  1
  Al  Al82  1  0.14944000  0.59604600  0.75000000  1
  Al  Al83  1  0.85056000  0.40395400  0.25000000  1
  Al  Al84  1  0.40395400  0.55339400  0.75000000  1
  Al  Al85  1  0.59604600  0.14944000  0.75000000  1
  Al  Al86  1  0.59604600  0.44660600  0.25000000  1
  Al  Al87  1  0.40395400  0.85056000  0.25000000  1
  Al  Al88  1  0.44660600  0.85056000  0.75000000  1
  Al  Al89  1  0.55339400  0.40395400  0.75000000  1
  Al  Al90  1  0.55339400  0.14944000  0.25000000  1
  Al  Al91  1  0.44660600  0.59604600  0.25000000  1
  Al  Al92  1  0.85056000  0.44660600  0.75000000  1
  Al  Al93  1  0.14944000  0.55339400  0.25000000  1
  Al  Al94  1  0.25477300  0.00000000  0.53091800  1
  Al  Al95  1  0.74522700  0.00000000  0.46908200  1
  Al  Al96  1  0.00000000  0.25477300  0.53091800  1
  Al  Al97  1  0.74522700  0.00000000  0.03091800  1
  Al  Al98  1  0.00000000  0.25477300  0.96908200  1
  Al  Al99  1  0.00000000  0.74522700  0.46908200  1
  Al  Al100  1  0.25477300  0.00000000  0.96908200  1
  Al  Al101  1  0.00000000  0.74522700  0.03091800  1
  Al  Al102  1  0.74522700  0.74522700  0.53091800  1
  Al  Al103  1  0.25477300  0.25477300  0.46908200  1
  Al  Al104  1  0.25477300  0.25477300  0.03091800  1
  Al  Al105  1  0.74522700  0.74522700  0.96908200  1
