# generated using pymatgen
data_ScBe5
_symmetry_space_group_name_H-M   'P 1'
_cell_length_a   4.51734566
_cell_length_b   4.51734566
_cell_length_c   3.52773700
_cell_angle_alpha   90.00000000
_cell_angle_beta   90.00000000
_cell_angle_gamma   119.99999501
_symmetry_Int_Tables_number   1
_chemical_formula_structural   ScBe5
_chemical_formula_sum   'Sc1 Be5'
_cell_volume   62.34383304
_cell_formula_units_Z   1
loop_
 _symmetry_equiv_pos_site_id
 _symmetry_equiv_pos_as_xyz
  1  'x, y, z'
loop_
 _atom_site_type_symbol
 _atom_site_label
 _atom_site_symmetry_multiplicity
 _atom_site_fract_x
 _atom_site_fract_y
 _atom_site_fract_z
 _atom_site_occupancy
  Sc  Sc0  1  0.00000000  0.00000000  0.00000000  1
  Be  Be1  1  0.33333300  0.66666700  0.00000000  1
  Be  Be2  1  0.66666700  0.33333300  0.00000000  1
  Be  Be3  1  0.50000000  0.00000000  0.50000000  1
  Be  Be4  1  0.50000000  0.50000000  0.50000000  1
  Be  Be5  1  0.00000000  0.50000000  0.50000000  1
