# generated using pymatgen
data_NdAlRh
_symmetry_space_group_name_H-M   'P 1'
_cell_length_a   4.29635000
_cell_length_b   7.08864300
_cell_length_c   8.09310700
_cell_angle_alpha   90.00000000
_cell_angle_beta   90.00000000
_cell_angle_gamma   90.00000000
_symmetry_Int_Tables_number   1
_chemical_formula_structural   NdAlRh
_chemical_formula_sum   'Nd4 Al4 Rh4'
_cell_volume   246.47793164
_cell_formula_units_Z   4
loop_
 _symmetry_equiv_pos_site_id
 _symmetry_equiv_pos_as_xyz
  1  'x, y, z'
loop_
 _atom_site_type_symbol
 _atom_site_label
 _atom_site_symmetry_multiplicity
 _atom_site_fract_x
 _atom_site_fract_y
 _atom_site_fract_z
 _atom_site_occupancy
  Nd  Nd0  1  0.25000000  0.53407600  0.18036800  1
  Nd  Nd1  1  0.75000000  0.46592400  0.81963200  1
  Nd  Nd2  1  0.75000000  0.96592400  0.68036800  1
  Nd  Nd3  1  0.25000000  0.03407600  0.31963200  1
  Al  Al4  1  0.25000000  0.63613300  0.56150500  1
  Al  Al5  1  0.75000000  0.36386700  0.43849500  1
  Al  Al6  1  0.75000000  0.86386700  0.06150500  1
  Al  Al7  1  0.25000000  0.13613300  0.93849500  1
  Rh  Rh8  1  0.25000000  0.77251900  0.88313300  1
  Rh  Rh9  1  0.75000000  0.22748100  0.11686700  1
  Rh  Rh10  1  0.75000000  0.72748100  0.38313300  1
  Rh  Rh11  1  0.25000000  0.27251900  0.61686700  1
