# generated using pymatgen
data_NaSrPO4
_symmetry_space_group_name_H-M   'P 1'
_cell_length_a   5.50831100
_cell_length_b   7.11679300
_cell_length_c   9.77443900
_cell_angle_alpha   90.00000000
_cell_angle_beta   90.00000000
_cell_angle_gamma   90.00000000
_symmetry_Int_Tables_number   1
_chemical_formula_structural   NaSrPO4
_chemical_formula_sum   'Na4 Sr4 P4 O16'
_cell_volume   383.17276006
_cell_formula_units_Z   4
loop_
 _symmetry_equiv_pos_site_id
 _symmetry_equiv_pos_as_xyz
  1  'x, y, z'
loop_
 _atom_site_type_symbol
 _atom_site_label
 _atom_site_symmetry_multiplicity
 _atom_site_fract_x
 _atom_site_fract_y
 _atom_site_fract_z
 _atom_site_occupancy
  Na  Na0  1  0.25000000  0.67456600  0.92888600  1
  Na  Na1  1  0.75000000  0.32543400  0.07111400  1
  Na  Na2  1  0.75000000  0.82543400  0.42888600  1
  Na  Na3  1  0.25000000  0.17456600  0.57111400  1
  Sr  Sr4  1  0.25000000  0.99092200  0.19846300  1
  Sr  Sr5  1  0.75000000  0.00907800  0.80153700  1
  Sr  Sr6  1  0.75000000  0.50907800  0.69846300  1
  Sr  Sr7  1  0.25000000  0.49092200  0.30153700  1
  P  P8  1  0.25000000  0.73039400  0.57913200  1
  P  P9  1  0.75000000  0.26960600  0.42086800  1
  P  P10  1  0.75000000  0.76960600  0.07913200  1
  P  P11  1  0.25000000  0.23039400  0.92086800  1
  O  O12  1  0.01835400  0.80354700  0.65237500  1
  O  O13  1  0.98164600  0.19645300  0.34762500  1
  O  O14  1  0.98164600  0.69645300  0.15237500  1
  O  O15  1  0.51835400  0.19645300  0.34762500  1
  O  O16  1  0.01835400  0.30354700  0.84762500  1
  O  O17  1  0.48164600  0.80354700  0.65237500  1
  O  O18  1  0.48164600  0.30354700  0.84762500  1
  O  O19  1  0.51835400  0.69645300  0.15237500  1
  O  O20  1  0.25000000  0.51156400  0.57761600  1
  O  O21  1  0.75000000  0.48843600  0.42238400  1
  O  O22  1  0.75000000  0.98843600  0.07761600  1
  O  O23  1  0.25000000  0.01156400  0.92238400  1
  O  O24  1  0.25000000  0.30508100  0.07170500  1
  O  O25  1  0.75000000  0.69491900  0.92829500  1
  O  O26  1  0.75000000  0.19491900  0.57170500  1
  O  O27  1  0.25000000  0.80508100  0.42829500  1
