# generated using pymatgen
data_Dy2Ge6Pd
_symmetry_space_group_name_H-M   'P 1'
_cell_length_a   5.78457156
_cell_length_b   5.78457156
_cell_length_c   21.67438900
_cell_angle_alpha   90.00000000
_cell_angle_beta   90.00000000
_cell_angle_gamma   90.63485964
_symmetry_Int_Tables_number   1
_chemical_formula_structural   Dy2Ge6Pd
_chemical_formula_sum   'Dy8 Ge24 Pd4'
_cell_volume   725.20801987
_cell_formula_units_Z   4
loop_
 _symmetry_equiv_pos_site_id
 _symmetry_equiv_pos_as_xyz
  1  'x, y, z'
loop_
 _atom_site_type_symbol
 _atom_site_label
 _atom_site_symmetry_multiplicity
 _atom_site_fract_x
 _atom_site_fract_y
 _atom_site_fract_z
 _atom_site_occupancy
  Dy  Dy0  1  0.37574400  0.87301300  0.58121700  1
  Dy  Dy1  1  0.12698700  0.62425600  0.41878300  1
  Dy  Dy2  1  0.62698700  0.12425600  0.08121700  1
  Dy  Dy3  1  0.87574400  0.37301300  0.91878300  1
  Dy  Dy4  1  0.62425600  0.12698700  0.41878300  1
  Dy  Dy5  1  0.87301300  0.37574400  0.58121700  1
  Dy  Dy6  1  0.37301300  0.87574400  0.91878300  1
  Dy  Dy7  1  0.12425600  0.62698700  0.08121700  1
  Ge  Ge8  1  0.65107200  0.09668300  0.69285500  1
  Ge  Ge9  1  0.90331700  0.34892800  0.30714500  1
  Ge  Ge10  1  0.40331700  0.84892800  0.19285500  1
  Ge  Ge11  1  0.15107200  0.59668300  0.80714500  1
  Ge  Ge12  1  0.34892800  0.90331700  0.30714500  1
  Ge  Ge13  1  0.09668300  0.65107200  0.69285500  1
  Ge  Ge14  1  0.59668300  0.15107200  0.80714500  1
  Ge  Ge15  1  0.84892800  0.40331700  0.19285500  1
  Ge  Ge16  1  0.38134000  0.38134000  0.95654400  1
  Ge  Ge17  1  0.61866000  0.61866000  0.04345600  1
  Ge  Ge18  1  0.11866000  0.11866000  0.45654400  1
  Ge  Ge19  1  0.88134000  0.88134000  0.54345600  1
  Ge  Ge20  1  0.36749700  0.36749700  0.52820500  1
  Ge  Ge21  1  0.63250300  0.63250300  0.47179500  1
  Ge  Ge22  1  0.13250300  0.13250300  0.02820500  1
  Ge  Ge23  1  0.86749700  0.86749700  0.97179500  1
  Ge  Ge24  1  0.15238100  0.15238100  0.80805500  1
  Ge  Ge25  1  0.84761900  0.84761900  0.19194500  1
  Ge  Ge26  1  0.34761900  0.34761900  0.30805500  1
  Ge  Ge27  1  0.65238100  0.65238100  0.69194500  1
  Ge  Ge28  1  0.09508500  0.09508500  0.69305300  1
  Ge  Ge29  1  0.90491500  0.90491500  0.30694700  1
  Ge  Ge30  1  0.40491500  0.40491500  0.19305300  1
  Ge  Ge31  1  0.59508500  0.59508500  0.80694700  1
  Pd  Pd32  1  0.37271100  0.37271100  0.64169500  1
  Pd  Pd33  1  0.62728900  0.62728900  0.35830500  1
  Pd  Pd34  1  0.12728900  0.12728900  0.14169500  1
  Pd  Pd35  1  0.87271100  0.87271100  0.85830500  1
