# generated using pymatgen
data_V2Co(PO5)2
_symmetry_space_group_name_H-M   'P 1'
_cell_length_a   7.41528300
_cell_length_b   6.43574600
_cell_length_c   7.44588221
_cell_angle_alpha   89.80254689
_cell_angle_beta   90.00000000
_cell_angle_gamma   90.00000000
_symmetry_Int_Tables_number   1
_chemical_formula_structural   V2Co(PO5)2
_chemical_formula_sum   'V4 Co2 P4 O20'
_cell_volume   355.33681778
_cell_formula_units_Z   2
loop_
 _symmetry_equiv_pos_site_id
 _symmetry_equiv_pos_as_xyz
  1  'x, y, z'
loop_
 _atom_site_type_symbol
 _atom_site_label
 _atom_site_symmetry_multiplicity
 _atom_site_fract_x
 _atom_site_fract_y
 _atom_site_fract_z
 _atom_site_occupancy
  V  V0  1  0.72061300  0.25713900  0.16669300  1
  V  V1  1  0.27938700  0.74286100  0.83330700  1
  V  V2  1  0.77938700  0.25713900  0.66669300  1
  V  V3  1  0.22061300  0.74286100  0.33330700  1
  Co  Co4  1  0.00000000  0.00000000  0.00000000  1
  Co  Co5  1  0.50000000  0.00000000  0.50000000  1
  P  P6  1  0.12109200  0.25143200  0.37283300  1
  P  P7  1  0.62109200  0.74856800  0.12716700  1
  P  P8  1  0.37890800  0.25143200  0.87283300  1
  P  P9  1  0.87890800  0.74856800  0.62716700  1
  O  O10  1  0.75104500  0.93965300  0.12182700  1
  O  O11  1  0.75795200  0.55596400  0.64720800  1
  O  O12  1  0.50910100  0.74008900  0.95436000  1
  O  O13  1  0.50630400  0.22338400  0.70755300  1
  O  O14  1  0.49089900  0.25991100  0.04564000  1
  O  O15  1  0.24204800  0.44403600  0.35279200  1
  O  O16  1  0.99089900  0.74008900  0.45436000  1
  O  O17  1  0.66238900  0.22966600  0.38889000  1
  O  O18  1  0.74204800  0.55596400  0.14720800  1
  O  O19  1  0.24895500  0.06034700  0.87817300  1
  O  O20  1  0.33761100  0.77033400  0.61111000  1
  O  O21  1  0.00630400  0.77661600  0.79244700  1
  O  O22  1  0.83761100  0.22966600  0.88889000  1
  O  O23  1  0.00910100  0.25991100  0.54564000  1
  O  O24  1  0.25795200  0.44403600  0.85279200  1
  O  O25  1  0.99369600  0.22338400  0.20755300  1
  O  O26  1  0.49369600  0.77661600  0.29244700  1
  O  O27  1  0.25104500  0.06034700  0.37817300  1
  O  O28  1  0.16238900  0.77033400  0.11111000  1
  O  O29  1  0.74895500  0.93965300  0.62182700  1
