# generated using pymatgen
data_Ba3AlP3
_symmetry_space_group_name_H-M   'P 1'
_cell_length_a   10.32660962
_cell_length_b   10.32660962
_cell_length_c   13.08051800
_cell_angle_alpha   90.00000000
_cell_angle_beta   90.00000000
_cell_angle_gamma   141.54988667
_symmetry_Int_Tables_number   1
_chemical_formula_structural   Ba3AlP3
_chemical_formula_sum   'Ba12 Al4 P12'
_cell_volume   867.38962603
_cell_formula_units_Z   4
loop_
 _symmetry_equiv_pos_site_id
 _symmetry_equiv_pos_as_xyz
  1  'x, y, z'
loop_
 _atom_site_type_symbol
 _atom_site_label
 _atom_site_symmetry_multiplicity
 _atom_site_fract_x
 _atom_site_fract_y
 _atom_site_fract_z
 _atom_site_occupancy
  Ba  Ba0  1  0.83640000  0.83640000  0.34496900  1
  Ba  Ba1  1  0.16360000  0.16360000  0.65503100  1
  Ba  Ba2  1  0.66360000  0.66360000  0.84496900  1
  Ba  Ba3  1  0.33640000  0.33640000  0.15503100  1
  Ba  Ba4  1  0.86030700  0.50810600  0.13014300  1
  Ba  Ba5  1  0.49189400  0.13969300  0.86985700  1
  Ba  Ba6  1  0.99189400  0.63969300  0.63014300  1
  Ba  Ba7  1  0.36030700  0.00810600  0.36985700  1
  Ba  Ba8  1  0.13969300  0.49189400  0.86985700  1
  Ba  Ba9  1  0.50810600  0.86030700  0.13014300  1
  Ba  Ba10  1  0.00810600  0.36030700  0.36985700  1
  Ba  Ba11  1  0.63969300  0.99189400  0.63014300  1
  Al  Al12  1  0.08193100  0.91806900  0.00000000  1
  Al  Al13  1  0.58193100  0.41806900  0.50000000  1
  Al  Al14  1  0.91806900  0.08193100  0.00000000  1
  Al  Al15  1  0.41806900  0.58193100  0.50000000  1
  P  P16  1  0.79870000  0.79870000  0.09240200  1
  P  P17  1  0.20130000  0.20130000  0.90759800  1
  P  P18  1  0.70130000  0.70130000  0.59240200  1
  P  P19  1  0.29870000  0.29870000  0.40759800  1
  P  P20  1  0.03082100  0.34105700  0.11681100  1
  P  P21  1  0.65894300  0.96917900  0.88318900  1
  P  P22  1  0.15894300  0.46917900  0.61681100  1
  P  P23  1  0.53082100  0.84105700  0.38318900  1
  P  P24  1  0.96917900  0.65894300  0.88318900  1
  P  P25  1  0.34105700  0.03082100  0.11681100  1
  P  P26  1  0.84105700  0.53082100  0.38318900  1
  P  P27  1  0.46917900  0.15894300  0.61681100  1
