# generated using pymatgen
data_Yb5Pd2
_symmetry_space_group_name_H-M   'P 1'
_cell_length_a   8.81182593
_cell_length_b   8.81182593
_cell_length_c   7.58078120
_cell_angle_alpha   83.16407876
_cell_angle_beta   83.16407876
_cell_angle_gamma   43.68391160
_symmetry_Int_Tables_number   1
_chemical_formula_structural   Yb5Pd2
_chemical_formula_sum   'Yb10 Pd4'
_cell_volume   403.20132595
_cell_formula_units_Z   2
loop_
 _symmetry_equiv_pos_site_id
 _symmetry_equiv_pos_as_xyz
  1  'x, y, z'
loop_
 _atom_site_type_symbol
 _atom_site_label
 _atom_site_symmetry_multiplicity
 _atom_site_fract_x
 _atom_site_fract_y
 _atom_site_fract_z
 _atom_site_occupancy
  Yb  Yb0  1  0.02132600  0.79700900  0.91957200  1
  Yb  Yb1  1  0.20299100  0.97867400  0.58042800  1
  Yb  Yb2  1  0.97867400  0.20299100  0.08042800  1
  Yb  Yb3  1  0.79700900  0.02132600  0.41957200  1
  Yb  Yb4  1  0.36436600  0.20155600  0.81913600  1
  Yb  Yb5  1  0.79844400  0.63563400  0.68086400  1
  Yb  Yb6  1  0.63563400  0.79844400  0.18086400  1
  Yb  Yb7  1  0.20155600  0.36436600  0.31913600  1
  Yb  Yb8  1  0.57939000  0.42061000  0.75000000  1
  Yb  Yb9  1  0.42061000  0.57939000  0.25000000  1
  Pd  Pd10  1  0.18294900  0.59657000  0.58075600  1
  Pd  Pd11  1  0.40343000  0.81705100  0.91924400  1
  Pd  Pd12  1  0.81705100  0.40343000  0.41924400  1
  Pd  Pd13  1  0.59657000  0.18295000  0.08075600  1
