# generated using pymatgen
data_TlPO4
_symmetry_space_group_name_H-M   'P 1'
_cell_length_a   4.96573721
_cell_length_b   4.96573721
_cell_length_c   7.25969800
_cell_angle_alpha   90.00000000
_cell_angle_beta   90.00000000
_cell_angle_gamma   112.76389631
_symmetry_Int_Tables_number   1
_chemical_formula_structural   TlPO4
_chemical_formula_sum   'Tl2 P2 O8'
_cell_volume   165.06971884
_cell_formula_units_Z   2
loop_
 _symmetry_equiv_pos_site_id
 _symmetry_equiv_pos_as_xyz
  1  'x, y, z'
loop_
 _atom_site_type_symbol
 _atom_site_label
 _atom_site_symmetry_multiplicity
 _atom_site_fract_x
 _atom_site_fract_y
 _atom_site_fract_z
 _atom_site_occupancy
  Tl  Tl0  1  0.00000000  0.00000000  0.50000000  1
  Tl  Tl1  1  0.00000000  0.00000000  0.00000000  1
  P  P2  1  0.64951900  0.35048100  0.25000000  1
  P  P3  1  0.35048100  0.64951900  0.75000000  1
  O  O4  1  0.25498800  0.74501200  0.56836900  1
  O  O5  1  0.74501200  0.25498800  0.06836900  1
  O  O6  1  0.74501200  0.25498800  0.43163100  1
  O  O7  1  0.25498800  0.74501200  0.93163100  1
  O  O8  1  0.69488800  0.77030000  0.75000000  1
  O  O9  1  0.30511200  0.22970000  0.25000000  1
  O  O10  1  0.77030000  0.69488800  0.25000000  1
  O  O11  1  0.22970000  0.30511200  0.75000000  1
