# generated using pymatgen
data_ErNiO3
_symmetry_space_group_name_H-M   'P 1'
_cell_length_a   5.16495400
_cell_length_b   5.65932500
_cell_length_c   7.37332300
_cell_angle_alpha   90.00000000
_cell_angle_beta   90.00000000
_cell_angle_gamma   90.00000000
_symmetry_Int_Tables_number   1
_chemical_formula_structural   ErNiO3
_chemical_formula_sum   'Er4 Ni4 O12'
_cell_volume   215.52336159
_cell_formula_units_Z   4
loop_
 _symmetry_equiv_pos_site_id
 _symmetry_equiv_pos_as_xyz
  1  'x, y, z'
loop_
 _atom_site_type_symbol
 _atom_site_label
 _atom_site_symmetry_multiplicity
 _atom_site_fract_x
 _atom_site_fract_y
 _atom_site_fract_z
 _atom_site_occupancy
  Er  Er0  1  0.47637200  0.41591200  0.75000000  1
  Er  Er1  1  0.02362800  0.91591200  0.75000000  1
  Er  Er2  1  0.52362800  0.58408800  0.25000000  1
  Er  Er3  1  0.97637200  0.08408800  0.25000000  1
  Ni  Ni4  1  0.00000000  0.50000000  0.00000000  1
  Ni  Ni5  1  0.50000000  0.00000000  0.50000000  1
  Ni  Ni6  1  0.00000000  0.50000000  0.50000000  1
  Ni  Ni7  1  0.50000000  0.00000000  0.00000000  1
  O  O8  1  0.69561800  0.31396200  0.44607100  1
  O  O9  1  0.80438200  0.81396200  0.05392900  1
  O  O10  1  0.30438200  0.68603800  0.55392900  1
  O  O11  1  0.19561800  0.18603800  0.94607100  1
  O  O12  1  0.19561800  0.18603800  0.55392900  1
  O  O13  1  0.30438200  0.68603800  0.94607100  1
  O  O14  1  0.80438200  0.81396200  0.44607100  1
  O  O15  1  0.69561800  0.31396200  0.05392900  1
  O  O16  1  0.11199000  0.46548800  0.25000000  1
  O  O17  1  0.38801000  0.96548800  0.25000000  1
  O  O18  1  0.88801000  0.53451200  0.75000000  1
  O  O19  1  0.61199000  0.03451200  0.75000000  1
