# generated using pymatgen
data_SrCdPt
_symmetry_space_group_name_H-M   'P 1'
_cell_length_a   4.56130600
_cell_length_b   7.59582900
_cell_length_c   8.71319800
_cell_angle_alpha   90.00000000
_cell_angle_beta   90.00000000
_cell_angle_gamma   90.00000000
_symmetry_Int_Tables_number   1
_chemical_formula_structural   SrCdPt
_chemical_formula_sum   'Sr4 Cd4 Pt4'
_cell_volume   301.88530321
_cell_formula_units_Z   4
loop_
 _symmetry_equiv_pos_site_id
 _symmetry_equiv_pos_as_xyz
  1  'x, y, z'
loop_
 _atom_site_type_symbol
 _atom_site_label
 _atom_site_symmetry_multiplicity
 _atom_site_fract_x
 _atom_site_fract_y
 _atom_site_fract_z
 _atom_site_occupancy
  Sr  Sr0  1  0.25000000  0.02977100  0.31950800  1
  Sr  Sr1  1  0.25000000  0.52977100  0.18049200  1
  Sr  Sr2  1  0.75000000  0.97022900  0.68049200  1
  Sr  Sr3  1  0.75000000  0.47022900  0.81950800  1
  Cd  Cd4  1  0.25000000  0.14496700  0.93439000  1
  Cd  Cd5  1  0.25000000  0.64496700  0.56561000  1
  Cd  Cd6  1  0.75000000  0.85503300  0.06561000  1
  Cd  Cd7  1  0.75000000  0.35503300  0.43439000  1
  Pt  Pt8  1  0.25000000  0.26964900  0.62298100  1
  Pt  Pt9  1  0.25000000  0.76964900  0.87701900  1
  Pt  Pt10  1  0.75000000  0.73035100  0.37701900  1
  Pt  Pt11  1  0.75000000  0.23035100  0.12298100  1
