# generated using pymatgen
data_Cs3CaFe(P2O7)2
_symmetry_space_group_name_H-M   'P 1'
_cell_length_a   9.45464700
_cell_length_b   11.42138700
_cell_length_c   15.32278500
_cell_angle_alpha   90.00000000
_cell_angle_beta   90.00000000
_cell_angle_gamma   90.00000000
_symmetry_Int_Tables_number   1
_chemical_formula_structural   Cs3CaFe(P2O7)2
_chemical_formula_sum   'Cs12 Ca4 Fe4 P16 O56'
_cell_volume   1654.63373211
_cell_formula_units_Z   4
loop_
 _symmetry_equiv_pos_site_id
 _symmetry_equiv_pos_as_xyz
  1  'x, y, z'
loop_
 _atom_site_type_symbol
 _atom_site_label
 _atom_site_symmetry_multiplicity
 _atom_site_fract_x
 _atom_site_fract_y
 _atom_site_fract_z
 _atom_site_occupancy
  Cs  Cs0  1  0.37259800  0.37008800  0.37024500  1
  Cs  Cs1  1  0.12740200  0.62991200  0.87024500  1
  Cs  Cs2  1  0.87259800  0.12991200  0.62975500  1
  Cs  Cs3  1  0.62740200  0.87008800  0.12975500  1
  Cs  Cs4  1  0.27826100  0.71281500  0.30418400  1
  Cs  Cs5  1  0.22173900  0.28718500  0.80418400  1
  Cs  Cs6  1  0.77826100  0.78718500  0.69581600  1
  Cs  Cs7  1  0.72173900  0.21281500  0.19581600  1
  Cs  Cs8  1  0.82382700  0.48936000  0.41035100  1
  Cs  Cs9  1  0.67617300  0.51064000  0.91035100  1
  Cs  Cs10  1  0.32382700  0.01064000  0.58964900  1
  Cs  Cs11  1  0.17617300  0.98936000  0.08964900  1
  Ca  Ca12  1  0.54449500  0.36491300  0.61690000  1
  Ca  Ca13  1  0.95550500  0.63508700  0.11690000  1
  Ca  Ca14  1  0.04449500  0.13508700  0.38310000  1
  Ca  Ca15  1  0.45550500  0.86491300  0.88310000  1
  Fe  Fe16  1  0.65022200  0.87615500  0.42675600  1
  Fe  Fe17  1  0.84977800  0.12384500  0.92675600  1
  Fe  Fe18  1  0.15022200  0.62384500  0.57324400  1
  Fe  Fe19  1  0.34977800  0.37615500  0.07324400  1
  P  P20  1  0.47985900  0.64509200  0.52199900  1
  P  P21  1  0.02014100  0.35490800  0.02199900  1
  P  P22  1  0.97985900  0.85490800  0.47800100  1
  P  P23  1  0.52014100  0.14509200  0.97800100  1
  P  P24  1  0.41580500  0.62825800  0.70807900  1
  P  P25  1  0.08419500  0.37174200  0.20807900  1
  P  P26  1  0.91580500  0.87174200  0.29192100  1
  P  P27  1  0.58419500  0.12825800  0.79192100  1
  P  P28  1  0.41967800  0.03849400  0.32807000  1
  P  P29  1  0.08032200  0.96150600  0.82807000  1
  P  P30  1  0.91967800  0.46150600  0.67193000  1
  P  P31  1  0.58032200  0.53849400  0.17193000  1
  P  P32  1  0.65151100  0.14978600  0.43750500  1
  P  P33  1  0.84848900  0.85021400  0.93750500  1
  P  P34  1  0.15151100  0.35021400  0.56249500  1
  P  P35  1  0.34848900  0.64978600  0.06249500  1
  O  O36  1  0.57094500  0.73090900  0.46985100  1
  O  O37  1  0.92905500  0.26909100  0.96985100  1
  O  O38  1  0.07094500  0.76909100  0.53014900  1
  O  O39  1  0.42905500  0.23090900  0.03014900  1
  O  O40  1  0.47037800  0.50471400  0.72198900  1
  O  O41  1  0.02962200  0.49528600  0.22198900  1
  O  O42  1  0.97037800  0.99528600  0.27801100  1
  O  O43  1  0.52962200  0.00471400  0.77801100  1
  O  O44  1  0.41858200  0.03098000  0.22973900  1
  O  O45  1  0.08141800  0.96902000  0.72973900  1
  O  O46  1  0.91858200  0.46902000  0.77026100  1
  O  O47  1  0.58141800  0.53098000  0.27026100  1
  O  O48  1  0.28763900  0.08686500  0.37194800  1
  O  O49  1  0.21236100  0.91313500  0.87194800  1
  O  O50  1  0.78763900  0.41313500  0.62805200  1
  O  O51  1  0.71236100  0.58686500  0.12805200  1
  O  O52  1  0.50004500  0.68642500  0.62373800  1
  O  O53  1  0.99995500  0.31357500  0.12373800  1
  O  O54  1  0.00004500  0.81357500  0.37626200  1
  O  O55  1  0.49995500  0.18642500  0.87626200  1
  O  O56  1  0.44427400  0.71210800  0.78239700  1
  O  O57  1  0.05572600  0.28789200  0.28239700  1
  O  O58  1  0.94427400  0.78789200  0.21760300  1
  O  O59  1  0.55572600  0.21210800  0.71760300  1
  O  O60  1  0.54913200  0.13343600  0.35172000  1
  O  O61  1  0.95086800  0.86656400  0.85172000  1
  O  O62  1  0.04913200  0.36656400  0.64828000  1
  O  O63  1  0.45086800  0.63343600  0.14828000  1
  O  O64  1  0.52897900  0.51960300  0.51314100  1
  O  O65  1  0.97102100  0.48039700  0.01314100  1
  O  O66  1  0.02897900  0.98039700  0.48685900  1
  O  O67  1  0.47102100  0.01960300  0.98685900  1
  O  O68  1  0.46902100  0.92066000  0.37066900  1
  O  O69  1  0.03097900  0.07934000  0.87066900  1
  O  O70  1  0.96902100  0.57934000  0.62933100  1
  O  O71  1  0.53097900  0.42066000  0.12933100  1
  O  O72  1  0.75651300  0.87074600  0.31893400  1
  O  O73  1  0.74348700  0.12925400  0.81893400  1
  O  O74  1  0.25651300  0.62925400  0.68106600  1
  O  O75  1  0.24348700  0.37074600  0.18106600  1
  O  O76  1  0.32249800  0.66460600  0.50101300  1
  O  O77  1  0.17750200  0.33539400  0.00101300  1
  O  O78  1  0.82249800  0.83539400  0.49898700  1
  O  O79  1  0.67750200  0.16460600  0.99898700  1
  O  O80  1  0.79563400  0.18111900  0.40042000  1
  O  O81  1  0.70436600  0.81888100  0.90042000  1
  O  O82  1  0.29563400  0.31888100  0.59958000  1
  O  O83  1  0.20436600  0.68111900  0.09958000  1
  O  O84  1  0.58647200  0.24298400  0.49564900  1
  O  O85  1  0.91352800  0.75701600  0.99564900  1
  O  O86  1  0.08647200  0.25701600  0.50435100  1
  O  O87  1  0.41352800  0.74298400  0.00435100  1
  O  O88  1  0.65008700  0.02869700  0.48504000  1
  O  O89  1  0.84991300  0.97130300  0.98504000  1
  O  O90  1  0.15008700  0.47130300  0.51496000  1
  O  O91  1  0.34991300  0.52869700  0.01496000  1
