# generated using pymatgen
data_K4ZrO4
_symmetry_space_group_name_H-M   'P 1'
_cell_length_a   6.64856100
_cell_length_b   6.67875798
_cell_length_c   9.92888500
_cell_angle_alpha   71.50599613
_cell_angle_beta   79.79359736
_cell_angle_gamma   66.90703813
_symmetry_Int_Tables_number   1
_chemical_formula_structural   K4ZrO4
_chemical_formula_sum   'K8 Zr2 O8'
_cell_volume   383.90665145
_cell_formula_units_Z   2
loop_
 _symmetry_equiv_pos_site_id
 _symmetry_equiv_pos_as_xyz
  1  'x, y, z'
loop_
 _atom_site_type_symbol
 _atom_site_label
 _atom_site_symmetry_multiplicity
 _atom_site_fract_x
 _atom_site_fract_y
 _atom_site_fract_z
 _atom_site_occupancy
  K  K0  1  0.77858300  0.03968200  0.38164500  1
  K  K1  1  0.22141700  0.96031800  0.61835500  1
  K  K2  1  0.74189600  0.58739300  0.16661900  1
  K  K3  1  0.25810400  0.41260700  0.83338100  1
  K  K4  1  0.24238900  0.76321000  0.02661700  1
  K  K5  1  0.75761100  0.23679000  0.97338300  1
  K  K6  1  0.27377400  0.51207800  0.44103500  1
  K  K7  1  0.72622600  0.48792200  0.55896500  1
  Zr  Zr8  1  0.27670000  0.15429600  0.24661700  1
  Zr  Zr9  1  0.72330000  0.84570400  0.75338300  1
  O  O10  1  0.03540300  0.29409200  0.37887200  1
  O  O11  1  0.96459700  0.70590800  0.62112800  1
  O  O12  1  0.53843000  0.15802400  0.64706300  1
  O  O13  1  0.46157000  0.84197600  0.35293700  1
  O  O14  1  0.46501900  0.34406400  0.19023000  1
  O  O15  1  0.53498100  0.65593600  0.80977000  1
  O  O16  1  0.12881700  0.15910800  0.08618400  1
  O  O17  1  0.87118300  0.84089200  0.91381600  1
