# generated using pymatgen
data_InCuGeS4
_symmetry_space_group_name_H-M   'P 1'
_cell_length_a   6.45192112
_cell_length_b   6.45192112
_cell_length_c   6.45192112
_cell_angle_alpha   128.40439369
_cell_angle_beta   128.40439369
_cell_angle_gamma   75.97083607
_symmetry_Int_Tables_number   1
_chemical_formula_structural   InCuGeS4
_chemical_formula_sum   'In1 Cu1 Ge1 S4'
_cell_volume   160.36757471
_cell_formula_units_Z   1
loop_
 _symmetry_equiv_pos_site_id
 _symmetry_equiv_pos_as_xyz
  1  'x, y, z'
loop_
 _atom_site_type_symbol
 _atom_site_label
 _atom_site_symmetry_multiplicity
 _atom_site_fract_x
 _atom_site_fract_y
 _atom_site_fract_z
 _atom_site_occupancy
  In  In0  1  0.50000000  0.50000000  0.00000000  1
  Cu  Cu1  1  0.00000000  0.00000000  0.00000000  1
  Ge  Ge2  1  0.75000000  0.25000000  0.50000000  1
  S  S3  1  0.37658400  0.36126100  0.46915000  1
  S  S4  1  0.89211000  0.90743400  0.53085000  1
  S  S5  1  0.63873900  0.10789000  0.01532400  1
  S  S6  1  0.09256600  0.62341600  0.98467600  1
