# generated using pymatgen
data_MgHN
_symmetry_space_group_name_H-M   'P 1'
_cell_length_a   11.60703100
_cell_length_b   11.60703014
_cell_length_c   3.71497200
_cell_angle_alpha   90.00000000
_cell_angle_beta   90.00000000
_cell_angle_gamma   119.99999961
_symmetry_Int_Tables_number   1
_chemical_formula_structural   MgHN
_chemical_formula_sum   'Mg12 H12 N12'
_cell_volume   433.43944799
_cell_formula_units_Z   12
loop_
 _symmetry_equiv_pos_site_id
 _symmetry_equiv_pos_as_xyz
  1  'x, y, z'
loop_
 _atom_site_type_symbol
 _atom_site_label
 _atom_site_symmetry_multiplicity
 _atom_site_fract_x
 _atom_site_fract_y
 _atom_site_fract_z
 _atom_site_occupancy
  Mg  Mg0  1  0.41664700  0.13503000  0.00000000  1
  Mg  Mg1  1  0.86497000  0.28161800  0.00000000  1
  Mg  Mg2  1  0.28161800  0.41664800  0.00000000  1
  Mg  Mg3  1  0.71838300  0.58335300  0.00000000  1
  Mg  Mg4  1  0.13503100  0.71838300  0.00000000  1
  Mg  Mg5  1  0.58335300  0.86497000  0.00000000  1
  Mg  Mg6  1  0.64561100  0.07059600  0.50000100  1
  Mg  Mg7  1  0.42498500  0.35438900  0.50000100  1
  Mg  Mg8  1  0.07059600  0.42498500  0.50000100  1
  Mg  Mg9  1  0.92940400  0.57501500  0.50000100  1
  Mg  Mg10  1  0.57501500  0.64561100  0.50000100  1
  Mg  Mg11  1  0.35438900  0.92940400  0.50000100  1
  H  H12  1  0.80986100  0.05581900  0.00000000  1
  H  H13  1  0.24595900  0.19013900  0.00000000  1
  H  H14  1  0.05581900  0.24595900  0.00000000  1
  H  H15  1  0.94418000  0.75404200  0.00000000  1
  H  H16  1  0.75404200  0.80986100  0.00000000  1
  H  H17  1  0.19013900  0.94418000  0.00000000  1
  H  H18  1  0.57365700  0.23955800  0.50000100  1
  H  H19  1  0.76044200  0.33409900  0.50000100  1
  H  H20  1  0.66590100  0.42634300  0.50000100  1
  H  H21  1  0.33409900  0.57365700  0.50000100  1
  H  H22  1  0.23955800  0.66590100  0.50000100  1
  H  H23  1  0.42634300  0.76044200  0.50000100  1
  N  N24  1  0.73163800  0.07406700  0.00000000  1
  N  N25  1  0.34242900  0.26836200  0.00000000  1
  N  N26  1  0.07406800  0.34243000  0.00000000  1
  N  N27  1  0.92593200  0.65757000  0.00000000  1
  N  N28  1  0.65757100  0.73163800  0.00000000  1
  N  N29  1  0.26836300  0.92593300  0.00000000  1
  N  N30  1  0.50754900  0.13902000  0.50000100  1
  N  N31  1  0.86098000  0.36852800  0.50000100  1
  N  N32  1  0.63147200  0.49245100  0.50000100  1
  N  N33  1  0.36852800  0.50754900  0.50000100  1
  N  N34  1  0.13902100  0.63147200  0.50000100  1
  N  N35  1  0.49245100  0.86098000  0.50000100  1
