# generated using pymatgen
data_ErTl2P2Se7
_symmetry_space_group_name_H-M   'P 1'
_cell_length_a   12.53298926
_cell_length_b   12.53298926
_cell_length_c   19.20375676
_cell_angle_alpha   61.14307394
_cell_angle_beta   61.14307394
_cell_angle_gamma   32.86776686
_symmetry_Int_Tables_number   1
_chemical_formula_structural   ErTl2P2Se7
_chemical_formula_sum   'Er4 Tl8 P8 Se28'
_cell_volume   1414.69173926
_cell_formula_units_Z   4
loop_
 _symmetry_equiv_pos_site_id
 _symmetry_equiv_pos_as_xyz
  1  'x, y, z'
loop_
 _atom_site_type_symbol
 _atom_site_label
 _atom_site_symmetry_multiplicity
 _atom_site_fract_x
 _atom_site_fract_y
 _atom_site_fract_z
 _atom_site_occupancy
  Er  Er0  1  0.89155800  0.79184400  0.23805200  1
  Er  Er1  1  0.20815600  0.10844200  0.26194800  1
  Er  Er2  1  0.10844200  0.20815600  0.76194800  1
  Er  Er3  1  0.79184400  0.89155800  0.73805200  1
  Tl  Tl4  1  0.83716400  0.80878100  0.01943600  1
  Tl  Tl5  1  0.19121900  0.16283600  0.48056400  1
  Tl  Tl6  1  0.16283600  0.19121900  0.98056400  1
  Tl  Tl7  1  0.80878100  0.83716400  0.51943600  1
  Tl  Tl8  1  0.53870200  0.47769800  0.12217100  1
  Tl  Tl9  1  0.52230200  0.46129800  0.37782900  1
  Tl  Tl10  1  0.46129800  0.52230200  0.87782900  1
  Tl  Tl11  1  0.47769800  0.53870200  0.62217100  1
  P  P12  1  0.67968800  0.65690400  0.36080000  1
  P  P13  1  0.34309600  0.32031200  0.13920000  1
  P  P14  1  0.32031200  0.34309600  0.63920000  1
  P  P15  1  0.65690400  0.67968800  0.86080000  1
  P  P16  1  0.98280700  0.92269700  0.30866000  1
  P  P17  1  0.07730300  0.01719300  0.19134000  1
  P  P18  1  0.01719300  0.07730300  0.69134000  1
  P  P19  1  0.92269700  0.98280700  0.80866000  1
  Se  Se20  1  0.00773300  0.95175600  0.40152900  1
  Se  Se21  1  0.04824400  0.99226600  0.09847100  1
  Se  Se22  1  0.99226700  0.04824400  0.59847100  1
  Se  Se23  1  0.95175600  0.00773400  0.90152900  1
  Se  Se24  1  0.18666400  0.61461900  0.30651300  1
  Se  Se25  1  0.38538100  0.81333600  0.19348700  1
  Se  Se26  1  0.81333600  0.38538100  0.69348700  1
  Se  Se27  1  0.61461900  0.18666400  0.80651300  1
  Se  Se28  1  0.16802100  0.63113900  0.08577500  1
  Se  Se29  1  0.36886100  0.83197900  0.41422500  1
  Se  Se30  1  0.83197900  0.36886100  0.91422500  1
  Se  Se31  1  0.63113900  0.16802100  0.58577500  1
  Se  Se32  1  0.21883500  0.32991600  0.27145800  1
  Se  Se33  1  0.67008400  0.78116500  0.22854200  1
  Se  Se34  1  0.78116500  0.67008400  0.72854200  1
  Se  Se35  1  0.32991600  0.21883500  0.77145800  1
  Se  Se36  1  0.76369700  0.71105300  0.40507500  1
  Se  Se37  1  0.28894700  0.23630300  0.09492500  1
  Se  Se38  1  0.23630300  0.28894700  0.59492500  1
  Se  Se39  1  0.71105300  0.76369700  0.90507500  1
  Se  Se40  1  0.87369100  0.33800700  0.39315800  1
  Se  Se41  1  0.66199300  0.12630900  0.10684200  1
  Se  Se42  1  0.12630900  0.66199300  0.60684200  1
  Se  Se43  1  0.33800700  0.87369100  0.89315800  1
  Se  Se44  1  0.88706400  0.31854100  0.19362300  1
  Se  Se45  1  0.68145900  0.11293600  0.30637700  1
  Se  Se46  1  0.11293600  0.68145900  0.80637700  1
  Se  Se47  1  0.31854100  0.88706400  0.69362300  1
