# generated using pymatgen
data_Ca5(GaSb3)2
_symmetry_space_group_name_H-M   'P 1'
_cell_length_a   4.49567400
_cell_length_b   12.16568700
_cell_length_c   14.10627600
_cell_angle_alpha   90.00000000
_cell_angle_beta   90.00000000
_cell_angle_gamma   90.00000000
_symmetry_Int_Tables_number   1
_chemical_formula_structural   Ca5(GaSb3)2
_chemical_formula_sum   'Ca10 Ga4 Sb12'
_cell_volume   771.51402764
_cell_formula_units_Z   2
loop_
 _symmetry_equiv_pos_site_id
 _symmetry_equiv_pos_as_xyz
  1  'x, y, z'
loop_
 _atom_site_type_symbol
 _atom_site_label
 _atom_site_symmetry_multiplicity
 _atom_site_fract_x
 _atom_site_fract_y
 _atom_site_fract_z
 _atom_site_occupancy
  Ca  Ca0  1  0.50000000  0.67184100  0.48326300  1
  Ca  Ca1  1  0.50000000  0.32815900  0.51673700  1
  Ca  Ca2  1  0.50000000  0.82815900  0.98326300  1
  Ca  Ca3  1  0.50000000  0.17184100  0.01673700  1
  Ca  Ca4  1  0.50000000  0.00000000  0.50000000  1
  Ca  Ca5  1  0.50000000  0.50000000  0.00000000  1
  Ca  Ca6  1  0.50000000  0.90844800  0.25280000  1
  Ca  Ca7  1  0.50000000  0.09155200  0.74720000  1
  Ca  Ca8  1  0.50000000  0.40844800  0.24720000  1
  Ca  Ca9  1  0.50000000  0.59155200  0.75280000  1
  Ga  Ga10  1  0.00000000  0.33021900  0.71157800  1
  Ga  Ga11  1  0.00000000  0.66978100  0.28842200  1
  Ga  Ga12  1  0.00000000  0.83021900  0.78842200  1
  Ga  Ga13  1  0.00000000  0.16978100  0.21157800  1
  Sb  Sb14  1  0.00000000  0.97404400  0.09997600  1
  Sb  Sb15  1  0.00000000  0.02595600  0.90002400  1
  Sb  Sb16  1  0.00000000  0.47404400  0.40002400  1
  Sb  Sb17  1  0.00000000  0.52595600  0.59997600  1
  Sb  Sb18  1  0.50000000  0.16264400  0.32297900  1
  Sb  Sb19  1  0.50000000  0.83735600  0.67702100  1
  Sb  Sb20  1  0.50000000  0.66264400  0.17702100  1
  Sb  Sb21  1  0.50000000  0.33735600  0.82297900  1
  Sb  Sb22  1  0.00000000  0.34511600  0.09151100  1
  Sb  Sb23  1  0.00000000  0.65488400  0.90848900  1
  Sb  Sb24  1  0.00000000  0.84511600  0.40848900  1
  Sb  Sb25  1  0.00000000  0.15488400  0.59151100  1
