# generated using pymatgen
data_BaMg
_symmetry_space_group_name_H-M   'P 1'
_cell_length_a   4.38482400
_cell_length_b   6.18500900
_cell_length_c   6.19698400
_cell_angle_alpha   90.00000000
_cell_angle_beta   90.00000000
_cell_angle_gamma   90.00000000
_symmetry_Int_Tables_number   1
_chemical_formula_structural   BaMg
_chemical_formula_sum   'Ba2 Mg2'
_cell_volume   168.06329615
_cell_formula_units_Z   2
loop_
 _symmetry_equiv_pos_site_id
 _symmetry_equiv_pos_as_xyz
  1  'x, y, z'
loop_
 _atom_site_type_symbol
 _atom_site_label
 _atom_site_symmetry_multiplicity
 _atom_site_fract_x
 _atom_site_fract_y
 _atom_site_fract_z
 _atom_site_occupancy
  Ba  Ba0  1  0.00000000  0.24360300  0.25000000  1
  Ba  Ba1  1  0.00000000  0.75639700  0.75000000  1
  Mg  Mg2  1  0.50000000  0.25812000  0.75000000  1
  Mg  Mg3  1  0.50000000  0.74188000  0.25000000  1
