# generated using pymatgen
data_Ca2Ag7
_symmetry_space_group_name_H-M   'P 1'
_cell_length_a   5.56795967
_cell_length_b   5.56795967
_cell_length_c   14.26040200
_cell_angle_alpha   90.00000000
_cell_angle_beta   90.00000000
_cell_angle_gamma   119.89119686
_symmetry_Int_Tables_number   1
_chemical_formula_structural   Ca2Ag7
_chemical_formula_sum   'Ca4 Ag14'
_cell_volume   383.29192317
_cell_formula_units_Z   2
loop_
 _symmetry_equiv_pos_site_id
 _symmetry_equiv_pos_as_xyz
  1  'x, y, z'
loop_
 _atom_site_type_symbol
 _atom_site_label
 _atom_site_symmetry_multiplicity
 _atom_site_fract_x
 _atom_site_fract_y
 _atom_site_fract_z
 _atom_site_occupancy
  Ca  Ca0  1  0.32108700  0.32108700  0.11480500  1
  Ca  Ca1  1  0.67891300  0.67891300  0.61480500  1
  Ca  Ca2  1  0.32108700  0.32108700  0.38519500  1
  Ca  Ca3  1  0.67891300  0.67891300  0.88519500  1
  Ag  Ag4  1  0.82864400  0.82864400  0.25000000  1
  Ag  Ag5  1  0.17135600  0.17135600  0.75000000  1
  Ag  Ag6  1  0.82717700  0.32930400  0.25000000  1
  Ag  Ag7  1  0.17282300  0.67069600  0.75000000  1
  Ag  Ag8  1  0.32930400  0.82717700  0.25000000  1
  Ag  Ag9  1  0.67069600  0.17282300  0.75000000  1
  Ag  Ag10  1  0.99367200  0.66358100  0.07645800  1
  Ag  Ag11  1  0.00632800  0.33641900  0.57645800  1
  Ag  Ag12  1  0.66358100  0.99367200  0.42354200  1
  Ag  Ag13  1  0.33641900  0.00632800  0.92354200  1
  Ag  Ag14  1  0.00632800  0.33641900  0.92354200  1
  Ag  Ag15  1  0.99367200  0.66358100  0.42354200  1
  Ag  Ag16  1  0.33641900  0.00632800  0.57645800  1
  Ag  Ag17  1  0.66358100  0.99367200  0.07645800  1
