# generated using pymatgen
data_LiCaSb
_symmetry_space_group_name_H-M   'P 1'
_cell_length_a   4.64635600
_cell_length_b   7.67557600
_cell_length_c   8.35652500
_cell_angle_alpha   90.00000000
_cell_angle_beta   90.00000000
_cell_angle_gamma   90.00000000
_symmetry_Int_Tables_number   1
_chemical_formula_structural   LiCaSb
_chemical_formula_sum   'Li4 Ca4 Sb4'
_cell_volume   298.02258339
_cell_formula_units_Z   4
loop_
 _symmetry_equiv_pos_site_id
 _symmetry_equiv_pos_as_xyz
  1  'x, y, z'
loop_
 _atom_site_type_symbol
 _atom_site_label
 _atom_site_symmetry_multiplicity
 _atom_site_fract_x
 _atom_site_fract_y
 _atom_site_fract_z
 _atom_site_occupancy
  Li  Li0  1  0.75000000  0.84873500  0.42797600  1
  Li  Li1  1  0.25000000  0.15126500  0.57202400  1
  Li  Li2  1  0.25000000  0.65126500  0.92797600  1
  Li  Li3  1  0.75000000  0.34873500  0.07202400  1
  Ca  Ca4  1  0.75000000  0.48963900  0.70163200  1
  Ca  Ca5  1  0.75000000  0.98963900  0.79836800  1
  Ca  Ca6  1  0.25000000  0.51036100  0.29836800  1
  Ca  Ca7  1  0.25000000  0.01036100  0.20163200  1
  Sb  Sb8  1  0.75000000  0.73080800  0.10045000  1
  Sb  Sb9  1  0.25000000  0.26919200  0.89955000  1
  Sb  Sb10  1  0.75000000  0.23080800  0.39955000  1
  Sb  Sb11  1  0.25000000  0.76919200  0.60045000  1
