# generated using pymatgen
data_Tb2(SO4)3
_symmetry_space_group_name_H-M   'P 1'
_cell_length_a   9.29575800
_cell_length_b   9.53141700
_cell_length_c   12.97773700
_cell_angle_alpha   90.00000000
_cell_angle_beta   90.00000000
_cell_angle_gamma   90.00000000
_symmetry_Int_Tables_number   1
_chemical_formula_structural   Tb2(SO4)3
_chemical_formula_sum   'Tb8 S12 O48'
_cell_volume   1149.85015511
_cell_formula_units_Z   4
loop_
 _symmetry_equiv_pos_site_id
 _symmetry_equiv_pos_as_xyz
  1  'x, y, z'
loop_
 _atom_site_type_symbol
 _atom_site_label
 _atom_site_symmetry_multiplicity
 _atom_site_fract_x
 _atom_site_fract_y
 _atom_site_fract_z
 _atom_site_occupancy
  Tb  Tb0  1  0.25205600  0.46558200  0.11745200  1
  Tb  Tb1  1  0.74794400  0.53441800  0.88254800  1
  Tb  Tb2  1  0.24794400  0.96558200  0.38254800  1
  Tb  Tb3  1  0.25205600  0.03441800  0.88254800  1
  Tb  Tb4  1  0.75205600  0.03441800  0.61745200  1
  Tb  Tb5  1  0.74794400  0.96558200  0.11745200  1
  Tb  Tb6  1  0.24794400  0.53441800  0.61745200  1
  Tb  Tb7  1  0.75205600  0.46558200  0.38254800  1
  S  S8  1  0.52959500  0.25000000  0.00000000  1
  S  S9  1  0.47040500  0.75000000  0.00000000  1
  S  S10  1  0.97040500  0.75000000  0.50000000  1
  S  S11  1  0.02959500  0.25000000  0.50000000  1
  S  S12  1  0.10543300  0.11849700  0.14401000  1
  S  S13  1  0.89456700  0.88150300  0.85599000  1
  S  S14  1  0.39456700  0.61849700  0.35599000  1
  S  S15  1  0.10543300  0.38150300  0.85599000  1
  S  S16  1  0.60543300  0.38150300  0.64401000  1
  S  S17  1  0.89456700  0.61849700  0.14401000  1
  S  S18  1  0.39456700  0.88150300  0.64401000  1
  S  S19  1  0.60543300  0.11849700  0.35599000  1
  O  O20  1  0.16737500  0.08045500  0.04292500  1
  O  O21  1  0.83262500  0.91954500  0.95707500  1
  O  O22  1  0.33262500  0.58045500  0.45707500  1
  O  O23  1  0.16737500  0.41954500  0.95707500  1
  O  O24  1  0.66737500  0.41954500  0.54292500  1
  O  O25  1  0.83262500  0.58045500  0.04292500  1
  O  O26  1  0.33262500  0.91954500  0.54292500  1
  O  O27  1  0.66737500  0.08045500  0.45707500  1
  O  O28  1  0.16996900  0.02758400  0.22472300  1
  O  O29  1  0.83003100  0.97241600  0.77527700  1
  O  O30  1  0.33003100  0.52758400  0.27527700  1
  O  O31  1  0.16996900  0.47241600  0.77527700  1
  O  O32  1  0.66996900  0.47241600  0.72472300  1
  O  O33  1  0.83003100  0.52758400  0.22472300  1
  O  O34  1  0.33003100  0.97241600  0.72472300  1
  O  O35  1  0.66996900  0.02758400  0.27527700  1
  O  O36  1  0.12212800  0.14691400  0.44641400  1
  O  O37  1  0.87787200  0.85308600  0.55358600  1
  O  O38  1  0.37787200  0.64691400  0.05358600  1
  O  O39  1  0.12212800  0.35308600  0.55358600  1
  O  O40  1  0.62212800  0.35308600  0.94641400  1
  O  O41  1  0.87787200  0.64691400  0.44641400  1
  O  O42  1  0.37787200  0.85308600  0.94641400  1
  O  O43  1  0.62212800  0.14691400  0.05358600  1
  O  O44  1  0.13657800  0.26756200  0.16813800  1
  O  O45  1  0.86342200  0.73243800  0.83186200  1
  O  O46  1  0.36342200  0.76756200  0.33186200  1
  O  O47  1  0.13657800  0.23243800  0.83186200  1
  O  O48  1  0.63657800  0.23243800  0.66813800  1
  O  O49  1  0.86342200  0.76756200  0.16813800  1
  O  O50  1  0.36342200  0.73243800  0.66813800  1
  O  O51  1  0.63657800  0.26756200  0.33186200  1
  O  O52  1  0.43801900  0.32174600  0.07725000  1
  O  O53  1  0.56198100  0.67825400  0.92275000  1
  O  O54  1  0.06198100  0.82174600  0.42275000  1
  O  O55  1  0.43801900  0.17825400  0.92275000  1
  O  O56  1  0.93801900  0.17825400  0.57725000  1
  O  O57  1  0.56198100  0.82174600  0.07725000  1
  O  O58  1  0.06198100  0.67825400  0.57725000  1
  O  O59  1  0.93801900  0.32174600  0.42275000  1
  O  O60  1  0.44741000  0.09796500  0.35766800  1
  O  O61  1  0.55259000  0.90203500  0.64233200  1
  O  O62  1  0.05259000  0.59796500  0.14233200  1
  O  O63  1  0.44741000  0.40203500  0.64233200  1
  O  O64  1  0.94741000  0.40203500  0.85766800  1
  O  O65  1  0.55259000  0.59796500  0.35766800  1
  O  O66  1  0.05259000  0.90203500  0.85766800  1
  O  O67  1  0.94741000  0.09796500  0.14233200  1
