# generated using pymatgen
data_Tb3Ru
_symmetry_space_group_name_H-M   'P 1'
_cell_length_a   6.32769900
_cell_length_b   7.32054400
_cell_length_c   9.29980100
_cell_angle_alpha   90.00000000
_cell_angle_beta   90.00000000
_cell_angle_gamma   90.00000000
_symmetry_Int_Tables_number   1
_chemical_formula_structural   Tb3Ru
_chemical_formula_sum   'Tb12 Ru4'
_cell_volume   430.78723210
_cell_formula_units_Z   4
loop_
 _symmetry_equiv_pos_site_id
 _symmetry_equiv_pos_as_xyz
  1  'x, y, z'
loop_
 _atom_site_type_symbol
 _atom_site_label
 _atom_site_symmetry_multiplicity
 _atom_site_fract_x
 _atom_site_fract_y
 _atom_site_fract_z
 _atom_site_occupancy
  Tb  Tb0  1  0.32812200  0.67522800  0.06540400  1
  Tb  Tb1  1  0.17187800  0.17522800  0.43459600  1
  Tb  Tb2  1  0.67187800  0.32477200  0.56540400  1
  Tb  Tb3  1  0.82812200  0.82477200  0.93459600  1
  Tb  Tb4  1  0.67187800  0.32477200  0.93459600  1
  Tb  Tb5  1  0.82812200  0.82477200  0.56540400  1
  Tb  Tb6  1  0.32812200  0.67522800  0.43459600  1
  Tb  Tb7  1  0.17187800  0.17522800  0.06540400  1
  Tb  Tb8  1  0.86229800  0.53935300  0.25000000  1
  Tb  Tb9  1  0.63770200  0.03935300  0.25000000  1
  Tb  Tb10  1  0.13770200  0.46064700  0.75000000  1
  Tb  Tb11  1  0.36229800  0.96064700  0.75000000  1
  Ru  Ru12  1  0.04218500  0.88433600  0.25000000  1
  Ru  Ru13  1  0.45781500  0.38433600  0.25000000  1
  Ru  Ru14  1  0.95781500  0.11566400  0.75000000  1
  Ru  Ru15  1  0.54218500  0.61566400  0.75000000  1
