# generated using pymatgen
data_Eu(ErSe2)2
_symmetry_space_group_name_H-M   'P 1'
_cell_length_a   4.11392100
_cell_length_b   12.51148900
_cell_length_c   14.85517800
_cell_angle_alpha   90.00000000
_cell_angle_beta   90.00000000
_cell_angle_gamma   90.00000000
_symmetry_Int_Tables_number   1
_chemical_formula_structural   Eu(ErSe2)2
_chemical_formula_sum   'Eu4 Er8 Se16'
_cell_volume   764.61498675
_cell_formula_units_Z   4
loop_
 _symmetry_equiv_pos_site_id
 _symmetry_equiv_pos_as_xyz
  1  'x, y, z'
loop_
 _atom_site_type_symbol
 _atom_site_label
 _atom_site_symmetry_multiplicity
 _atom_site_fract_x
 _atom_site_fract_y
 _atom_site_fract_z
 _atom_site_occupancy
  Eu  Eu0  1  0.25000000  0.75931700  0.33474800  1
  Eu  Eu1  1  0.25000000  0.25931700  0.16525200  1
  Eu  Eu2  1  0.75000000  0.24068300  0.66525200  1
  Eu  Eu3  1  0.75000000  0.74068300  0.83474800  1
  Er  Er4  1  0.25000000  0.41758400  0.90204200  1
  Er  Er5  1  0.25000000  0.91758400  0.59795800  1
  Er  Er6  1  0.75000000  0.58241600  0.09795800  1
  Er  Er7  1  0.75000000  0.08241600  0.40204200  1
  Er  Er8  1  0.25000000  0.43661700  0.38926200  1
  Er  Er9  1  0.25000000  0.93661700  0.11073800  1
  Er  Er10  1  0.75000000  0.56338300  0.61073800  1
  Er  Er11  1  0.75000000  0.06338300  0.88926200  1
  Se  Se12  1  0.25000000  0.20600600  0.82660700  1
  Se  Se13  1  0.25000000  0.70600600  0.67339300  1
  Se  Se14  1  0.75000000  0.79399400  0.17339300  1
  Se  Se15  1  0.75000000  0.29399400  0.32660700  1
  Se  Se16  1  0.25000000  0.13075400  0.53064800  1
  Se  Se17  1  0.25000000  0.63075400  0.96935200  1
  Se  Se18  1  0.75000000  0.86924600  0.46935200  1
  Se  Se19  1  0.75000000  0.36924600  0.03064800  1
  Se  Se20  1  0.25000000  0.52608600  0.21553700  1
  Se  Se21  1  0.25000000  0.02608600  0.28446300  1
  Se  Se22  1  0.75000000  0.47391400  0.78446300  1
  Se  Se23  1  0.75000000  0.97391400  0.71553700  1
  Se  Se24  1  0.25000000  0.40939700  0.57806600  1
  Se  Se25  1  0.25000000  0.90939700  0.92193400  1
  Se  Se26  1  0.75000000  0.59060300  0.42193400  1
  Se  Se27  1  0.75000000  0.09060300  0.07806600  1
