# generated using pymatgen
data_SmIn2Cl5
_symmetry_space_group_name_H-M   'P 1'
_cell_length_a   8.20489200
_cell_length_b   8.72991900
_cell_length_c   13.06615200
_cell_angle_alpha   90.00000000
_cell_angle_beta   90.00000000
_cell_angle_gamma   90.00000000
_symmetry_Int_Tables_number   1
_chemical_formula_structural   SmIn2Cl5
_chemical_formula_sum   'Sm4 In8 Cl20'
_cell_volume   935.90289160
_cell_formula_units_Z   4
loop_
 _symmetry_equiv_pos_site_id
 _symmetry_equiv_pos_as_xyz
  1  'x, y, z'
loop_
 _atom_site_type_symbol
 _atom_site_label
 _atom_site_symmetry_multiplicity
 _atom_site_fract_x
 _atom_site_fract_y
 _atom_site_fract_z
 _atom_site_occupancy
  Sm  Sm0  1  0.92605400  0.75000000  0.50392800  1
  Sm  Sm1  1  0.07394600  0.25000000  0.49607200  1
  Sm  Sm2  1  0.42605400  0.25000000  0.99607200  1
  Sm  Sm3  1  0.57394600  0.75000000  0.00392800  1
  In  In4  1  0.95060200  0.00561700  0.82748300  1
  In  In5  1  0.04939800  0.99438300  0.17251700  1
  In  In6  1  0.45060200  0.99438300  0.67251700  1
  In  In7  1  0.04939800  0.50561700  0.17251700  1
  In  In8  1  0.54939800  0.00561700  0.32748300  1
  In  In9  1  0.95060200  0.49438300  0.82748300  1
  In  In10  1  0.54939800  0.49438300  0.32748300  1
  In  In11  1  0.45060200  0.50561700  0.67251700  1
  Cl  Cl12  1  0.11605100  0.75000000  0.67705900  1
  Cl  Cl13  1  0.88394900  0.25000000  0.32294100  1
  Cl  Cl14  1  0.61605100  0.25000000  0.82294100  1
  Cl  Cl15  1  0.38394900  0.75000000  0.17705900  1
  Cl  Cl16  1  0.83921800  0.04285100  0.57419500  1
  Cl  Cl17  1  0.16078200  0.95714900  0.42580500  1
  Cl  Cl18  1  0.33921800  0.95714900  0.92580500  1
  Cl  Cl19  1  0.16078200  0.54285100  0.42580500  1
  Cl  Cl20  1  0.66078200  0.04285100  0.07419500  1
  Cl  Cl21  1  0.83921800  0.45714900  0.57419500  1
  Cl  Cl22  1  0.66078200  0.45714900  0.07419500  1
  Cl  Cl23  1  0.33921800  0.54285100  0.92580500  1
  Cl  Cl24  1  0.58730400  0.75000000  0.50849300  1
  Cl  Cl25  1  0.41269600  0.25000000  0.49150700  1
  Cl  Cl26  1  0.08730400  0.25000000  0.99150700  1
  Cl  Cl27  1  0.91269600  0.75000000  0.00849300  1
  Cl  Cl28  1  0.65902100  0.75000000  0.80042000  1
  Cl  Cl29  1  0.34097900  0.25000000  0.19958000  1
  Cl  Cl30  1  0.15902100  0.25000000  0.69958000  1
  Cl  Cl31  1  0.84097900  0.75000000  0.30042000  1
