# generated using pymatgen
data_Y2(GePt3)3
_symmetry_space_group_name_H-M   'P 1'
_cell_length_a   7.82487225
_cell_length_b   7.82487225
_cell_length_c   10.13374880
_cell_angle_alpha   67.03674437
_cell_angle_beta   67.03674437
_cell_angle_gamma   60.17074444
_symmetry_Int_Tables_number   1
_chemical_formula_structural   Y2(GePt3)3
_chemical_formula_sum   'Y4 Ge6 Pt18'
_cell_volume   480.45011793
_cell_formula_units_Z   2
loop_
 _symmetry_equiv_pos_site_id
 _symmetry_equiv_pos_as_xyz
  1  'x, y, z'
loop_
 _atom_site_type_symbol
 _atom_site_label
 _atom_site_symmetry_multiplicity
 _atom_site_fract_x
 _atom_site_fract_y
 _atom_site_fract_z
 _atom_site_occupancy
  Y  Y0  1  0.41568300  0.24466100  0.25067400  1
  Y  Y1  1  0.58431700  0.75533900  0.74932600  1
  Y  Y2  1  0.75533900  0.58431700  0.24932600  1
  Y  Y3  1  0.24466100  0.41568300  0.75067400  1
  Ge  Ge4  1  0.50000000  0.00000000  0.00000000  1
  Ge  Ge5  1  0.00000000  0.50000000  0.50000000  1
  Ge  Ge6  1  0.63944200  0.18159500  0.49785200  1
  Ge  Ge7  1  0.36055800  0.81840500  0.50214800  1
  Ge  Ge8  1  0.81840500  0.36055800  0.00214800  1
  Ge  Ge9  1  0.18159500  0.63944200  0.99785200  1
  Pt  Pt10  1  0.29533200  0.91562700  0.25726500  1
  Pt  Pt11  1  0.70466800  0.08437300  0.74273500  1
  Pt  Pt12  1  0.08437300  0.70466800  0.24273500  1
  Pt  Pt13  1  0.91562700  0.29533200  0.75726500  1
  Pt  Pt14  1  0.47773800  0.64038800  0.07784200  1
  Pt  Pt15  1  0.52226200  0.35961200  0.92215800  1
  Pt  Pt16  1  0.35961200  0.52226200  0.42215800  1
  Pt  Pt17  1  0.64038800  0.47773800  0.57784200  1
  Pt  Pt18  1  0.86629200  0.13370800  0.25000000  1
  Pt  Pt19  1  0.13370800  0.86629200  0.75000000  1
  Pt  Pt20  1  0.80232600  0.97997600  0.07040100  1
  Pt  Pt21  1  0.19767400  0.02002400  0.92959900  1
  Pt  Pt22  1  0.02002400  0.19767400  0.42959900  1
  Pt  Pt23  1  0.97997600  0.80232600  0.57040100  1
  Pt  Pt24  1  0.69382200  0.85971100  0.42155400  1
  Pt  Pt25  1  0.30617800  0.14028900  0.57844600  1
  Pt  Pt26  1  0.14028900  0.30617800  0.07844600  1
  Pt  Pt27  1  0.85971100  0.69382200  0.92155400  1
