# generated using pymatgen
data_K3Er(SO4)3
_symmetry_space_group_name_H-M   'P 1'
_cell_length_a   14.81854200
_cell_length_b   9.12985000
_cell_length_c   9.32015584
_cell_angle_alpha   69.36152962
_cell_angle_beta   90.00000000
_cell_angle_gamma   90.00000000
_symmetry_Int_Tables_number   1
_chemical_formula_structural   K3Er(SO4)3
_chemical_formula_sum   'K12 Er4 S12 O48'
_cell_volume   1180.01097480
_cell_formula_units_Z   4
loop_
 _symmetry_equiv_pos_site_id
 _symmetry_equiv_pos_as_xyz
  1  'x, y, z'
loop_
 _atom_site_type_symbol
 _atom_site_label
 _atom_site_symmetry_multiplicity
 _atom_site_fract_x
 _atom_site_fract_y
 _atom_site_fract_z
 _atom_site_occupancy
  K  K0  1  0.55887200  0.74307300  0.73606500  1
  K  K1  1  0.44112800  0.24307300  0.73606500  1
  K  K2  1  0.51161100  0.53890600  0.33332300  1
  K  K3  1  0.48838900  0.03890600  0.33332300  1
  K  K4  1  0.98875300  0.52959400  0.84692800  1
  K  K5  1  0.01124700  0.02959400  0.84692800  1
  K  K6  1  0.07596000  0.20660500  0.23060300  1
  K  K7  1  0.92404000  0.70660500  0.23060300  1
  K  K8  1  0.73836700  0.45088800  0.68568600  1
  K  K9  1  0.26163300  0.95088800  0.68568600  1
  K  K10  1  0.73667700  0.41741200  0.20758800  1
  K  K11  1  0.26332300  0.91741200  0.20758800  1
  Er  Er12  1  0.32625800  0.50132800  0.00000700  1
  Er  Er13  1  0.67374200  0.00132800  0.00000700  1
  Er  Er14  1  0.14657500  0.46329000  0.50987300  1
  Er  Er15  1  0.85342500  0.96329000  0.50987300  1
  S  S16  1  0.65114100  0.15532900  0.58785300  1
  S  S17  1  0.34885900  0.65532900  0.58785300  1
  S  S18  1  0.19236800  0.28215000  0.84401700  1
  S  S19  1  0.80763200  0.78215000  0.84401700  1
  S  S20  1  0.95240500  0.33570500  0.49632600  1
  S  S21  1  0.04759500  0.83570500  0.49632600  1
  S  S22  1  0.30941300  0.29291100  0.34196100  1
  S  S23  1  0.69058700  0.79291100  0.34196100  1
  S  S24  1  0.55193900  0.34529500  0.01268100  1
  S  S25  1  0.44806100  0.84529500  0.01268100  1
  S  S26  1  0.15527300  0.64311500  0.08730900  1
  S  S27  1  0.84472700  0.14311500  0.08730900  1
  O  O28  1  0.64055300  0.32264100  0.49356900  1
  O  O29  1  0.35944700  0.82264100  0.49356900  1
  O  O30  1  0.56767300  0.06564700  0.59412800  1
  O  O31  1  0.43232700  0.56564700  0.59412800  1
  O  O32  1  0.67722400  0.14679300  0.74748800  1
  O  O33  1  0.32277600  0.64679300  0.74748800  1
  O  O34  1  0.72670100  0.08696700  0.52368400  1
  O  O35  1  0.27329900  0.58696700  0.52368400  1
  O  O36  1  0.14286100  0.43440400  0.77507300  1
  O  O37  1  0.85713900  0.93440400  0.77507300  1
  O  O38  1  0.20184600  0.22435000  0.71169400  1
  O  O39  1  0.79815400  0.72435000  0.71169400  1
  O  O40  1  0.28313700  0.31279700  0.89614700  1
  O  O41  1  0.71686300  0.81279700  0.89614700  1
  O  O42  1  0.14311200  0.16691600  0.97182400  1
  O  O43  1  0.85688800  0.66691600  0.97182400  1
  O  O44  1  0.99686100  0.34054000  0.63882800  1
  O  O45  1  0.00313900  0.84054000  0.63882800  1
  O  O46  1  0.93815700  0.16881800  0.51220700  1
  O  O47  1  0.06184300  0.66881800  0.51220700  1
  O  O48  1  0.02125600  0.40683200  0.37116000  1
  O  O49  1  0.97874400  0.90683200  0.37116000  1
  O  O50  1  0.86721500  0.42370200  0.46062200  1
  O  O51  1  0.13278500  0.92370200  0.46062200  1
  O  O52  1  0.15675800  0.63758600  0.24990700  1
  O  O53  1  0.84324200  0.13758600  0.24990700  1
  O  O54  1  0.07013800  0.71609600  0.01419400  1
  O  O55  1  0.92986200  0.21609600  0.01419400  1
  O  O56  1  0.23653900  0.73223100  0.00468800  1
  O  O57  1  0.76346100  0.23223100  0.00468800  1
  O  O58  1  0.16716800  0.48241200  0.07882400  1
  O  O59  1  0.83283200  0.98241200  0.07882400  1
  O  O60  1  0.34505800  0.45582100  0.25845000  1
  O  O61  1  0.65494200  0.95582100  0.25845000  1
  O  O62  1  0.30266100  0.21847900  0.22305400  1
  O  O63  1  0.69733900  0.71847900  0.22305400  1
  O  O64  1  0.21689700  0.30439500  0.40312000  1
  O  O65  1  0.78310300  0.80439500  0.40312000  1
  O  O66  1  0.36965500  0.20590400  0.46893300  1
  O  O67  1  0.63034500  0.70590400  0.46893300  1
  O  O68  1  0.61431700  0.46022200  0.90889000  1
  O  O69  1  0.38568300  0.96022200  0.90889000  1
  O  O70  1  0.56607600  0.18649900  0.00036800  1
  O  O71  1  0.43392400  0.68649900  0.00036800  1
  O  O72  1  0.56245500  0.33459600  0.17373700  1
  O  O73  1  0.43754500  0.83459600  0.17373700  1
  O  O74  1  0.45570100  0.38965000  0.96239000  1
  O  O75  1  0.54429900  0.88965000  0.96239000  1
