# generated using pymatgen
data_TbZrF7
_symmetry_space_group_name_H-M   'P 1'
_cell_length_a   5.73954100
_cell_length_b   6.15363830
_cell_length_c   8.33503189
_cell_angle_alpha   101.89711362
_cell_angle_beta   90.00000000
_cell_angle_gamma   90.00000000
_symmetry_Int_Tables_number   1
_chemical_formula_structural   TbZrF7
_chemical_formula_sum   'Tb2 Zr2 F14'
_cell_volume   288.06190045
_cell_formula_units_Z   2
loop_
 _symmetry_equiv_pos_site_id
 _symmetry_equiv_pos_as_xyz
  1  'x, y, z'
loop_
 _atom_site_type_symbol
 _atom_site_label
 _atom_site_symmetry_multiplicity
 _atom_site_fract_x
 _atom_site_fract_y
 _atom_site_fract_z
 _atom_site_occupancy
  Tb  Tb0  1  0.69721200  0.65517100  0.68407400  1
  Tb  Tb1  1  0.19721200  0.34482900  0.31592600  1
  Zr  Zr2  1  0.70705100  0.81149400  0.22373200  1
  Zr  Zr3  1  0.20705100  0.18850600  0.77626800  1
  F  F4  1  0.89010000  0.45461100  0.47721100  1
  F  F5  1  0.39010000  0.54538900  0.52278900  1
  F  F6  1  0.42645500  0.92552100  0.76841700  1
  F  F7  1  0.92645500  0.07447900  0.23158300  1
  F  F8  1  0.94455000  0.95937000  0.75965300  1
  F  F9  1  0.44455000  0.04063000  0.24034700  1
  F  F10  1  0.99443600  0.45673100  0.78645200  1
  F  F11  1  0.49443600  0.54326900  0.21354800  1
  F  F12  1  0.70344100  0.75459800  0.97515800  1
  F  F13  1  0.20344100  0.24540200  0.02484200  1
  F  F14  1  0.71061300  0.85939500  0.47313200  1
  F  F15  1  0.21061300  0.14060500  0.52686800  1
  F  F16  1  0.50250200  0.37871600  0.78156000  1
  F  F17  1  0.00250200  0.62128400  0.21844000  1
