# generated using pymatgen
data_RbMgBO3
_symmetry_space_group_name_H-M   'P 1'
_cell_length_a   7.02225200
_cell_length_b   7.02225200
_cell_length_c   7.02225200
_cell_angle_alpha   90.00000000
_cell_angle_beta   90.00000000
_cell_angle_gamma   90.00000000
_symmetry_Int_Tables_number   1
_chemical_formula_structural   RbMgBO3
_chemical_formula_sum   'Rb4 Mg4 B4 O12'
_cell_volume   346.28145320
_cell_formula_units_Z   4
loop_
 _symmetry_equiv_pos_site_id
 _symmetry_equiv_pos_as_xyz
  1  'x, y, z'
loop_
 _atom_site_type_symbol
 _atom_site_label
 _atom_site_symmetry_multiplicity
 _atom_site_fract_x
 _atom_site_fract_y
 _atom_site_fract_z
 _atom_site_occupancy
  Rb  Rb0  1  0.60859400  0.39140600  0.89140600  1
  Rb  Rb1  1  0.10859400  0.10859400  0.10859400  1
  Rb  Rb2  1  0.89140600  0.60859400  0.39140600  1
  Rb  Rb3  1  0.39140600  0.89140600  0.60859400  1
  Mg  Mg4  1  0.10963400  0.60963400  0.89036600  1
  Mg  Mg5  1  0.60963400  0.89036600  0.10963400  1
  Mg  Mg6  1  0.89036600  0.10963400  0.60963400  1
  Mg  Mg7  1  0.39036600  0.39036600  0.39036600  1
  B  B8  1  0.14712800  0.35287200  0.64712800  1
  B  B9  1  0.35287200  0.64712800  0.14712800  1
  B  B10  1  0.85287200  0.85287200  0.85287200  1
  B  B11  1  0.64712800  0.14712800  0.35287200  1
  O  O12  1  0.00115200  0.34662900  0.77962900  1
  O  O13  1  0.22037100  0.50115200  0.15337100  1
  O  O14  1  0.84662900  0.72037100  0.99884800  1
  O  O15  1  0.50115200  0.15337100  0.22037100  1
  O  O16  1  0.72037100  0.99884800  0.84662900  1
  O  O17  1  0.34662900  0.77962900  0.00115200  1
  O  O18  1  0.99884800  0.84662900  0.72037100  1
  O  O19  1  0.77962900  0.00115200  0.34662900  1
  O  O20  1  0.15337100  0.22037100  0.50115200  1
  O  O21  1  0.49884800  0.65337100  0.27962900  1
  O  O22  1  0.27962900  0.49884800  0.65337100  1
  O  O23  1  0.65337100  0.27962900  0.49884800  1
