# generated using pymatgen
data_Ba2CaV2CoF14
_symmetry_space_group_name_H-M   'P 1'
_cell_length_a   7.46869501
_cell_length_b   7.46869501
_cell_length_c   15.26526337
_cell_angle_alpha   88.90137298
_cell_angle_beta   88.90137298
_cell_angle_gamma   42.62591071
_symmetry_Int_Tables_number   1
_chemical_formula_structural   Ba2CaV2CoF14
_chemical_formula_sum   'Ba4 Ca2 V4 Co2 F28'
_cell_volume   576.53321919
_cell_formula_units_Z   2
loop_
 _symmetry_equiv_pos_site_id
 _symmetry_equiv_pos_as_xyz
  1  'x, y, z'
loop_
 _atom_site_type_symbol
 _atom_site_label
 _atom_site_symmetry_multiplicity
 _atom_site_fract_x
 _atom_site_fract_y
 _atom_site_fract_z
 _atom_site_occupancy
  Ba  Ba0  1  0.76219400  0.85749100  0.12060600  1
  Ba  Ba1  1  0.14250900  0.23780600  0.37939400  1
  Ba  Ba2  1  0.23780600  0.14250900  0.87939400  1
  Ba  Ba3  1  0.85749100  0.76219400  0.62060600  1
  Ca  Ca4  1  0.44147400  0.55852600  0.25000000  1
  Ca  Ca5  1  0.55852600  0.44147400  0.75000000  1
  V  V6  1  0.11208500  0.12405900  0.12288500  1
  V  V7  1  0.87594100  0.88791500  0.37711500  1
  V  V8  1  0.88791500  0.87594100  0.87711500  1
  V  V9  1  0.12405900  0.11208500  0.62288500  1
  Co  Co10  1  0.50000000  0.50000000  0.00000000  1
  Co  Co11  1  0.50000000  0.50000000  0.50000000  1
  F  F12  1  0.04575000  0.62832700  0.27669900  1
  F  F13  1  0.37167300  0.95425000  0.22330100  1
  F  F14  1  0.95425000  0.37167300  0.72330100  1
  F  F15  1  0.62832700  0.04575000  0.77669900  1
  F  F16  1  0.88665900  0.27551100  0.01388400  1
  F  F17  1  0.72448900  0.11334100  0.48611600  1
  F  F18  1  0.11334100  0.72448900  0.98611600  1
  F  F19  1  0.27551100  0.88665900  0.51388400  1
  F  F20  1  0.83808800  0.41387600  0.20135100  1
  F  F21  1  0.58612400  0.16191200  0.29864900  1
  F  F22  1  0.16191200  0.58612400  0.79864900  1
  F  F23  1  0.41387600  0.83808800  0.70135100  1
  F  F24  1  0.82859500  0.41604400  0.54708500  1
  F  F25  1  0.58395600  0.17140500  0.95291500  1
  F  F26  1  0.17140500  0.58395600  0.45291500  1
  F  F27  1  0.41604400  0.82859500  0.04708500  1
  F  F28  1  0.90371700  0.07430800  0.65893600  1
  F  F29  1  0.92569200  0.09628300  0.84106400  1
  F  F30  1  0.09628300  0.92569200  0.34106400  1
  F  F31  1  0.07430800  0.90371700  0.15893600  1
  F  F32  1  0.19264700  0.30616300  0.08390000  1
  F  F33  1  0.69383700  0.80735300  0.41610000  1
  F  F34  1  0.80735300  0.69383700  0.91610000  1
  F  F35  1  0.30616300  0.19264700  0.58390000  1
  F  F36  1  0.63804300  0.47671000  0.37778900  1
  F  F37  1  0.52329000  0.36195700  0.12221100  1
  F  F38  1  0.36195700  0.52329000  0.62221100  1
  F  F39  1  0.47671000  0.63804300  0.87778900  1
