# generated using pymatgen
data_Ca(CdAu2)2
_symmetry_space_group_name_H-M   'P 1'
_cell_length_a   5.84491655
_cell_length_b   5.84491655
_cell_length_c   5.84491655
_cell_angle_alpha   103.31987844
_cell_angle_beta   103.31987844
_cell_angle_gamma   122.63091557
_symmetry_Int_Tables_number   1
_chemical_formula_structural   Ca(CdAu2)2
_chemical_formula_sum   'Ca1 Cd2 Au4'
_cell_volume   147.52528364
_cell_formula_units_Z   1
loop_
 _symmetry_equiv_pos_site_id
 _symmetry_equiv_pos_as_xyz
  1  'x, y, z'
loop_
 _atom_site_type_symbol
 _atom_site_label
 _atom_site_symmetry_multiplicity
 _atom_site_fract_x
 _atom_site_fract_y
 _atom_site_fract_z
 _atom_site_occupancy
  Ca  Ca0  1  0.00000000  0.00000000  0.00000000  1
  Cd  Cd1  1  0.25000000  0.75000000  0.50000000  1
  Cd  Cd2  1  0.75000000  0.25000000  0.50000000  1
  Au  Au3  1  0.30357200  0.30357200  0.60714400  1
  Au  Au4  1  0.69642800  0.69642800  0.39285600  1
  Au  Au5  1  0.69642800  0.30357200  0.00000000  1
  Au  Au6  1  0.30357200  0.69642800  0.00000000  1
