# generated using pymatgen
data_K2GaAs2
_symmetry_space_group_name_H-M   'P 1'
_cell_length_a   14.57339600
_cell_length_b   9.05262700
_cell_length_c   11.33190499
_cell_angle_alpha   61.82360204
_cell_angle_beta   90.00000000
_cell_angle_gamma   90.00000000
_symmetry_Int_Tables_number   1
_chemical_formula_structural   K2GaAs2
_chemical_formula_sum   'K16 Ga8 As16'
_cell_volume   1317.83083864
_cell_formula_units_Z   8
loop_
 _symmetry_equiv_pos_site_id
 _symmetry_equiv_pos_as_xyz
  1  'x, y, z'
loop_
 _atom_site_type_symbol
 _atom_site_label
 _atom_site_symmetry_multiplicity
 _atom_site_fract_x
 _atom_site_fract_y
 _atom_site_fract_z
 _atom_site_occupancy
  K  K0  1  0.62822900  0.99336300  0.46823500  1
  K  K1  1  0.12822900  0.00663700  0.03176500  1
  K  K2  1  0.37177100  0.00663700  0.53176500  1
  K  K3  1  0.87177100  0.99336300  0.96823500  1
  K  K4  1  0.62900300  0.58971900  0.08782300  1
  K  K5  1  0.12900300  0.41028100  0.41217700  1
  K  K6  1  0.37099700  0.41028100  0.91217700  1
  K  K7  1  0.87099700  0.58971900  0.58782300  1
  K  K8  1  0.88488100  0.19974300  0.47781100  1
  K  K9  1  0.38488100  0.80025700  0.02218900  1
  K  K10  1  0.11511900  0.80025700  0.52218900  1
  K  K11  1  0.61511900  0.19974300  0.97781100  1
  K  K12  1  0.87810800  0.47766300  0.05875300  1
  K  K13  1  0.37810800  0.52233700  0.44124700  1
  K  K14  1  0.12189200  0.52233700  0.94124700  1
  K  K15  1  0.62189200  0.47766300  0.55875300  1
  Ga  Ga16  1  0.71725900  0.84584700  0.25494300  1
  Ga  Ga17  1  0.21725900  0.15415300  0.24505700  1
  Ga  Ga18  1  0.28274100  0.15415300  0.74505700  1
  Ga  Ga19  1  0.78274100  0.84584700  0.75494300  1
  Ga  Ga20  1  0.94254700  0.00460700  0.25696600  1
  Ga  Ga21  1  0.44254700  0.99539300  0.24303400  1
  Ga  Ga22  1  0.05745300  0.99539300  0.74303400  1
  Ga  Ga23  1  0.55745300  0.00460700  0.75696600  1
  As  As24  1  0.78463900  0.10386500  0.22761400  1
  As  As25  1  0.28463900  0.89613500  0.27238600  1
  As  As26  1  0.21536100  0.89613500  0.77238600  1
  As  As27  1  0.71536100  0.10386500  0.72761400  1
  As  As28  1  0.81712300  0.61908700  0.28180100  1
  As  As29  1  0.31712300  0.38091300  0.21819900  1
  As  As30  1  0.18287700  0.38091300  0.71819900  1
  As  As31  1  0.68287700  0.61908700  0.78180100  1
  As  As32  1  0.55309500  0.78440100  0.25762600  1
  As  As33  1  0.05309500  0.21559900  0.24237400  1
  As  As34  1  0.44690500  0.21559900  0.74237400  1
  As  As35  1  0.94690500  0.78440100  0.75762600  1
  As  As36  1  0.97358700  0.73294100  0.27568900  1
  As  As37  1  0.47358700  0.26705900  0.22431100  1
  As  As38  1  0.02641300  0.26705900  0.72431100  1
  As  As39  1  0.52641300  0.73294100  0.77568900  1
