# generated using pymatgen
data_TaNi11(BO5)4
_symmetry_space_group_name_H-M   'P 1'
_cell_length_a   6.12563871
_cell_length_b   6.12563871
_cell_length_c   21.81029820
_cell_angle_alpha   79.86142531
_cell_angle_beta   79.86142531
_cell_angle_gamma   60.72195735
_symmetry_Int_Tables_number   1
_chemical_formula_structural   TaNi11(BO5)4
_chemical_formula_sum   'Ta2 Ni22 B8 O40'
_cell_volume   698.84005106
_cell_formula_units_Z   2
loop_
 _symmetry_equiv_pos_site_id
 _symmetry_equiv_pos_as_xyz
  1  'x, y, z'
loop_
 _atom_site_type_symbol
 _atom_site_label
 _atom_site_symmetry_multiplicity
 _atom_site_fract_x
 _atom_site_fract_y
 _atom_site_fract_z
 _atom_site_occupancy
  Ta  Ta0  1  0.71514700  0.28485300  0.75000000  1
  Ta  Ta1  1  0.28485300  0.71514700  0.25000000  1
  Ni  Ni2  1  0.57793000  0.20610900  0.60890600  1
  Ni  Ni3  1  0.42207000  0.79389100  0.39109400  1
  Ni  Ni4  1  0.79389100  0.42207000  0.89109400  1
  Ni  Ni5  1  0.20610900  0.57793000  0.10890600  1
  Ni  Ni6  1  0.00000000  0.00000000  0.50000000  1
  Ni  Ni7  1  0.00000000  0.00000000  0.00000000  1
  Ni  Ni8  1  0.18838500  0.81161500  0.75000000  1
  Ni  Ni9  1  0.81161500  0.18838500  0.25000000  1
  Ni  Ni10  1  0.68069300  0.81750500  0.75026800  1
  Ni  Ni11  1  0.31930700  0.18249500  0.24973200  1
  Ni  Ni12  1  0.18249500  0.31930700  0.74973200  1
  Ni  Ni13  1  0.81750500  0.68069300  0.25026800  1
  Ni  Ni14  1  0.49962900  0.74943300  0.99946800  1
  Ni  Ni15  1  0.50037100  0.25056700  0.00053200  1
  Ni  Ni16  1  0.25056700  0.50037100  0.50053200  1
  Ni  Ni17  1  0.74943300  0.49962900  0.49946800  1
  Ni  Ni18  1  0.50000000  0.00000000  0.50000000  1
  Ni  Ni19  1  0.00000000  0.50000000  0.00000000  1
  Ni  Ni20  1  0.79555500  0.91725000  0.89346600  1
  Ni  Ni21  1  0.20444500  0.08275000  0.10653400  1
  Ni  Ni22  1  0.08275000  0.20444500  0.60653400  1
  Ni  Ni23  1  0.91725000  0.79555500  0.39346600  1
  B  B24  1  0.57086100  0.69441700  0.63015800  1
  B  B25  1  0.42913900  0.30558300  0.36984200  1
  B  B26  1  0.30558300  0.42913900  0.86984200  1
  B  B27  1  0.69441700  0.57086100  0.13015800  1
  B  B28  1  0.30340200  0.93170000  0.86832900  1
  B  B29  1  0.69659800  0.06830000  0.13167100  1
  B  B30  1  0.06830000  0.69659800  0.63167100  1
  B  B31  1  0.93170000  0.30340200  0.36832900  1
  O  O32  1  0.33116300  0.95991900  0.80217000  1
  O  O33  1  0.66883700  0.04008100  0.19783000  1
  O  O34  1  0.04008100  0.66883700  0.69783000  1
  O  O35  1  0.95991900  0.33116300  0.30217000  1
  O  O36  1  0.61947400  0.24371200  0.51368000  1
  O  O37  1  0.38052600  0.75628800  0.48632000  1
  O  O38  1  0.75628800  0.38052600  0.98632000  1
  O  O39  1  0.24371200  0.61947400  0.01368000  1
  O  O40  1  0.51586900  0.80166500  0.90009400  1
  O  O41  1  0.48413100  0.19833500  0.09990600  1
  O  O42  1  0.19833500  0.48413100  0.59990600  1
  O  O43  1  0.80166500  0.51586900  0.40009400  1
  O  O44  1  0.51805400  0.29919200  0.90103700  1
  O  O45  1  0.48194600  0.70080800  0.09896300  1
  O  O46  1  0.70080800  0.48194600  0.59896300  1
  O  O47  1  0.29919200  0.51805400  0.40103700  1
  O  O48  1  0.46964100  0.93418800  0.60026900  1
  O  O49  1  0.53035900  0.06581200  0.39973100  1
  O  O50  1  0.06581200  0.53035900  0.89973100  1
  O  O51  1  0.93418800  0.46964100  0.10026900  1
  O  O52  1  0.83047200  0.96609200  0.80003200  1
  O  O53  1  0.16952800  0.03390800  0.19996800  1
  O  O54  1  0.03390800  0.16952800  0.69996800  1
  O  O55  1  0.96609200  0.83047200  0.30003200  1
  O  O56  1  0.53855100  0.18215600  0.70338900  1
  O  O57  1  0.46144900  0.81784400  0.29661100  1
  O  O58  1  0.81784400  0.46144900  0.79661100  1
  O  O59  1  0.18215600  0.53855100  0.20338900  1
  O  O60  1  0.93605900  0.96510800  0.09992300  1
  O  O61  1  0.06394100  0.03489200  0.90007700  1
  O  O62  1  0.03489200  0.06394100  0.40007700  1
  O  O63  1  0.96510800  0.93605900  0.59992300  1
  O  O64  1  0.75512200  0.88041400  0.98739600  1
  O  O65  1  0.24487800  0.11958600  0.01260400  1
  O  O66  1  0.11958600  0.24487800  0.51260400  1
  O  O67  1  0.88041400  0.75512200  0.48739600  1
  O  O68  1  0.54381500  0.65746100  0.69698600  1
  O  O69  1  0.45618500  0.34253900  0.30301400  1
  O  O70  1  0.34253900  0.45618500  0.80301400  1
  O  O71  1  0.65746100  0.54381500  0.19698600  1
