# generated using pymatgen
data_CdBiBF10
_symmetry_space_group_name_H-M   'P 1'
_cell_length_a   9.61984700
_cell_length_b   8.57375500
_cell_length_c   9.23542042
_cell_angle_alpha   85.70778959
_cell_angle_beta   90.00000000
_cell_angle_gamma   90.00000000
_symmetry_Int_Tables_number   1
_chemical_formula_structural   CdBiBF10
_chemical_formula_sum   'Cd4 Bi4 B4 F40'
_cell_volume   759.58457172
_cell_formula_units_Z   4
loop_
 _symmetry_equiv_pos_site_id
 _symmetry_equiv_pos_as_xyz
  1  'x, y, z'
loop_
 _atom_site_type_symbol
 _atom_site_label
 _atom_site_symmetry_multiplicity
 _atom_site_fract_x
 _atom_site_fract_y
 _atom_site_fract_z
 _atom_site_occupancy
  Cd  Cd0  1  0.47873900  0.17378000  0.21554000  1
  Cd  Cd1  1  0.97873900  0.82622000  0.28446000  1
  Cd  Cd2  1  0.52126100  0.82622000  0.78446000  1
  Cd  Cd3  1  0.02126100  0.17378000  0.71554000  1
  Bi  Bi4  1  0.06636100  0.33556500  0.26298200  1
  Bi  Bi5  1  0.56636100  0.66443500  0.23701800  1
  Bi  Bi6  1  0.93363900  0.66443500  0.73701800  1
  Bi  Bi7  1  0.43363900  0.33556500  0.76298200  1
  B  B8  1  0.26910700  0.94098500  0.50417100  1
  B  B9  1  0.76910700  0.05901500  0.99582900  1
  B  B10  1  0.73089300  0.05901500  0.49582900  1
  B  B11  1  0.23089300  0.94098500  0.00417100  1
  F  F12  1  0.19068500  0.04194200  0.58730500  1
  F  F13  1  0.69068500  0.95805800  0.91269500  1
  F  F14  1  0.80931500  0.95805800  0.41269500  1
  F  F15  1  0.30931500  0.04194200  0.08730500  1
  F  F16  1  0.35813400  0.84797700  0.59710900  1
  F  F17  1  0.85813400  0.15202300  0.90289100  1
  F  F18  1  0.64186600  0.15202300  0.40289100  1
  F  F19  1  0.14186600  0.84797700  0.09710900  1
  F  F20  1  0.17750400  0.84224500  0.43276100  1
  F  F21  1  0.67750400  0.15775500  0.06723900  1
  F  F22  1  0.82249600  0.15775500  0.56723900  1
  F  F23  1  0.32249600  0.84224500  0.93276100  1
  F  F24  1  0.35064800  0.03007500  0.40123300  1
  F  F25  1  0.85064800  0.96992500  0.09876700  1
  F  F26  1  0.64935200  0.96992500  0.59876700  1
  F  F27  1  0.14935200  0.03007500  0.90123300  1
  F  F28  1  0.07793200  0.34513900  0.04468000  1
  F  F29  1  0.57793200  0.65486100  0.45532000  1
  F  F30  1  0.92206800  0.65486100  0.95532000  1
  F  F31  1  0.42206800  0.34513900  0.54468000  1
  F  F32  1  0.07191000  0.32299900  0.48699400  1
  F  F33  1  0.57191000  0.67700100  0.01300600  1
  F  F34  1  0.92809000  0.67700100  0.51300600  1
  F  F35  1  0.42809000  0.32299900  0.98699400  1
  F  F36  1  0.05642600  0.09347900  0.27868700  1
  F  F37  1  0.55642600  0.90652100  0.22131300  1
  F  F38  1  0.94357400  0.90652100  0.72131300  1
  F  F39  1  0.44357400  0.09347900  0.77868700  1
  F  F40  1  0.07138900  0.57727000  0.26265800  1
  F  F41  1  0.57138900  0.42273000  0.23734200  1
  F  F42  1  0.92861100  0.42273000  0.73734200  1
  F  F43  1  0.42861100  0.57727000  0.76265800  1
  F  F44  1  0.85779000  0.34311900  0.26289800  1
  F  F45  1  0.35779000  0.65688100  0.23710200  1
  F  F46  1  0.14221000  0.65688100  0.73710200  1
  F  F47  1  0.64221000  0.34311900  0.76289800  1
  F  F48  1  0.28144700  0.32077900  0.26535200  1
  F  F49  1  0.78144700  0.67922100  0.23464800  1
  F  F50  1  0.71855300  0.67922100  0.73464800  1
  F  F51  1  0.21855300  0.32077900  0.76535200  1
