# generated using pymatgen
data_K6CdO4
_symmetry_space_group_name_H-M   'P 1'
_cell_length_a   8.83173263
_cell_length_b   8.83173263
_cell_length_c   6.73896600
_cell_angle_alpha   90.00000000
_cell_angle_beta   90.00000000
_cell_angle_gamma   120.00000473
_symmetry_Int_Tables_number   1
_chemical_formula_structural   K6CdO4
_chemical_formula_sum   'K12 Cd2 O8'
_cell_volume   455.21409624
_cell_formula_units_Z   2
loop_
 _symmetry_equiv_pos_site_id
 _symmetry_equiv_pos_as_xyz
  1  'x, y, z'
loop_
 _atom_site_type_symbol
 _atom_site_label
 _atom_site_symmetry_multiplicity
 _atom_site_fract_x
 _atom_site_fract_y
 _atom_site_fract_z
 _atom_site_occupancy
  K  K0  1  0.53811300  0.07622600  0.13916300  1
  K  K1  1  0.46188700  0.53811300  0.63916300  1
  K  K2  1  0.92377400  0.46188700  0.13916300  1
  K  K3  1  0.53811300  0.46188700  0.13916300  1
  K  K4  1  0.14334200  0.85665800  0.97557400  1
  K  K5  1  0.28668400  0.14334200  0.47557400  1
  K  K6  1  0.07622600  0.53811300  0.63916300  1
  K  K7  1  0.85665800  0.71331600  0.47557400  1
  K  K8  1  0.85665800  0.14334200  0.47557400  1
  K  K9  1  0.71331600  0.85665800  0.97557400  1
  K  K10  1  0.14334200  0.28668400  0.97557400  1
  K  K11  1  0.46188700  0.92377400  0.63916300  1
  Cd  Cd12  1  0.66666700  0.33333300  0.74757500  1
  Cd  Cd13  1  0.33333300  0.66666700  0.24757500  1
  O  O14  1  0.19192400  0.80807600  0.36175500  1
  O  O15  1  0.38384700  0.19192400  0.86175500  1
  O  O16  1  0.80807600  0.61615300  0.86175500  1
  O  O17  1  0.19192400  0.38384700  0.36175500  1
  O  O18  1  0.61615300  0.80807600  0.36175500  1
  O  O19  1  0.80807600  0.19192400  0.86175500  1
  O  O20  1  0.66666700  0.33333300  0.41534800  1
  O  O21  1  0.33333300  0.66666700  0.91534800  1
