# generated using pymatgen
data_Ti3Al
_symmetry_space_group_name_H-M   'P 1'
_cell_length_a   5.75084760
_cell_length_b   5.75084760
_cell_length_c   4.65528200
_cell_angle_alpha   90.00000000
_cell_angle_beta   90.00000000
_cell_angle_gamma   119.99999540
_symmetry_Int_Tables_number   1
_chemical_formula_structural   Ti3Al
_chemical_formula_sum   'Ti6 Al2'
_cell_volume   133.33383280
_cell_formula_units_Z   2
loop_
 _symmetry_equiv_pos_site_id
 _symmetry_equiv_pos_as_xyz
  1  'x, y, z'
loop_
 _atom_site_type_symbol
 _atom_site_label
 _atom_site_symmetry_multiplicity
 _atom_site_fract_x
 _atom_site_fract_y
 _atom_site_fract_z
 _atom_site_occupancy
  Ti  Ti0  1  0.83029300  0.66058600  0.25000000  1
  Ti  Ti1  1  0.16970700  0.83029300  0.75000000  1
  Ti  Ti2  1  0.66058600  0.83029300  0.75000000  1
  Ti  Ti3  1  0.33941400  0.16970700  0.25000000  1
  Ti  Ti4  1  0.83029300  0.16970700  0.25000000  1
  Ti  Ti5  1  0.16970700  0.33941400  0.75000000  1
  Al  Al6  1  0.33333300  0.66666700  0.25000000  1
  Al  Al7  1  0.66666700  0.33333300  0.75000000  1
