# generated using pymatgen
data_Sr3P14
_symmetry_space_group_name_H-M   'P 1'
_cell_length_a   12.87291600
_cell_length_b   6.38560800
_cell_length_c   11.84372888
_cell_angle_alpha   57.30869105
_cell_angle_beta   90.00000000
_cell_angle_gamma   90.00000000
_symmetry_Int_Tables_number   1
_chemical_formula_structural   Sr3P14
_chemical_formula_sum   'Sr6 P28'
_cell_volume   819.35029991
_cell_formula_units_Z   2
loop_
 _symmetry_equiv_pos_site_id
 _symmetry_equiv_pos_as_xyz
  1  'x, y, z'
loop_
 _atom_site_type_symbol
 _atom_site_label
 _atom_site_symmetry_multiplicity
 _atom_site_fract_x
 _atom_site_fract_y
 _atom_site_fract_z
 _atom_site_occupancy
  Sr  Sr0  1  0.00000000  0.00000000  0.50000000  1
  Sr  Sr1  1  0.50000000  0.00000000  0.00000000  1
  Sr  Sr2  1  0.15869900  0.41754700  0.88971800  1
  Sr  Sr3  1  0.65869900  0.58245300  0.61028200  1
  Sr  Sr4  1  0.84130100  0.58245300  0.11028200  1
  Sr  Sr5  1  0.34130100  0.41754700  0.38971800  1
  P  P6  1  0.32374800  0.71027000  0.95133000  1
  P  P7  1  0.82374800  0.28973000  0.54867000  1
  P  P8  1  0.67625200  0.28973000  0.04867000  1
  P  P9  1  0.17625200  0.71027000  0.45133000  1
  P  P10  1  0.41740600  0.56037600  0.85959300  1
  P  P11  1  0.91740600  0.43962400  0.64040700  1
  P  P12  1  0.58259400  0.43962400  0.14040700  1
  P  P13  1  0.08259400  0.56037600  0.35959300  1
  P  P14  1  0.29077000  0.07811900  0.77062600  1
  P  P15  1  0.79077000  0.92188100  0.72937400  1
  P  P16  1  0.70923000  0.92188100  0.22937400  1
  P  P17  1  0.20923000  0.07811900  0.27062600  1
  P  P18  1  0.44662800  0.21158800  0.68048600  1
  P  P19  1  0.94662800  0.78841200  0.81951400  1
  P  P20  1  0.55337200  0.78841200  0.31951400  1
  P  P21  1  0.05337200  0.21158800  0.18048600  1
  P  P22  1  0.22590100  0.96523400  0.63872700  1
  P  P23  1  0.72590100  0.03476600  0.86127300  1
  P  P24  1  0.77409900  0.03476600  0.36127300  1
  P  P25  1  0.27409900  0.96523400  0.13872700  1
  P  P26  1  0.99630500  0.11608600  0.81688900  1
  P  P27  1  0.49630500  0.88391400  0.68311100  1
  P  P28  1  0.00369500  0.88391400  0.18311100  1
  P  P29  1  0.50369500  0.11608600  0.31688900  1
  P  P30  1  0.35146100  0.72932400  0.64723600  1
  P  P31  1  0.85146100  0.27067600  0.85276400  1
  P  P32  1  0.64853900  0.27067600  0.35276400  1
  P  P33  1  0.14853900  0.72932400  0.14723600  1
