# generated using pymatgen
data_Rb2Mo2P2O11
_symmetry_space_group_name_H-M   'P 1'
_cell_length_a   10.39071500
_cell_length_b   10.15689500
_cell_length_c   10.17903738
_cell_angle_alpha   82.28681869
_cell_angle_beta   90.00000000
_cell_angle_gamma   90.00000000
_symmetry_Int_Tables_number   1
_chemical_formula_structural   Rb2Mo2P2O11
_chemical_formula_sum   'Rb8 Mo8 P8 O44'
_cell_volume   1064.54953950
_cell_formula_units_Z   4
loop_
 _symmetry_equiv_pos_site_id
 _symmetry_equiv_pos_as_xyz
  1  'x, y, z'
loop_
 _atom_site_type_symbol
 _atom_site_label
 _atom_site_symmetry_multiplicity
 _atom_site_fract_x
 _atom_site_fract_y
 _atom_site_fract_z
 _atom_site_occupancy
  Rb  Rb0  1  0.18874100  0.23679000  0.03444500  1
  Rb  Rb1  1  0.68874100  0.76321000  0.96555500  1
  Rb  Rb2  1  0.81518900  0.76088900  0.45620300  1
  Rb  Rb3  1  0.31518900  0.23911100  0.54379700  1
  Rb  Rb4  1  0.99990200  0.99978800  0.74993800  1
  Rb  Rb5  1  0.49990200  0.00021200  0.25006200  1
  Rb  Rb6  1  0.06672200  0.49223600  0.25475800  1
  Rb  Rb7  1  0.56672200  0.50776400  0.74524200  1
  Mo  Mo8  1  0.08488500  0.65285300  0.88604800  1
  Mo  Mo9  1  0.58488500  0.34714700  0.11395200  1
  Mo  Mo10  1  0.91556900  0.34697100  0.61265300  1
  Mo  Mo11  1  0.41556900  0.65302900  0.38734700  1
  Mo  Mo12  1  0.32310200  0.92040600  0.89891900  1
  Mo  Mo13  1  0.82310200  0.07959400  0.10108100  1
  Mo  Mo14  1  0.67722500  0.07899400  0.60084500  1
  Mo  Mo15  1  0.17722500  0.92100600  0.39915500  1
  P  P16  1  0.37403100  0.60393200  0.06735600  1
  P  P17  1  0.87403100  0.39606800  0.93264400  1
  P  P18  1  0.62595000  0.39572200  0.43179000  1
  P  P19  1  0.12595000  0.60427800  0.56821000  1
  P  P20  1  0.07579400  0.87476800  0.10375100  1
  P  P21  1  0.57579400  0.12523200  0.89624900  1
  P  P22  1  0.92444700  0.12549700  0.39607300  1
  P  P23  1  0.42444700  0.87450300  0.60392700  1
  O  O24  1  0.14796400  0.57377100  0.72041600  1
  O  O25  1  0.64796400  0.42622900  0.27958400  1
  O  O26  1  0.85157000  0.42639700  0.77938100  1
  O  O27  1  0.35157000  0.57360300  0.22061900  1
  O  O28  1  0.40431700  0.75267900  0.02278900  1
  O  O29  1  0.90431700  0.24732100  0.97721100  1
  O  O30  1  0.59566600  0.24695600  0.47697600  1
  O  O31  1  0.09566600  0.75304400  0.52302400  1
  O  O32  1  0.99643500  0.47257700  0.97102300  1
  O  O33  1  0.49643500  0.52742300  0.02897700  1
  O  O34  1  0.00328400  0.52753700  0.52931900  1
  O  O35  1  0.50328400  0.47246300  0.47068100  1
  O  O36  1  0.21334600  0.92915900  0.06849200  1
  O  O37  1  0.71334600  0.07084100  0.93150800  1
  O  O38  1  0.78688900  0.07144800  0.43129000  1
  O  O39  1  0.28688900  0.92855200  0.56871000  1
  O  O40  1  0.25273300  0.55625300  0.99864100  1
  O  O41  1  0.75273300  0.44374700  0.00135900  1
  O  O42  1  0.74410100  0.44361300  0.50590500  1
  O  O43  1  0.24410100  0.55638700  0.49409500  1
  O  O44  1  0.05357900  0.73286200  0.06675500  1
  O  O45  1  0.55357900  0.26713800  0.93324500  1
  O  O46  1  0.94750100  0.26752600  0.43300800  1
  O  O47  1  0.44750100  0.73247400  0.56699200  1
  O  O48  1  0.47928800  0.02500200  0.97227900  1
  O  O49  1  0.97928800  0.97499800  0.02772100  1
  O  O50  1  0.52057100  0.97512700  0.52776300  1
  O  O51  1  0.02057100  0.02487300  0.47223700  1
  O  O52  1  0.44664300  0.86692200  0.75535500  1
  O  O53  1  0.94664300  0.13307800  0.24464500  1
  O  O54  1  0.55394700  0.13317400  0.74462500  1
  O  O55  1  0.05394700  0.86682600  0.25537500  1
  O  O56  1  0.19958400  0.80005500  0.83668400  1
  O  O57  1  0.69958400  0.19994500  0.16331600  1
  O  O58  1  0.80027100  0.20005600  0.66294100  1
  O  O59  1  0.30027100  0.79994400  0.33705900  1
  O  O60  1  0.26402900  0.07202300  0.82044000  1
  O  O61  1  0.76402900  0.92797700  0.17956000  1
  O  O62  1  0.73577500  0.92720400  0.67931500  1
  O  O63  1  0.23577500  0.07279600  0.32068500  1
  O  O64  1  0.93881700  0.71380200  0.82070000  1
  O  O65  1  0.43881700  0.28619800  0.17930000  1
  O  O66  1  0.06062900  0.28577800  0.68002100  1
  O  O67  1  0.56062900  0.71422200  0.31997900  1
