# generated using pymatgen
data_LiPr6B3O14
_symmetry_space_group_name_H-M   'P 1'
_cell_length_a   16.22101200
_cell_length_b   8.79253000
_cell_length_c   12.54866072
_cell_angle_alpha   48.02085524
_cell_angle_beta   90.00000000
_cell_angle_gamma   90.00000000
_symmetry_Int_Tables_number   1
_chemical_formula_structural   LiPr6B3O14
_chemical_formula_sum   'Li4 Pr24 B12 O56'
_cell_volume   1330.46950206
_cell_formula_units_Z   4
loop_
 _symmetry_equiv_pos_site_id
 _symmetry_equiv_pos_as_xyz
  1  'x, y, z'
loop_
 _atom_site_type_symbol
 _atom_site_label
 _atom_site_symmetry_multiplicity
 _atom_site_fract_x
 _atom_site_fract_y
 _atom_site_fract_z
 _atom_site_occupancy
  Li  Li0  1  0.60373200  0.88131400  0.44047800  1
  Li  Li1  1  0.39626800  0.11868600  0.55952200  1
  Li  Li2  1  0.10373200  0.11868600  0.05952200  1
  Li  Li3  1  0.89626800  0.88131400  0.94047800  1
  Pr  Pr4  1  0.82192200  0.55444600  0.30518500  1
  Pr  Pr5  1  0.17807800  0.44555400  0.69481500  1
  Pr  Pr6  1  0.32192200  0.44555400  0.19481500  1
  Pr  Pr7  1  0.67807800  0.55444600  0.80518500  1
  Pr  Pr8  1  0.32489800  0.98554100  0.05435100  1
  Pr  Pr9  1  0.67510200  0.01445900  0.94564900  1
  Pr  Pr10  1  0.82489800  0.01445900  0.44564900  1
  Pr  Pr11  1  0.17510200  0.98554100  0.55435100  1
  Pr  Pr12  1  0.35692200  0.84796000  0.42387100  1
  Pr  Pr13  1  0.64307800  0.15204000  0.57612900  1
  Pr  Pr14  1  0.85692200  0.15204000  0.07612900  1
  Pr  Pr15  1  0.14307800  0.84796000  0.92387100  1
  Pr  Pr16  1  0.51455600  0.66407600  0.28397200  1
  Pr  Pr17  1  0.48544400  0.33592400  0.71602800  1
  Pr  Pr18  1  0.01455600  0.33592400  0.21602800  1
  Pr  Pr19  1  0.98544400  0.66407600  0.78397200  1
  Pr  Pr20  1  0.50488900  0.23551400  0.06313700  1
  Pr  Pr21  1  0.49511100  0.76448600  0.93686300  1
  Pr  Pr22  1  0.00488900  0.76448600  0.43686300  1
  Pr  Pr23  1  0.99511100  0.23551400  0.56313700  1
  Pr  Pr24  1  0.66570100  0.41027700  0.16740300  1
  Pr  Pr25  1  0.33429900  0.58972300  0.83259700  1
  Pr  Pr26  1  0.16570100  0.58972300  0.33259700  1
  Pr  Pr27  1  0.83429900  0.41027700  0.66740300  1
  B  B28  1  0.82721600  0.54473600  0.02651400  1
  B  B29  1  0.17278400  0.45526400  0.97348600  1
  B  B30  1  0.32721600  0.45526400  0.47348600  1
  B  B31  1  0.67278400  0.54473600  0.52651400  1
  B  B32  1  0.99931300  0.79377200  0.14316200  1
  B  B33  1  0.00068700  0.20622800  0.85683800  1
  B  B34  1  0.49931300  0.20622800  0.35683800  1
  B  B35  1  0.50068700  0.79377200  0.64316200  1
  B  B36  1  0.69337600  0.95847400  0.22150400  1
  B  B37  1  0.30662400  0.04152600  0.77849600  1
  B  B38  1  0.19337600  0.04152600  0.27849600  1
  B  B39  1  0.80662400  0.95847400  0.72150400  1
  O  O40  1  0.74993100  0.88686000  0.17838900  1
  O  O41  1  0.25006900  0.11314000  0.82161100  1
  O  O42  1  0.24993100  0.11314000  0.32161100  1
  O  O43  1  0.75006900  0.88686000  0.67838900  1
  O  O44  1  0.46744900  0.69957900  0.59653800  1
  O  O45  1  0.53255100  0.30042100  0.40346200  1
  O  O46  1  0.96744900  0.30042100  0.90346200  1
  O  O47  1  0.03255100  0.69957900  0.09653800  1
  O  O48  1  0.42134900  0.93266800  0.22052300  1
  O  O49  1  0.57865100  0.06733200  0.77947700  1
  O  O50  1  0.92134900  0.06733200  0.27947700  1
  O  O51  1  0.07865100  0.93266800  0.72052300  1
  O  O52  1  0.91692000  0.85134900  0.11701200  1
  O  O53  1  0.08308000  0.14865100  0.88298800  1
  O  O54  1  0.41692000  0.14865100  0.38298800  1
  O  O55  1  0.58308000  0.85134900  0.61701200  1
  O  O56  1  0.90966200  0.52404800  0.01024700  1
  O  O57  1  0.09033800  0.47595200  0.98975300  1
  O  O58  1  0.40966200  0.47595200  0.48975300  1
  O  O59  1  0.59033800  0.52404800  0.51024700  1
  O  O60  1  0.79810000  0.64112500  0.07247800  1
  O  O61  1  0.20190000  0.35887500  0.92752200  1
  O  O62  1  0.29810000  0.35887500  0.42752200  1
  O  O63  1  0.70190000  0.64112500  0.57247800  1
  O  O64  1  0.45049800  0.82776600  0.71474000  1
  O  O65  1  0.54950200  0.17223400  0.28526000  1
  O  O66  1  0.95049800  0.17223400  0.78526000  1
  O  O67  1  0.04950200  0.82776600  0.21474000  1
  O  O68  1  0.59798900  0.70210900  0.10533600  1
  O  O69  1  0.40201100  0.29789100  0.89466400  1
  O  O70  1  0.09798900  0.29789100  0.39466400  1
  O  O71  1  0.90201100  0.70210900  0.60533600  1
  O  O72  1  0.91083900  0.52710400  0.46384300  1
  O  O73  1  0.08916100  0.47289600  0.53615700  1
  O  O74  1  0.41083900  0.47289600  0.03615700  1
  O  O75  1  0.58916100  0.52710400  0.96384300  1
  O  O76  1  0.41412200  0.71603400  0.12247400  1
  O  O77  1  0.58587800  0.28396600  0.87752600  1
  O  O78  1  0.91412200  0.28396600  0.37752600  1
  O  O79  1  0.08587800  0.71603400  0.62247400  1
  O  O80  1  0.23285500  0.72362300  0.12032400  1
  O  O81  1  0.76714500  0.27637700  0.87967600  1
  O  O82  1  0.73285500  0.27637700  0.37967600  1
  O  O83  1  0.26714500  0.72362300  0.62032400  1
  O  O84  1  0.22397200  0.94953000  0.22989700  1
  O  O85  1  0.77602800  0.05047000  0.77010300  1
  O  O86  1  0.72397200  0.05047000  0.27010300  1
  O  O87  1  0.27602800  0.94953000  0.72989700  1
  O  O88  1  0.61019600  0.94729800  0.20266100  1
  O  O89  1  0.38980400  0.05270200  0.79733900  1
  O  O90  1  0.11019600  0.05270200  0.29733900  1
  O  O91  1  0.88980400  0.94729800  0.70266100  1
  O  O92  1  0.76932900  0.45081800  0.00416400  1
  O  O93  1  0.23067100  0.54918200  0.99583600  1
  O  O94  1  0.26932900  0.54918200  0.49583600  1
  O  O95  1  0.73067100  0.45081800  0.50416400  1
