# generated using pymatgen
data_K4Ge(PS3)4
_symmetry_space_group_name_H-M   'P 1'
_cell_length_a   7.39448946
_cell_length_b   7.39448946
_cell_length_c   23.62218373
_cell_angle_alpha   81.38863294
_cell_angle_beta   81.38863294
_cell_angle_gamma   65.79184684
_symmetry_Int_Tables_number   1
_chemical_formula_structural   K4Ge(PS3)4
_chemical_formula_sum   'K8 Ge2 P8 S24'
_cell_volume   1159.15984126
_cell_formula_units_Z   2
loop_
 _symmetry_equiv_pos_site_id
 _symmetry_equiv_pos_as_xyz
  1  'x, y, z'
loop_
 _atom_site_type_symbol
 _atom_site_label
 _atom_site_symmetry_multiplicity
 _atom_site_fract_x
 _atom_site_fract_y
 _atom_site_fract_z
 _atom_site_occupancy
  K  K0  1  0.83506300  0.79244700  0.54572200  1
  K  K1  1  0.20755300  0.16493700  0.95427800  1
  K  K2  1  0.16493700  0.20755300  0.45427800  1
  K  K3  1  0.79244700  0.83506300  0.04572200  1
  K  K4  1  0.67995400  0.51551300  0.81624600  1
  K  K5  1  0.48448700  0.32004600  0.68375400  1
  K  K6  1  0.32004600  0.48448700  0.18375400  1
  K  K7  1  0.51551300  0.67995400  0.31624600  1
  Ge  Ge8  1  0.03641500  0.96358500  0.75000000  1
  Ge  Ge9  1  0.96358500  0.03641500  0.25000000  1
  P  P10  1  0.11344700  0.69510600  0.87391000  1
  P  P11  1  0.30489400  0.88655300  0.62609000  1
  P  P12  1  0.88655300  0.30489400  0.12609000  1
  P  P13  1  0.69510600  0.11344700  0.37391000  1
  P  P14  1  0.08301200  0.21085100  0.61654700  1
  P  P15  1  0.78914900  0.91698800  0.88345300  1
  P  P16  1  0.91698800  0.78914900  0.38345300  1
  P  P17  1  0.21085100  0.08301200  0.11654700  1
  S  S18  1  0.21259000  0.63432500  0.95012100  1
  S  S19  1  0.36567500  0.78741000  0.54987900  1
  S  S20  1  0.78741000  0.36567500  0.04987900  1
  S  S21  1  0.63432500  0.21259000  0.45012100  1
  S  S22  1  0.15017300  0.47153300  0.82912800  1
  S  S23  1  0.52846700  0.84982700  0.67087200  1
  S  S24  1  0.84982700  0.52846700  0.17087200  1
  S  S25  1  0.47153300  0.15017300  0.32912800  1
  S  S26  1  0.10849400  0.76400700  0.67961900  1
  S  S27  1  0.23599300  0.89150600  0.82038100  1
  S  S28  1  0.89150600  0.23599300  0.32038100  1
  S  S29  1  0.76400700  0.10849400  0.17961900  1
  S  S30  1  0.23131500  0.37494900  0.57881800  1
  S  S31  1  0.62505100  0.76868500  0.92118200  1
  S  S32  1  0.76868500  0.62505100  0.42118200  1
  S  S33  1  0.37494900  0.23131500  0.07881800  1
  S  S34  1  0.84552800  0.23821000  0.58116400  1
  S  S35  1  0.76179000  0.15447200  0.91883600  1
  S  S36  1  0.15447200  0.76179000  0.41883600  1
  S  S37  1  0.23821000  0.84552800  0.08116400  1
  S  S38  1  0.01441500  0.26655700  0.70757500  1
  S  S39  1  0.73344300  0.98558500  0.79242500  1
  S  S40  1  0.98558500  0.73344300  0.29242500  1
  S  S41  1  0.26655700  0.01441500  0.20757500  1
