# generated using pymatgen
data_Ba4(Sn3Bi)3
_symmetry_space_group_name_H-M   'P 1'
_cell_length_a   7.35115973
_cell_length_b   7.35115973
_cell_length_c   22.86464300
_cell_angle_alpha   90.00000000
_cell_angle_beta   90.00000000
_cell_angle_gamma   119.99999760
_symmetry_Int_Tables_number   1
_chemical_formula_structural   Ba4(Sn3Bi)3
_chemical_formula_sum   'Ba8 Sn18 Bi6'
_cell_volume   1070.05668952
_cell_formula_units_Z   2
loop_
 _symmetry_equiv_pos_site_id
 _symmetry_equiv_pos_as_xyz
  1  'x, y, z'
loop_
 _atom_site_type_symbol
 _atom_site_label
 _atom_site_symmetry_multiplicity
 _atom_site_fract_x
 _atom_site_fract_y
 _atom_site_fract_z
 _atom_site_occupancy
  Ba  Ba0  1  0.33333300  0.66666700  0.13417500  1
  Ba  Ba1  1  0.66666700  0.33333300  0.86582500  1
  Ba  Ba2  1  0.66666700  0.33333300  0.63417500  1
  Ba  Ba3  1  0.33333300  0.66666700  0.36582500  1
  Ba  Ba4  1  0.00000000  0.00000000  0.00000000  1
  Ba  Ba5  1  0.00000000  0.00000000  0.50000000  1
  Ba  Ba6  1  0.00000000  0.00000000  0.25000000  1
  Ba  Ba7  1  0.00000000  0.00000000  0.75000000  1
  Sn  Sn8  1  0.19273100  0.38546300  0.62489800  1
  Sn  Sn9  1  0.80726900  0.61453700  0.37510200  1
  Sn  Sn10  1  0.61453700  0.80726900  0.62489800  1
  Sn  Sn11  1  0.80726900  0.61453700  0.12489800  1
  Sn  Sn12  1  0.38546300  0.19273100  0.37510200  1
  Sn  Sn13  1  0.19273100  0.38546300  0.87510200  1
  Sn  Sn14  1  0.19273100  0.80726900  0.62489800  1
  Sn  Sn15  1  0.38546300  0.19273100  0.12489800  1
  Sn  Sn16  1  0.80726900  0.19273100  0.37510200  1
  Sn  Sn17  1  0.61453700  0.80726900  0.87510200  1
  Sn  Sn18  1  0.80726900  0.19273100  0.12489800  1
  Sn  Sn19  1  0.19273100  0.80726900  0.87510200  1
  Sn  Sn20  1  0.52844900  0.05689900  0.25000000  1
  Sn  Sn21  1  0.47155100  0.94310100  0.75000000  1
  Sn  Sn22  1  0.94310100  0.47155100  0.25000000  1
  Sn  Sn23  1  0.05689900  0.52844900  0.75000000  1
  Sn  Sn24  1  0.52844900  0.47155100  0.25000000  1
  Sn  Sn25  1  0.47155100  0.52844900  0.75000000  1
  Bi  Bi26  1  0.50000000  0.00000000  0.00000000  1
  Bi  Bi27  1  0.00000000  0.50000000  0.00000000  1
  Bi  Bi28  1  0.50000000  0.00000000  0.50000000  1
  Bi  Bi29  1  0.50000000  0.50000000  0.00000000  1
  Bi  Bi30  1  0.00000000  0.50000000  0.50000000  1
  Bi  Bi31  1  0.50000000  0.50000000  0.50000000  1
