# generated using pymatgen
data_Rb5Mo3O3F14
_symmetry_space_group_name_H-M   'P 1'
_cell_length_a   8.31481092
_cell_length_b   20.80907226
_cell_length_c   20.80903303
_cell_angle_alpha   120.00048022
_cell_angle_beta   90.00004822
_cell_angle_gamma   90.00021293
_symmetry_Int_Tables_number   1
_chemical_formula_structural   Rb5Mo3O3F14
_chemical_formula_sum   'Rb30 Mo18 O18 F84'
_cell_volume   3118.06759387
_cell_formula_units_Z   6
loop_
 _symmetry_equiv_pos_site_id
 _symmetry_equiv_pos_as_xyz
  1  'x, y, z'
loop_
 _atom_site_type_symbol
 _atom_site_label
 _atom_site_symmetry_multiplicity
 _atom_site_fract_x
 _atom_site_fract_y
 _atom_site_fract_z
 _atom_site_occupancy
  Rb  Rb0  1  0.99999811  0.99999814  0.65700789  1
  Rb  Rb1  1  0.00000662  0.34299384  0.34299555  1
  Rb  Rb2  1  0.99999695  0.65700382  0.99999512  1
  Rb  Rb3  1  0.00000189  0.00000186  0.34299211  1
  Rb  Rb4  1  0.99999338  0.65700616  0.65700445  1
  Rb  Rb5  1  0.00000305  0.34299618  0.00000488  1
  Rb  Rb6  1  0.49999497  0.00000314  0.67503568  1
  Rb  Rb7  1  0.50000410  0.32496938  0.32497079  1
  Rb  Rb8  1  0.49999081  0.67502604  0.99999127  1
  Rb  Rb9  1  0.50000503  0.99999686  0.32496432  1
  Rb  Rb10  1  0.49999590  0.67503062  0.67502921  1
  Rb  Rb11  1  0.50000919  0.32497396  0.00000873  1
  Rb  Rb12  1  0.73629133  0.09216988  0.90782869  1
  Rb  Rb13  1  0.73628909  0.09217543  0.18435140  1
  Rb  Rb14  1  0.73629055  0.81564912  0.90782915  1
  Rb  Rb15  1  0.26370867  0.90783012  0.09217131  1
  Rb  Rb16  1  0.26371091  0.90782457  0.81564860  1
  Rb  Rb17  1  0.26370945  0.18435088  0.09217085  1
  Rb  Rb18  1  0.79495296  0.74192933  0.48387877  1
  Rb  Rb19  1  0.79497744  0.51612208  0.25806110  1
  Rb  Rb20  1  0.79495207  0.74193265  0.25804996  1
  Rb  Rb21  1  0.20504704  0.25807067  0.51612123  1
  Rb  Rb22  1  0.20502256  0.48387792  0.74193890  1
  Rb  Rb23  1  0.20504793  0.25806735  0.74195004  1
  Rb  Rb24  1  0.25013798  0.85217302  0.42608634  1
  Rb  Rb25  1  0.25012267  0.57391568  0.42607533  1
  Rb  Rb26  1  0.25010477  0.57392039  0.14784308  1
  Rb  Rb27  1  0.74986202  0.14782698  0.57391366  1
  Rb  Rb28  1  0.74987733  0.42608432  0.57392467  1
  Rb  Rb29  1  0.74989523  0.42607961  0.85215692  1
  Mo  Mo30  1  0.78960581  0.53676830  0.46322684  1
  Mo  Mo31  1  0.78961480  0.53676916  0.07354130  1
  Mo  Mo32  1  0.78961905  0.92645327  0.46322734  1
  Mo  Mo33  1  0.21039419  0.46323170  0.53677316  1
  Mo  Mo34  1  0.21038520  0.46323084  0.92645870  1
  Mo  Mo35  1  0.21038095  0.07354673  0.53677266  1
  Mo  Mo36  1  0.74867192  0.86163716  0.72326291  1
  Mo  Mo37  1  0.74866658  0.27673501  0.13837637  1
  Mo  Mo38  1  0.74867549  0.86162503  0.13836301  1
  Mo  Mo39  1  0.25132808  0.13836284  0.27673709  1
  Mo  Mo40  1  0.25133342  0.72326499  0.86162363  1
  Mo  Mo41  1  0.25132451  0.13837497  0.86163699  1
  Mo  Mo42  1  0.30780206  0.79572674  0.59145993  1
  Mo  Mo43  1  0.30780534  0.40853682  0.20427083  1
  Mo  Mo44  1  0.30780311  0.79572815  0.20426752  1
  Mo  Mo45  1  0.69219794  0.20427326  0.40854007  1
  Mo  Mo46  1  0.69219466  0.59146318  0.79572917  1
  Mo  Mo47  1  0.69219689  0.20427185  0.79573248  1
  O  O48  1  0.14986177  0.76492436  0.52984006  1
  O  O49  1  0.14985743  0.47015528  0.23508065  1
  O  O50  1  0.14986046  0.76492057  0.23507772  1
  O  O51  1  0.85013823  0.23507564  0.47015994  1
  O  O52  1  0.85014257  0.52984472  0.76491935  1
  O  O53  1  0.85013954  0.23507943  0.76492228  1
  O  O54  1  0.93452512  0.88245797  0.76488289  1
  O  O55  1  0.93452614  0.23510911  0.11756949  1
  O  O56  1  0.93452907  0.88242676  0.11754538  1
  O  O57  1  0.06547488  0.11754203  0.23511711  1
  O  O58  1  0.06547386  0.76489089  0.88243051  1
  O  O59  1  0.06547093  0.11757324  0.88245462  1
  O  O60  1  0.63196120  0.56740992  0.43258724  1
  O  O61  1  0.63195439  0.56741381  0.13482650  1
  O  O62  1  0.63196022  0.86517018  0.43258447  1
  O  O63  1  0.36803880  0.43259008  0.56741276  1
  O  O64  1  0.36804561  0.43258619  0.86517350  1
  O  O65  1  0.36803978  0.13482982  0.56741553  1
  F  F66  1  0.23135025  0.76374152  0.66240655  1
  F  F67  1  0.23136328  0.33758471  0.10133671  1
  F  F68  1  0.23136088  0.89866145  0.23624757  1
  F  F69  1  0.23136878  0.76374657  0.10133391  1
  F  F70  1  0.23137265  0.89866108  0.66241404  1
  F  F71  1  0.23136566  0.33758518  0.23625252  1
  F  F72  1  0.76864975  0.23625848  0.33759345  1
  F  F73  1  0.76863672  0.66241529  0.89866329  1
  F  F74  1  0.76863912  0.10133855  0.76375243  1
  F  F75  1  0.76863122  0.23625343  0.89866609  1
  F  F76  1  0.76862735  0.10133892  0.33758596  1
  F  F77  1  0.76863434  0.66241482  0.76374748  1
  F  F78  1  0.92917868  0.49572419  0.37347910  1
  F  F79  1  0.92917237  0.62652177  0.12224926  1
  F  F80  1  0.92917739  0.87774195  0.50426607  1
  F  F81  1  0.92918098  0.49573053  0.12225074  1
  F  F82  1  0.92918063  0.87774527  0.37347817  1
  F  F83  1  0.92917564  0.62651795  0.50426830  1
  F  F84  1  0.07082132  0.50427581  0.62652090  1
  F  F85  1  0.07082763  0.37347823  0.87775074  1
  F  F86  1  0.07082261  0.12225805  0.49573393  1
  F  F87  1  0.07081902  0.50426947  0.87774926  1
  F  F88  1  0.07081937  0.12225473  0.62652183  1
  F  F89  1  0.07082436  0.37348205  0.49573170  1
  F  F90  1  0.50716502  0.83528573  0.67059219  1
  F  F91  1  0.50716656  0.32940548  0.16470054  1
  F  F92  1  0.50717323  0.83530097  0.16471188  1
  F  F93  1  0.49283498  0.16471427  0.32940781  1
  F  F94  1  0.49283344  0.67059452  0.83529946  1
  F  F95  1  0.49282677  0.16469903  0.83528812  1
  F  F96  1  0.71927976  0.43410814  0.43412008  1
  F  F97  1  0.71927909  0.56587732  -0.00000895  1
  F  F98  1  0.71928186  0.00000318  0.56588814  1
  F  F99  1  0.71928314  0.43410874  -0.00000774  1
  F  F100  1  0.71928466  0.00000398  0.43411773  1
  F  F101  1  0.71927703  0.56588030  0.56588867  1
  F  F102  1  0.28072024  0.56589186  0.56587992  1
  F  F103  1  0.28072091  0.43412268  0.00000895  1
  F  F104  1  0.28071814  -0.00000318  0.43411186  1
  F  F105  1  0.28071686  0.56589126  0.00000774  1
  F  F106  1  0.28071534  -0.00000398  0.56588227  1
  F  F107  1  0.28072297  0.43411970  0.43411133  1
  F  F108  1  0.78341449  0.75601634  0.64689631  1
  F  F109  1  0.78342237  0.35310037  0.10912532  1
  F  F110  1  0.78342231  0.89087962  0.24398257  1
  F  F111  1  0.78338649  0.75600217  0.10910565  1
  F  F112  1  0.78338141  0.89089149  0.64689571  1
  F  F113  1  0.78338280  0.35309502  0.24400053  1
  F  F114  1  0.21658551  0.24398366  0.35310369  1
  F  F115  1  0.21657763  0.64689963  0.89087468  1
  F  F116  1  0.21657769  0.10912038  0.75601743  1
  F  F117  1  0.21661351  0.24399783  0.89089435  1
  F  F118  1  0.21661859  0.10910851  0.35310429  1
  F  F119  1  0.21661720  0.64690498  0.75599947  1
  F  F120  1  0.00000000  0.50000000  0.50000000  1
  F  F121  1  0.00000000  0.50000000  0.00000000  1
  F  F122  1  0.00000000  0.00000000  0.50000000  1
  F  F123  1  0.00000000  0.00000000  0.00000000  1
  F  F124  1  0.43974688  0.70389863  0.54171616  1
  F  F125  1  0.43974774  0.45828135  0.16218731  1
  F  F126  1  0.43974879  0.83781642  0.29609689  1
  F  F127  1  0.43975225  0.70390146  0.16218110  1
  F  F128  1  0.43975815  0.83781207  0.54172089  1
  F  F129  1  0.43974986  0.45827970  0.29609944  1
  F  F130  1  0.56025312  0.29610137  0.45828384  1
  F  F131  1  0.56025226  0.54171865  0.83781269  1
  F  F132  1  0.56025121  0.16218358  0.70390311  1
  F  F133  1  0.56024775  0.29609854  0.83781890  1
  F  F134  1  0.56024185  0.16218793  0.45827911  1
  F  F135  1  0.56025014  0.54172030  0.70390056  1
  F  F136  1  0.64160575  0.82659226  0.78538908  1
  F  F137  1  0.64159840  0.21461343  0.04120505  1
  F  F138  1  0.64160865  0.95879692  0.17341367  1
  F  F139  1  0.64155908  0.82658440  0.04120267  1
  F  F140  1  0.64155529  0.95879783  0.78538071  1
  F  F141  1  0.64155761  0.21461269  0.17341562  1
  F  F142  1  0.35839425  0.17340774  0.21461092  1
  F  F143  1  0.35840160  0.78538657  0.95879495  1
  F  F144  1  0.35839135  0.04120308  0.82658633  1
  F  F145  1  0.35844092  0.17341560  0.95879733  1
  F  F146  1  0.35844471  0.04120217  0.21461929  1
  F  F147  1  0.35844239  0.78538731  0.82658438  1
  F  F148  1  0.87535203  0.66662029  0.33330676  1
  F  F149  1  0.12464797  0.33337971  0.66669324  1
