# generated using pymatgen
data_K3Gd(BO3)2
_symmetry_space_group_name_H-M   'P 1'
_cell_length_a   7.13030500
_cell_length_b   9.06389700
_cell_length_c   11.23600700
_cell_angle_alpha   90.00000000
_cell_angle_beta   90.00000000
_cell_angle_gamma   90.00000000
_symmetry_Int_Tables_number   1
_chemical_formula_structural   K3Gd(BO3)2
_chemical_formula_sum   'K12 Gd4 B8 O24'
_cell_volume   726.16459411
_cell_formula_units_Z   4
loop_
 _symmetry_equiv_pos_site_id
 _symmetry_equiv_pos_as_xyz
  1  'x, y, z'
loop_
 _atom_site_type_symbol
 _atom_site_label
 _atom_site_symmetry_multiplicity
 _atom_site_fract_x
 _atom_site_fract_y
 _atom_site_fract_z
 _atom_site_occupancy
  K  K0  1  0.25000000  0.93895000  0.13047000  1
  K  K1  1  0.75000000  0.06105000  0.86953000  1
  K  K2  1  0.75000000  0.56105000  0.63047000  1
  K  K3  1  0.25000000  0.43895000  0.36953000  1
  K  K4  1  0.50431600  0.69945800  0.90220800  1
  K  K5  1  0.49568400  0.30054200  0.09779200  1
  K  K6  1  0.49568400  0.80054200  0.40220800  1
  K  K7  1  0.00431600  0.30054200  0.09779200  1
  K  K8  1  0.50431600  0.19945800  0.59779200  1
  K  K9  1  0.99568400  0.69945800  0.90220800  1
  K  K10  1  0.99568400  0.19945800  0.59779200  1
  K  K11  1  0.00431600  0.80054200  0.40220800  1
  Gd  Gd12  1  0.25000000  0.87409300  0.66866500  1
  Gd  Gd13  1  0.75000000  0.12590700  0.33133500  1
  Gd  Gd14  1  0.75000000  0.62590700  0.16866500  1
  Gd  Gd15  1  0.25000000  0.37409300  0.83133500  1
  B  B16  1  0.25000000  0.56240600  0.62658800  1
  B  B17  1  0.75000000  0.43759400  0.37341200  1
  B  B18  1  0.75000000  0.93759400  0.12658800  1
  B  B19  1  0.25000000  0.06240600  0.87341200  1
  B  B20  1  0.25000000  0.58896100  0.11614500  1
  B  B21  1  0.75000000  0.41103900  0.88385500  1
  B  B22  1  0.75000000  0.91103900  0.61614500  1
  B  B23  1  0.25000000  0.08896100  0.38385500  1
  O  O24  1  0.08003400  0.62854100  0.16974900  1
  O  O25  1  0.91996600  0.37145900  0.83025100  1
  O  O26  1  0.91996600  0.87145900  0.66974900  1
  O  O27  1  0.58003400  0.37145900  0.83025100  1
  O  O28  1  0.08003400  0.12854100  0.33025100  1
  O  O29  1  0.41996600  0.62854100  0.16974900  1
  O  O30  1  0.41996600  0.12854100  0.33025100  1
  O  O31  1  0.58003400  0.87145900  0.66974900  1
  O  O32  1  0.25000000  0.50808700  0.01005600  1
  O  O33  1  0.75000000  0.49191300  0.98994400  1
  O  O34  1  0.75000000  0.99191300  0.51005600  1
  O  O35  1  0.25000000  0.00808700  0.48994400  1
  O  O36  1  0.25000000  0.62144200  0.74269300  1
  O  O37  1  0.75000000  0.37855800  0.25730700  1
  O  O38  1  0.75000000  0.87855800  0.24269300  1
  O  O39  1  0.25000000  0.12144200  0.75730700  1
  O  O40  1  0.25000000  0.66143400  0.53334600  1
  O  O41  1  0.75000000  0.33856600  0.46665400  1
  O  O42  1  0.75000000  0.83856600  0.03334600  1
  O  O43  1  0.25000000  0.16143400  0.96665400  1
  O  O44  1  0.25000000  0.91118300  0.88409700  1
  O  O45  1  0.75000000  0.08881700  0.11590300  1
  O  O46  1  0.75000000  0.58881700  0.38409700  1
  O  O47  1  0.25000000  0.41118300  0.61590300  1
