# generated using pymatgen
data_EuCN2
_symmetry_space_group_name_H-M   'P 1'
_cell_length_a   3.93023800
_cell_length_b   12.34301400
_cell_length_c   5.40831500
_cell_angle_alpha   90.00000000
_cell_angle_beta   90.00000000
_cell_angle_gamma   90.00000000
_symmetry_Int_Tables_number   1
_chemical_formula_structural   EuCN2
_chemical_formula_sum   'Eu4 C4 N8'
_cell_volume   262.36267517
_cell_formula_units_Z   4
loop_
 _symmetry_equiv_pos_site_id
 _symmetry_equiv_pos_as_xyz
  1  'x, y, z'
loop_
 _atom_site_type_symbol
 _atom_site_label
 _atom_site_symmetry_multiplicity
 _atom_site_fract_x
 _atom_site_fract_y
 _atom_site_fract_z
 _atom_site_occupancy
  Eu  Eu0  1  0.75000000  0.63069300  0.61716900  1
  Eu  Eu1  1  0.25000000  0.36930700  0.38283100  1
  Eu  Eu2  1  0.25000000  0.86930700  0.11716900  1
  Eu  Eu3  1  0.75000000  0.13069300  0.88283100  1
  C  C4  1  0.75000000  0.87724300  0.61894800  1
  C  C5  1  0.25000000  0.12275700  0.38105200  1
  C  C6  1  0.25000000  0.62275700  0.11894800  1
  C  C7  1  0.75000000  0.37724300  0.88105200  1
  N  N8  1  0.75000000  0.92361400  0.82251700  1
  N  N9  1  0.25000000  0.07638600  0.17748300  1
  N  N10  1  0.25000000  0.57638600  0.32251700  1
  N  N11  1  0.75000000  0.42361400  0.67748300  1
  N  N12  1  0.75000000  0.82863100  0.41764500  1
  N  N13  1  0.25000000  0.17136900  0.58235500  1
  N  N14  1  0.25000000  0.67136900  0.91764500  1
  N  N15  1  0.75000000  0.32863100  0.08235500  1
