# generated using pymatgen
data_Li2GaCu3
_symmetry_space_group_name_H-M   'P 1'
_cell_length_a   4.85883669
_cell_length_b   4.85883669
_cell_length_c   4.85883672
_cell_angle_alpha   61.08814760
_cell_angle_beta   61.08814760
_cell_angle_gamma   61.08815590
_symmetry_Int_Tables_number   1
_chemical_formula_structural   Li2GaCu3
_chemical_formula_sum   'Li2 Ga1 Cu3'
_cell_volume   83.09829031
_cell_formula_units_Z   1
loop_
 _symmetry_equiv_pos_site_id
 _symmetry_equiv_pos_as_xyz
  1  'x, y, z'
loop_
 _atom_site_type_symbol
 _atom_site_label
 _atom_site_symmetry_multiplicity
 _atom_site_fract_x
 _atom_site_fract_y
 _atom_site_fract_z
 _atom_site_occupancy
  Li  Li0  1  0.62500300  0.62500300  0.62500300  1
  Li  Li1  1  0.37499700  0.37499700  0.37499700  1
  Ga  Ga2  1  0.00000000  0.00000000  0.00000000  1
  Cu  Cu3  1  0.00000000  0.50000000  0.00000000  1
  Cu  Cu4  1  0.50000000  0.00000000  0.00000000  1
  Cu  Cu5  1  0.00000000  0.00000000  0.50000000  1
