# generated using pymatgen
data_BaVAsO6
_symmetry_space_group_name_H-M   'P 1'
_cell_length_a   10.35476600
_cell_length_b   5.90133800
_cell_length_c   9.03247719
_cell_angle_alpha   89.61568150
_cell_angle_beta   90.00000000
_cell_angle_gamma   90.00000000
_symmetry_Int_Tables_number   1
_chemical_formula_structural   BaVAsO6
_chemical_formula_sum   'Ba4 V4 As4 O24'
_cell_volume   551.93493317
_cell_formula_units_Z   4
loop_
 _symmetry_equiv_pos_site_id
 _symmetry_equiv_pos_as_xyz
  1  'x, y, z'
loop_
 _atom_site_type_symbol
 _atom_site_label
 _atom_site_symmetry_multiplicity
 _atom_site_fract_x
 _atom_site_fract_y
 _atom_site_fract_z
 _atom_site_occupancy
  Ba  Ba0  1  0.69413900  0.36181300  0.58624200  1
  Ba  Ba1  1  0.19413900  0.63818700  0.91375800  1
  Ba  Ba2  1  0.30586100  0.63818700  0.41375800  1
  Ba  Ba3  1  0.80586100  0.36181300  0.08624200  1
  V  V4  1  0.09093300  0.14603700  0.58589300  1
  V  V5  1  0.59093300  0.85396300  0.91410700  1
  V  V6  1  0.90906700  0.85396300  0.41410700  1
  V  V7  1  0.40906700  0.14603700  0.08589300  1
  As  As8  1  0.11418500  0.15441300  0.21853900  1
  As  As9  1  0.61418500  0.84558700  0.28146100  1
  As  As10  1  0.88581500  0.84558700  0.78146100  1
  As  As11  1  0.38581500  0.15441300  0.71853900  1
  O  O12  1  0.07727400  0.38884000  0.11896600  1
  O  O13  1  0.57727400  0.61116000  0.38103400  1
  O  O14  1  0.92272600  0.61116000  0.88103400  1
  O  O15  1  0.42272600  0.38884000  0.61896600  1
  O  O16  1  0.27242900  0.97563700  0.64020800  1
  O  O17  1  0.77242900  0.02436300  0.85979200  1
  O  O18  1  0.72757100  0.02436300  0.35979200  1
  O  O19  1  0.22757100  0.97563700  0.14020800  1
  O  O20  1  0.03437300  0.98473600  0.76692200  1
  O  O21  1  0.53437300  0.01526400  0.73307800  1
  O  O22  1  0.96562700  0.01526400  0.23307800  1
  O  O23  1  0.46562700  0.98473600  0.26692200  1
  O  O24  1  0.36185400  0.38866200  0.16237900  1
  O  O25  1  0.86185400  0.61133800  0.33762100  1
  O  O26  1  0.63814600  0.61133800  0.83762100  1
  O  O27  1  0.13814600  0.38866200  0.66237900  1
  O  O28  1  0.56611800  0.18098400  0.02491900  1
  O  O29  1  0.06611800  0.81901600  0.47508100  1
  O  O30  1  0.43388200  0.81901600  0.97508100  1
  O  O31  1  0.93388200  0.18098400  0.52491900  1
  O  O32  1  0.32657600  0.22320600  0.89370500  1
  O  O33  1  0.82657600  0.77679400  0.60629500  1
  O  O34  1  0.67342400  0.77679400  0.10629500  1
  O  O35  1  0.17342400  0.22320600  0.39370500  1
