# generated using pymatgen
data_Ag5HgSbO6
_symmetry_space_group_name_H-M   'P 1'
_cell_length_a   6.04307571
_cell_length_b   6.04307571
_cell_length_c   12.55737500
_cell_angle_alpha   90.00000000
_cell_angle_beta   90.00000000
_cell_angle_gamma   119.99999684
_symmetry_Int_Tables_number   1
_chemical_formula_structural   Ag5HgSbO6
_chemical_formula_sum   'Ag10 Hg2 Sb2 O12'
_cell_volume   397.14178191
_cell_formula_units_Z   2
loop_
 _symmetry_equiv_pos_site_id
 _symmetry_equiv_pos_as_xyz
  1  'x, y, z'
loop_
 _atom_site_type_symbol
 _atom_site_label
 _atom_site_symmetry_multiplicity
 _atom_site_fract_x
 _atom_site_fract_y
 _atom_site_fract_z
 _atom_site_occupancy
  Ag  Ag0  1  0.00000000  0.00000000  0.87832000  1
  Ag  Ag1  1  0.00000000  0.00000000  0.37832000  1
  Ag  Ag2  1  0.00000000  0.00000000  0.12168000  1
  Ag  Ag3  1  0.00000000  0.00000000  0.62168000  1
  Ag  Ag4  1  0.50000000  0.50000000  0.00000000  1
  Ag  Ag5  1  0.00000000  0.50000000  0.00000000  1
  Ag  Ag6  1  0.50000000  0.00000000  0.00000000  1
  Ag  Ag7  1  0.00000000  0.50000000  0.50000000  1
  Ag  Ag8  1  0.50000000  0.00000000  0.50000000  1
  Ag  Ag9  1  0.50000000  0.50000000  0.50000000  1
  Hg  Hg10  1  0.66666700  0.33333300  0.75000000  1
  Hg  Hg11  1  0.33333300  0.66666700  0.25000000  1
  Sb  Sb12  1  0.33333300  0.66666700  0.75000000  1
  Sb  Sb13  1  0.66666700  0.33333300  0.25000000  1
  O  O14  1  0.60488300  0.65121000  0.84213800  1
  O  O15  1  0.04632700  0.39511700  0.84213800  1
  O  O16  1  0.34879000  0.95367300  0.84213800  1
  O  O17  1  0.95367300  0.34879000  0.34213800  1
  O  O18  1  0.39511700  0.04632700  0.34213800  1
  O  O19  1  0.65121000  0.60488300  0.34213800  1
  O  O20  1  0.39511700  0.34879000  0.15786200  1
  O  O21  1  0.95367300  0.60488300  0.15786200  1
  O  O22  1  0.65121000  0.04632700  0.15786200  1
  O  O23  1  0.04632700  0.65121000  0.65786200  1
  O  O24  1  0.60488300  0.95367300  0.65786200  1
  O  O25  1  0.34879000  0.39511700  0.65786200  1
