# generated using pymatgen
data_CaWO4
_symmetry_space_group_name_H-M   'P 1'
_cell_length_a   6.88099801
_cell_length_b   6.88099801
_cell_length_c   6.88099801
_cell_angle_alpha   134.38603509
_cell_angle_beta   134.38603509
_cell_angle_gamma   66.48567381
_symmetry_Int_Tables_number   1
_chemical_formula_structural   CaWO4
_chemical_formula_sum   'Ca2 W2 O8'
_cell_volume   163.77021042
_cell_formula_units_Z   2
loop_
 _symmetry_equiv_pos_site_id
 _symmetry_equiv_pos_as_xyz
  1  'x, y, z'
loop_
 _atom_site_type_symbol
 _atom_site_label
 _atom_site_symmetry_multiplicity
 _atom_site_fract_x
 _atom_site_fract_y
 _atom_site_fract_z
 _atom_site_occupancy
  Ca  Ca0  1  0.25000000  0.75000000  0.50000000  1
  Ca  Ca1  1  0.50000000  0.50000000  0.00000000  1
  W  W2  1  0.75000000  0.25000000  0.50000000  1
  W  W3  1  0.00000000  0.00000000  0.00000000  1
  O  O4  1  0.24014300  0.84324500  0.91052800  1
  O  O5  1  0.59324500  0.18271700  0.10310200  1
  O  O6  1  0.07961500  0.49014300  0.89689800  1
  O  O7  1  0.93271700  0.32961500  0.08947200  1
  O  O8  1  0.81728300  0.92038500  0.41052800  1
  O  O9  1  0.67038500  0.75985700  0.60310200  1
  O  O10  1  0.50985700  0.40675500  0.58947200  1
  O  O11  1  0.15675500  0.06728300  0.39689800  1
