# generated using pymatgen
data_KVH4O7
_symmetry_space_group_name_H-M   'P 1'
_cell_length_a   6.57333718
_cell_length_b   8.14033816
_cell_length_c   7.51213995
_cell_angle_alpha   106.61764612
_cell_angle_beta   96.12852966
_cell_angle_gamma   115.64482994
_symmetry_Int_Tables_number   1
_chemical_formula_structural   KVH4O7
_chemical_formula_sum   'K2 V2 H8 O14'
_cell_volume   334.64457387
_cell_formula_units_Z   2
loop_
 _symmetry_equiv_pos_site_id
 _symmetry_equiv_pos_as_xyz
  1  'x, y, z'
loop_
 _atom_site_type_symbol
 _atom_site_label
 _atom_site_symmetry_multiplicity
 _atom_site_fract_x
 _atom_site_fract_y
 _atom_site_fract_z
 _atom_site_occupancy
  K  K0  1  0.00758800  0.00569200  0.97325600  1
  K  K1  1  0.62198500  0.44010500  0.56173700  1
  V  V2  1  0.40074900  0.87934100  0.75464400  1
  V  V3  1  0.25497400  0.57760200  0.96728600  1
  H  H4  1  0.29150600  0.67195200  0.34886000  1
  H  H5  1  0.01477500  0.58109000  0.22608400  1
  H  H6  1  0.69824100  0.05049500  0.49781300  1
  H  H7  1  0.62862700  0.05949400  0.29726000  1
  H  H8  1  0.68801100  0.33368300  0.11632500  1
  H  H9  1  0.67454700  0.53408000  0.15726500  1
  H  H10  1  0.02467300  0.17638900  0.40018500  1
  H  H11  1  0.15954100  0.06321200  0.41833800  1
  O  O12  1  0.25147300  0.96206600  0.65423900  1
  O  O13  1  0.13374600  0.33994600  0.90356300  1
  O  O14  1  0.18726300  0.65139800  0.22558500  1
  O  O15  1  0.73465800  0.14144300  0.42667900  1
  O  O16  1  0.74712200  0.46803400  0.21231300  1
  O  O17  1  0.16296200  0.16486800  0.37189600  1
  O  O18  1  0.40758600  0.95846800  0.02174200  1
  O  O19  1  0.62418200  0.08766100  0.98506800  1
  O  O20  1  0.44283900  0.70230100  0.54629700  1
  O  O21  1  0.64666100  0.89874200  0.63306200  1
  O  O22  1  0.13647400  0.61507400  0.73626600  1
  O  O23  1  0.01165200  0.63214100  0.88467400  1
  O  O24  1  0.54639900  0.65901600  0.90521600  1
  O  O25  1  0.57396600  0.68910500  0.10924900  1
