# generated using pymatgen
data_TiZnN2
_symmetry_space_group_name_H-M   'P 1'
_cell_length_a   5.24809800
_cell_length_b   5.70014000
_cell_length_c   6.58189800
_cell_angle_alpha   90.00000000
_cell_angle_beta   90.00000000
_cell_angle_gamma   90.00000000
_symmetry_Int_Tables_number   1
_chemical_formula_structural   TiZnN2
_chemical_formula_sum   'Ti4 Zn4 N8'
_cell_volume   196.89677660
_cell_formula_units_Z   4
loop_
 _symmetry_equiv_pos_site_id
 _symmetry_equiv_pos_as_xyz
  1  'x, y, z'
loop_
 _atom_site_type_symbol
 _atom_site_label
 _atom_site_symmetry_multiplicity
 _atom_site_fract_x
 _atom_site_fract_y
 _atom_site_fract_z
 _atom_site_occupancy
  Ti  Ti0  1  0.99620000  0.08302500  0.37426400  1
  Ti  Ti1  1  0.49620000  0.91697500  0.62573600  1
  Ti  Ti2  1  0.49620000  0.41697500  0.87426400  1
  Ti  Ti3  1  0.99620000  0.58302500  0.12573600  1
  Zn  Zn4  1  0.99709400  0.08726000  0.87612100  1
  Zn  Zn5  1  0.49709400  0.91274000  0.12387900  1
  Zn  Zn6  1  0.49709400  0.41274000  0.37612100  1
  Zn  Zn7  1  0.99709400  0.58726000  0.62387900  1
  N  N8  1  0.36515700  0.06988100  0.38598800  1
  N  N9  1  0.86515700  0.93011900  0.61401200  1
  N  N10  1  0.86515700  0.43011900  0.88598800  1
  N  N11  1  0.36515700  0.56988100  0.11401200  1
  N  N12  1  0.39155000  0.09033800  0.86431800  1
  N  N13  1  0.89155000  0.90966200  0.13568200  1
  N  N14  1  0.89155000  0.40966200  0.36431800  1
  N  N15  1  0.39155000  0.59033800  0.63568200  1
