# generated using pymatgen
data_Pr4PClO8
_symmetry_space_group_name_H-M   'P 1'
_cell_length_a   5.88660000
_cell_length_b   5.92699300
_cell_length_c   13.17544800
_cell_angle_alpha   90.00000000
_cell_angle_beta   90.00000000
_cell_angle_gamma   90.00000000
_symmetry_Int_Tables_number   1
_chemical_formula_structural   Pr4PClO8
_chemical_formula_sum   'Pr8 P2 Cl2 O16'
_cell_volume   459.68923304
_cell_formula_units_Z   2
loop_
 _symmetry_equiv_pos_site_id
 _symmetry_equiv_pos_as_xyz
  1  'x, y, z'
loop_
 _atom_site_type_symbol
 _atom_site_label
 _atom_site_symmetry_multiplicity
 _atom_site_fract_x
 _atom_site_fract_y
 _atom_site_fract_z
 _atom_site_occupancy
  Pr  Pr0  1  0.56250200  0.98259800  0.66170300  1
  Pr  Pr1  1  0.56250200  0.98259800  0.33829700  1
  Pr  Pr2  1  0.06250200  0.01740200  0.83829700  1
  Pr  Pr3  1  0.06250200  0.01740200  0.16170300  1
  Pr  Pr4  1  0.53332400  0.48636200  0.83199200  1
  Pr  Pr5  1  0.53332400  0.48636200  0.16800800  1
  Pr  Pr6  1  0.03332400  0.51363800  0.66800800  1
  Pr  Pr7  1  0.03332400  0.51363800  0.33199200  1
  P  P8  1  0.50585700  0.45951100  0.50000000  1
  P  P9  1  0.00585700  0.54048900  0.00000000  1
  Cl  Cl10  1  0.49297000  0.05622900  0.00000000  1
  Cl  Cl11  1  0.99297000  0.94377100  0.50000000  1
  O  O12  1  0.79403900  0.24292500  0.74972400  1
  O  O13  1  0.79403900  0.24292500  0.25027600  1
  O  O14  1  0.29403900  0.75707500  0.75027600  1
  O  O15  1  0.29403900  0.75707500  0.24972400  1
  O  O16  1  0.80009600  0.75785300  0.76855800  1
  O  O17  1  0.80009600  0.75785300  0.23144200  1
  O  O18  1  0.30009600  0.24214700  0.73144200  1
  O  O19  1  0.30009600  0.24214700  0.26855800  1
  O  O20  1  0.54504300  0.19862800  0.50000000  1
  O  O21  1  0.04504300  0.80137200  0.00000000  1
  O  O22  1  0.61562300  0.56704800  0.40490100  1
  O  O23  1  0.61562300  0.56704800  0.59509900  1
  O  O24  1  0.11562300  0.43295200  0.09509900  1
  O  O25  1  0.11562300  0.43295200  0.90490100  1
  O  O26  1  0.24336200  0.49965500  0.50000000  1
  O  O27  1  0.74336200  0.50034500  0.00000000  1
