# generated using pymatgen
data_Eu(BH4)2
_symmetry_space_group_name_H-M   'P 1'
_cell_length_a   6.98019400
_cell_length_b   7.48531900
_cell_length_c   8.21265700
_cell_angle_alpha   90.00000000
_cell_angle_beta   90.00000000
_cell_angle_gamma   90.00000000
_symmetry_Int_Tables_number   1
_chemical_formula_structural   Eu(BH4)2
_chemical_formula_sum   'Eu4 B8 H32'
_cell_volume   429.10294125
_cell_formula_units_Z   4
loop_
 _symmetry_equiv_pos_site_id
 _symmetry_equiv_pos_as_xyz
  1  'x, y, z'
loop_
 _atom_site_type_symbol
 _atom_site_label
 _atom_site_symmetry_multiplicity
 _atom_site_fract_x
 _atom_site_fract_y
 _atom_site_fract_z
 _atom_site_occupancy
  Eu  Eu0  1  0.00000000  0.25000000  0.17518000  1
  Eu  Eu1  1  0.50000000  0.75000000  0.32482000  1
  Eu  Eu2  1  0.00000000  0.75000000  0.82482000  1
  Eu  Eu3  1  0.50000000  0.25000000  0.67518000  1
  B  B4  1  0.75469400  0.07357200  0.38185600  1
  B  B5  1  0.74530600  0.57357200  0.11814400  1
  B  B6  1  0.25469400  0.92642800  0.11814400  1
  B  B7  1  0.24530600  0.42642800  0.38185600  1
  B  B8  1  0.24530600  0.92642800  0.61814400  1
  B  B9  1  0.25469400  0.42642800  0.88185600  1
  B  B10  1  0.74530600  0.07357200  0.88185600  1
  B  B11  1  0.75469400  0.57357200  0.61814400  1
  H  H12  1  0.66692500  0.15282800  0.27464000  1
  H  H13  1  0.83307500  0.65282800  0.22536000  1
  H  H14  1  0.16692500  0.84717200  0.22536000  1
  H  H15  1  0.33307500  0.34717200  0.27464000  1
  H  H16  1  0.33307500  0.84717200  0.72536000  1
  H  H17  1  0.16692500  0.34717200  0.77464000  1
  H  H18  1  0.83307500  0.15282800  0.77464000  1
  H  H19  1  0.66692500  0.65282800  0.72536000  1
  H  H20  1  0.86159400  0.96107300  0.32195600  1
  H  H21  1  0.63840600  0.46107300  0.17804400  1
  H  H22  1  0.36159400  0.03892700  0.17804400  1
  H  H23  1  0.13840600  0.53892700  0.32195600  1
  H  H24  1  0.13840600  0.03892700  0.67804400  1
  H  H25  1  0.36159400  0.53892700  0.82195600  1
  H  H26  1  0.63840600  0.96107300  0.82195600  1
  H  H27  1  0.86159400  0.46107300  0.67804400  1
  H  H28  1  0.85092600  0.17756600  0.46318700  1
  H  H29  1  0.64907400  0.67756600  0.03681300  1
  H  H30  1  0.35092600  0.82243400  0.03681300  1
  H  H31  1  0.14907400  0.32243400  0.46318700  1
  H  H32  1  0.14907400  0.82243400  0.53681300  1
  H  H33  1  0.35092600  0.32243400  0.96318700  1
  H  H34  1  0.64907400  0.17756600  0.96318700  1
  H  H35  1  0.85092600  0.67756600  0.53681300  1
  H  H36  1  0.64097200  0.99971600  0.47383700  1
  H  H37  1  0.85902800  0.49971600  0.02616300  1
  H  H38  1  0.14097200  0.00028400  0.02616300  1
  H  H39  1  0.35902800  0.50028400  0.47383700  1
  H  H40  1  0.35902800  0.00028400  0.52616300  1
  H  H41  1  0.14097200  0.50028400  0.97383700  1
  H  H42  1  0.85902800  0.99971600  0.97383700  1
  H  H43  1  0.64097200  0.49971600  0.52616300  1
