# generated using pymatgen
data_NaGdF4
_symmetry_space_group_name_H-M   'P 1'
_cell_length_a   6.11586000
_cell_length_b   7.06536490
_cell_length_c   7.07372897
_cell_angle_alpha   62.22158092
_cell_angle_beta   64.55022431
_cell_angle_gamma   64.61948997
_symmetry_Int_Tables_number   1
_chemical_formula_structural   NaGdF4
_chemical_formula_sum   'Na3 Gd3 F12'
_cell_volume   234.00527498
_cell_formula_units_Z   3
loop_
 _symmetry_equiv_pos_site_id
 _symmetry_equiv_pos_as_xyz
  1  'x, y, z'
loop_
 _atom_site_type_symbol
 _atom_site_label
 _atom_site_symmetry_multiplicity
 _atom_site_fract_x
 _atom_site_fract_y
 _atom_site_fract_z
 _atom_site_occupancy
  Na  Na0  1  0.66000100  0.51195700  0.13792600  1
  Na  Na1  1  0.66624000  0.03025400  0.65553800  1
  Na  Na2  1  0.32990300  0.42219200  0.91256000  1
  Gd  Gd3  1  0.00201100  0.00017200  0.99823800  1
  Gd  Gd4  1  0.99822700  0.50013500  0.50167900  1
  Gd  Gd5  1  0.33683500  0.92018000  0.40958100  1
  F  F6  1  0.36365600  0.54641000  0.49329300  1
  F  F7  1  0.36641600  0.00070500  0.03558200  1
  F  F8  1  0.59630800  0.71239000  0.65294300  1
  F  F9  1  0.59813700  0.16156700  0.20187100  1
  F  F10  1  0.04350500  0.82852600  0.76641600  1
  F  F11  1  0.04073000  0.27458300  0.32199500  1
  F  F12  1  0.24779900  0.62729900  0.12631200  1
  F  F13  1  0.27229200  0.13101100  0.62528000  1
  F  F14  1  0.98750200  0.38016000  0.87860700  1
  F  F15  1  0.98271300  0.88520100  0.37960300  1
  F  F16  1  0.75453900  0.73735400  0.23238000  1
  F  F17  1  0.75318700  0.25090400  0.74919500  1
