# generated using pymatgen
data_LaScGe
_symmetry_space_group_name_H-M   'P 1'
_cell_length_a   8.73525347
_cell_length_b   8.73525347
_cell_length_c   8.73525347
_cell_angle_alpha   150.98991604
_cell_angle_beta   150.98991604
_cell_angle_gamma   41.49022682
_symmetry_Int_Tables_number   1
_chemical_formula_structural   LaScGe
_chemical_formula_sum   'La2 Sc2 Ge2'
_cell_volume   156.41188455
_cell_formula_units_Z   2
loop_
 _symmetry_equiv_pos_site_id
 _symmetry_equiv_pos_as_xyz
  1  'x, y, z'
loop_
 _atom_site_type_symbol
 _atom_site_label
 _atom_site_symmetry_multiplicity
 _atom_site_fract_x
 _atom_site_fract_y
 _atom_site_fract_z
 _atom_site_occupancy
  La  La0  1  0.67605400  0.67605400  0.00000000  1
  La  La1  1  0.32394600  0.32394600  0.00000000  1
  Sc  Sc2  1  0.00000000  0.50000000  0.50000000  1
  Sc  Sc3  1  0.50000000  0.00000000  0.50000000  1
  Ge  Ge4  1  0.88061700  0.88061700  0.00000000  1
  Ge  Ge5  1  0.11938300  0.11938300  0.00000000  1
