# generated using pymatgen
data_LaSn2Rh
_symmetry_space_group_name_H-M   'P 1'
_cell_length_a   8.96149283
_cell_length_b   8.96149283
_cell_length_c   9.77219600
_cell_angle_alpha   90.00000000
_cell_angle_beta   90.00000000
_cell_angle_gamma   149.69875150
_symmetry_Int_Tables_number   1
_chemical_formula_structural   LaSn2Rh
_chemical_formula_sum   'La4 Sn8 Rh4'
_cell_volume   395.96248024
_cell_formula_units_Z   4
loop_
 _symmetry_equiv_pos_site_id
 _symmetry_equiv_pos_as_xyz
  1  'x, y, z'
loop_
 _atom_site_type_symbol
 _atom_site_label
 _atom_site_symmetry_multiplicity
 _atom_site_fract_x
 _atom_site_fract_y
 _atom_site_fract_z
 _atom_site_occupancy
  La  La0  1  0.50000000  0.50000000  0.50000000  1
  La  La1  1  0.50000000  0.50000000  0.00000000  1
  La  La2  1  0.29604600  0.70395400  0.25000000  1
  La  La3  1  0.70395400  0.29604600  0.75000000  1
  Sn  Sn4  1  0.90846000  0.09154000  0.75000000  1
  Sn  Sn5  1  0.92647600  0.07352400  0.25000000  1
  Sn  Sn6  1  0.09154000  0.90846000  0.25000000  1
  Sn  Sn7  1  0.07352400  0.92647600  0.75000000  1
  Sn  Sn8  1  0.69796000  0.30204000  0.41027000  1
  Sn  Sn9  1  0.30204000  0.69796000  0.58973000  1
  Sn  Sn10  1  0.30204000  0.69796000  0.91027000  1
  Sn  Sn11  1  0.69796000  0.30204000  0.08973000  1
  Rh  Rh12  1  0.14645600  0.85354400  0.50456300  1
  Rh  Rh13  1  0.85354400  0.14645600  0.00456300  1
  Rh  Rh14  1  0.14645600  0.85354400  0.99543700  1
  Rh  Rh15  1  0.85354400  0.14645600  0.49543700  1
