# generated using pymatgen
data_Rb2CoO3
_symmetry_space_group_name_H-M   'P 1'
_cell_length_a   5.40315200
_cell_length_b   6.35816042
_cell_length_c   6.35817061
_cell_angle_alpha   108.93805886
_cell_angle_beta   89.99974537
_cell_angle_gamma   89.99962746
_symmetry_Int_Tables_number   1
_chemical_formula_structural   Rb2CoO3
_chemical_formula_sum   'Rb4 Co2 O6'
_cell_volume   206.60569535
_cell_formula_units_Z   2
loop_
 _symmetry_equiv_pos_site_id
 _symmetry_equiv_pos_as_xyz
  1  'x, y, z'
loop_
 _atom_site_type_symbol
 _atom_site_label
 _atom_site_symmetry_multiplicity
 _atom_site_fract_x
 _atom_site_fract_y
 _atom_site_fract_z
 _atom_site_occupancy
  Rb  Rb0  1  0.74153200  0.18329100  0.50510500  1
  Rb  Rb1  1  0.24154300  0.49487700  0.81668000  1
  Rb  Rb2  1  0.74153200  0.50510500  0.18329200  1
  Rb  Rb3  1  0.24154300  0.81668000  0.49487700  1
  Co  Co4  1  0.73954800  0.92643900  0.92643900  1
  Co  Co5  1  0.23954300  0.07356800  0.07356800  1
  O  O6  1  0.23774000  0.31684100  0.31684400  1
  O  O7  1  0.73775600  0.68317000  0.68316700  1
  O  O8  1  0.98981500  0.11696000  0.88276200  1
  O  O9  1  0.48981500  0.11725200  0.88305600  1
  O  O10  1  0.98981500  0.88276000  0.11695900  1
  O  O11  1  0.48981600  0.88305500  0.11725100  1
