# generated using pymatgen
data_Ag6HgNO11
_symmetry_space_group_name_H-M   'P 1'
_cell_length_a   7.21974551
_cell_length_b   7.14953352
_cell_length_c   7.10363859
_cell_angle_alpha   60.86573284
_cell_angle_beta   59.88117534
_cell_angle_gamma   59.25309182
_symmetry_Int_Tables_number   1
_chemical_formula_structural   Ag6HgNO11
_chemical_formula_sum   'Ag6 Hg1 N1 O11'
_cell_volume   259.17312063
_cell_formula_units_Z   1
loop_
 _symmetry_equiv_pos_site_id
 _symmetry_equiv_pos_as_xyz
  1  'x, y, z'
loop_
 _atom_site_type_symbol
 _atom_site_label
 _atom_site_symmetry_multiplicity
 _atom_site_fract_x
 _atom_site_fract_y
 _atom_site_fract_z
 _atom_site_occupancy
  Ag  Ag0  1  0.49964800  0.99583600  0.50035200  1
  Ag  Ag1  1  0.49873600  0.49873600  0.00126400  1
  Ag  Ag2  1  0.50025600  0.00264200  0.99735800  1
  Ag  Ag3  1  0.99583600  0.49964800  0.00416400  1
  Ag  Ag4  1  0.99873600  0.99873600  0.50126400  1
  Ag  Ag5  1  0.00264200  0.50025600  0.49974400  1
  Hg  Hg6  1  0.00102300  0.00102300  0.99897700  1
  N  N7  1  0.47266200  0.47266200  0.52733800  1
  O  O8  1  0.57545000  0.14321200  0.14335300  1
  O  O9  1  0.13610000  0.14198400  0.14777400  1
  O  O10  1  0.14321200  0.57545000  0.13798400  1
  O  O11  1  0.14198400  0.13610000  0.57414100  1
  O  O12  1  0.42585900  0.85222600  0.85801600  1
  O  O13  1  0.86201600  0.85664700  0.85678800  1
  O  O14  1  0.85222600  0.42585900  0.86390000  1
  O  O15  1  0.85664700  0.86201600  0.42455000  1
  O  O16  1  0.42404600  0.64143700  0.35856300  1
  O  O17  1  0.34888400  0.34888400  0.65111600  1
  O  O18  1  0.64143700  0.42404600  0.57595400  1
