# generated using pymatgen
data_RbNb3(TeO6)2
_symmetry_space_group_name_H-M   'P 1'
_cell_length_a   4.11685800
_cell_length_b   15.23982000
_cell_length_c   17.82833100
_cell_angle_alpha   90.00000000
_cell_angle_beta   90.00000000
_cell_angle_gamma   90.00000000
_symmetry_Int_Tables_number   1
_chemical_formula_structural   RbNb3(TeO6)2
_chemical_formula_sum   'Rb4 Nb12 Te8 O48'
_cell_volume   1118.55260486
_cell_formula_units_Z   4
loop_
 _symmetry_equiv_pos_site_id
 _symmetry_equiv_pos_as_xyz
  1  'x, y, z'
loop_
 _atom_site_type_symbol
 _atom_site_label
 _atom_site_symmetry_multiplicity
 _atom_site_fract_x
 _atom_site_fract_y
 _atom_site_fract_z
 _atom_site_occupancy
  Rb  Rb0  1  0.21938600  0.07402600  0.75000000  1
  Rb  Rb1  1  0.78061400  0.92597400  0.25000000  1
  Rb  Rb2  1  0.21938600  0.42597400  0.25000000  1
  Rb  Rb3  1  0.78061400  0.57402600  0.75000000  1
  Nb  Nb4  1  0.24017600  0.79314100  0.75000000  1
  Nb  Nb5  1  0.75982400  0.20685900  0.25000000  1
  Nb  Nb6  1  0.24017600  0.70685900  0.25000000  1
  Nb  Nb7  1  0.75982400  0.29314100  0.75000000  1
  Nb  Nb8  1  0.76555400  0.15078200  0.56941800  1
  Nb  Nb9  1  0.23444600  0.84921800  0.06941800  1
  Nb  Nb10  1  0.76555400  0.34921800  0.43058200  1
  Nb  Nb11  1  0.23444600  0.65078200  0.93058200  1
  Nb  Nb12  1  0.23444600  0.84921800  0.43058200  1
  Nb  Nb13  1  0.76555400  0.15078200  0.93058200  1
  Nb  Nb14  1  0.23444600  0.65078200  0.56941800  1
  Nb  Nb15  1  0.76555400  0.34921800  0.06941800  1
  Te  Te16  1  0.61357400  0.91373000  0.59676900  1
  Te  Te17  1  0.38642600  0.08627000  0.09676900  1
  Te  Te18  1  0.61357400  0.58627000  0.40323100  1
  Te  Te19  1  0.38642600  0.41373000  0.90323100  1
  Te  Te20  1  0.38642600  0.08627000  0.40323100  1
  Te  Te21  1  0.61357400  0.91373000  0.90323100  1
  Te  Te22  1  0.38642600  0.41373000  0.59676900  1
  Te  Te23  1  0.61357400  0.58627000  0.09676900  1
  O  O24  1  0.28476900  0.93201200  0.52321900  1
  O  O25  1  0.71523100  0.06798800  0.02321900  1
  O  O26  1  0.28476900  0.56798800  0.47678100  1
  O  O27  1  0.71523100  0.43201200  0.97678100  1
  O  O28  1  0.71523100  0.06798800  0.47678100  1
  O  O29  1  0.28476900  0.93201200  0.97678100  1
  O  O30  1  0.71523100  0.43201200  0.52321900  1
  O  O31  1  0.28476900  0.56798800  0.02321900  1
  O  O32  1  0.69851100  0.03094600  0.62734100  1
  O  O33  1  0.30148900  0.96905400  0.12734100  1
  O  O34  1  0.69851100  0.46905400  0.37265900  1
  O  O35  1  0.30148900  0.53094600  0.87265900  1
  O  O36  1  0.30148900  0.96905400  0.37265900  1
  O  O37  1  0.69851100  0.03094600  0.87265900  1
  O  O38  1  0.30148900  0.53094600  0.62734100  1
  O  O39  1  0.69851100  0.46905400  0.12734100  1
  O  O40  1  0.29651700  0.89501400  0.67340900  1
  O  O41  1  0.70348300  0.10498600  0.17340900  1
  O  O42  1  0.29651700  0.60498600  0.32659100  1
  O  O43  1  0.70348300  0.39501400  0.82659100  1
  O  O44  1  0.70348300  0.10498600  0.32659100  1
  O  O45  1  0.29651700  0.89501400  0.82659100  1
  O  O46  1  0.70348300  0.39501400  0.67340900  1
  O  O47  1  0.29651700  0.60498600  0.17340900  1
  O  O48  1  0.29304600  0.70775100  0.66779400  1
  O  O49  1  0.70695400  0.29224900  0.16779400  1
  O  O50  1  0.29304600  0.79224900  0.33220600  1
  O  O51  1  0.70695400  0.20775100  0.83220600  1
  O  O52  1  0.70695400  0.29224900  0.33220600  1
  O  O53  1  0.29304600  0.70775100  0.83220600  1
  O  O54  1  0.70695400  0.20775100  0.66779400  1
  O  O55  1  0.29304600  0.79224900  0.16779400  1
  O  O56  1  0.79569700  0.79928800  0.75000000  1
  O  O57  1  0.20430300  0.20071200  0.25000000  1
  O  O58  1  0.79569700  0.70071200  0.25000000  1
  O  O59  1  0.20430300  0.29928800  0.75000000  1
  O  O60  1  0.70351500  0.25000000  0.50000000  1
  O  O61  1  0.29648500  0.75000000  0.00000000  1
  O  O62  1  0.29648500  0.75000000  0.50000000  1
  O  O63  1  0.70351500  0.25000000  0.00000000  1
  O  O64  1  0.20791400  0.14685200  0.56793700  1
  O  O65  1  0.79208600  0.85314800  0.06793700  1
  O  O66  1  0.20791400  0.35314800  0.43206300  1
  O  O67  1  0.79208600  0.64685200  0.93206300  1
  O  O68  1  0.79208600  0.85314800  0.43206300  1
  O  O69  1  0.20791400  0.14685200  0.93206300  1
  O  O70  1  0.79208600  0.64685200  0.56793700  1
  O  O71  1  0.20791400  0.35314800  0.06793700  1
