# generated using pymatgen
data_MnSi(AgSe2)2
_symmetry_space_group_name_H-M   'P 1'
_cell_length_a   6.89569600
_cell_length_b   7.31556900
_cell_length_c   8.05084200
_cell_angle_alpha   90.00000000
_cell_angle_beta   90.00000000
_cell_angle_gamma   90.00000000
_symmetry_Int_Tables_number   1
_chemical_formula_structural   MnSi(AgSe2)2
_chemical_formula_sum   'Mn2 Si2 Ag4 Se8'
_cell_volume   406.13229160
_cell_formula_units_Z   2
loop_
 _symmetry_equiv_pos_site_id
 _symmetry_equiv_pos_as_xyz
  1  'x, y, z'
loop_
 _atom_site_type_symbol
 _atom_site_label
 _atom_site_symmetry_multiplicity
 _atom_site_fract_x
 _atom_site_fract_y
 _atom_site_fract_z
 _atom_site_occupancy
  Mn  Mn0  1  0.50241400  0.35632200  0.00000000  1
  Mn  Mn1  1  0.00241400  0.64367800  0.50000000  1
  Si  Si2  1  0.99975800  0.66388200  0.00000000  1
  Si  Si3  1  0.49975800  0.33611800  0.50000000  1
  Ag  Ag4  1  0.51999400  0.82662400  0.75137900  1
  Ag  Ag5  1  0.01999400  0.17337600  0.74862100  1
  Ag  Ag6  1  0.01999400  0.17337600  0.25137900  1
  Ag  Ag7  1  0.51999400  0.82662400  0.24862100  1
  Se  Se8  1  0.87168900  0.37399000  0.00000000  1
  Se  Se9  1  0.37168900  0.62601000  0.50000000  1
  Se  Se10  1  0.90197200  0.82280400  0.76429400  1
  Se  Se11  1  0.40197200  0.17719600  0.73570600  1
  Se  Se12  1  0.40197200  0.17719600  0.26429400  1
  Se  Se13  1  0.90197200  0.82280400  0.23570600  1
  Se  Se14  1  0.33470600  0.66003300  0.00000000  1
  Se  Se15  1  0.83470600  0.33996700  0.50000000  1
