# generated using pymatgen
data_Na4Mn2P2O7F6
_symmetry_space_group_name_H-M   'P 1'
_cell_length_a   7.91707300
_cell_length_b   8.26874100
_cell_length_c   10.64807885
_cell_angle_alpha   90.00000000
_cell_angle_beta   129.57363611
_cell_angle_gamma   90.00000000
_symmetry_Int_Tables_number   1
_chemical_formula_structural   Na4Mn2P2O7F6
_chemical_formula_sum   'Na8 Mn4 P4 O14 F12'
_cell_volume   537.30470598
_cell_formula_units_Z   2
loop_
 _symmetry_equiv_pos_site_id
 _symmetry_equiv_pos_as_xyz
  1  'x, y, z'
loop_
 _atom_site_type_symbol
 _atom_site_label
 _atom_site_symmetry_multiplicity
 _atom_site_fract_x
 _atom_site_fract_y
 _atom_site_fract_z
 _atom_site_occupancy
  Na  Na0  1  0.50000000  0.27460600  0.25000000  1
  Na  Na1  1  0.50000000  0.72539400  0.75000000  1
  Na  Na2  1  0.00000000  0.25060500  0.75000000  1
  Na  Na3  1  0.00000000  0.74939500  0.25000000  1
  Na  Na4  1  0.50000000  0.18341800  0.75000000  1
  Na  Na5  1  0.50000000  0.81658200  0.25000000  1
  Na  Na6  1  0.00000000  0.50000000  0.50000000  1
  Na  Na7  1  0.00000000  0.50000000  0.00000000  1
  Mn  Mn8  1  0.50000000  0.50000000  0.00000000  1
  Mn  Mn9  1  0.50000000  0.50000000  0.50000000  1
  Mn  Mn10  1  0.00000000  0.00000000  0.00000000  1
  Mn  Mn11  1  0.00000000  0.00000000  0.50000000  1
  P  P12  1  0.76842400  0.13810200  0.13355500  1
  P  P13  1  0.23157600  0.86189800  0.86644500  1
  P  P14  1  0.23157600  0.13810200  0.36644500  1
  P  P15  1  0.76842400  0.86189800  0.63355500  1
  O  O16  1  0.81347200  0.99339400  0.06355400  1
  O  O17  1  0.18652800  0.00660600  0.93644600  1
  O  O18  1  0.18652800  0.99339400  0.43644600  1
  O  O19  1  0.81347200  0.00660600  0.56355400  1
  O  O20  1  0.00000000  0.23794900  0.25000000  1
  O  O21  1  0.00000000  0.76205100  0.75000000  1
  O  O22  1  0.72145000  0.92168600  0.74462900  1
  O  O23  1  0.27855000  0.07831400  0.25537100  1
  O  O24  1  0.27855000  0.92168600  0.75537100  1
  O  O25  1  0.72145000  0.07831400  0.24462900  1
  O  O26  1  0.59950000  0.25347200  0.00052900  1
  O  O27  1  0.40050000  0.74652800  0.99947100  1
  O  O28  1  0.40050000  0.25347200  0.49947100  1
  O  O29  1  0.59950000  0.74652800  0.50052900  1
  F  F30  1  0.67728300  0.49245300  0.22842000  1
  F  F31  1  0.32271700  0.50754700  0.77158000  1
  F  F32  1  0.32271700  0.49245300  0.27158000  1
  F  F33  1  0.67728300  0.50754700  0.72842000  1
  F  F34  1  0.90908500  0.21432700  0.92035300  1
  F  F35  1  0.09091500  0.78567300  0.07964700  1
  F  F36  1  0.09091500  0.21432700  0.57964700  1
  F  F37  1  0.90908500  0.78567300  0.42035300  1
  F  F38  1  0.26060400  0.40867200  0.97948900  1
  F  F39  1  0.73939600  0.59132800  0.02051100  1
  F  F40  1  0.73939600  0.40867200  0.52051100  1
  F  F41  1  0.26060400  0.59132800  0.47948900  1
