# generated using pymatgen
data_BaV2O6
_symmetry_space_group_name_H-M   'P 1'
_cell_length_a   7.77286109
_cell_length_b   7.77286159
_cell_length_c   8.07465100
_cell_angle_alpha   90.00000000
_cell_angle_beta   90.00000000
_cell_angle_gamma   112.52878263
_symmetry_Int_Tables_number   1
_chemical_formula_structural   BaV2O6
_chemical_formula_sum   'Ba3 V6 O18'
_cell_volume   450.62005318
_cell_formula_units_Z   3
loop_
 _symmetry_equiv_pos_site_id
 _symmetry_equiv_pos_as_xyz
  1  'x, y, z'
loop_
 _atom_site_type_symbol
 _atom_site_label
 _atom_site_symmetry_multiplicity
 _atom_site_fract_x
 _atom_site_fract_y
 _atom_site_fract_z
 _atom_site_occupancy
  Ba  Ba0  1  0.83546500  0.16453500  0.49999900  1
  Ba  Ba1  1  0.16453500  0.83546400  0.49999900  1
  Ba  Ba2  1  0.00000000  0.00000000  0.00000000  1
  V  V3  1  0.00000000  0.50000000  0.93388000  1
  V  V4  1  0.50000000  0.00000000  0.06612000  1
  V  V5  1  0.25051800  0.39859100  0.25894300  1
  V  V6  1  0.74948300  0.60141000  0.25894300  1
  V  V7  1  0.60141000  0.74948200  0.74105700  1
  V  V8  1  0.39859100  0.25051900  0.74105700  1
  O  O9  1  0.85630800  0.58920100  0.06044900  1
  O  O10  1  0.14369200  0.41079900  0.06044900  1
  O  O11  1  0.58920100  0.85630800  0.93955100  1
  O  O12  1  0.41080000  0.14369300  0.93955100  1
  O  O13  1  0.82904400  0.50716400  0.41141700  1
  O  O14  1  0.17095600  0.49283600  0.41141700  1
  O  O15  1  0.50716400  0.82904500  0.58858300  1
  O  O16  1  0.49283600  0.17095600  0.58858300  1
  O  O17  1  0.12958100  0.68187000  0.81661400  1
  O  O18  1  0.50000000  0.50000000  0.75285400  1
  O  O19  1  0.50000000  0.50000000  0.24714600  1
  O  O20  1  0.16652000  0.16550000  0.70135500  1
  O  O21  1  0.83348000  0.83449900  0.70135500  1
  O  O22  1  0.87041900  0.31813000  0.81661400  1
  O  O23  1  0.83449900  0.83348000  0.29864500  1
  O  O24  1  0.31813000  0.87041900  0.18338600  1
  O  O25  1  0.68187100  0.12958200  0.18338600  1
  O  O26  1  0.16550100  0.16651900  0.29864500  1
