# generated using pymatgen
data_In2(SeO4)3
_symmetry_space_group_name_H-M   'P 1'
_cell_length_a   9.31212500
_cell_length_b   9.06692200
_cell_length_c   15.50087048
_cell_angle_alpha   55.03659616
_cell_angle_beta   90.00000000
_cell_angle_gamma   90.00000000
_symmetry_Int_Tables_number   1
_chemical_formula_structural   In2(SeO4)3
_chemical_formula_sum   'In8 Se12 O48'
_cell_volume   1072.56441735
_cell_formula_units_Z   4
loop_
 _symmetry_equiv_pos_site_id
 _symmetry_equiv_pos_as_xyz
  1  'x, y, z'
loop_
 _atom_site_type_symbol
 _atom_site_label
 _atom_site_symmetry_multiplicity
 _atom_site_fract_x
 _atom_site_fract_y
 _atom_site_fract_z
 _atom_site_occupancy
  In  In0  1  0.03270100  0.86623800  0.88529200  1
  In  In1  1  0.96729900  0.13376200  0.11470800  1
  In  In2  1  0.53270100  0.13376200  0.61470800  1
  In  In3  1  0.46729900  0.86623800  0.38529200  1
  In  In4  1  0.03554000  0.63470800  0.61490900  1
  In  In5  1  0.96446000  0.36529200  0.38509100  1
  In  In6  1  0.53554000  0.36529200  0.88509100  1
  In  In7  1  0.46446000  0.63470800  0.11490900  1
  Se  Se8  1  0.88414200  0.96294900  0.64659000  1
  Se  Se9  1  0.11585800  0.03705100  0.35341000  1
  Se  Se10  1  0.38414200  0.03705100  0.85341000  1
  Se  Se11  1  0.61585800  0.96294900  0.14659000  1
  Se  Se12  1  0.38034800  0.74386000  0.65378100  1
  Se  Se13  1  0.61965200  0.25614000  0.34621900  1
  Se  Se14  1  0.88034800  0.25614000  0.84621900  1
  Se  Se15  1  0.11965200  0.74386000  0.15378100  1
  Se  Se16  1  0.25211800  0.45673100  0.50403000  1
  Se  Se17  1  0.74788200  0.54326900  0.49597000  1
  Se  Se18  1  0.75211800  0.54326900  0.99597000  1
  Se  Se19  1  0.24788200  0.45673100  0.00403000  1
  O  O20  1  0.72012500  0.95914300  0.69153200  1
  O  O21  1  0.27987500  0.04085700  0.30846800  1
  O  O22  1  0.22012500  0.04085700  0.80846800  1
  O  O23  1  0.77987500  0.95914300  0.19153200  1
  O  O24  1  0.12157500  0.61065100  0.93395800  1
  O  O25  1  0.87842500  0.38934900  0.06604200  1
  O  O26  1  0.62157500  0.38934900  0.56604200  1
  O  O27  1  0.37842500  0.61065100  0.43395800  1
  O  O28  1  0.19396800  0.46279400  0.60420800  1
  O  O29  1  0.80603200  0.53720600  0.39579200  1
  O  O30  1  0.69396800  0.53720600  0.89579200  1
  O  O31  1  0.30603200  0.46279400  0.10420800  1
  O  O32  1  0.41807300  0.88158100  0.68945900  1
  O  O33  1  0.58192700  0.11841900  0.31054100  1
  O  O34  1  0.91807300  0.11841900  0.81054100  1
  O  O35  1  0.08192700  0.88158100  0.18945900  1
  O  O36  1  0.00679500  0.88309500  0.74129100  1
  O  O37  1  0.99320500  0.11690500  0.25870900  1
  O  O38  1  0.50679500  0.11690500  0.75870900  1
  O  O39  1  0.49320500  0.88309500  0.24129100  1
  O  O40  1  0.37899300  0.50005300  0.91881400  1
  O  O41  1  0.62100700  0.49994700  0.08118600  1
  O  O42  1  0.87899300  0.49994700  0.58118600  1
  O  O43  1  0.12100700  0.50005300  0.41881400  1
  O  O44  1  0.88353000  0.83101900  0.60279300  1
  O  O45  1  0.11647000  0.16898100  0.39720700  1
  O  O46  1  0.38353000  0.16898100  0.89720700  1
  O  O47  1  0.61647000  0.83101900  0.10279300  1
  O  O48  1  0.48660500  0.56165100  0.71793900  1
  O  O49  1  0.51339500  0.43834900  0.28206100  1
  O  O50  1  0.98660500  0.43834900  0.78206100  1
  O  O51  1  0.01339500  0.56165100  0.21793900  1
  O  O52  1  0.31976100  0.25164400  0.55351000  1
  O  O53  1  0.68023900  0.74835600  0.44649000  1
  O  O54  1  0.81976100  0.74835600  0.94649000  1
  O  O55  1  0.18023900  0.25164400  0.05351000  1
  O  O56  1  0.40429100  0.84885500  0.52503100  1
  O  O57  1  0.59570900  0.15114500  0.47496900  1
  O  O58  1  0.90429100  0.15114500  0.97496900  1
  O  O59  1  0.09570900  0.84885500  0.02503100  1
  O  O60  1  0.20668900  0.69323600  0.68406300  1
  O  O61  1  0.79331100  0.30676400  0.31593700  1
  O  O62  1  0.70668900  0.30676400  0.81593700  1
  O  O63  1  0.29331100  0.69323600  0.18406300  1
  O  O64  1  0.42747800  0.82346100  0.94759600  1
  O  O65  1  0.57252200  0.17653900  0.05240400  1
  O  O66  1  0.92747800  0.17653900  0.55240400  1
  O  O67  1  0.07252200  0.82346100  0.44759600  1
