# generated using pymatgen
data_La5(Sn5Ir2)2
_symmetry_space_group_name_H-M   'P 1'
_cell_length_a   14.26248300
_cell_length_b   14.26248300
_cell_length_c   4.73821100
_cell_angle_alpha   90.00000000
_cell_angle_beta   90.00000000
_cell_angle_gamma   90.00000000
_symmetry_Int_Tables_number   1
_chemical_formula_structural   La5(Sn5Ir2)2
_chemical_formula_sum   'La10 Sn20 Ir8'
_cell_volume   963.83940153
_cell_formula_units_Z   2
loop_
 _symmetry_equiv_pos_site_id
 _symmetry_equiv_pos_as_xyz
  1  'x, y, z'
loop_
 _atom_site_type_symbol
 _atom_site_label
 _atom_site_symmetry_multiplicity
 _atom_site_fract_x
 _atom_site_fract_y
 _atom_site_fract_z
 _atom_site_occupancy
  La  La0  1  0.50000000  0.50000000  0.00000000  1
  La  La1  1  0.00000000  0.00000000  0.00000000  1
  La  La2  1  0.67639700  0.17639700  0.50000000  1
  La  La3  1  0.32360300  0.82360300  0.50000000  1
  La  La4  1  0.17639700  0.32360300  0.50000000  1
  La  La5  1  0.82360300  0.67639700  0.50000000  1
  La  La6  1  0.88764000  0.38764000  0.50000000  1
  La  La7  1  0.11236000  0.61236000  0.50000000  1
  La  La8  1  0.38764000  0.11236000  0.50000000  1
  La  La9  1  0.61236000  0.88764000  0.50000000  1
  Sn  Sn10  1  0.56930600  0.06930600  0.00000000  1
  Sn  Sn11  1  0.43069400  0.93069400  0.00000000  1
  Sn  Sn12  1  0.06930600  0.43069400  0.00000000  1
  Sn  Sn13  1  0.93069400  0.56930600  0.00000000  1
  Sn  Sn14  1  0.65457700  0.69800500  0.00000000  1
  Sn  Sn15  1  0.34542300  0.30199500  0.00000000  1
  Sn  Sn16  1  0.15457700  0.80199500  0.00000000  1
  Sn  Sn17  1  0.84542300  0.19800500  0.00000000  1
  Sn  Sn18  1  0.30199500  0.65457700  0.00000000  1
  Sn  Sn19  1  0.69800500  0.34542300  0.00000000  1
  Sn  Sn20  1  0.19800500  0.15457700  0.00000000  1
  Sn  Sn21  1  0.80199500  0.84542300  0.00000000  1
  Sn  Sn22  1  0.66377800  0.50501100  0.50000000  1
  Sn  Sn23  1  0.33622200  0.49498900  0.50000000  1
  Sn  Sn24  1  0.16377800  0.99498900  0.50000000  1
  Sn  Sn25  1  0.83622200  0.00501100  0.50000000  1
  Sn  Sn26  1  0.49498900  0.66377800  0.50000000  1
  Sn  Sn27  1  0.50501100  0.33622200  0.50000000  1
  Sn  Sn28  1  0.00501100  0.16377800  0.50000000  1
  Sn  Sn29  1  0.99498900  0.83622200  0.50000000  1
  Ir  Ir30  1  0.74628200  0.52774600  0.00000000  1
  Ir  Ir31  1  0.25371800  0.47225400  0.00000000  1
  Ir  Ir32  1  0.24628200  0.97225400  0.00000000  1
  Ir  Ir33  1  0.75371800  0.02774600  0.00000000  1
  Ir  Ir34  1  0.47225400  0.74628200  0.00000000  1
  Ir  Ir35  1  0.52774600  0.25371800  0.00000000  1
  Ir  Ir36  1  0.02774600  0.24628200  0.00000000  1
  Ir  Ir37  1  0.97225400  0.75371800  0.00000000  1
