# generated using pymatgen
data_NdBN2
_symmetry_space_group_name_H-M   'P 1'
_cell_length_a   7.39649395
_cell_length_b   7.39649395
_cell_length_c   7.39649362
_cell_angle_alpha   110.49766911
_cell_angle_beta   110.49766911
_cell_angle_gamma   110.49767329
_symmetry_Int_Tables_number   1
_chemical_formula_structural   NdBN2
_chemical_formula_sum   'Nd6 B6 N12'
_cell_volume   299.07584092
_cell_formula_units_Z   6
loop_
 _symmetry_equiv_pos_site_id
 _symmetry_equiv_pos_as_xyz
  1  'x, y, z'
loop_
 _atom_site_type_symbol
 _atom_site_label
 _atom_site_symmetry_multiplicity
 _atom_site_fract_x
 _atom_site_fract_y
 _atom_site_fract_z
 _atom_site_occupancy
  Nd  Nd0  1  0.70438600  0.25000000  0.79561400  1
  Nd  Nd1  1  0.79561400  0.70438600  0.25000000  1
  Nd  Nd2  1  0.25000000  0.79561400  0.70438600  1
  Nd  Nd3  1  0.29561400  0.75000000  0.20438600  1
  Nd  Nd4  1  0.20438600  0.29561400  0.75000000  1
  Nd  Nd5  1  0.75000000  0.20438600  0.29561400  1
  B  B6  1  0.86974400  0.63025600  0.75000000  1
  B  B7  1  0.75000000  0.86974400  0.63025600  1
  B  B8  1  0.63025600  0.75000000  0.86974400  1
  B  B9  1  0.25000000  0.13025600  0.36974400  1
  B  B10  1  0.36974400  0.25000000  0.13025600  1
  B  B11  1  0.13025600  0.36974400  0.25000000  1
  N  N12  1  0.75000000  0.62761400  0.87238600  1
  N  N13  1  0.87238600  0.75000000  0.62761400  1
  N  N14  1  0.62761400  0.87238600  0.75000000  1
  N  N15  1  0.37238600  0.12761400  0.25000000  1
  N  N16  1  0.25000000  0.37238600  0.12761400  1
  N  N17  1  0.12761400  0.25000000  0.37238600  1
  N  N18  1  0.75000000  0.99143000  0.50857000  1
  N  N19  1  0.50857000  0.75000000  0.99143000  1
  N  N20  1  0.99143000  0.50857000  0.75000000  1
  N  N21  1  0.00857000  0.49143000  0.25000000  1
  N  N22  1  0.25000000  0.00857000  0.49143000  1
  N  N23  1  0.49143000  0.25000000  0.00857000  1
