# generated using pymatgen
data_Rb2NiO2
_symmetry_space_group_name_H-M   'P 1'
_cell_length_a   7.31024562
_cell_length_b   9.39240494
_cell_length_c   8.40082238
_cell_angle_alpha   63.43495609
_cell_angle_beta   73.30384621
_cell_angle_gamma   97.38192884
_symmetry_Int_Tables_number   1
_chemical_formula_structural   Rb2NiO2
_chemical_formula_sum   'Rb8 Ni4 O8'
_cell_volume   471.40967616
_cell_formula_units_Z   4
loop_
 _symmetry_equiv_pos_site_id
 _symmetry_equiv_pos_as_xyz
  1  'x, y, z'
loop_
 _atom_site_type_symbol
 _atom_site_label
 _atom_site_symmetry_multiplicity
 _atom_site_fract_x
 _atom_site_fract_y
 _atom_site_fract_z
 _atom_site_occupancy
  Rb  Rb0  1  0.68746700  0.67186700  0.49220000  1
  Rb  Rb1  1  0.68746700  0.67186700  0.99220000  1
  Rb  Rb2  1  0.68746700  0.17186700  0.24220000  1
  Rb  Rb3  1  0.68746700  0.17186700  0.74220000  1
  Rb  Rb4  1  0.31253300  0.32813300  0.50780000  1
  Rb  Rb5  1  0.31253300  0.32813300  0.00780000  1
  Rb  Rb6  1  0.31253300  0.82813300  0.25780000  1
  Rb  Rb7  1  0.31253300  0.82813300  0.75780000  1
  Ni  Ni8  1  0.00000000  0.50000000  0.25000000  1
  Ni  Ni9  1  0.00000000  0.00000000  0.50000000  1
  Ni  Ni10  1  0.00000000  0.50000000  0.75000000  1
  Ni  Ni11  1  0.00000000  0.00000000  0.00000000  1
  O  O12  1  0.74261500  0.43565400  0.34651900  1
  O  O13  1  0.74261500  0.43565400  0.84651900  1
  O  O14  1  0.74261500  0.93565400  0.09651900  1
  O  O15  1  0.74261500  0.93565400  0.59651900  1
  O  O16  1  0.25738500  0.56434600  0.65348100  1
  O  O17  1  0.25738500  0.56434600  0.15348100  1
  O  O18  1  0.25738500  0.06434600  0.40348100  1
  O  O19  1  0.25738500  0.06434600  0.90348100  1
