# generated using pymatgen
data_Ba2Ni3N2
_symmetry_space_group_name_H-M   'P 1'
_cell_length_a   6.33190766
_cell_length_b   6.33190766
_cell_length_c   7.41516900
_cell_angle_alpha   90.00000000
_cell_angle_beta   90.00000000
_cell_angle_gamma   111.49765370
_symmetry_Int_Tables_number   1
_chemical_formula_structural   Ba2Ni3N2
_chemical_formula_sum   'Ba4 Ni6 N4'
_cell_volume   276.61460511
_cell_formula_units_Z   2
loop_
 _symmetry_equiv_pos_site_id
 _symmetry_equiv_pos_as_xyz
  1  'x, y, z'
loop_
 _atom_site_type_symbol
 _atom_site_label
 _atom_site_symmetry_multiplicity
 _atom_site_fract_x
 _atom_site_fract_y
 _atom_site_fract_z
 _atom_site_occupancy
  Ba  Ba0  1  0.66898100  0.33067300  0.40888000  1
  Ba  Ba1  1  0.33067300  0.66898100  0.59112000  1
  Ba  Ba2  1  0.83067300  0.16898100  0.90888000  1
  Ba  Ba3  1  0.16898100  0.83067300  0.09112000  1
  Ni  Ni4  1  0.17592500  0.32488900  0.25176700  1
  Ni  Ni5  1  0.32488900  0.17592500  0.74823300  1
  Ni  Ni6  1  0.82488900  0.67592500  0.75176700  1
  Ni  Ni7  1  0.67592500  0.82488900  0.24823300  1
  Ni  Ni8  1  0.02099000  0.02099000  0.50000000  1
  Ni  Ni9  1  0.52099000  0.52099000  0.00000000  1
  N  N10  1  0.92592200  0.07312100  0.27398300  1
  N  N11  1  0.07312100  0.92592200  0.72601700  1
  N  N12  1  0.57312100  0.42592200  0.77398300  1
  N  N13  1  0.42592200  0.57312100  0.22601700  1
