# generated using pymatgen
data_Dy3Ga5
_symmetry_space_group_name_H-M   'P 1'
_cell_length_a   6.11115700
_cell_length_b   9.70247800
_cell_length_c   11.45456600
_cell_angle_alpha   90.00000000
_cell_angle_beta   90.00000000
_cell_angle_gamma   90.00000000
_symmetry_Int_Tables_number   1
_chemical_formula_structural   Dy3Ga5
_chemical_formula_sum   'Dy12 Ga20'
_cell_volume   679.17977818
_cell_formula_units_Z   4
loop_
 _symmetry_equiv_pos_site_id
 _symmetry_equiv_pos_as_xyz
  1  'x, y, z'
loop_
 _atom_site_type_symbol
 _atom_site_label
 _atom_site_symmetry_multiplicity
 _atom_site_fract_x
 _atom_site_fract_y
 _atom_site_fract_z
 _atom_site_occupancy
  Dy  Dy0  1  0.84868700  0.75000000  0.07367800  1
  Dy  Dy1  1  0.65131300  0.75000000  0.57367800  1
  Dy  Dy2  1  0.15131300  0.25000000  0.92632200  1
  Dy  Dy3  1  0.34868700  0.25000000  0.42632200  1
  Dy  Dy4  1  0.88962200  0.50927600  0.35197300  1
  Dy  Dy5  1  0.61037800  0.99072400  0.85197300  1
  Dy  Dy6  1  0.11037800  0.00927600  0.64802700  1
  Dy  Dy7  1  0.38962200  0.49072400  0.14802700  1
  Dy  Dy8  1  0.11037800  0.49072400  0.64802700  1
  Dy  Dy9  1  0.38962200  0.00927600  0.14802700  1
  Dy  Dy10  1  0.88962200  0.99072400  0.35197300  1
  Dy  Dy11  1  0.61037800  0.50927600  0.85197300  1
  Ga  Ga12  1  0.87486600  0.05308800  0.09095100  1
  Ga  Ga13  1  0.62513400  0.44691200  0.59095100  1
  Ga  Ga14  1  0.12513400  0.55308800  0.90904900  1
  Ga  Ga15  1  0.37486600  0.94691200  0.40904900  1
  Ga  Ga16  1  0.12513400  0.94691200  0.90904900  1
  Ga  Ga17  1  0.37486600  0.55308800  0.40904900  1
  Ga  Ga18  1  0.87486600  0.44691200  0.09095100  1
  Ga  Ga19  1  0.62513400  0.05308800  0.59095100  1
  Ga  Ga20  1  0.17559500  0.75000000  0.25201200  1
  Ga  Ga21  1  0.32440500  0.75000000  0.75201200  1
  Ga  Ga22  1  0.82440500  0.25000000  0.74798800  1
  Ga  Ga23  1  0.67559500  0.25000000  0.24798800  1
  Ga  Ga24  1  0.37088400  0.75000000  0.00578400  1
  Ga  Ga25  1  0.12911600  0.75000000  0.50578400  1
  Ga  Ga26  1  0.62911600  0.25000000  0.99421600  1
  Ga  Ga27  1  0.87088400  0.25000000  0.49421600  1
  Ga  Ga28  1  0.60272800  0.75000000  0.29866100  1
  Ga  Ga29  1  0.89727200  0.75000000  0.79866100  1
  Ga  Ga30  1  0.39727200  0.25000000  0.70133900  1
  Ga  Ga31  1  0.10272800  0.25000000  0.20133900  1
