# generated using pymatgen
data_Co5NiS8
_symmetry_space_group_name_H-M   'P 1'
_cell_length_a   6.57813802
_cell_length_b   6.57813802
_cell_length_c   6.57813802
_cell_angle_alpha   60.00000000
_cell_angle_beta   60.00000000
_cell_angle_gamma   60.00000000
_symmetry_Int_Tables_number   1
_chemical_formula_structural   Co5NiS8
_chemical_formula_sum   'Co5 Ni1 S8'
_cell_volume   201.27690515
_cell_formula_units_Z   1
loop_
 _symmetry_equiv_pos_site_id
 _symmetry_equiv_pos_as_xyz
  1  'x, y, z'
loop_
 _atom_site_type_symbol
 _atom_site_label
 _atom_site_symmetry_multiplicity
 _atom_site_fract_x
 _atom_site_fract_y
 _atom_site_fract_z
 _atom_site_occupancy
  Co  Co0  1  0.62536200  0.62536200  0.12391300  1
  Co  Co1  1  0.62536200  0.12391300  0.62536200  1
  Co  Co2  1  0.12391300  0.62536200  0.62536200  1
  Co  Co3  1  0.62536200  0.62536200  0.62536200  1
  Co  Co4  1  0.25000000  0.25000000  0.25000000  1
  Ni  Ni5  1  0.00000000  0.00000000  0.00000000  1
  S  S6  1  0.86572000  0.86572000  0.40284100  1
  S  S7  1  0.86572000  0.40284100  0.86572000  1
  S  S8  1  0.40284100  0.86572000  0.86572000  1
  S  S9  1  0.86572000  0.86572000  0.86572000  1
  S  S10  1  0.38237500  0.38237500  0.85287600  1
  S  S11  1  0.38237500  0.85287600  0.38237500  1
  S  S12  1  0.85287600  0.38237500  0.38237500  1
  S  S13  1  0.38237500  0.38237500  0.38237500  1
