# generated using pymatgen
data_Na22CaFe6P12(O8F)6
_symmetry_space_group_name_H-M   'P 1'
_cell_length_a   13.90268355
_cell_length_b   13.90268355
_cell_length_c   6.91848300
_cell_angle_alpha   90.00000000
_cell_angle_beta   90.00000000
_cell_angle_gamma   119.99999784
_symmetry_Int_Tables_number   1
_chemical_formula_structural   Na22CaFe6P12(O8F)6
_chemical_formula_sum   'Na22 Ca1 Fe6 P12 O48 F6'
_cell_volume   1158.08062050
_cell_formula_units_Z   1
loop_
 _symmetry_equiv_pos_site_id
 _symmetry_equiv_pos_as_xyz
  1  'x, y, z'
loop_
 _atom_site_type_symbol
 _atom_site_label
 _atom_site_symmetry_multiplicity
 _atom_site_fract_x
 _atom_site_fract_y
 _atom_site_fract_z
 _atom_site_occupancy
  Na  Na0  1  0.05997200  0.25087000  0.27181600  1
  Na  Na1  1  0.74913000  0.80910200  0.27181600  1
  Na  Na2  1  0.19089800  0.94002800  0.27181600  1
  Na  Na3  1  0.93800700  0.74852100  0.72883200  1
  Na  Na4  1  0.25147900  0.18948600  0.72883200  1
  Na  Na5  1  0.81051400  0.06199300  0.72883200  1
  Na  Na6  1  0.33333300  0.66666700  0.97377200  1
  Na  Na7  1  0.66666700  0.33333300  0.03772000  1
  Na  Na8  1  0.00000000  0.00000000  0.50016300  1
  Na  Na9  1  0.87131800  0.28988300  0.98394900  1
  Na  Na10  1  0.71011700  0.58143500  0.98394900  1
  Na  Na11  1  0.41856500  0.12868200  0.98394900  1
  Na  Na12  1  0.12658000  0.70916200  0.01483300  1
  Na  Na13  1  0.29083800  0.41741800  0.01483300  1
  Na  Na14  1  0.58258200  0.87342000  0.01483300  1
  Na  Na15  1  0.33333300  0.66666700  0.51040100  1
  Na  Na16  1  0.39148600  0.89797500  0.76927900  1
  Na  Na17  1  0.10202500  0.49351200  0.76927900  1
  Na  Na18  1  0.50648800  0.60851400  0.76927900  1
  Na  Na19  1  0.61100100  0.10982100  0.23484600  1
  Na  Na20  1  0.89017900  0.50118000  0.23484600  1
  Na  Na21  1  0.49882000  0.38899900  0.23484600  1
  Ca  Ca22  1  0.00000000  0.00000000  0.99946700  1
  Fe  Fe23  1  0.58403400  0.87575400  0.51385400  1
  Fe  Fe24  1  0.12424600  0.70828000  0.51385400  1
  Fe  Fe25  1  0.29172000  0.41596600  0.51385400  1
  Fe  Fe26  1  0.42165900  0.13051000  0.48587300  1
  Fe  Fe27  1  0.86949000  0.29114900  0.48587300  1
  Fe  Fe28  1  0.70885100  0.57834100  0.48587300  1
  P  P29  1  0.80638800  0.05890800  0.24115000  1
  P  P30  1  0.94109200  0.74748000  0.24115000  1
  P  P31  1  0.25252000  0.19361200  0.24115000  1
  P  P32  1  0.19454000  0.94180100  0.75863600  1
  P  P33  1  0.05819900  0.25273800  0.75863600  1
  P  P34  1  0.74726200  0.80546000  0.75863600  1
  P  P35  1  0.62625200  0.11702700  0.71947900  1
  P  P36  1  0.88297300  0.50922500  0.71947900  1
  P  P37  1  0.49077500  0.37374800  0.71947900  1
  P  P38  1  0.37333200  0.88254900  0.28003200  1
  P  P39  1  0.11745100  0.49078300  0.28003200  1
  P  P40  1  0.50921700  0.62666800  0.28003200  1
  O  O41  1  0.87071700  0.99488800  0.23605000  1
  O  O42  1  0.00511200  0.87582900  0.23605000  1
  O  O43  1  0.12417100  0.12928300  0.23605000  1
  O  O44  1  0.12921400  0.00481000  0.76464500  1
  O  O45  1  0.99519000  0.12440300  0.76464500  1
  O  O46  1  0.87559700  0.87078600  0.76464500  1
  O  O47  1  0.86538000  0.15163800  0.39962800  1
  O  O48  1  0.84836200  0.71374100  0.39962800  1
  O  O49  1  0.28625900  0.13462000  0.39962800  1
  O  O50  1  0.13503300  0.84865500  0.60020900  1
  O  O51  1  0.15134500  0.28637800  0.60020900  1
  O  O52  1  0.71362200  0.86496700  0.60020900  1
  O  O53  1  0.55431900  0.12003400  0.55036800  1
  O  O54  1  0.87996600  0.43428500  0.55036800  1
  O  O55  1  0.56571500  0.44568100  0.55036800  1
  O  O56  1  0.44222900  0.87322900  0.45026900  1
  O  O57  1  0.12677100  0.56900100  0.45026900  1
  O  O58  1  0.43099900  0.55777100  0.45026900  1
  O  O59  1  0.80433100  0.10815300  0.04607900  1
  O  O60  1  0.89184700  0.69617800  0.04607900  1
  O  O61  1  0.30382200  0.19566900  0.04607900  1
  O  O62  1  0.19669000  0.89152200  0.95288800  1
  O  O63  1  0.10847800  0.30516800  0.95288800  1
  O  O64  1  0.69483200  0.80331000  0.95288800  1
  O  O65  1  0.58766600  0.13833100  0.91414500  1
  O  O66  1  0.86166900  0.44933500  0.91414500  1
  O  O67  1  0.55066500  0.41233400  0.91414500  1
  O  O68  1  0.41170800  0.85983700  0.08592400  1
  O  O69  1  0.14016300  0.55187100  0.08592400  1
  O  O70  1  0.44812900  0.58829200  0.08592400  1
  O  O71  1  0.61444900  0.99759800  0.71811300  1
  O  O72  1  0.00240200  0.61685200  0.71811300  1
  O  O73  1  0.38314800  0.38555100  0.71811300  1
  O  O74  1  0.38527800  0.00062200  0.28343100  1
  O  O75  1  0.99937800  0.38465500  0.28343100  1
  O  O76  1  0.61534500  0.61472200  0.28343100  1
  O  O77  1  0.75055700  0.20467400  0.68395500  1
  O  O78  1  0.79532600  0.54588300  0.68395500  1
  O  O79  1  0.45411700  0.24944300  0.68395500  1
  O  O80  1  0.24974100  0.79184200  0.31756200  1
  O  O81  1  0.20815800  0.45789900  0.31756200  1
  O  O82  1  0.54210100  0.75025900  0.31756200  1
  O  O83  1  0.68036900  0.98197900  0.30492400  1
  O  O84  1  0.01802100  0.69839000  0.30492400  1
  O  O85  1  0.30161000  0.31963100  0.30492400  1
  O  O86  1  0.31974700  0.01896200  0.69404900  1
  O  O87  1  0.98103800  0.30078500  0.69404900  1
  O  O88  1  0.69921500  0.68025300  0.69404900  1
  F  F89  1  0.48317500  0.76478200  0.72818100  1
  F  F90  1  0.23521800  0.71839300  0.72818100  1
  F  F91  1  0.28160700  0.51682500  0.72818100  1
  F  F92  1  0.51042800  0.22971000  0.26446100  1
  F  F93  1  0.77029000  0.28071800  0.26446100  1
  F  F94  1  0.71928200  0.48957200  0.26446100  1
