# generated using pymatgen
data_Rb4Fe8CuH6(Se8O25)2
_symmetry_space_group_name_H-M   'P 1'
_cell_length_a   7.89743700
_cell_length_b   10.54991620
_cell_length_c   16.04211680
_cell_angle_alpha   77.70510150
_cell_angle_beta   89.78274355
_cell_angle_gamma   86.72504878
_symmetry_Int_Tables_number   1
_chemical_formula_structural   Rb4Fe8CuH6(Se8O25)2
_chemical_formula_sum   'Rb4 Fe8 Cu1 H6 Se16 O50'
_cell_volume   1303.74985733
_cell_formula_units_Z   1
loop_
 _symmetry_equiv_pos_site_id
 _symmetry_equiv_pos_as_xyz
  1  'x, y, z'
loop_
 _atom_site_type_symbol
 _atom_site_label
 _atom_site_symmetry_multiplicity
 _atom_site_fract_x
 _atom_site_fract_y
 _atom_site_fract_z
 _atom_site_occupancy
  Rb  Rb0  1  0.51726300  0.69818500  0.26387300  1
  Rb  Rb1  1  0.48273700  0.30181500  0.73612700  1
  Rb  Rb2  1  0.89710800  0.69471100  0.82527600  1
  Rb  Rb3  1  0.10289200  0.30528900  0.17472400  1
  Fe  Fe4  1  0.59319800  0.26185100  0.30631900  1
  Fe  Fe5  1  0.40680200  0.73814900  0.69368100  1
  Fe  Fe6  1  0.75304600  0.64354500  0.52271900  1
  Fe  Fe7  1  0.24695400  0.35645500  0.47728100  1
  Fe  Fe8  1  0.54952400  0.74960100  0.99699900  1
  Fe  Fe9  1  0.45047600  0.25039900  0.00300100  1
  Fe  Fe10  1  0.97534000  0.09592700  0.77079200  1
  Fe  Fe11  1  0.02466000  0.90407300  0.22920800  1
  Cu  Cu12  1  0.50000000  0.00000000  0.50000000  1
  H  H13  1  0.20869200  0.61232700  0.09492800  1
  H  H14  1  0.79130800  0.38767300  0.90507200  1
  H  H15  1  0.00521000  0.71969400  0.61229200  1
  H  H16  1  0.99479000  0.28030600  0.38770800  1
  H  H17  1  0.85122100  0.83175500  0.60077200  1
  H  H18  1  0.14877900  0.16824500  0.39922800  1
  Se  Se19  1  0.55563100  0.46132900  0.11856200  1
  Se  Se20  1  0.44436900  0.53867100  0.88143800  1
  Se  Se21  1  0.80512000  0.93702700  0.40080300  1
  Se  Se22  1  0.19488000  0.06297300  0.59919700  1
  Se  Se23  1  0.68975300  0.03388300  0.93371800  1
  Se  Se24  1  0.31024700  0.96611700  0.06628200  1
  Se  Se25  1  0.97169900  0.37786100  0.63472000  1
  Se  Se26  1  0.02830100  0.62213900  0.36528000  1
  Se  Se27  1  0.67062300  0.37206300  0.45771000  1
  Se  Se28  1  0.32937700  0.62793700  0.54229000  1
  Se  Se29  1  0.71695200  0.10620300  0.15386500  1
  Se  Se30  1  0.28304800  0.89379700  0.84613500  1
  Se  Se31  1  0.65967200  0.98452600  0.68133500  1
  Se  Se32  1  0.34032800  0.01547400  0.31866500  1
  Se  Se33  1  0.96141000  0.74876600  0.07995900  1
  Se  Se34  1  0.03859000  0.25123400  0.92004100  1
  O  O35  1  0.51505600  0.42850000  0.22800200  1
  O  O36  1  0.48494400  0.57150000  0.77199800  1
  O  O37  1  0.45294000  0.61561400  0.09465200  1
  O  O38  1  0.54706000  0.38438600  0.90534800  1
  O  O39  1  0.40285700  0.37823300  0.07929500  1
  O  O40  1  0.59714300  0.62176700  0.92070500  1
  O  O41  1  0.67272800  0.81635100  0.44780900  1
  O  O42  1  0.32727200  0.18364900  0.55219100  1
  O  O43  1  0.65042000  0.06637200  0.39632100  1
  O  O44  1  0.34958000  0.93362800  0.60367900  1
  O  O45  1  0.80423000  0.91480000  0.29767300  1
  O  O46  1  0.19577000  0.08520000  0.70232700  1
  O  O47  1  0.49145300  0.11714600  0.92822600  1
  O  O48  1  0.50854700  0.88285400  0.07177400  1
  O  O49  1  0.64329000  0.89074000  0.90480100  1
  O  O50  1  0.35671000  0.10926000  0.09519900  1
  O  O51  1  0.76764900  0.12074900  0.83847400  1
  O  O52  1  0.23235100  0.87925100  0.16152600  1
  O  O53  1  0.86884700  0.23987300  0.67818900  1
  O  O54  1  0.13115300  0.76012700  0.32181100  1
  O  O55  1  0.02133700  0.34776200  0.53417300  1
  O  O56  1  0.97866300  0.65223800  0.46582700  1
  O  O57  1  0.79425500  0.48158700  0.61029800  1
  O  O58  1  0.20574500  0.51841300  0.38970200  1
  O  O59  1  0.65800200  0.54082000  0.43769600  1
  O  O60  1  0.34199800  0.45918000  0.56230400  1
  O  O61  1  0.78124900  0.33597300  0.37027500  1
  O  O62  1  0.21875100  0.66402700  0.62972500  1
  O  O63  1  0.47787500  0.33650600  0.41419300  1
  O  O64  1  0.52212500  0.66349400  0.58580700  1
  O  O65  1  0.74924200  0.21827200  0.21907200  1
  O  O66  1  0.25075800  0.78172800  0.78092800  1
  O  O67  1  0.68765700  0.21174900  0.05532000  1
  O  O68  1  0.31234300  0.78825100  0.94468000  1
  O  O69  1  0.92504600  0.05513000  0.13961000  1
  O  O70  1  0.07495400  0.94487000  0.86039000  1
  O  O71  1  0.69687100  0.99104200  0.57357000  1
  O  O72  1  0.30312900  0.00895800  0.42643000  1
  O  O73  1  0.86870000  0.96460200  0.71383700  1
  O  O74  1  0.13130000  0.03539800  0.28616300  1
  O  O75  1  0.60661300  0.82436100  0.71887400  1
  O  O76  1  0.39338700  0.17563900  0.28112600  1
  O  O77  1  0.78796100  0.68609300  0.04591600  1
  O  O78  1  0.21203900  0.31390700  0.95408400  1
  O  O79  1  0.90032400  0.76961100  0.17908600  1
  O  O80  1  0.09967600  0.23038900  0.82091400  1
  O  O81  1  0.08672300  0.59576500  0.10704600  1
  O  O82  1  0.91327700  0.40423500  0.89295400  1
  O  O83  1  0.87903000  0.73788600  0.60833200  1
  O  O84  1  0.12097000  0.26211400  0.39166800  1
