# generated using pymatgen
data_NbMoO4
_symmetry_space_group_name_H-M   'P 1'
_cell_length_a   4.86188189
_cell_length_b   4.86188189
_cell_length_c   3.19219300
_cell_angle_alpha   90.00000000
_cell_angle_beta   90.00000000
_cell_angle_gamma   90.87469389
_symmetry_Int_Tables_number   1
_chemical_formula_structural   NbMoO4
_chemical_formula_sum   'Nb1 Mo1 O4'
_cell_volume   75.44793177
_cell_formula_units_Z   1
loop_
 _symmetry_equiv_pos_site_id
 _symmetry_equiv_pos_as_xyz
  1  'x, y, z'
loop_
 _atom_site_type_symbol
 _atom_site_label
 _atom_site_symmetry_multiplicity
 _atom_site_fract_x
 _atom_site_fract_y
 _atom_site_fract_z
 _atom_site_occupancy
  Nb  Nb0  1  0.50000000  0.50000000  0.50000000  1
  Mo  Mo1  1  0.00000000  0.00000000  0.00000000  1
  O  O2  1  0.20842100  0.20842100  0.50000000  1
  O  O3  1  0.79157900  0.79157900  0.50000000  1
  O  O4  1  0.68722900  0.31277100  0.00000000  1
  O  O5  1  0.31277100  0.68722900  0.00000000  1
