# generated using pymatgen
data_ThSi3Os
_symmetry_space_group_name_H-M   'P 1'
_cell_length_a   5.82375560
_cell_length_b   5.82375560
_cell_length_c   5.82375560
_cell_angle_alpha   137.14790557
_cell_angle_beta   137.14790557
_cell_angle_gamma   62.21055986
_symmetry_Int_Tables_number   1
_chemical_formula_structural   ThSi3Os
_chemical_formula_sum   'Th1 Si3 Os1'
_cell_volume   90.27217292
_cell_formula_units_Z   1
loop_
 _symmetry_equiv_pos_site_id
 _symmetry_equiv_pos_as_xyz
  1  'x, y, z'
loop_
 _atom_site_type_symbol
 _atom_site_label
 _atom_site_symmetry_multiplicity
 _atom_site_fract_x
 _atom_site_fract_y
 _atom_site_fract_z
 _atom_site_occupancy
  Th  Th0  1  0.99481300  0.99481300  0.00000000  1
  Si  Si1  1  0.41772600  0.41772600  0.00000000  1
  Si  Si2  1  0.26329400  0.76329400  0.50000000  1
  Si  Si3  1  0.76329400  0.26329400  0.50000000  1
  Os  Os4  1  0.65487300  0.65487300  0.00000000  1
