# generated using pymatgen
data_Be2W
_symmetry_space_group_name_H-M   'P 1'
_cell_length_a   4.46044056
_cell_length_b   4.46044056
_cell_length_c   7.33361700
_cell_angle_alpha   90.00000000
_cell_angle_beta   90.00000000
_cell_angle_gamma   120.00000832
_symmetry_Int_Tables_number   1
_chemical_formula_structural   Be2W
_chemical_formula_sum   'Be8 W4'
_cell_volume   126.35846260
_cell_formula_units_Z   4
loop_
 _symmetry_equiv_pos_site_id
 _symmetry_equiv_pos_as_xyz
  1  'x, y, z'
loop_
 _atom_site_type_symbol
 _atom_site_label
 _atom_site_symmetry_multiplicity
 _atom_site_fract_x
 _atom_site_fract_y
 _atom_site_fract_z
 _atom_site_occupancy
  Be  Be0  1  0.00000000  0.00000000  0.50000000  1
  Be  Be1  1  0.00000000  0.00000000  0.00000000  1
  Be  Be2  1  0.83015200  0.16984800  0.25000000  1
  Be  Be3  1  0.83015200  0.66030500  0.25000000  1
  Be  Be4  1  0.33969500  0.16984800  0.25000000  1
  Be  Be5  1  0.16984800  0.83015200  0.75000000  1
  Be  Be6  1  0.16984800  0.33969500  0.75000000  1
  Be  Be7  1  0.66030500  0.83015200  0.75000000  1
  W  W8  1  0.33333300  0.66666700  0.43767200  1
  W  W9  1  0.66666700  0.33333300  0.56232800  1
  W  W10  1  0.66666700  0.33333300  0.93767200  1
  W  W11  1  0.33333300  0.66666700  0.06232800  1
