# generated using pymatgen
data_U8VS17
_symmetry_space_group_name_H-M   'P 1'
_cell_length_a   7.77310400
_cell_length_b   7.77310400
_cell_length_c   10.27753242
_cell_angle_alpha   80.73119037
_cell_angle_beta   80.73119037
_cell_angle_gamma   64.69269752
_symmetry_Int_Tables_number   1
_chemical_formula_structural   U8VS17
_chemical_formula_sum   'U8 V1 S17'
_cell_volume   551.08677199
_cell_formula_units_Z   1
loop_
 _symmetry_equiv_pos_site_id
 _symmetry_equiv_pos_as_xyz
  1  'x, y, z'
loop_
 _atom_site_type_symbol
 _atom_site_label
 _atom_site_symmetry_multiplicity
 _atom_site_fract_x
 _atom_site_fract_y
 _atom_site_fract_z
 _atom_site_occupancy
  U  U0  1  0.81715400  0.29975900  0.29819700  1
  U  U1  1  0.29975900  0.81715400  0.29819700  1
  U  U2  1  0.18284600  0.70024100  0.70180300  1
  U  U3  1  0.70024100  0.18284600  0.70180300  1
  U  U4  1  0.20415500  0.20415500  0.54335900  1
  U  U5  1  0.79584500  0.79584500  0.45664100  1
  U  U6  1  0.68288400  0.68288400  0.98232800  1
  U  U7  1  0.31711600  0.31711600  0.01767200  1
  V  V8  1  0.00000000  0.00000000  0.00000000  1
  S  S9  1  0.82196500  0.43271500  0.53415100  1
  S  S10  1  0.43271500  0.82196500  0.53415100  1
  S  S11  1  0.17803500  0.56728500  0.46584900  1
  S  S12  1  0.56728500  0.17803500  0.46584900  1
  S  S13  1  0.94194200  0.32325400  0.02928500  1
  S  S14  1  0.32325400  0.94194200  0.02928500  1
  S  S15  1  0.05805800  0.67674600  0.97071500  1
  S  S16  1  0.67674600  0.05805800  0.97071500  1
  S  S17  1  0.21238600  0.21238600  0.27906600  1
  S  S18  1  0.78761400  0.78761400  0.72093400  1
  S  S19  1  0.06138100  0.06138100  0.77199500  1
  S  S20  1  0.93861900  0.93861900  0.22800500  1
  S  S21  1  0.30258200  0.30258200  0.75469900  1
  S  S22  1  0.69741800  0.69741800  0.24530100  1
  S  S23  1  0.52112400  0.52112400  0.83049000  1
  S  S24  1  0.47887600  0.47887600  0.16951000  1
  S  S25  1  0.00000000  0.00000000  0.50000000  1
