# generated using pymatgen
data_YH3
_symmetry_space_group_name_H-M   'P 1'
_cell_length_a   6.34806340
_cell_length_b   6.34806340
_cell_length_c   6.60863600
_cell_angle_alpha   90.00000000
_cell_angle_beta   90.00000000
_cell_angle_gamma   119.99999378
_symmetry_Int_Tables_number   1
_chemical_formula_structural   YH3
_chemical_formula_sum   'Y6 H18'
_cell_volume   230.63488740
_cell_formula_units_Z   6
loop_
 _symmetry_equiv_pos_site_id
 _symmetry_equiv_pos_as_xyz
  1  'x, y, z'
loop_
 _atom_site_type_symbol
 _atom_site_label
 _atom_site_symmetry_multiplicity
 _atom_site_fract_x
 _atom_site_fract_y
 _atom_site_fract_z
 _atom_site_occupancy
  Y  Y0  1  0.66999700  0.66999700  0.74981600  1
  Y  Y1  1  0.33000300  0.00000000  0.74981600  1
  Y  Y2  1  0.00000000  0.33000300  0.74981600  1
  Y  Y3  1  0.33000300  0.33000300  0.24981600  1
  Y  Y4  1  0.66999700  0.00000000  0.24981600  1
  Y  Y5  1  0.00000000  0.66999700  0.24981600  1
  H  H6  1  0.30500000  0.30500000  0.59116500  1
  H  H7  1  0.69500000  0.00000000  0.59116500  1
  H  H8  1  0.00000000  0.69500000  0.59116500  1
  H  H9  1  0.69500000  0.69500000  0.09116500  1
  H  H10  1  0.30500000  0.00000000  0.09116500  1
  H  H11  1  0.00000000  0.30500000  0.09116500  1
  H  H12  1  0.35796900  0.35796900  0.90821800  1
  H  H13  1  0.64203100  0.00000000  0.90821800  1
  H  H14  1  0.00000000  0.64203100  0.90821800  1
  H  H15  1  0.64203100  0.64203100  0.40821800  1
  H  H16  1  0.35796900  0.00000000  0.40821800  1
  H  H17  1  0.00000000  0.35796900  0.40821800  1
  H  H18  1  0.00000000  0.00000000  0.81835400  1
  H  H19  1  0.00000000  0.00000000  0.31835400  1
  H  H20  1  0.33333300  0.66666700  0.70602800  1
  H  H21  1  0.66666700  0.33333300  0.70602800  1
  H  H22  1  0.66666700  0.33333300  0.20602800  1
  H  H23  1  0.33333300  0.66666700  0.20602800  1
