# generated using pymatgen
data_Rb2Th3Mg(MoO4)8
_symmetry_space_group_name_H-M   'P 1'
_cell_length_a   13.20701459
_cell_length_b   13.20701459
_cell_length_c   9.60609384
_cell_angle_alpha   89.84548596
_cell_angle_beta   89.84548596
_cell_angle_gamma   88.29262894
_symmetry_Int_Tables_number   1
_chemical_formula_structural   Rb2Th3Mg(MoO4)8
_chemical_formula_sum   'Rb4 Th6 Mg2 Mo16 O64'
_cell_volume   1674.78945984
_cell_formula_units_Z   2
loop_
 _symmetry_equiv_pos_site_id
 _symmetry_equiv_pos_as_xyz
  1  'x, y, z'
loop_
 _atom_site_type_symbol
 _atom_site_label
 _atom_site_symmetry_multiplicity
 _atom_site_fract_x
 _atom_site_fract_y
 _atom_site_fract_z
 _atom_site_occupancy
  Rb  Rb0  1  0.14080800  0.62289200  0.93757500  1
  Rb  Rb1  1  0.37710800  0.85919200  0.56242500  1
  Rb  Rb2  1  0.85919200  0.37710800  0.06242500  1
  Rb  Rb3  1  0.62289200  0.14080800  0.43757500  1
  Th  Th4  1  0.12956400  0.87043600  0.25000000  1
  Th  Th5  1  0.87043600  0.12956400  0.75000000  1
  Th  Th6  1  0.86903900  0.63117000  0.66041100  1
  Th  Th7  1  0.36883000  0.13096100  0.83958900  1
  Th  Th8  1  0.13096100  0.36883000  0.33958900  1
  Th  Th9  1  0.63117000  0.86903900  0.16041100  1
  Mg  Mg10  1  0.58930900  0.41069100  0.25000000  1
  Mg  Mg11  1  0.41069100  0.58930900  0.75000000  1
  Mo  Mo12  1  0.90625600  0.85644000  0.95216200  1
  Mo  Mo13  1  0.14356000  0.09374400  0.54783800  1
  Mo  Mo14  1  0.09374400  0.14356000  0.04783800  1
  Mo  Mo15  1  0.85644000  0.90625600  0.45216200  1
  Mo  Mo16  1  0.16908900  0.64938200  0.52894100  1
  Mo  Mo17  1  0.35061800  0.83091100  0.97105900  1
  Mo  Mo18  1  0.83091100  0.35061800  0.47105900  1
  Mo  Mo19  1  0.64938200  0.16908900  0.02894100  1
  Mo  Mo20  1  0.96666200  0.60854900  0.24716100  1
  Mo  Mo21  1  0.39145100  0.03333800  0.25283900  1
  Mo  Mo22  1  0.03333800  0.39145100  0.75283900  1
  Mo  Mo23  1  0.60854900  0.96666200  0.74716100  1
  Mo  Mo24  1  0.65369000  0.58842600  0.96409500  1
  Mo  Mo25  1  0.41157400  0.34631000  0.53590500  1
  Mo  Mo26  1  0.34631000  0.41157400  0.03590500  1
  Mo  Mo27  1  0.58842600  0.65369000  0.46409500  1
  O  O28  1  0.91687500  0.61388000  0.42227500  1
  O  O29  1  0.38612000  0.08312500  0.07772500  1
  O  O30  1  0.08312500  0.38612000  0.57772500  1
  O  O31  1  0.61388000  0.91687500  0.92227500  1
  O  O32  1  0.19989100  0.76263100  0.42999600  1
  O  O33  1  0.23736900  0.80010900  0.07000400  1
  O  O34  1  0.80010900  0.23736900  0.57000400  1
  O  O35  1  0.76263100  0.19989100  0.92999600  1
  O  O36  1  0.76083500  0.58363900  0.84452100  1
  O  O37  1  0.41636100  0.23916500  0.65547900  1
  O  O38  1  0.23916500  0.41636100  0.15547900  1
  O  O39  1  0.58363900  0.76083500  0.34452100  1
  O  O40  1  0.15293000  0.54478200  0.41277600  1
  O  O41  1  0.45521800  0.84707000  0.08722400  1
  O  O42  1  0.84707000  0.45521800  0.58722400  1
  O  O43  1  0.54478200  0.15293000  0.91277600  1
  O  O44  1  0.91318100  0.74090600  0.85348700  1
  O  O45  1  0.25909400  0.08681900  0.64651300  1
  O  O46  1  0.08681900  0.25909400  0.14651300  1
  O  O47  1  0.74090600  0.91318100  0.35348700  1
  O  O48  1  0.66486300  0.48534900  0.08510900  1
  O  O49  1  0.51465100  0.33513700  0.41489100  1
  O  O50  1  0.33513700  0.51465100  0.91489100  1
  O  O51  1  0.48534900  0.66486300  0.58510900  1
  O  O52  1  0.80518100  0.85636200  0.07676900  1
  O  O53  1  0.14363800  0.19481900  0.42323100  1
  O  O54  1  0.19481900  0.14363800  0.92323100  1
  O  O55  1  0.85636200  0.80518100  0.57676900  1
  O  O56  1  0.02064100  0.48331200  0.20675100  1
  O  O57  1  0.51668800  0.97935900  0.29324900  1
  O  O58  1  0.97935900  0.51668800  0.79324900  1
  O  O59  1  0.48331200  0.02064100  0.70675100  1
  O  O60  1  0.26706100  0.62308900  0.65121000  1
  O  O61  1  0.37691100  0.73293900  0.84879000  1
  O  O62  1  0.73293900  0.37691100  0.34879000  1
  O  O63  1  0.62308900  0.26706100  0.15121000  1
  O  O64  1  0.05947000  0.70510600  0.21419000  1
  O  O65  1  0.29489400  0.94053000  0.28581000  1
  O  O66  1  0.94053000  0.29489400  0.78581000  1
  O  O67  1  0.70510600  0.05947000  0.71419000  1
  O  O68  1  0.54347900  0.57251000  0.86341300  1
  O  O69  1  0.42749000  0.45652100  0.63658700  1
  O  O70  1  0.45652100  0.42749000  0.13658700  1
  O  O71  1  0.57251000  0.54347900  0.36341300  1
  O  O72  1  0.02527700  0.87193400  0.03671700  1
  O  O73  1  0.12806600  0.97472300  0.46328300  1
  O  O74  1  0.97472300  0.12806600  0.96328300  1
  O  O75  1  0.87193400  0.02527700  0.53671700  1
  O  O76  1  0.88355600  0.96127900  0.83480100  1
  O  O77  1  0.03872100  0.11644400  0.66519900  1
  O  O78  1  0.11644400  0.03872100  0.16519900  1
  O  O79  1  0.96127900  0.88355600  0.33480100  1
  O  O80  1  0.64261600  0.70873400  0.05421100  1
  O  O81  1  0.29126600  0.35738400  0.44578900  1
  O  O82  1  0.35738400  0.29126600  0.94578900  1
  O  O83  1  0.70873400  0.64261600  0.55421100  1
  O  O84  1  0.05446200  0.67207400  0.62550700  1
  O  O85  1  0.32792600  0.94553800  0.87449300  1
  O  O86  1  0.94553800  0.32792600  0.37449300  1
  O  O87  1  0.67207400  0.05446200  0.12550700  1
  O  O88  1  0.86608300  0.62670400  0.13195500  1
  O  O89  1  0.37329600  0.13391700  0.36804500  1
  O  O90  1  0.13391700  0.37329600  0.86804500  1
  O  O91  1  0.62670400  0.86608300  0.63195500  1
