# generated using pymatgen
data_NdCuS2
_symmetry_space_group_name_H-M   'P 1'
_cell_length_a   7.20357000
_cell_length_b   6.51151000
_cell_length_c   6.88912755
_cell_angle_alpha   82.45615546
_cell_angle_beta   90.00000000
_cell_angle_gamma   90.00000000
_symmetry_Int_Tables_number   1
_chemical_formula_structural   NdCuS2
_chemical_formula_sum   'Nd4 Cu4 S8'
_cell_volume   320.34533350
_cell_formula_units_Z   4
loop_
 _symmetry_equiv_pos_site_id
 _symmetry_equiv_pos_as_xyz
  1  'x, y, z'
loop_
 _atom_site_type_symbol
 _atom_site_label
 _atom_site_symmetry_multiplicity
 _atom_site_fract_x
 _atom_site_fract_y
 _atom_site_fract_z
 _atom_site_occupancy
  Nd  Nd0  1  0.94987700  0.80909900  0.79979300  1
  Nd  Nd1  1  0.44987700  0.19090100  0.70020700  1
  Nd  Nd2  1  0.05012300  0.19090100  0.20020700  1
  Nd  Nd3  1  0.55012300  0.80909900  0.29979300  1
  Cu  Cu4  1  0.66385200  0.42566400  0.04885800  1
  Cu  Cu5  1  0.33614800  0.57433600  0.95114200  1
  Cu  Cu6  1  0.16385200  0.57433600  0.45114200  1
  Cu  Cu7  1  0.83614800  0.42566400  0.54885800  1
  S  S8  1  0.72604000  0.08479500  0.00127100  1
  S  S9  1  0.22604000  0.91520500  0.49872900  1
  S  S10  1  0.27396000  0.91520500  0.99872900  1
  S  S11  1  0.77396000  0.08479500  0.50127100  1
  S  S12  1  0.11425300  0.41023000  0.77763900  1
  S  S13  1  0.38574700  0.41023000  0.27763900  1
  S  S14  1  0.88574700  0.58977000  0.22236100  1
  S  S15  1  0.61425300  0.58977000  0.72236100  1
