# generated using pymatgen
data_Ce2PPt8
_symmetry_space_group_name_H-M   'P 1'
_cell_length_a   9.16968373
_cell_length_b   9.16968373
_cell_length_c   4.29628500
_cell_angle_alpha   90.00000000
_cell_angle_beta   90.00000000
_cell_angle_gamma   145.46786690
_symmetry_Int_Tables_number   1
_chemical_formula_structural   Ce2PPt8
_chemical_formula_sum   'Ce2 P1 Pt8'
_cell_volume   204.77833119
_cell_formula_units_Z   1
loop_
 _symmetry_equiv_pos_site_id
 _symmetry_equiv_pos_as_xyz
  1  'x, y, z'
loop_
 _atom_site_type_symbol
 _atom_site_label
 _atom_site_symmetry_multiplicity
 _atom_site_fract_x
 _atom_site_fract_y
 _atom_site_fract_z
 _atom_site_occupancy
  Ce  Ce0  1  0.61709000  0.37071400  0.50000000  1
  Ce  Ce1  1  0.37071400  0.61709000  0.50000000  1
  P  P2  1  0.22624900  0.22624900  0.00000000  1
  Pt  Pt3  1  0.10992600  0.89007500  0.00000000  1
  Pt  Pt4  1  0.89007500  0.10992600  0.00000000  1
  Pt  Pt5  1  0.49083700  0.98591800  0.00000000  1
  Pt  Pt6  1  0.98591800  0.49083700  0.00000000  1
  Pt  Pt7  1  0.19436600  0.79190800  0.50000000  1
  Pt  Pt8  1  0.79190800  0.19436600  0.50000000  1
  Pt  Pt9  1  0.00079600  0.00079600  0.50000000  1
  Pt  Pt10  1  0.63572000  0.63572000  0.00000000  1
