# generated using pymatgen
data_RbBa2I5
_symmetry_space_group_name_H-M   'P 1'
_cell_length_a   9.49235200
_cell_length_b   10.58610700
_cell_length_c   15.08571469
_cell_angle_alpha   89.95994233
_cell_angle_beta   90.00000000
_cell_angle_gamma   90.00000000
_symmetry_Int_Tables_number   1
_chemical_formula_structural   RbBa2I5
_chemical_formula_sum   'Rb4 Ba8 I20'
_cell_volume   1515.91865519
_cell_formula_units_Z   4
loop_
 _symmetry_equiv_pos_site_id
 _symmetry_equiv_pos_as_xyz
  1  'x, y, z'
loop_
 _atom_site_type_symbol
 _atom_site_label
 _atom_site_symmetry_multiplicity
 _atom_site_fract_x
 _atom_site_fract_y
 _atom_site_fract_z
 _atom_site_occupancy
  Rb  Rb0  1  0.47918300  0.50701800  0.82122600  1
  Rb  Rb1  1  0.52081700  0.49298200  0.17877400  1
  Rb  Rb2  1  0.97918300  0.49298200  0.67877400  1
  Rb  Rb3  1  0.02081700  0.50701800  0.32122600  1
  Ba  Ba4  1  0.47527500  0.99968100  0.82030000  1
  Ba  Ba5  1  0.52472500  0.00031900  0.17970000  1
  Ba  Ba6  1  0.97527500  0.00031900  0.67970000  1
  Ba  Ba7  1  0.02472500  0.99968100  0.32030000  1
  Ba  Ba8  1  0.42152900  0.75056500  0.50789700  1
  Ba  Ba9  1  0.57847100  0.24943500  0.49210300  1
  Ba  Ba10  1  0.92152900  0.24943500  0.99210300  1
  Ba  Ba11  1  0.07847100  0.75056500  0.00789700  1
  I  I12  1  0.33546700  0.45848800  0.59095300  1
  I  I13  1  0.66453300  0.54151200  0.40904700  1
  I  I14  1  0.83546700  0.54151200  0.90904700  1
  I  I15  1  0.16453300  0.45848800  0.09095300  1
  I  I16  1  0.66656800  0.78043100  0.68421200  1
  I  I17  1  0.33343200  0.21956900  0.31578800  1
  I  I18  1  0.16656800  0.21956900  0.81578800  1
  I  I19  1  0.83343200  0.78043100  0.18421200  1
  I  I20  1  0.19740700  0.76904000  0.78126200  1
  I  I21  1  0.80259300  0.23096000  0.21873800  1
  I  I22  1  0.69740700  0.23096000  0.71873800  1
  I  I23  1  0.30259300  0.76904000  0.28126200  1
  I  I24  1  0.04197600  0.77856200  0.50279300  1
  I  I25  1  0.95802400  0.22143800  0.49720700  1
  I  I26  1  0.54197600  0.22143800  0.99720700  1
  I  I27  1  0.45802400  0.77856200  0.00279300  1
  I  I28  1  0.83598900  0.95548100  0.90205200  1
  I  I29  1  0.16401100  0.04451900  0.09794800  1
  I  I30  1  0.33598900  0.04451900  0.59794800  1
  I  I31  1  0.66401100  0.95548100  0.40205200  1
