# generated using pymatgen
data_Tb2NiSb4
_symmetry_space_group_name_H-M   'P 1'
_cell_length_a   4.34724300
_cell_length_b   4.34724300
_cell_length_c   9.32800600
_cell_angle_alpha   90.00000000
_cell_angle_beta   90.00000000
_cell_angle_gamma   90.00000000
_symmetry_Int_Tables_number   1
_chemical_formula_structural   Tb2NiSb4
_chemical_formula_sum   'Tb2 Ni1 Sb4'
_cell_volume   176.28552382
_cell_formula_units_Z   1
loop_
 _symmetry_equiv_pos_site_id
 _symmetry_equiv_pos_as_xyz
  1  'x, y, z'
loop_
 _atom_site_type_symbol
 _atom_site_label
 _atom_site_symmetry_multiplicity
 _atom_site_fract_x
 _atom_site_fract_y
 _atom_site_fract_z
 _atom_site_occupancy
  Tb  Tb0  1  0.50000000  0.00000000  0.23648700  1
  Tb  Tb1  1  0.00000000  0.50000000  0.76351300  1
  Ni  Ni2  1  0.50000000  0.50000000  0.00000000  1
  Sb  Sb3  1  0.50000000  0.50000000  0.50000000  1
  Sb  Sb4  1  0.00000000  0.00000000  0.50000000  1
  Sb  Sb5  1  0.50000000  0.00000000  0.87082200  1
  Sb  Sb6  1  0.00000000  0.50000000  0.12917800  1
