# generated using pymatgen
data_K3Cd(BO2)5
_symmetry_space_group_name_H-M   'P 1'
_cell_length_a   19.47403500
_cell_length_b   7.79708800
_cell_length_c   8.42597022
_cell_angle_alpha   59.03764637
_cell_angle_beta   90.00000000
_cell_angle_gamma   90.00000000
_symmetry_Int_Tables_number   1
_chemical_formula_structural   K3Cd(BO2)5
_chemical_formula_sum   'K12 Cd4 B20 O40'
_cell_volume   1097.09750599
_cell_formula_units_Z   4
loop_
 _symmetry_equiv_pos_site_id
 _symmetry_equiv_pos_as_xyz
  1  'x, y, z'
loop_
 _atom_site_type_symbol
 _atom_site_label
 _atom_site_symmetry_multiplicity
 _atom_site_fract_x
 _atom_site_fract_y
 _atom_site_fract_z
 _atom_site_occupancy
  K  K0  1  0.57820600  0.13520900  0.35825500  1
  K  K1  1  0.92179400  0.13520900  0.85825500  1
  K  K2  1  0.42179400  0.86479100  0.64174500  1
  K  K3  1  0.07820600  0.86479100  0.14174500  1
  K  K4  1  0.56558300  0.15619900  0.79887800  1
  K  K5  1  0.93441700  0.15619900  0.29887800  1
  K  K6  1  0.43441700  0.84380100  0.20112200  1
  K  K7  1  0.06558300  0.84380100  0.70112200  1
  K  K8  1  0.75254600  0.72552200  0.55467000  1
  K  K9  1  0.74745400  0.72552200  0.05467000  1
  K  K10  1  0.24745400  0.27447800  0.44533000  1
  K  K11  1  0.25254600  0.27447800  0.94533000  1
  Cd  Cd12  1  0.59744100  0.62776300  0.34774700  1
  Cd  Cd13  1  0.90255900  0.62776300  0.84774700  1
  Cd  Cd14  1  0.40255900  0.37223700  0.65225300  1
  Cd  Cd15  1  0.09744100  0.37223700  0.15225300  1
  B  B16  1  0.71700900  0.30953800  0.49900800  1
  B  B17  1  0.78299100  0.30953800  0.99900800  1
  B  B18  1  0.28299100  0.69046200  0.50099200  1
  B  B19  1  0.21700900  0.69046200  0.00099200  1
  B  B20  1  0.56998400  0.64921400  0.68800500  1
  B  B21  1  0.93001600  0.64921400  0.18800500  1
  B  B22  1  0.43001600  0.35078600  0.31199500  1
  B  B23  1  0.06998400  0.35078600  0.81199500  1
  B  B24  1  0.65801300  0.43169100  0.93633400  1
  B  B25  1  0.84198700  0.43169100  0.43633400  1
  B  B26  1  0.34198700  0.56830900  0.06366600  1
  B  B27  1  0.15801300  0.56830900  0.56366600  1
  B  B28  1  0.68955600  0.06289900  0.13379100  1
  B  B29  1  0.81044400  0.06289900  0.63379100  1
  B  B30  1  0.31044400  0.93710100  0.86620900  1
  B  B31  1  0.18955600  0.93710100  0.36620900  1
  B  B32  1  0.57440900  0.66187800  0.97541900  1
  B  B33  1  0.92559100  0.66187800  0.47541900  1
  B  B34  1  0.42559100  0.33812200  0.02458100  1
  B  B35  1  0.07440900  0.33812200  0.52458100  1
  O  O36  1  0.87175600  0.52599500  0.53629500  1
  O  O37  1  0.62824400  0.52599500  0.03629500  1
  O  O38  1  0.12824400  0.47400500  0.46370500  1
  O  O39  1  0.37175600  0.47400500  0.96370500  1
  O  O40  1  0.64844400  0.33898600  0.48450800  1
  O  O41  1  0.85155600  0.33898600  0.98450800  1
  O  O42  1  0.35155600  0.66101400  0.51549200  1
  O  O43  1  0.14844400  0.66101400  0.01549200  1
  O  O44  1  0.54799800  0.73671100  0.07557400  1
  O  O45  1  0.95200200  0.73671100  0.57557400  1
  O  O46  1  0.45200200  0.26328900  0.92442600  1
  O  O47  1  0.04799800  0.26328900  0.42442600  1
  O  O48  1  0.62684600  0.52406100  0.74797600  1
  O  O49  1  0.87315400  0.52406100  0.24797600  1
  O  O50  1  0.37315400  0.47593900  0.25202400  1
  O  O51  1  0.12684600  0.47593900  0.75202400  1
  O  O52  1  0.64169100  0.21526900  0.04083800  1
  O  O53  1  0.85830900  0.21526900  0.54083800  1
  O  O54  1  0.35830900  0.78473100  0.95916200  1
  O  O55  1  0.14169100  0.78473100  0.45916200  1
  O  O56  1  0.53586200  0.70334100  0.52845900  1
  O  O57  1  0.96413800  0.70334100  0.02845900  1
  O  O58  1  0.46413800  0.29665900  0.47154100  1
  O  O59  1  0.03586200  0.29665900  0.97154100  1
  O  O60  1  0.73380000  0.46120600  0.92234500  1
  O  O61  1  0.76620000  0.46120600  0.42234500  1
  O  O62  1  0.26620000  0.53879400  0.07765500  1
  O  O63  1  0.23380000  0.53879400  0.57765500  1
  O  O64  1  0.45234100  0.26769500  0.20507900  1
  O  O65  1  0.04765900  0.26769500  0.70507900  1
  O  O66  1  0.54765900  0.73230500  0.79492100  1
  O  O67  1  0.95234100  0.73230500  0.29492100  1
  O  O68  1  0.67209200  0.87373900  0.25650700  1
  O  O69  1  0.82790800  0.87373900  0.75650700  1
  O  O70  1  0.32790800  0.12626100  0.74349300  1
  O  O71  1  0.17209200  0.12626100  0.24349300  1
  O  O72  1  0.73978400  0.10892300  0.60036600  1
  O  O73  1  0.76021600  0.10892300  0.10036600  1
  O  O74  1  0.26021600  0.89107700  0.39963400  1
  O  O75  1  0.23978400  0.89107700  0.89963400  1
