# generated using pymatgen
data_LuIn2
_symmetry_space_group_name_H-M   'P 1'
_cell_length_a   7.38476479
_cell_length_b   7.38476479
_cell_length_c   4.58087400
_cell_angle_alpha   90.00000000
_cell_angle_beta   90.00000000
_cell_angle_gamma   143.33877750
_symmetry_Int_Tables_number   1
_chemical_formula_structural   LuIn2
_chemical_formula_sum   'Lu2 In4'
_cell_volume   149.16122129
_cell_formula_units_Z   2
loop_
 _symmetry_equiv_pos_site_id
 _symmetry_equiv_pos_as_xyz
  1  'x, y, z'
loop_
 _atom_site_type_symbol
 _atom_site_label
 _atom_site_symmetry_multiplicity
 _atom_site_fract_x
 _atom_site_fract_y
 _atom_site_fract_z
 _atom_site_occupancy
  Lu  Lu0  1  0.84441800  0.15558200  0.50000000  1
  Lu  Lu1  1  0.15558200  0.84441800  0.50000000  1
  In  In2  1  0.67485200  0.32514800  0.00000000  1
  In  In3  1  0.32514800  0.67485200  0.00000000  1
  In  In4  1  0.50000000  0.50000000  0.50000000  1
  In  In5  1  0.00000000  0.00000000  0.00000000  1
