# generated using pymatgen
data_YU2O6
_symmetry_space_group_name_H-M   'P 1'
_cell_length_a   6.56791540
_cell_length_b   6.56791540
_cell_length_c   6.56791540
_cell_angle_alpha   146.17787003
_cell_angle_beta   131.55266887
_cell_angle_gamma   60.39104317
_symmetry_Int_Tables_number   1
_chemical_formula_structural   YU2O6
_chemical_formula_sum   'Y1 U2 O6'
_cell_volume   116.90679609
_cell_formula_units_Z   1
loop_
 _symmetry_equiv_pos_site_id
 _symmetry_equiv_pos_as_xyz
  1  'x, y, z'
loop_
 _atom_site_type_symbol
 _atom_site_label
 _atom_site_symmetry_multiplicity
 _atom_site_fract_x
 _atom_site_fract_y
 _atom_site_fract_z
 _atom_site_occupancy
  Y  Y0  1  0.00000000  0.00000000  0.00000000  1
  U  U1  1  0.66514000  0.66514000  0.00000000  1
  U  U2  1  0.33486000  0.33486000  0.00000000  1
  O  O3  1  0.25883300  0.50000000  0.75883300  1
  O  O4  1  0.91641800  0.17035900  0.74605900  1
  O  O5  1  0.57570000  0.82964100  0.74605900  1
  O  O6  1  0.74116700  0.50000000  0.24116700  1
  O  O7  1  0.42430000  0.17035900  0.25394100  1
  O  O8  1  0.08358200  0.82964100  0.25394100  1
