# generated using pymatgen
data_La2Mn(SeO)2
_symmetry_space_group_name_H-M   'P 1'
_cell_length_a   4.03370600
_cell_length_b   16.63552200
_cell_length_c   17.84606600
_cell_angle_alpha   90.00000000
_cell_angle_beta   90.00000000
_cell_angle_gamma   90.00000000
_symmetry_Int_Tables_number   1
_chemical_formula_structural   La2Mn(SeO)2
_chemical_formula_sum   'La16 Mn8 Se16 O16'
_cell_volume   1197.52108511
_cell_formula_units_Z   8
loop_
 _symmetry_equiv_pos_site_id
 _symmetry_equiv_pos_as_xyz
  1  'x, y, z'
loop_
 _atom_site_type_symbol
 _atom_site_label
 _atom_site_symmetry_multiplicity
 _atom_site_fract_x
 _atom_site_fract_y
 _atom_site_fract_z
 _atom_site_occupancy
  La  La0  1  0.00052700  0.97763500  0.08873900  1
  La  La1  1  0.50052700  0.02236500  0.91126100  1
  La  La2  1  0.50052700  0.47763500  0.41126100  1
  La  La3  1  0.00052700  0.52236500  0.58873900  1
  La  La4  1  0.50521200  0.48385500  0.08878100  1
  La  La5  1  0.00521200  0.51614500  0.91121900  1
  La  La6  1  0.00521200  0.98385500  0.41121900  1
  La  La7  1  0.50521200  0.01614500  0.58878100  1
  La  La8  1  0.00583900  0.67689300  0.08416400  1
  La  La9  1  0.50583900  0.32310700  0.91583600  1
  La  La10  1  0.50583900  0.17689300  0.41583600  1
  La  La11  1  0.00583900  0.82310700  0.58416400  1
  La  La12  1  0.50163800  0.17035600  0.08641400  1
  La  La13  1  0.00163800  0.82964400  0.91358600  1
  La  La14  1  0.00163800  0.67035600  0.41358600  1
  La  La15  1  0.50163800  0.32964400  0.58641400  1
  Mn  Mn16  1  0.01723100  0.38835100  0.75101200  1
  Mn  Mn17  1  0.51723100  0.61164900  0.24898800  1
  Mn  Mn18  1  0.51723100  0.88835100  0.74898800  1
  Mn  Mn19  1  0.01723100  0.11164900  0.25101200  1
  Mn  Mn20  1  0.50915300  0.83480200  0.27742000  1
  Mn  Mn21  1  0.00915300  0.16519800  0.72258000  1
  Mn  Mn22  1  0.00915300  0.33480200  0.22258000  1
  Mn  Mn23  1  0.50915300  0.66519800  0.77742000  1
  Se  Se24  1  0.00130600  0.01188300  0.74897900  1
  Se  Se25  1  0.50130600  0.98811700  0.25102100  1
  Se  Se26  1  0.50130600  0.51188300  0.75102100  1
  Se  Se27  1  0.00130600  0.48811700  0.24897900  1
  Se  Se28  1  0.00221100  0.33026700  0.07467000  1
  Se  Se29  1  0.50221100  0.66973300  0.92533000  1
  Se  Se30  1  0.50221100  0.83026700  0.42533000  1
  Se  Se31  1  0.00221100  0.16973300  0.57467000  1
  Se  Se32  1  0.50598300  0.82763900  0.06274400  1
  Se  Se33  1  0.00598300  0.17236100  0.93725600  1
  Se  Se34  1  0.00598300  0.32763900  0.43725600  1
  Se  Se35  1  0.50598300  0.67236100  0.56274400  1
  Se  Se36  1  0.00904100  0.75903400  0.74798700  1
  Se  Se37  1  0.50904100  0.24096600  0.25201300  1
  Se  Se38  1  0.50904100  0.25903400  0.75201300  1
  Se  Se39  1  0.00904100  0.74096600  0.24798700  1
  O  O40  1  0.00231900  0.11662700  0.13666400  1
  O  O41  1  0.50231900  0.88337300  0.86333600  1
  O  O42  1  0.50231900  0.61662700  0.36333600  1
  O  O43  1  0.00231900  0.38337300  0.63666400  1
  O  O44  1  0.50660100  0.62164500  0.13372800  1
  O  O45  1  0.00660100  0.37835500  0.86627200  1
  O  O46  1  0.00660100  0.12164500  0.36627200  1
  O  O47  1  0.50660100  0.87835500  0.63372800  1
  O  O48  1  0.00087800  0.53748100  0.45430800  1
  O  O49  1  0.50087800  0.46251900  0.54569200  1
  O  O50  1  0.50087800  0.03748100  0.04569200  1
  O  O51  1  0.00087800  0.96251900  0.95430800  1
  O  O52  1  0.50545900  0.04216200  0.45680300  1
  O  O53  1  0.00545900  0.95783800  0.54319700  1
  O  O54  1  0.00545900  0.54216200  0.04319700  1
  O  O55  1  0.50545900  0.45783800  0.95680300  1
