# generated using pymatgen
data_B2H26C8N20Cl2O
_symmetry_space_group_name_H-M   'P 1'
_cell_length_a   9.49200760
_cell_length_b   15.74745520
_cell_length_c   16.07980640
_cell_angle_alpha   90.00000000
_cell_angle_beta   90.00000000
_cell_angle_gamma   90.00000000
_symmetry_Int_Tables_number   1
_chemical_formula_structural   B2H26C8N20Cl2O
_chemical_formula_sum   'B8 H104 C32 N80 Cl8 O4'
_cell_volume   2403.52848983
_cell_formula_units_Z   4
loop_
 _symmetry_equiv_pos_site_id
 _symmetry_equiv_pos_as_xyz
  1  'x, y, z'
loop_
 _atom_site_type_symbol
 _atom_site_label
 _atom_site_symmetry_multiplicity
 _atom_site_fract_x
 _atom_site_fract_y
 _atom_site_fract_z
 _atom_site_occupancy
  B  B0  1  0.79591673  0.58103896  0.41576131  1
  B  B1  1  0.70408327  0.08103896  0.08423869  1
  B  B2  1  0.70408327  0.41896104  0.91576131  1
  B  B3  1  0.79591673  0.91896104  0.58423869  1
  B  B4  1  0.20408327  0.41896104  0.58423869  1
  B  B5  1  0.29591673  0.91896104  0.91576131  1
  B  B6  1  0.29591673  0.58103896  0.08423869  1
  B  B7  1  0.20408327  0.08103896  0.41576131  1
  H  H8  1  0.74998472  0.45198161  0.46105314  1
  H  H9  1  0.75001528  0.95198161  0.03894686  1
  H  H10  1  0.75001528  0.54801839  0.96105314  1
  H  H11  1  0.74998472  0.04801839  0.53894686  1
  H  H12  1  0.25001528  0.54801839  0.53894686  1
  H  H13  1  0.24998472  0.04801839  0.96105314  1
  H  H14  1  0.24998472  0.45198161  0.03894686  1
  H  H15  1  0.25001528  0.95198161  0.46105314  1
  H  H16  1  0.56854722  0.36254890  0.42898392  1
  H  H17  1  0.93145278  0.86254890  0.07101608  1
  H  H18  1  0.93145278  0.63745110  0.92898392  1
  H  H19  1  0.56854722  0.13745110  0.57101608  1
  H  H20  1  0.43145278  0.63745110  0.57101608  1
  H  H21  1  0.06854722  0.13745110  0.92898392  1
  H  H22  1  0.06854722  0.36254890  0.07101608  1
  H  H23  1  0.43145278  0.86254890  0.42898392  1
  H  H24  1  0.42808416  0.39941015  0.36982580  1
  H  H25  1  0.07191584  0.89941015  0.13017420  1
  H  H26  1  0.07191584  0.60058985  0.86982580  1
  H  H27  1  0.42808416  0.10058985  0.63017420  1
  H  H28  1  0.57191584  0.60058985  0.63017420  1
  H  H29  1  0.92808416  0.10058985  0.86982580  1
  H  H30  1  0.92808416  0.39941015  0.13017420  1
  H  H31  1  0.57191584  0.89941015  0.36982580  1
  H  H32  1  0.53986437  0.74414967  0.29544557  1
  H  H33  1  0.96013563  0.24414967  0.20455443  1
  H  H34  1  0.96013563  0.25585033  0.79544557  1
  H  H35  1  0.53986437  0.75585033  0.70455443  1
  H  H36  1  0.46013563  0.25585033  0.70455443  1
  H  H37  1  0.03986437  0.75585033  0.79544557  1
  H  H38  1  0.03986437  0.74414967  0.20455443  1
  H  H39  1  0.46013563  0.24414967  0.29544557  1
  H  H40  1  0.39197705  0.67745935  0.28935917  1
  H  H41  1  0.10802295  0.17745935  0.21064083  1
  H  H42  1  0.10802295  0.32254065  0.78935917  1
  H  H43  1  0.39197705  0.82254065  0.71064083  1
  H  H44  1  0.60802295  0.32254065  0.71064083  1
  H  H45  1  0.89197705  0.82254065  0.78935917  1
  H  H46  1  0.89197705  0.67745935  0.21064083  1
  H  H47  1  0.60802295  0.17745935  0.28935917  1
  H  H48  1  0.73281146  0.70252330  0.35402269  1
  H  H49  1  0.76718854  0.20252330  0.14597731  1
  H  H50  1  0.76718854  0.29747670  0.85402269  1
  H  H51  1  0.73281146  0.79747670  0.64597731  1
  H  H52  1  0.26718854  0.29747670  0.64597731  1
  H  H53  1  0.23281146  0.79747670  0.85402269  1
  H  H54  1  0.23281146  0.70252330  0.14597731  1
  H  H55  1  0.26718854  0.20252330  0.35402269  1
  H  H56  1  0.78006191  0.63255001  0.54426308  1
  H  H57  1  0.71993809  0.13255001  0.95573692  1
  H  H58  1  0.71993809  0.36744999  0.04426308  1
  H  H59  1  0.78006191  0.86744999  0.45573692  1
  H  H60  1  0.21993809  0.36744999  0.45573692  1
  H  H61  1  0.28006191  0.86744999  0.04426308  1
  H  H62  1  0.28006191  0.63255001  0.95573692  1
  H  H63  1  0.21993809  0.13255001  0.54426308  1
  H  H64  1  0.11623792  0.66898053  0.61274430  1
  H  H65  1  0.38376208  0.16898053  0.88725570  1
  H  H66  1  0.38376208  0.33101947  0.11274430  1
  H  H67  1  0.11623792  0.83101947  0.38725570  1
  H  H68  1  0.88376208  0.33101947  0.38725570  1
  H  H69  1  0.61623792  0.83101947  0.11274430  1
  H  H70  1  0.61623792  0.66898053  0.88725570  1
  H  H71  1  0.88376208  0.16898053  0.61274430  1
  H  H72  1  0.93656031  0.67109745  0.63624721  1
  H  H73  1  0.56343969  0.17109745  0.86375279  1
  H  H74  1  0.56343969  0.32890255  0.13624721  1
  H  H75  1  0.93656031  0.82890255  0.36375279  1
  H  H76  1  0.06343969  0.32890255  0.36375279  1
  H  H77  1  0.43656031  0.82890255  0.13624721  1
  H  H78  1  0.43656031  0.67109745  0.86375279  1
  H  H79  1  0.06343969  0.17109745  0.63624721  1
  H  H80  1  0.15648174  0.51027028  0.29898996  1
  H  H81  1  0.34351826  0.01027028  0.20101004  1
  H  H82  1  0.34351826  0.48972972  0.79898996  1
  H  H83  1  0.15648174  0.98972972  0.70101004  1
  H  H84  1  0.84351826  0.48972972  0.70101004  1
  H  H85  1  0.65648174  0.98972972  0.79898996  1
  H  H86  1  0.65648174  0.51027028  0.20101004  1
  H  H87  1  0.84351826  0.01027028  0.29898996  1
  H  H88  1  0.27500230  0.55465135  0.36726576  1
  H  H89  1  0.22499770  0.05465135  0.13273424  1
  H  H90  1  0.22499770  0.44534865  0.86726576  1
  H  H91  1  0.27500230  0.94534865  0.63273424  1
  H  H92  1  0.72499770  0.44534865  0.63273424  1
  H  H93  1  0.77500230  0.94534865  0.86726576  1
  H  H94  1  0.77500230  0.55465135  0.13273424  1
  H  H95  1  0.72499770  0.05465135  0.36726576  1
  H  H96  1  0.92534141  0.53211435  0.31078759  1
  H  H97  1  0.57465859  0.03211435  0.18921241  1
  H  H98  1  0.57465859  0.46788565  0.81078759  1
  H  H99  1  0.92534141  0.96788565  0.68921241  1
  H  H100  1  0.07465859  0.46788565  0.68921241  1
  H  H101  1  0.42534141  0.96788565  0.81078759  1
  H  H102  1  0.42534141  0.53211435  0.18921241  1
  H  H103  1  0.07465859  0.03211435  0.31078759  1
  H  H104  1  0.75312900  0.70752838  0.02412616  1
  H  H105  1  0.74687100  0.20752838  0.47587384  1
  H  H106  1  0.74687100  0.29247162  0.52412616  1
  H  H107  1  0.75312900  0.79247162  0.97587384  1
  H  H108  1  0.24687100  0.29247162  0.97587384  1
  H  H109  1  0.25312900  0.79247162  0.52412616  1
  H  H110  1  0.25312900  0.70752838  0.47587384  1
  H  H111  1  0.24687100  0.20752838  0.02412616  1
  C  C112  1  0.57657883  0.48914981  0.39739036  1
  C  C113  1  0.92342117  0.98914981  0.10260964  1
  C  C114  1  0.92342117  0.51085019  0.89739036  1
  C  C115  1  0.57657883  0.01085019  0.60260964  1
  C  C116  1  0.42342117  0.51085019  0.60260964  1
  C  C117  1  0.07657883  0.01085019  0.89739036  1
  C  C118  1  0.07657883  0.48914981  0.10260964  1
  C  C119  1  0.42342117  0.98914981  0.39739036  1
  C  C120  1  0.56640337  0.62548919  0.34581119  1
  C  C121  1  0.93359663  0.12548919  0.15418881  1
  C  C122  1  0.93359663  0.37451081  0.84581119  1
  C  C123  1  0.56640337  0.87451081  0.65418881  1
  C  C124  1  0.43359663  0.37451081  0.65418881  1
  C  C125  1  0.06640337  0.87451081  0.84581119  1
  C  C126  1  0.06640337  0.62548919  0.15418881  1
  C  C127  1  0.43359663  0.12548919  0.34581119  1
  C  C128  1  0.98534861  0.63258119  0.51781553  1
  C  C129  1  0.51465139  0.13258119  0.98218447  1
  C  C130  1  0.51465139  0.36741881  0.01781553  1
  C  C131  1  0.98534861  0.86741881  0.48218447  1
  C  C132  1  0.01465139  0.36741881  0.48218447  1
  C  C133  1  0.48534861  0.86741881  0.01781553  1
  C  C134  1  0.48534861  0.63258119  0.98218447  1
  C  C135  1  0.01465139  0.13258119  0.51781553  1
  C  C136  1  0.06409496  0.57578171  0.39404396  1
  C  C137  1  0.43590504  0.07578171  0.10595604  1
  C  C138  1  0.43590504  0.42421829  0.89404396  1
  C  C139  1  0.06409496  0.92421829  0.60595604  1
  C  C140  1  0.93590504  0.42421829  0.60595604  1
  C  C141  1  0.56409496  0.92421829  0.89404396  1
  C  C142  1  0.56409496  0.57578171  0.10595604  1
  C  C143  1  0.93590504  0.07578171  0.39404396  1
  N  N144  1  0.70589669  0.50144693  0.42866819  1
  N  N145  1  0.79410331  0.00144693  0.07133181  1
  N  N146  1  0.79410331  0.49855307  0.92866819  1
  N  N147  1  0.70589669  0.99855307  0.57133181  1
  N  N148  1  0.29410331  0.49855307  0.57133181  1
  N  N149  1  0.20589669  0.99855307  0.92866819  1
  N  N150  1  0.20589669  0.50144693  0.07133181  1
  N  N151  1  0.29410331  0.00144693  0.42866819  1
  N  N152  1  0.50232519  0.54980368  0.35675864  1
  N  N153  1  0.99767481  0.04980368  0.14324136  1
  N  N154  1  0.99767481  0.45019632  0.85675864  1
  N  N155  1  0.50232519  0.95019632  0.64324136  1
  N  N156  1  0.49767481  0.45019632  0.64324136  1
  N  N157  1  0.00232519  0.95019632  0.85675864  1
  N  N158  1  0.00232519  0.54980368  0.14324136  1
  N  N159  1  0.49767481  0.04980368  0.35675864  1
  N  N160  1  0.69975187  0.64231901  0.36866661  1
  N  N161  1  0.80024813  0.14231901  0.13133339  1
  N  N162  1  0.80024813  0.35768099  0.86866661  1
  N  N163  1  0.69975187  0.85768099  0.63133339  1
  N  N164  1  0.30024813  0.35768099  0.63133339  1
  N  N165  1  0.19975187  0.85768099  0.86866661  1
  N  N166  1  0.19975187  0.64231901  0.13133339  1
  N  N167  1  0.30024813  0.14231901  0.36866661  1
  N  N168  1  0.51266995  0.41307848  0.40722955  1
  N  N169  1  0.98733005  0.91307848  0.09277045  1
  N  N170  1  0.98733005  0.58692152  0.90722955  1
  N  N171  1  0.51266995  0.08692152  0.59277045  1
  N  N172  1  0.48733005  0.58692152  0.59277045  1
  N  N173  1  0.01266995  0.08692152  0.90722955  1
  N  N174  1  0.01266995  0.41307848  0.09277045  1
  N  N175  1  0.48733005  0.91307848  0.40722955  1
  N  N176  1  0.49207055  0.68781773  0.30872496  1
  N  N177  1  0.00792945  0.18781773  0.19127504  1
  N  N178  1  0.00792945  0.31218227  0.80872496  1
  N  N179  1  0.49207055  0.81218227  0.69127504  1
  N  N180  1  0.50792945  0.31218227  0.69127504  1
  N  N181  1  0.99207055  0.81218227  0.80872496  1
  N  N182  1  0.99207055  0.68781773  0.19127504  1
  N  N183  1  0.50792945  0.18781773  0.30872496  1
  N  N184  1  0.85004286  0.61846618  0.49804867  1
  N  N185  1  0.64995714  0.11846618  0.00195133  1
  N  N186  1  0.64995714  0.38153382  0.99804867  1
  N  N187  1  0.85004286  0.88153382  0.50195133  1
  N  N188  1  0.14995714  0.38153382  0.50195133  1
  N  N189  1  0.35004286  0.88153382  0.99804867  1
  N  N190  1  0.35004286  0.61846618  0.00195133  1
  N  N191  1  0.14995714  0.11846618  0.49804867  1
  N  N192  1  0.09495787  0.61401043  0.46707617  1
  N  N193  1  0.40504213  0.11401043  0.03292383  1
  N  N194  1  0.40504213  0.38598957  0.96707617  1
  N  N195  1  0.09495787  0.88598957  0.53292383  1
  N  N196  1  0.90504213  0.38598957  0.53292383  1
  N  N197  1  0.59495787  0.88598957  0.96707617  1
  N  N198  1  0.59495787  0.61401043  0.03292383  1
  N  N199  1  0.90504213  0.11401043  0.46707617  1
  N  N200  1  0.93254349  0.56057044  0.36767769  1
  N  N201  1  0.56745651  0.06057044  0.13232231  1
  N  N202  1  0.56745651  0.43942956  0.86767769  1
  N  N203  1  0.93254349  0.93942956  0.63232231  1
  N  N204  1  0.06745651  0.43942956  0.63232231  1
  N  N205  1  0.43254349  0.93942956  0.86767769  1
  N  N206  1  0.43254349  0.56057044  0.13232231  1
  N  N207  1  0.06745651  0.06057044  0.36767769  1
  N  N208  1  0.01523195  0.66729130  0.59251068  1
  N  N209  1  0.48476805  0.16729130  0.90748932  1
  N  N210  1  0.48476805  0.33270870  0.09251068  1
  N  N211  1  0.01523195  0.83270870  0.40748932  1
  N  N212  1  0.98476805  0.33270870  0.40748932  1
  N  N213  1  0.51523195  0.83270870  0.09251068  1
  N  N214  1  0.51523195  0.66729130  0.90748932  1
  N  N215  1  0.98476805  0.16729130  0.59251068  1
  N  N216  1  0.17379554  0.55282375  0.34534534  1
  N  N217  1  0.32620446  0.05282375  0.15465466  1
  N  N218  1  0.32620446  0.44717625  0.84534534  1
  N  N219  1  0.17379554  0.94717625  0.65465466  1
  N  N220  1  0.82620446  0.44717625  0.65465466  1
  N  N221  1  0.67379554  0.94717625  0.84534534  1
  N  N222  1  0.67379554  0.55282375  0.15465466  1
  N  N223  1  0.82620446  0.05282375  0.34534534  1
  Cl  Cl224  1  0.73824601  0.83684549  0.29001407  1
  Cl  Cl225  1  0.76175399  0.33684549  0.20998593  1
  Cl  Cl226  1  0.76175399  0.16315451  0.79001407  1
  Cl  Cl227  1  0.73824601  0.66315451  0.70998593  1
  Cl  Cl228  1  0.26175399  0.16315451  0.70998593  1
  Cl  Cl229  1  0.23824601  0.66315451  0.79001407  1
  Cl  Cl230  1  0.23824601  0.83684549  0.20998593  1
  Cl  Cl231  1  0.26175399  0.33684549  0.29001407  1
  O  O232  1  0.81764977  0.75000000  0.00000000  1
  O  O233  1  0.68235023  0.25000000  0.50000000  1
  O  O234  1  0.18235023  0.25000000  0.00000000  1
  O  O235  1  0.31764977  0.75000000  0.50000000  1
