# generated using pymatgen
data_K3Pu(H3O4)2
_symmetry_space_group_name_H-M   'P 1'
_cell_length_a   8.50950800
_cell_length_b   7.83109900
_cell_length_c   7.89681735
_cell_angle_alpha   61.47412716
_cell_angle_beta   90.00000000
_cell_angle_gamma   90.00000000
_symmetry_Int_Tables_number   1
_chemical_formula_structural   K3Pu(H3O4)2
_chemical_formula_sum   'K6 Pu2 H12 O16'
_cell_volume   462.35038720
_cell_formula_units_Z   2
loop_
 _symmetry_equiv_pos_site_id
 _symmetry_equiv_pos_as_xyz
  1  'x, y, z'
loop_
 _atom_site_type_symbol
 _atom_site_label
 _atom_site_symmetry_multiplicity
 _atom_site_fract_x
 _atom_site_fract_y
 _atom_site_fract_z
 _atom_site_occupancy
  K  K0  1  0.00000000  0.50000000  0.50000000  1
  K  K1  1  0.50000000  0.00000000  0.50000000  1
  K  K2  1  0.19745700  0.44842700  0.09027000  1
  K  K3  1  0.69745700  0.05157300  0.90973000  1
  K  K4  1  0.80254300  0.55157300  0.90973000  1
  K  K5  1  0.30254300  0.94842700  0.09027000  1
  Pu  Pu6  1  0.00000000  0.00000000  0.50000000  1
  Pu  Pu7  1  0.50000000  0.50000000  0.50000000  1
  H  H8  1  0.20677600  0.13600200  0.69544900  1
  H  H9  1  0.70677600  0.36399800  0.30455100  1
  H  H10  1  0.79322400  0.86399800  0.30455100  1
  H  H11  1  0.29322400  0.63600200  0.69544900  1
  H  H12  1  0.03853500  0.18734700  0.86101400  1
  H  H13  1  0.53853500  0.31265300  0.13898600  1
  H  H14  1  0.96146500  0.81265300  0.13898600  1
  H  H15  1  0.46146500  0.68734700  0.86101400  1
  H  H16  1  0.96893500  0.14206500  0.06825800  1
  H  H17  1  0.46893500  0.35793500  0.93174200  1
  H  H18  1  0.03106500  0.85793500  0.93174200  1
  H  H19  1  0.53106500  0.64206500  0.06825800  1
  O  O20  1  0.09662800  0.09588600  0.72717900  1
  O  O21  1  0.59662800  0.40411400  0.27282100  1
  O  O22  1  0.90337200  0.90411400  0.27282100  1
  O  O23  1  0.40337200  0.59588600  0.72717900  1
  O  O24  1  0.19338600  0.05564900  0.36741100  1
  O  O25  1  0.69338600  0.44435100  0.63258900  1
  O  O26  1  0.80661400  0.94435100  0.63258900  1
  O  O27  1  0.30661400  0.55564900  0.36741100  1
  O  O28  1  0.93200600  0.26005000  0.33216200  1
  O  O29  1  0.43200600  0.23995000  0.66783800  1
  O  O30  1  0.06799400  0.73995000  0.66783800  1
  O  O31  1  0.56799400  0.76005000  0.33216200  1
  O  O32  1  0.00328400  0.25014500  0.94173200  1
  O  O33  1  0.50328400  0.24985500  0.05826800  1
  O  O34  1  0.99671600  0.74985500  0.05826800  1
  O  O35  1  0.49671600  0.75014500  0.94173200  1
