# generated using pymatgen
data_Sm3(SiRh)2
_symmetry_space_group_name_H-M   'P 1'
_cell_length_a   5.65476400
_cell_length_b   7.94025600
_cell_length_c   13.23986800
_cell_angle_alpha   90.00000000
_cell_angle_beta   90.00000000
_cell_angle_gamma   90.00000000
_symmetry_Int_Tables_number   1
_chemical_formula_structural   Sm3(SiRh)2
_chemical_formula_sum   'Sm12 Si8 Rh8'
_cell_volume   594.47369801
_cell_formula_units_Z   4
loop_
 _symmetry_equiv_pos_site_id
 _symmetry_equiv_pos_as_xyz
  1  'x, y, z'
loop_
 _atom_site_type_symbol
 _atom_site_label
 _atom_site_symmetry_multiplicity
 _atom_site_fract_x
 _atom_site_fract_y
 _atom_site_fract_z
 _atom_site_occupancy
  Sm  Sm0  1  0.63941100  0.24651000  0.25000000  1
  Sm  Sm1  1  0.36058900  0.75349000  0.75000000  1
  Sm  Sm2  1  0.36058900  0.74651000  0.25000000  1
  Sm  Sm3  1  0.63941100  0.25349000  0.75000000  1
  Sm  Sm4  1  0.13899600  0.39048400  0.10190400  1
  Sm  Sm5  1  0.86100400  0.60951600  0.89809600  1
  Sm  Sm6  1  0.86100400  0.60951600  0.60190400  1
  Sm  Sm7  1  0.86100400  0.89048400  0.39809600  1
  Sm  Sm8  1  0.13899600  0.39048400  0.39809600  1
  Sm  Sm9  1  0.13899600  0.10951600  0.60190400  1
  Sm  Sm10  1  0.13899600  0.10951600  0.89809600  1
  Sm  Sm11  1  0.86100400  0.89048400  0.10190400  1
  Si  Si12  1  0.15107000  0.09996800  0.25000000  1
  Si  Si13  1  0.84893000  0.90003200  0.75000000  1
  Si  Si14  1  0.84893000  0.59996800  0.25000000  1
  Si  Si15  1  0.15107000  0.40003200  0.75000000  1
  Si  Si16  1  0.62881500  0.25000000  0.00000000  1
  Si  Si17  1  0.37118500  0.75000000  0.00000000  1
  Si  Si18  1  0.37118500  0.75000000  0.50000000  1
  Si  Si19  1  0.62881500  0.25000000  0.50000000  1
  Rh  Rh20  1  0.37323600  0.03316300  0.09104300  1
  Rh  Rh21  1  0.62676400  0.96683700  0.90895700  1
  Rh  Rh22  1  0.62676400  0.96683700  0.59104300  1
  Rh  Rh23  1  0.62676400  0.53316300  0.40895700  1
  Rh  Rh24  1  0.37323600  0.03316300  0.40895700  1
  Rh  Rh25  1  0.37323600  0.46683700  0.59104300  1
  Rh  Rh26  1  0.37323600  0.46683700  0.90895700  1
  Rh  Rh27  1  0.62676400  0.53316300  0.09104300  1
