# generated using pymatgen
data_Mg6MnO8
_symmetry_space_group_name_H-M   'P 1'
_cell_length_a   8.47721909
_cell_length_b   8.47721892
_cell_length_c   10.38242988
_cell_angle_alpha   114.09484186
_cell_angle_beta   65.90515767
_cell_angle_gamma   90.00000438
_symmetry_Int_Tables_number   1
_chemical_formula_structural   Mg6MnO8
_chemical_formula_sum   'Mg24 Mn4 O32'
_cell_volume   609.20042263
_cell_formula_units_Z   4
loop_
 _symmetry_equiv_pos_site_id
 _symmetry_equiv_pos_as_xyz
  1  'x, y, z'
loop_
 _atom_site_type_symbol
 _atom_site_label
 _atom_site_symmetry_multiplicity
 _atom_site_fract_x
 _atom_site_fract_y
 _atom_site_fract_z
 _atom_site_occupancy
  Mg  Mg0  1  0.37500000  0.37500000  0.25000000  1
  Mg  Mg1  1  0.62500000  0.62500000  0.75000000  1
  Mg  Mg2  1  0.87500000  0.87500000  0.25000000  1
  Mg  Mg3  1  0.12500000  0.12500000  0.75000000  1
  Mg  Mg4  1  0.50000000  0.50000000  0.50000000  1
  Mg  Mg5  1  0.75000000  0.75000000  0.00000000  1
  Mg  Mg6  1  0.00000000  0.00000000  0.50000000  1
  Mg  Mg7  1  0.25000000  0.25000000  0.00000000  1
  Mg  Mg8  1  0.75000000  0.25000000  0.00000000  1
  Mg  Mg9  1  0.00000000  0.50000000  0.50000000  1
  Mg  Mg10  1  0.25000000  0.75000000  0.00000000  1
  Mg  Mg11  1  0.50000000  0.00000000  0.50000000  1
  Mg  Mg12  1  0.87500000  0.37500000  0.25000000  1
  Mg  Mg13  1  0.12500000  0.62500000  0.75000000  1
  Mg  Mg14  1  0.37500000  0.87500000  0.25000000  1
  Mg  Mg15  1  0.62500000  0.12500000  0.75000000  1
  Mg  Mg16  1  0.62500000  0.12500000  0.25000000  1
  Mg  Mg17  1  0.87500000  0.37500000  0.75000000  1
  Mg  Mg18  1  0.12500000  0.62500000  0.25000000  1
  Mg  Mg19  1  0.37500000  0.87500000  0.75000000  1
  Mg  Mg20  1  0.62500000  0.62500000  0.25000000  1
  Mg  Mg21  1  0.87500000  0.87500000  0.75000000  1
  Mg  Mg22  1  0.12500000  0.12500000  0.25000000  1
  Mg  Mg23  1  0.37500000  0.37500000  0.75000000  1
  Mn  Mn24  1  0.50000000  0.50000000  0.00000000  1
  Mn  Mn25  1  0.75000000  0.75000000  0.50000000  1
  Mn  Mn26  1  0.00000000  0.00000000  0.00000000  1
  Mn  Mn27  1  0.25000000  0.25000000  0.50000000  1
  O  O28  1  0.87500000  0.12500000  0.75000000  1
  O  O29  1  0.12500000  0.37500000  0.25000000  1
  O  O30  1  0.37500000  0.62500000  0.75000000  1
  O  O31  1  0.62500000  0.87500000  0.25000000  1
  O  O32  1  0.62500000  0.37500000  0.25000000  1
  O  O33  1  0.87500000  0.62500000  0.75000000  1
  O  O34  1  0.12500000  0.87500000  0.25000000  1
  O  O35  1  0.37500000  0.12500000  0.75000000  1
  O  O36  1  0.02063500  0.25000000  0.50000000  1
  O  O37  1  0.27063500  0.50000000  0.00000000  1
  O  O38  1  0.52063500  0.75000000  0.50000000  1
  O  O39  1  0.77063500  0.00000000  0.00000000  1
  O  O40  1  0.88531800  0.11468200  0.22936500  1
  O  O41  1  0.13531800  0.36468200  0.72936500  1
  O  O42  1  0.38531800  0.61468200  0.22936500  1
  O  O43  1  0.63531800  0.86468200  0.72936500  1
  O  O44  1  0.61468200  0.38531800  0.77063500  1
  O  O45  1  0.86468200  0.63531800  0.27063500  1
  O  O46  1  0.11468200  0.88531800  0.77063500  1
  O  O47  1  0.36468200  0.13531800  0.27063500  1
  O  O48  1  0.75000000  0.52063500  0.50000000  1
  O  O49  1  0.00000000  0.77063500  0.00000000  1
  O  O50  1  0.25000000  0.02063500  0.50000000  1
  O  O51  1  0.50000000  0.27063500  0.00000000  1
  O  O52  1  0.75000000  0.97936500  0.50000000  1
  O  O53  1  0.00000000  0.22936500  0.00000000  1
  O  O54  1  0.25000000  0.47936500  0.50000000  1
  O  O55  1  0.50000000  0.72936500  0.00000000  1
  O  O56  1  0.47936500  0.25000000  0.50000000  1
  O  O57  1  0.72936500  0.50000000  0.00000000  1
  O  O58  1  0.97936500  0.75000000  0.50000000  1
  O  O59  1  0.22936500  0.00000000  0.00000000  1
