# generated using pymatgen
data_Ca3(SiP2)2
_symmetry_space_group_name_H-M   'P 1'
_cell_length_a   17.28262400
_cell_length_b   6.95059300
_cell_length_c   7.10230659
_cell_angle_alpha   68.27439150
_cell_angle_beta   90.00000000
_cell_angle_gamma   90.00000000
_symmetry_Int_Tables_number   1
_chemical_formula_structural   Ca3(SiP2)2
_chemical_formula_sum   'Ca12 Si8 P16'
_cell_volume   792.55853099
_cell_formula_units_Z   4
loop_
 _symmetry_equiv_pos_site_id
 _symmetry_equiv_pos_as_xyz
  1  'x, y, z'
loop_
 _atom_site_type_symbol
 _atom_site_label
 _atom_site_symmetry_multiplicity
 _atom_site_fract_x
 _atom_site_fract_y
 _atom_site_fract_z
 _atom_site_occupancy
  Ca  Ca0  1  0.31610500  0.48765900  0.21534200  1
  Ca  Ca1  1  0.81610500  0.01234100  0.78465800  1
  Ca  Ca2  1  0.68389500  0.51234100  0.78465800  1
  Ca  Ca3  1  0.18389500  0.98765900  0.21534200  1
  Ca  Ca4  1  0.06226100  0.48771300  0.25657800  1
  Ca  Ca5  1  0.56226100  0.01228700  0.74342200  1
  Ca  Ca6  1  0.93773900  0.51228700  0.74342200  1
  Ca  Ca7  1  0.43773900  0.98771300  0.25657800  1
  Ca  Ca8  1  0.55810700  0.49505900  0.26127400  1
  Ca  Ca9  1  0.05810700  0.00494100  0.73872600  1
  Ca  Ca10  1  0.44189300  0.50494100  0.73872600  1
  Ca  Ca11  1  0.94189300  0.99505900  0.26127400  1
  Si  Si12  1  0.74189700  0.08545200  0.31683400  1
  Si  Si13  1  0.24189700  0.41454800  0.68316600  1
  Si  Si14  1  0.25810300  0.91454800  0.68316600  1
  Si  Si15  1  0.75810300  0.58545200  0.31683400  1
  Si  Si16  1  0.87161700  0.47139900  0.21210400  1
  Si  Si17  1  0.37161700  0.02860100  0.78789600  1
  Si  Si18  1  0.12838300  0.52860100  0.78789600  1
  Si  Si19  1  0.62838300  0.97139900  0.21210400  1
  P  P20  1  0.69885600  0.27606300  0.50091900  1
  P  P21  1  0.19885600  0.22393700  0.49908100  1
  P  P22  1  0.30114400  0.72393700  0.49908100  1
  P  P23  1  0.80114400  0.77606300  0.50091900  1
  P  P24  1  0.81410200  0.27911600  0.04405300  1
  P  P25  1  0.31410200  0.22088400  0.95594700  1
  P  P26  1  0.18589800  0.72088400  0.95594700  1
  P  P27  1  0.68589800  0.77911600  0.04405300  1
  P  P28  1  0.93158000  0.25973400  0.49411300  1
  P  P29  1  0.43158000  0.24026600  0.50588700  1
  P  P30  1  0.06842000  0.74026600  0.50588700  1
  P  P31  1  0.56842000  0.75973400  0.49411300  1
  P  P32  1  0.56112700  0.24457500  0.00947600  1
  P  P33  1  0.06112700  0.25542500  0.99052400  1
  P  P34  1  0.43887300  0.75542500  0.99052400  1
  P  P35  1  0.93887300  0.74457500  0.00947600  1
