# generated using pymatgen
data_Er(MnAl2)4
_symmetry_space_group_name_H-M   'P 1'
_cell_length_a   5.14499900
_cell_length_b   6.69151009
_cell_length_c   6.69151009
_cell_angle_alpha   81.50078063
_cell_angle_beta   67.39087369
_cell_angle_gamma   67.39087369
_symmetry_Int_Tables_number   1
_chemical_formula_structural   Er(MnAl2)4
_chemical_formula_sum   'Er1 Mn4 Al8'
_cell_volume   196.32570662
_cell_formula_units_Z   1
loop_
 _symmetry_equiv_pos_site_id
 _symmetry_equiv_pos_as_xyz
  1  'x, y, z'
loop_
 _atom_site_type_symbol
 _atom_site_label
 _atom_site_symmetry_multiplicity
 _atom_site_fract_x
 _atom_site_fract_y
 _atom_site_fract_z
 _atom_site_occupancy
  Er  Er0  1  0.00000000  0.00000000  0.00000000  1
  Mn  Mn1  1  0.00000000  0.00000000  0.50000000  1
  Mn  Mn2  1  0.50000000  0.00000000  0.50000000  1
  Mn  Mn3  1  0.50000000  0.50000000  0.00000000  1
  Mn  Mn4  1  0.00000000  0.50000000  0.00000000  1
  Al  Al5  1  0.00000000  0.33551700  0.66448300  1
  Al  Al6  1  0.00000000  0.66448300  0.33551700  1
  Al  Al7  1  0.66448300  0.33551700  0.33551700  1
  Al  Al8  1  0.33551700  0.66448300  0.66448300  1
  Al  Al9  1  0.50000000  0.77591700  0.22408300  1
  Al  Al10  1  0.50000000  0.22408300  0.77591700  1
  Al  Al11  1  0.72408300  0.77591700  0.77591700  1
  Al  Al12  1  0.27591700  0.22408300  0.22408300  1
