# generated using pymatgen
data_ScReGe2
_symmetry_space_group_name_H-M   'P 1'
_cell_length_a   8.39174000
_cell_length_b   9.44665600
_cell_length_c   10.21388700
_cell_angle_alpha   90.00000000
_cell_angle_beta   90.00000000
_cell_angle_gamma   90.00000000
_symmetry_Int_Tables_number   1
_chemical_formula_structural   ScReGe2
_chemical_formula_sum   'Sc12 Re12 Ge24'
_cell_volume   809.69446280
_cell_formula_units_Z   12
loop_
 _symmetry_equiv_pos_site_id
 _symmetry_equiv_pos_as_xyz
  1  'x, y, z'
loop_
 _atom_site_type_symbol
 _atom_site_label
 _atom_site_symmetry_multiplicity
 _atom_site_fract_x
 _atom_site_fract_y
 _atom_site_fract_z
 _atom_site_occupancy
  Sc  Sc0  1  0.24242400  0.82895900  0.45248500  1
  Sc  Sc1  1  0.24242400  0.17104100  0.54751500  1
  Sc  Sc2  1  0.75757600  0.32895900  0.04751500  1
  Sc  Sc3  1  0.75757600  0.67104100  0.95248500  1
  Sc  Sc4  1  0.75757600  0.17104100  0.54751500  1
  Sc  Sc5  1  0.75757600  0.82895900  0.45248500  1
  Sc  Sc6  1  0.24242400  0.67104100  0.95248500  1
  Sc  Sc7  1  0.24242400  0.32895900  0.04751500  1
  Sc  Sc8  1  0.00000000  0.83395500  0.17760900  1
  Sc  Sc9  1  0.00000000  0.16604500  0.82239100  1
  Sc  Sc10  1  0.00000000  0.33395500  0.32239100  1
  Sc  Sc11  1  0.00000000  0.66604500  0.67760900  1
  Re  Re12  1  0.24882400  0.58070700  0.24665200  1
  Re  Re13  1  0.24882400  0.41929300  0.75334800  1
  Re  Re14  1  0.75117600  0.08070700  0.25334800  1
  Re  Re15  1  0.75117600  0.91929300  0.74665200  1
  Re  Re16  1  0.75117600  0.41929300  0.75334800  1
  Re  Re17  1  0.75117600  0.58070700  0.24665200  1
  Re  Re18  1  0.24882400  0.91929300  0.74665200  1
  Re  Re19  1  0.24882400  0.08070700  0.25334800  1
  Re  Re20  1  0.24286900  0.50000000  0.50000000  1
  Re  Re21  1  0.75713100  0.00000000  0.00000000  1
  Re  Re22  1  0.75713100  0.50000000  0.50000000  1
  Re  Re23  1  0.24286900  0.00000000  0.00000000  1
  Ge  Ge24  1  0.34767100  0.82995700  0.18179100  1
  Ge  Ge25  1  0.34767100  0.17004300  0.81820900  1
  Ge  Ge26  1  0.65232900  0.32995700  0.31820900  1
  Ge  Ge27  1  0.65232900  0.67004300  0.68179100  1
  Ge  Ge28  1  0.65232900  0.17004300  0.81820900  1
  Ge  Ge29  1  0.65232900  0.82995700  0.18179100  1
  Ge  Ge30  1  0.34767100  0.67004300  0.68179100  1
  Ge  Ge31  1  0.34767100  0.32995700  0.31820900  1
  Ge  Ge32  1  0.50000000  0.53911600  0.11866600  1
  Ge  Ge33  1  0.50000000  0.46088400  0.88133400  1
  Ge  Ge34  1  0.50000000  0.03911600  0.38133400  1
  Ge  Ge35  1  0.50000000  0.96088400  0.61866600  1
  Ge  Ge36  1  0.00000000  0.54090800  0.11819000  1
  Ge  Ge37  1  0.00000000  0.45909200  0.88181000  1
  Ge  Ge38  1  0.00000000  0.04090800  0.38181000  1
  Ge  Ge39  1  0.00000000  0.95909200  0.61819000  1
  Ge  Ge40  1  0.50000000  0.63281500  0.40818000  1
  Ge  Ge41  1  0.50000000  0.36718500  0.59182000  1
  Ge  Ge42  1  0.50000000  0.13281500  0.09182000  1
  Ge  Ge43  1  0.50000000  0.86718500  0.90818000  1
  Ge  Ge44  1  0.00000000  0.63930500  0.40031400  1
  Ge  Ge45  1  0.00000000  0.36069500  0.59968600  1
  Ge  Ge46  1  0.00000000  0.13930500  0.09968600  1
  Ge  Ge47  1  0.00000000  0.86069500  0.90031400  1
