# generated using pymatgen
data_Cu2SiHgS4
_symmetry_space_group_name_H-M   'P 1'
_cell_length_a   6.31492600
_cell_length_b   6.51178000
_cell_length_c   7.69611300
_cell_angle_alpha   90.00000000
_cell_angle_beta   90.00000000
_cell_angle_gamma   90.00000000
_symmetry_Int_Tables_number   1
_chemical_formula_structural   Cu2SiHgS4
_chemical_formula_sum   'Cu4 Si2 Hg2 S8'
_cell_volume   316.47500906
_cell_formula_units_Z   2
loop_
 _symmetry_equiv_pos_site_id
 _symmetry_equiv_pos_as_xyz
  1  'x, y, z'
loop_
 _atom_site_type_symbol
 _atom_site_label
 _atom_site_symmetry_multiplicity
 _atom_site_fract_x
 _atom_site_fract_y
 _atom_site_fract_z
 _atom_site_occupancy
  Cu  Cu0  1  0.50865000  0.32450000  0.74849000  1
  Cu  Cu1  1  0.50865000  0.32450000  0.25151000  1
  Cu  Cu2  1  0.00865000  0.67550000  0.75151000  1
  Cu  Cu3  1  0.00865000  0.67550000  0.24849000  1
  Si  Si4  1  0.50171500  0.81949700  0.50000000  1
  Si  Si5  1  0.00171500  0.18050300  0.00000000  1
  Hg  Hg6  1  0.00595500  0.15407200  0.50000000  1
  Hg  Hg7  1  0.50595500  0.84592800  0.00000000  1
  S  S8  1  0.84263100  0.78755600  0.50000000  1
  S  S9  1  0.34263100  0.21244400  0.00000000  1
  S  S10  1  0.41615200  0.14050800  0.50000000  1
  S  S11  1  0.91615200  0.85949200  0.00000000  1
  S  S12  1  0.87212300  0.34347400  0.77856100  1
  S  S13  1  0.87212300  0.34347400  0.22143900  1
  S  S14  1  0.37212300  0.65652600  0.72143900  1
  S  S15  1  0.37212300  0.65652600  0.27856100  1
