# generated using pymatgen
data_Na3NbAs2O9
_symmetry_space_group_name_H-M   'P 1'
_cell_length_a   8.68371400
_cell_length_b   9.82853300
_cell_length_c   10.82605284
_cell_angle_alpha   70.90291384
_cell_angle_beta   90.00000000
_cell_angle_gamma   90.00000000
_symmetry_Int_Tables_number   1
_chemical_formula_structural   Na3NbAs2O9
_chemical_formula_sum   'Na12 Nb4 As8 O36'
_cell_volume   873.13285612
_cell_formula_units_Z   4
loop_
 _symmetry_equiv_pos_site_id
 _symmetry_equiv_pos_as_xyz
  1  'x, y, z'
loop_
 _atom_site_type_symbol
 _atom_site_label
 _atom_site_symmetry_multiplicity
 _atom_site_fract_x
 _atom_site_fract_y
 _atom_site_fract_z
 _atom_site_occupancy
  Na  Na0  1  0.45215900  0.83425500  0.49272900  1
  Na  Na1  1  0.95215900  0.16574500  0.00727100  1
  Na  Na2  1  0.54784100  0.16574500  0.50727100  1
  Na  Na3  1  0.04784100  0.83425500  0.99272900  1
  Na  Na4  1  0.76345100  0.79959700  0.64619400  1
  Na  Na5  1  0.26345100  0.20040300  0.85380600  1
  Na  Na6  1  0.23654900  0.20040300  0.35380600  1
  Na  Na7  1  0.73654900  0.79959700  0.14619400  1
  Na  Na8  1  0.54576600  0.46685900  0.75815300  1
  Na  Na9  1  0.04576600  0.53314100  0.74184700  1
  Na  Na10  1  0.45423400  0.53314100  0.24184700  1
  Na  Na11  1  0.95423400  0.46685900  0.25815300  1
  Nb  Nb12  1  0.07708700  0.77989800  0.38544400  1
  Nb  Nb13  1  0.57708700  0.22010200  0.11455600  1
  Nb  Nb14  1  0.92291300  0.22010200  0.61455600  1
  Nb  Nb15  1  0.42291300  0.77989800  0.88544400  1
  As  As16  1  0.23887300  0.42652300  0.02594900  1
  As  As17  1  0.73887300  0.57347700  0.47405100  1
  As  As18  1  0.76112700  0.57347700  0.97405100  1
  As  As19  1  0.26112700  0.42652300  0.52594900  1
  As  As20  1  0.17610100  0.93163300  0.63941300  1
  As  As21  1  0.67610100  0.06836700  0.86058700  1
  As  As22  1  0.82389900  0.06836700  0.36058700  1
  As  As23  1  0.32389900  0.93163300  0.13941300  1
  O  O24  1  0.00075800  0.98185800  0.37082100  1
  O  O25  1  0.50075800  0.01814200  0.12917900  1
  O  O26  1  0.99924200  0.01814200  0.62917900  1
  O  O27  1  0.49924200  0.98185800  0.87082100  1
  O  O28  1  0.99763800  0.77509400  0.23561000  1
  O  O29  1  0.49763800  0.22490600  0.26439000  1
  O  O30  1  0.00236200  0.22490600  0.76439000  1
  O  O31  1  0.50236200  0.77509400  0.73561000  1
  O  O32  1  0.71579600  0.58663200  0.31576900  1
  O  O33  1  0.21579600  0.41336800  0.18423100  1
  O  O34  1  0.28420400  0.41336800  0.68423100  1
  O  O35  1  0.78420400  0.58663200  0.81576900  1
  O  O36  1  0.14793300  0.78112800  0.59511700  1
  O  O37  1  0.64793300  0.21887200  0.90488300  1
  O  O38  1  0.85206700  0.21887200  0.40488300  1
  O  O39  1  0.35206700  0.78112800  0.09511700  1
  O  O40  1  0.28310900  0.88245900  0.30681700  1
  O  O41  1  0.78310900  0.11754100  0.19318300  1
  O  O42  1  0.71689100  0.11754100  0.69318300  1
  O  O43  1  0.21689100  0.88245900  0.80681700  1
  O  O44  1  0.68497500  0.96287600  0.45280100  1
  O  O45  1  0.18497500  0.03712400  0.04719900  1
  O  O46  1  0.31502500  0.03712400  0.54719900  1
  O  O47  1  0.81502500  0.96287600  0.95280100  1
  O  O48  1  0.59214000  0.62379900  0.55084400  1
  O  O49  1  0.09214000  0.37620100  0.94915600  1
  O  O50  1  0.40786000  0.37620100  0.44915600  1
  O  O51  1  0.90786000  0.62379900  0.05084400  1
  O  O52  1  0.90069600  0.67221600  0.49975100  1
  O  O53  1  0.40069600  0.32778400  0.00024900  1
  O  O54  1  0.09930400  0.32778400  0.50024900  1
  O  O55  1  0.59930400  0.67221600  0.99975100  1
  O  O56  1  0.20550100  0.60071800  0.43424900  1
  O  O57  1  0.70550100  0.39928200  0.06575100  1
  O  O58  1  0.79449900  0.39928200  0.56575100  1
  O  O59  1  0.29449900  0.60071800  0.93424900  1
