# generated using pymatgen
data_LuSnF7
_symmetry_space_group_name_H-M   'P 1'
_cell_length_a   5.52428000
_cell_length_b   8.85321200
_cell_length_c   11.93741692
_cell_angle_alpha   62.72472411
_cell_angle_beta   90.00000000
_cell_angle_gamma   90.00000000
_symmetry_Int_Tables_number   1
_chemical_formula_structural   LuSnF7
_chemical_formula_sum   'Lu4 Sn4 F28'
_cell_volume   518.91749887
_cell_formula_units_Z   4
loop_
 _symmetry_equiv_pos_site_id
 _symmetry_equiv_pos_as_xyz
  1  'x, y, z'
loop_
 _atom_site_type_symbol
 _atom_site_label
 _atom_site_symmetry_multiplicity
 _atom_site_fract_x
 _atom_site_fract_y
 _atom_site_fract_z
 _atom_site_occupancy
  Lu  Lu0  1  0.25966100  0.81721000  0.26313500  1
  Lu  Lu1  1  0.74033900  0.18279000  0.73686500  1
  Lu  Lu2  1  0.75966100  0.18279000  0.23686500  1
  Lu  Lu3  1  0.24033900  0.81721000  0.76313500  1
  Sn  Sn4  1  0.75717900  0.72689100  0.04182100  1
  Sn  Sn5  1  0.24282100  0.27310900  0.95817900  1
  Sn  Sn6  1  0.25717900  0.27310900  0.45817900  1
  Sn  Sn7  1  0.74282100  0.72689100  0.54182100  1
  F  F8  1  0.94921800  0.71116300  0.41051900  1
  F  F9  1  0.05078200  0.28883700  0.58948100  1
  F  F10  1  0.44921800  0.28883700  0.08948100  1
  F  F11  1  0.55078200  0.71116300  0.91051900  1
  F  F12  1  0.46532500  0.73165200  0.13984400  1
  F  F13  1  0.53467500  0.26834800  0.86015600  1
  F  F14  1  0.96532500  0.26834800  0.36015600  1
  F  F15  1  0.03467500  0.73165200  0.63984400  1
  F  F16  1  0.95851100  0.74450200  0.17550300  1
  F  F17  1  0.04148900  0.25549800  0.82449700  1
  F  F18  1  0.45851100  0.25549800  0.32449700  1
  F  F19  1  0.54148900  0.74450200  0.67550300  1
  F  F20  1  0.77098400  0.47515000  0.14064000  1
  F  F21  1  0.22901600  0.52485000  0.85936000  1
  F  F22  1  0.27098400  0.52485000  0.35936000  1
  F  F23  1  0.72901600  0.47515000  0.64064000  1
  F  F24  1  0.93781000  0.27759300  0.04909700  1
  F  F25  1  0.06219000  0.72240700  0.95090300  1
  F  F26  1  0.43781000  0.72240700  0.45090300  1
  F  F27  1  0.56219000  0.27759300  0.54909700  1
  F  F28  1  0.73731400  0.97956000  0.44348500  1
  F  F29  1  0.26268600  0.02044000  0.55651500  1
  F  F30  1  0.23731400  0.02044000  0.05651500  1
  F  F31  1  0.76268600  0.97956000  0.94348500  1
  F  F32  1  0.58471800  0.96992700  0.23274700  1
  F  F33  1  0.41528200  0.03007300  0.76725300  1
  F  F34  1  0.08471800  0.03007300  0.26725300  1
  F  F35  1  0.91528200  0.96992700  0.73274700  1
