# generated using pymatgen
data_RbTl3O5
_symmetry_space_group_name_H-M   'P 1'
_cell_length_a   3.49212200
_cell_length_b   9.98722100
_cell_length_c   17.77495100
_cell_angle_alpha   90.00000000
_cell_angle_beta   90.00000000
_cell_angle_gamma   90.00000000
_symmetry_Int_Tables_number   1
_chemical_formula_structural   RbTl3O5
_chemical_formula_sum   'Rb4 Tl12 O20'
_cell_volume   619.92975247
_cell_formula_units_Z   4
loop_
 _symmetry_equiv_pos_site_id
 _symmetry_equiv_pos_as_xyz
  1  'x, y, z'
loop_
 _atom_site_type_symbol
 _atom_site_label
 _atom_site_symmetry_multiplicity
 _atom_site_fract_x
 _atom_site_fract_y
 _atom_site_fract_z
 _atom_site_occupancy
  Rb  Rb0  1  0.75000000  0.50055100  0.38188500  1
  Rb  Rb1  1  0.25000000  0.49944900  0.61811500  1
  Rb  Rb2  1  0.25000000  0.99944900  0.88188500  1
  Rb  Rb3  1  0.75000000  0.00055100  0.11811500  1
  Tl  Tl4  1  0.75000000  0.84338500  0.30430700  1
  Tl  Tl5  1  0.25000000  0.15661500  0.69569300  1
  Tl  Tl6  1  0.25000000  0.65661500  0.80430700  1
  Tl  Tl7  1  0.75000000  0.34338500  0.19569300  1
  Tl  Tl8  1  0.75000000  0.65375300  0.97777500  1
  Tl  Tl9  1  0.25000000  0.34624700  0.02222500  1
  Tl  Tl10  1  0.25000000  0.84624700  0.47777500  1
  Tl  Tl11  1  0.75000000  0.15375300  0.52222500  1
  Tl  Tl12  1  0.75000000  0.85995800  0.64715600  1
  Tl  Tl13  1  0.25000000  0.14004200  0.35284400  1
  Tl  Tl14  1  0.25000000  0.64004200  0.14715600  1
  Tl  Tl15  1  0.75000000  0.35995800  0.85284400  1
  O  O16  1  0.75000000  0.99705400  0.42423000  1
  O  O17  1  0.25000000  0.00294600  0.57577000  1
  O  O18  1  0.25000000  0.50294600  0.92423000  1
  O  O19  1  0.75000000  0.49705400  0.07577000  1
  O  O20  1  0.75000000  0.74202900  0.53630400  1
  O  O21  1  0.25000000  0.25797100  0.46369600  1
  O  O22  1  0.25000000  0.75797100  0.03630400  1
  O  O23  1  0.75000000  0.24202900  0.96369600  1
  O  O24  1  0.75000000  0.75339200  0.18992800  1
  O  O25  1  0.25000000  0.24660800  0.81007200  1
  O  O26  1  0.25000000  0.74660800  0.68992800  1
  O  O27  1  0.75000000  0.25339200  0.31007200  1
  O  O28  1  0.75000000  0.76172300  0.86826300  1
  O  O29  1  0.25000000  0.23827700  0.13173700  1
  O  O30  1  0.25000000  0.73827700  0.36826300  1
  O  O31  1  0.75000000  0.26172300  0.63173700  1
  O  O32  1  0.75000000  0.52306300  0.76855900  1
  O  O33  1  0.25000000  0.47693700  0.23144100  1
  O  O34  1  0.25000000  0.97693700  0.26855900  1
  O  O35  1  0.75000000  0.02306300  0.73144100  1
