# generated using pymatgen
data_LaTeCl
_symmetry_space_group_name_H-M   'P 1'
_cell_length_a   4.53333700
_cell_length_b   8.00574400
_cell_length_c   9.45472500
_cell_angle_alpha   90.00000000
_cell_angle_beta   90.00000000
_cell_angle_gamma   90.00000000
_symmetry_Int_Tables_number   1
_chemical_formula_structural   LaTeCl
_chemical_formula_sum   'La4 Te4 Cl4'
_cell_volume   343.13783353
_cell_formula_units_Z   4
loop_
 _symmetry_equiv_pos_site_id
 _symmetry_equiv_pos_as_xyz
  1  'x, y, z'
loop_
 _atom_site_type_symbol
 _atom_site_label
 _atom_site_symmetry_multiplicity
 _atom_site_fract_x
 _atom_site_fract_y
 _atom_site_fract_z
 _atom_site_occupancy
  La  La0  1  0.25000000  0.23839500  0.63157600  1
  La  La1  1  0.25000000  0.73839500  0.86842400  1
  La  La2  1  0.75000000  0.76160500  0.36842400  1
  La  La3  1  0.75000000  0.26160500  0.13157600  1
  Te  Te4  1  0.25000000  0.46170500  0.33181900  1
  Te  Te5  1  0.25000000  0.96170500  0.16818100  1
  Te  Te6  1  0.75000000  0.53829500  0.66818100  1
  Te  Te7  1  0.75000000  0.03829500  0.83181900  1
  Cl  Cl8  1  0.25000000  0.86501700  0.56036200  1
  Cl  Cl9  1  0.25000000  0.36501700  0.93963800  1
  Cl  Cl10  1  0.75000000  0.13498300  0.43963800  1
  Cl  Cl11  1  0.75000000  0.63498300  0.06036200  1
