# generated using pymatgen
data_Tm4BClO7
_symmetry_space_group_name_H-M   'P 1'
_cell_length_a   7.95710800
_cell_length_b   8.49083100
_cell_length_c   12.08064591
_cell_angle_alpha   60.69856484
_cell_angle_beta   90.00000000
_cell_angle_gamma   90.00000000
_symmetry_Int_Tables_number   1
_chemical_formula_structural   Tm4BClO7
_chemical_formula_sum   'Tm16 B4 Cl4 O28'
_cell_volume   711.77131923
_cell_formula_units_Z   4
loop_
 _symmetry_equiv_pos_site_id
 _symmetry_equiv_pos_as_xyz
  1  'x, y, z'
loop_
 _atom_site_type_symbol
 _atom_site_label
 _atom_site_symmetry_multiplicity
 _atom_site_fract_x
 _atom_site_fract_y
 _atom_site_fract_z
 _atom_site_occupancy
  Tm  Tm0  1  0.62469600  0.79583700  0.22240000  1
  Tm  Tm1  1  0.87530400  0.79583700  0.72240000  1
  Tm  Tm2  1  0.37530400  0.20416300  0.77760000  1
  Tm  Tm3  1  0.12469600  0.20416300  0.27760000  1
  Tm  Tm4  1  0.61738900  0.42629300  0.90779900  1
  Tm  Tm5  1  0.88261100  0.42629300  0.40779900  1
  Tm  Tm6  1  0.38261100  0.57370700  0.09220100  1
  Tm  Tm7  1  0.11738900  0.57370700  0.59220100  1
  Tm  Tm8  1  0.63930300  0.56771400  0.58179900  1
  Tm  Tm9  1  0.86069700  0.56771400  0.08179900  1
  Tm  Tm10  1  0.36069700  0.43228600  0.41820100  1
  Tm  Tm11  1  0.13930300  0.43228600  0.91820100  1
  Tm  Tm12  1  0.61473900  0.18271900  0.27829300  1
  Tm  Tm13  1  0.88526100  0.18271900  0.77829300  1
  Tm  Tm14  1  0.38526100  0.81728100  0.72170700  1
  Tm  Tm15  1  0.11473900  0.81728100  0.22170700  1
  B  B16  1  0.86936700  0.86980200  0.41389000  1
  B  B17  1  0.63063300  0.86980200  0.91389000  1
  B  B18  1  0.13063300  0.13019800  0.58611000  1
  B  B19  1  0.36936700  0.13019800  0.08611000  1
  Cl  Cl20  1  0.84841400  0.11935100  0.03065000  1
  Cl  Cl21  1  0.65158600  0.11935100  0.53065000  1
  Cl  Cl22  1  0.15158600  0.88064900  0.96935000  1
  Cl  Cl23  1  0.34841400  0.88064900  0.46935000  1
  O  O24  1  0.62243000  0.54004400  0.40283500  1
  O  O25  1  0.87757000  0.54004400  0.90283500  1
  O  O26  1  0.37757000  0.45995600  0.59716500  1
  O  O27  1  0.12243000  0.45995600  0.09716500  1
  O  O28  1  0.63727300  0.31061700  0.77294600  1
  O  O29  1  0.86272700  0.31061700  0.27294600  1
  O  O30  1  0.36272700  0.68938300  0.22705400  1
  O  O31  1  0.13727300  0.68938300  0.72705400  1
  O  O32  1  0.61712500  0.67981000  0.71756300  1
  O  O33  1  0.88287500  0.67981000  0.21756300  1
  O  O34  1  0.38287500  0.32019000  0.28243700  1
  O  O35  1  0.11712500  0.32019000  0.78243700  1
  O  O36  1  0.62113900  0.42546200  0.09265200  1
  O  O37  1  0.87886100  0.42546200  0.59265200  1
  O  O38  1  0.37886100  0.57453800  0.90734800  1
  O  O39  1  0.12113900  0.57453800  0.40734800  1
  O  O40  1  0.89080200  0.77192100  0.54417900  1
  O  O41  1  0.60919800  0.77192100  0.04417900  1
  O  O42  1  0.10919800  0.22807900  0.45582100  1
  O  O43  1  0.39080200  0.22807900  0.95582100  1
  O  O44  1  0.00442500  0.93912400  0.33331100  1
  O  O45  1  0.49557500  0.93912400  0.83331100  1
  O  O46  1  0.99557500  0.06087600  0.66668900  1
  O  O47  1  0.50442500  0.06087600  0.16668900  1
  O  O48  1  0.70898400  0.88673000  0.36594000  1
  O  O49  1  0.79101600  0.88673000  0.86594000  1
  O  O50  1  0.29101600  0.11327000  0.63406000  1
  O  O51  1  0.20898400  0.11327000  0.13406000  1
