# generated using pymatgen
data_Nd2SiSeO4
_symmetry_space_group_name_H-M   'P 1'
_cell_length_a   6.25120900
_cell_length_b   7.23959000
_cell_length_c   11.12860500
_cell_angle_alpha   90.00000000
_cell_angle_beta   90.00000000
_cell_angle_gamma   90.00000000
_symmetry_Int_Tables_number   1
_chemical_formula_structural   Nd2SiSeO4
_chemical_formula_sum   'Nd8 Si4 Se4 O16'
_cell_volume   503.63826414
_cell_formula_units_Z   4
loop_
 _symmetry_equiv_pos_site_id
 _symmetry_equiv_pos_as_xyz
  1  'x, y, z'
loop_
 _atom_site_type_symbol
 _atom_site_label
 _atom_site_symmetry_multiplicity
 _atom_site_fract_x
 _atom_site_fract_y
 _atom_site_fract_z
 _atom_site_occupancy
  Nd  Nd0  1  0.60947900  0.25000000  0.50000000  1
  Nd  Nd1  1  0.60947900  0.25000000  0.00000000  1
  Nd  Nd2  1  0.39052100  0.75000000  0.50000000  1
  Nd  Nd3  1  0.39052100  0.75000000  0.00000000  1
  Nd  Nd4  1  0.86939300  0.53470800  0.75000000  1
  Nd  Nd5  1  0.86939300  0.96529200  0.25000000  1
  Nd  Nd6  1  0.13060700  0.03470800  0.75000000  1
  Nd  Nd7  1  0.13060700  0.46529200  0.25000000  1
  Si  Si8  1  0.11428000  0.25000000  0.50000000  1
  Si  Si9  1  0.88572000  0.75000000  0.50000000  1
  Si  Si10  1  0.88572000  0.75000000  0.00000000  1
  Si  Si11  1  0.11428000  0.25000000  0.00000000  1
  Se  Se12  1  0.57338200  0.88351700  0.75000000  1
  Se  Se13  1  0.57338200  0.61648300  0.25000000  1
  Se  Se14  1  0.42661800  0.38351700  0.75000000  1
  Se  Se15  1  0.42661800  0.11648300  0.25000000  1
  O  O16  1  0.27196900  0.42542200  0.03218500  1
  O  O17  1  0.27196900  0.07457800  0.96781500  1
  O  O18  1  0.72803100  0.92542200  0.46781500  1
  O  O19  1  0.72803100  0.57457800  0.53218500  1
  O  O20  1  0.72803100  0.57457800  0.96781500  1
  O  O21  1  0.72803100  0.92542200  0.03218500  1
  O  O22  1  0.27196900  0.07457800  0.53218500  1
  O  O23  1  0.27196900  0.42542200  0.46781500  1
  O  O24  1  0.04714400  0.73445600  0.11765600  1
  O  O25  1  0.04714400  0.73445600  0.38234400  1
  O  O26  1  0.95285600  0.23445600  0.38234400  1
  O  O27  1  0.95285600  0.26554400  0.61765600  1
  O  O28  1  0.95285600  0.26554400  0.88234400  1
  O  O29  1  0.95285600  0.23445600  0.11765600  1
  O  O30  1  0.04714400  0.76554400  0.61765600  1
  O  O31  1  0.04714400  0.76554400  0.88234400  1
