# generated using pymatgen
data_SiSnPt5
_symmetry_space_group_name_H-M   'P 1'
_cell_length_a   4.01764400
_cell_length_b   4.01764400
_cell_length_c   7.10883000
_cell_angle_alpha   90.00000000
_cell_angle_beta   90.00000000
_cell_angle_gamma   90.00000000
_symmetry_Int_Tables_number   1
_chemical_formula_structural   SiSnPt5
_chemical_formula_sum   'Si1 Sn1 Pt5'
_cell_volume   114.74691863
_cell_formula_units_Z   1
loop_
 _symmetry_equiv_pos_site_id
 _symmetry_equiv_pos_as_xyz
  1  'x, y, z'
loop_
 _atom_site_type_symbol
 _atom_site_label
 _atom_site_symmetry_multiplicity
 _atom_site_fract_x
 _atom_site_fract_y
 _atom_site_fract_z
 _atom_site_occupancy
  Si  Si0  1  0.00000000  0.00000000  0.50000000  1
  Sn  Sn1  1  0.50000000  0.50000000  0.00000000  1
  Pt  Pt2  1  0.00000000  0.50000000  0.29598900  1
  Pt  Pt3  1  0.00000000  0.50000000  0.70401100  1
  Pt  Pt4  1  0.50000000  0.00000000  0.29598900  1
  Pt  Pt5  1  0.50000000  0.00000000  0.70401100  1
  Pt  Pt6  1  0.00000000  0.00000000  0.00000000  1
