# generated using pymatgen
data_Ba3Sr9Al4(O4F)4
_symmetry_space_group_name_H-M   'P 1'
_cell_length_a   6.95229900
_cell_length_b   6.95229900
_cell_length_c   11.29053200
_cell_angle_alpha   90.00000000
_cell_angle_beta   90.00000000
_cell_angle_gamma   90.00000000
_symmetry_Int_Tables_number   1
_chemical_formula_structural   Ba3Sr9Al4(O4F)4
_chemical_formula_sum   'Ba3 Sr9 Al4 O16 F4'
_cell_volume   545.72178297
_cell_formula_units_Z   1
loop_
 _symmetry_equiv_pos_site_id
 _symmetry_equiv_pos_as_xyz
  1  'x, y, z'
loop_
 _atom_site_type_symbol
 _atom_site_label
 _atom_site_symmetry_multiplicity
 _atom_site_fract_x
 _atom_site_fract_y
 _atom_site_fract_z
 _atom_site_occupancy
  Ba  Ba0  1  0.00000000  0.00000000  0.50000000  1
  Ba  Ba1  1  0.00000000  0.00000000  0.00000000  1
  Ba  Ba2  1  0.50000000  0.50000000  0.50000000  1
  Sr  Sr3  1  0.66900700  0.17015700  0.75053200  1
  Sr  Sr4  1  0.17015700  0.66900700  0.24946800  1
  Sr  Sr5  1  0.82984300  0.33099300  0.24946800  1
  Sr  Sr6  1  0.33099300  0.82984300  0.75053200  1
  Sr  Sr7  1  0.33099300  0.17015700  0.24946800  1
  Sr  Sr8  1  0.82984300  0.66900700  0.75053200  1
  Sr  Sr9  1  0.66900700  0.82984300  0.24946800  1
  Sr  Sr10  1  0.17015700  0.33099300  0.75053200  1
  Sr  Sr11  1  0.50000000  0.50000000  0.00000000  1
  Al  Al12  1  0.00000000  0.50000000  0.00000000  1
  Al  Al13  1  0.50000000  0.00000000  0.50000000  1
  Al  Al14  1  0.50000000  0.00000000  0.00000000  1
  Al  Al15  1  0.00000000  0.50000000  0.50000000  1
  O  O16  1  0.63650100  0.14134600  0.10287000  1
  O  O17  1  0.13827800  0.63795100  0.60373500  1
  O  O18  1  0.36349900  0.85865400  0.10287000  1
  O  O19  1  0.86172200  0.36204900  0.60373500  1
  O  O20  1  0.85865400  0.63650100  0.10287000  1
  O  O21  1  0.36204900  0.13827800  0.60373500  1
  O  O22  1  0.14134600  0.36349900  0.10287000  1
  O  O23  1  0.63795100  0.86172200  0.60373500  1
  O  O24  1  0.85865400  0.36349900  0.89713000  1
  O  O25  1  0.36204900  0.86172200  0.39626500  1
  O  O26  1  0.14134600  0.63650100  0.89713000  1
  O  O27  1  0.63795100  0.13827800  0.39626500  1
  O  O28  1  0.63650100  0.85865400  0.89713000  1
  O  O29  1  0.13827800  0.36204900  0.39626500  1
  O  O30  1  0.36349900  0.14134600  0.89713000  1
  O  O31  1  0.86172200  0.63795100  0.39626500  1
  F  F32  1  0.00000000  0.00000000  0.75029500  1
  F  F33  1  0.50000000  0.50000000  0.24672300  1
  F  F34  1  0.00000000  0.00000000  0.24970500  1
  F  F35  1  0.50000000  0.50000000  0.75327700  1
