# generated using pymatgen
data_Er10NiSb5
_symmetry_space_group_name_H-M   'P 1'
_cell_length_a   7.89565900
_cell_length_b   9.16579000
_cell_length_c   11.79633300
_cell_angle_alpha   90.00000000
_cell_angle_beta   90.00000000
_cell_angle_gamma   90.00000000
_symmetry_Int_Tables_number   1
_chemical_formula_structural   Er10NiSb5
_chemical_formula_sum   'Er20 Ni2 Sb10'
_cell_volume   853.70005659
_cell_formula_units_Z   2
loop_
 _symmetry_equiv_pos_site_id
 _symmetry_equiv_pos_as_xyz
  1  'x, y, z'
loop_
 _atom_site_type_symbol
 _atom_site_label
 _atom_site_symmetry_multiplicity
 _atom_site_fract_x
 _atom_site_fract_y
 _atom_site_fract_z
 _atom_site_occupancy
  Er  Er0  1  0.43096400  0.18268000  0.56460500  1
  Er  Er1  1  0.56903600  0.81732000  0.06460500  1
  Er  Er2  1  0.06635400  0.71981600  0.43458100  1
  Er  Er3  1  0.93364600  0.28018400  0.93458100  1
  Er  Er4  1  0.06635400  0.28018400  0.43458100  1
  Er  Er5  1  0.93364600  0.71981600  0.93458100  1
  Er  Er6  1  0.43096400  0.81732000  0.56460500  1
  Er  Er7  1  0.56903600  0.18268000  0.06460500  1
  Er  Er8  1  0.57436300  0.50000000  0.77458100  1
  Er  Er9  1  0.42563700  0.50000000  0.27458100  1
  Er  Er10  1  0.91160400  0.00000000  0.20662300  1
  Er  Er11  1  0.08839600  0.00000000  0.70662300  1
  Er  Er12  1  0.26833800  0.50000000  0.99506000  1
  Er  Er13  1  0.73166200  0.50000000  0.49506000  1
  Er  Er14  1  0.20475000  0.00000000  0.99999600  1
  Er  Er15  1  0.79525000  0.00000000  0.49999600  1
  Er  Er16  1  0.09273000  0.50000000  0.71460500  1
  Er  Er17  1  0.90727000  0.50000000  0.21460500  1
  Er  Er18  1  0.38137100  0.00000000  0.30232300  1
  Er  Er19  1  0.61862900  0.00000000  0.80232300  1
  Ni  Ni20  1  0.16390700  0.00000000  0.48423100  1
  Ni  Ni21  1  0.83609300  0.00000000  0.98423100  1
  Sb  Sb22  1  0.81478000  0.74074600  0.67301100  1
  Sb  Sb23  1  0.18522000  0.25925400  0.17301100  1
  Sb  Sb24  1  0.68223400  0.24217000  0.32627100  1
  Sb  Sb25  1  0.31776600  0.75783000  0.82627100  1
  Sb  Sb26  1  0.68223400  0.75783000  0.32627100  1
  Sb  Sb27  1  0.31776600  0.24217000  0.82627100  1
  Sb  Sb28  1  0.81478000  0.25925400  0.67301100  1
  Sb  Sb29  1  0.18522000  0.74074600  0.17301100  1
  Sb  Sb30  1  0.34311900  0.50000000  0.52564500  1
  Sb  Sb31  1  0.65688100  0.50000000  0.02564500  1
