# generated using pymatgen
data_Zn35Cu17
_symmetry_space_group_name_H-M   'P 1'
_cell_length_a   7.68558200
_cell_length_b   7.68794532
_cell_length_c   12.62371374
_cell_angle_alpha   89.93724365
_cell_angle_beta   89.92580970
_cell_angle_gamma   70.68331851
_symmetry_Int_Tables_number   1
_chemical_formula_structural   Zn35Cu17
_chemical_formula_sum   'Zn35 Cu17'
_cell_volume   703.89814631
_cell_formula_units_Z   1
loop_
 _symmetry_equiv_pos_site_id
 _symmetry_equiv_pos_as_xyz
  1  'x, y, z'
loop_
 _atom_site_type_symbol
 _atom_site_label
 _atom_site_symmetry_multiplicity
 _atom_site_fract_x
 _atom_site_fract_y
 _atom_site_fract_z
 _atom_site_occupancy
  Zn  Zn0  1  0.21598700  0.00011900  0.99943400  1
  Zn  Zn1  1  0.71694700  0.49942700  0.50036300  1
  Zn  Zn2  1  0.49995700  0.28396600  0.50050300  1
  Zn  Zn3  1  0.00257800  0.78241600  0.99754000  1
  Zn  Zn4  1  0.89464400  0.10528400  0.88983900  1
  Zn  Zn5  1  0.39540800  0.60495300  0.39084300  1
  Zn  Zn6  1  0.39485500  0.60524000  0.60982800  1
  Zn  Zn7  1  0.89578400  0.10837800  0.10891400  1
  Zn  Zn8  1  0.34473400  0.27332900  0.99927300  1
  Zn  Zn9  1  0.84463400  0.77360300  0.50036300  1
  Zn  Zn10  1  0.48634100  0.86240600  0.86149900  1
  Zn  Zn11  1  0.98654400  0.36243300  0.36239100  1
  Zn  Zn12  1  0.98659200  0.36213900  0.63802600  1
  Zn  Zn13  1  0.48143600  0.86322100  0.13706100  1
  Zn  Zn14  1  0.22629600  0.15551300  0.50027700  1
  Zn  Zn15  1  0.72542600  0.65401900  0.99769500  1
  Zn  Zn16  1  0.63770800  0.01349300  0.63805800  1
  Zn  Zn17  1  0.14120300  0.51063500  0.13767600  1
  Zn  Zn18  1  0.13814900  0.51294500  0.86128700  1
  Zn  Zn19  1  0.63609100  0.01566900  0.36406700  1
  Zn  Zn20  1  0.96261500  0.03754800  0.68936600  1
  Zn  Zn21  1  0.46244900  0.53798400  0.18966700  1
  Zn  Zn22  1  0.82787300  0.45040800  0.82372300  1
  Zn  Zn23  1  0.32755700  0.95105000  0.32438700  1
  Zn  Zn24  1  0.54876300  0.17248600  0.82369300  1
  Zn  Zn25  1  0.05336400  0.67019200  0.32665600  1
  Zn  Zn26  1  0.46242100  0.53747200  0.81030400  1
  Zn  Zn27  1  0.96418400  0.03966300  0.31191800  1
  Zn  Zn28  1  0.04897900  0.67250700  0.67569800  1
  Zn  Zn29  1  0.54642400  0.17572000  0.17571900  1
  Zn  Zn30  1  0.32764800  0.95131100  0.67574600  1
  Zn  Zn31  1  0.82778200  0.44761100  0.17578500  1
  Zn  Zn32  1  0.82014200  0.81991400  0.17969600  1
  Zn  Zn33  1  0.64033600  0.35930800  0.99973100  1
  Zn  Zn34  1  0.14051900  0.85950200  0.50033500  1
  Cu  Cu35  1  0.67879400  0.67871300  0.67828000  1
  Cu  Cu36  1  0.17890400  0.17837100  0.17844000  1
  Cu  Cu37  1  0.17864600  0.17890000  0.82174600  1
  Cu  Cu38  1  0.67873600  0.67839700  0.32197300  1
  Cu  Cu39  1  0.35685200  0.64339400  0.00011200  1
  Cu  Cu40  1  0.85644500  0.14342700  0.50001900  1
  Cu  Cu41  1  0.82097700  0.82141300  0.82190000  1
  Cu  Cu42  1  0.32112900  0.32125600  0.32175100  1
  Cu  Cu43  1  0.32117900  0.32124300  0.67836400  1
  Cu  Cu44  1  0.65536800  0.00134200  0.00019100  1
  Cu  Cu45  1  0.15562100  0.50110600  0.50040100  1
  Cu  Cu46  1  0.99862900  0.34525900  0.99987300  1
  Cu  Cu47  1  0.49843600  0.84458500  0.49988900  1
  Cu  Cu48  1  0.67225600  0.32771500  0.67201000  1
  Cu  Cu49  1  0.17083000  0.82767000  0.17209900  1
  Cu  Cu50  1  0.17269600  0.82750000  0.82769200  1
  Cu  Cu51  1  0.67213600  0.32784400  0.32789900  1
