# generated using pymatgen
data_Ca5P3H
_symmetry_space_group_name_H-M   'P 1'
_cell_length_a   6.55966000
_cell_length_b   8.27064107
_cell_length_c   8.27064107
_cell_angle_alpha   119.99999253
_cell_angle_beta   90.00000000
_cell_angle_gamma   90.00000000
_symmetry_Int_Tables_number   1
_chemical_formula_structural   Ca5P3H
_chemical_formula_sum   'Ca10 P6 H2'
_cell_volume   388.58885540
_cell_formula_units_Z   2
loop_
 _symmetry_equiv_pos_site_id
 _symmetry_equiv_pos_as_xyz
  1  'x, y, z'
loop_
 _atom_site_type_symbol
 _atom_site_label
 _atom_site_symmetry_multiplicity
 _atom_site_fract_x
 _atom_site_fract_y
 _atom_site_fract_z
 _atom_site_occupancy
  Ca  Ca0  1  0.50000000  0.33333300  0.66666700  1
  Ca  Ca1  1  0.50000000  0.66666600  0.33333300  1
  Ca  Ca2  1  0.00000000  0.66666700  0.33333300  1
  Ca  Ca3  1  0.00000000  0.33333400  0.66666700  1
  Ca  Ca4  1  0.75000000  0.24893000  0.00000000  1
  Ca  Ca5  1  0.75000000  0.75107000  0.75107000  1
  Ca  Ca6  1  0.75000000  0.00000000  0.24893000  1
  Ca  Ca7  1  0.25000000  0.75107000  0.00000000  1
  Ca  Ca8  1  0.25000000  0.24893000  0.24893000  1
  Ca  Ca9  1  0.25000000  0.00000000  0.75107000  1
  P  P10  1  0.75000000  0.60908900  0.00000000  1
  P  P11  1  0.75000000  0.39091100  0.39091100  1
  P  P12  1  0.75000000  0.00000000  0.60908900  1
  P  P13  1  0.25000000  0.39091100  0.00000000  1
  P  P14  1  0.25000000  0.60908900  0.60908900  1
  P  P15  1  0.25000000  0.00000000  0.39091100  1
  H  H16  1  0.50000000  0.00000000  0.00000000  1
  H  H17  1  0.00000000  0.00000000  0.00000000  1
