# generated using pymatgen
data_Na5SiAs3
_symmetry_space_group_name_H-M   'P 1'
_cell_length_a   7.57475800
_cell_length_b   8.26063700
_cell_length_c   15.79008274
_cell_angle_alpha   58.91957611
_cell_angle_beta   90.00000000
_cell_angle_gamma   90.00000000
_symmetry_Int_Tables_number   1
_chemical_formula_structural   Na5SiAs3
_chemical_formula_sum   'Na20 Si4 As12'
_cell_volume   846.18521492
_cell_formula_units_Z   4
loop_
 _symmetry_equiv_pos_site_id
 _symmetry_equiv_pos_as_xyz
  1  'x, y, z'
loop_
 _atom_site_type_symbol
 _atom_site_label
 _atom_site_symmetry_multiplicity
 _atom_site_fract_x
 _atom_site_fract_y
 _atom_site_fract_z
 _atom_site_occupancy
  Na  Na0  1  0.50597300  0.56078900  0.75666900  1
  Na  Na1  1  0.00597300  0.43921100  0.74333100  1
  Na  Na2  1  0.49402700  0.43921100  0.24333100  1
  Na  Na3  1  0.99402700  0.56078900  0.25666900  1
  Na  Na4  1  0.96737700  0.25165300  0.58361700  1
  Na  Na5  1  0.46737700  0.74834700  0.91638300  1
  Na  Na6  1  0.03262300  0.74834700  0.41638300  1
  Na  Na7  1  0.53262300  0.25165300  0.08361700  1
  Na  Na8  1  0.48200700  0.08811000  0.58656700  1
  Na  Na9  1  0.98200700  0.91189000  0.91343300  1
  Na  Na10  1  0.51799300  0.91189000  0.41343300  1
  Na  Na11  1  0.01799300  0.08811000  0.08656700  1
  Na  Na12  1  0.33706200  0.15803400  0.91871900  1
  Na  Na13  1  0.83706200  0.84196600  0.58128100  1
  Na  Na14  1  0.66293800  0.84196600  0.08128100  1
  Na  Na15  1  0.16293800  0.15803400  0.41871900  1
  Na  Na16  1  0.15035900  0.83373200  0.74152100  1
  Na  Na17  1  0.65035900  0.16626800  0.75847900  1
  Na  Na18  1  0.84964100  0.16626800  0.25847900  1
  Na  Na19  1  0.34964100  0.83373200  0.24152100  1
  Si  Si20  1  0.14037400  0.48570100  0.08464500  1
  Si  Si21  1  0.64037400  0.51429900  0.41535500  1
  Si  Si22  1  0.85962600  0.51429900  0.91535500  1
  Si  Si23  1  0.35962600  0.48570100  0.58464500  1
  As  As24  1  0.23831100  0.75956900  0.58021900  1
  As  As25  1  0.73831100  0.24043100  0.91978100  1
  As  As26  1  0.76168900  0.24043100  0.41978100  1
  As  As27  1  0.26168900  0.75956900  0.08021900  1
  As  As28  1  0.26529300  0.19309100  0.72417000  1
  As  As29  1  0.76529300  0.80690900  0.77583000  1
  As  As30  1  0.73470700  0.80690900  0.27583000  1
  As  As31  1  0.23470700  0.19309100  0.22417000  1
  As  As32  1  0.18339800  0.47722700  0.93379200  1
  As  As33  1  0.68339800  0.52277300  0.56620800  1
  As  As34  1  0.81660200  0.52277300  0.06620800  1
  As  As35  1  0.31660200  0.47722700  0.43379200  1
