# generated using pymatgen
data_La4SiI5
_symmetry_space_group_name_H-M   'P 1'
_cell_length_a   10.25712596
_cell_length_b   10.25712596
_cell_length_c   9.23978588
_cell_angle_alpha   77.77987887
_cell_angle_beta   77.77987887
_cell_angle_gamma   25.00041902
_symmetry_Int_Tables_number   1
_chemical_formula_structural   La4SiI5
_chemical_formula_sum   'La4 Si1 I5'
_cell_volume   401.06389138
_cell_formula_units_Z   1
loop_
 _symmetry_equiv_pos_site_id
 _symmetry_equiv_pos_as_xyz
  1  'x, y, z'
loop_
 _atom_site_type_symbol
 _atom_site_label
 _atom_site_symmetry_multiplicity
 _atom_site_fract_x
 _atom_site_fract_y
 _atom_site_fract_z
 _atom_site_occupancy
  La  La0  1  0.85262100  0.85262100  0.07660000  1
  La  La1  1  0.14737900  0.14737900  0.92340000  1
  La  La2  1  0.50144400  0.50144400  0.21271700  1
  La  La3  1  0.49855600  0.49855600  0.78728300  1
  Si  Si4  1  0.00000000  0.00000000  0.00000000  1
  I  I5  1  0.67226000  0.67226000  0.16934600  1
  I  I6  1  0.32774000  0.32774000  0.83065400  1
  I  I7  1  0.66515500  0.66515500  0.66269200  1
  I  I8  1  0.33484500  0.33484500  0.33730800  1
  I  I9  1  0.00000000  0.00000000  0.50000000  1
