# generated using pymatgen
data_Rb2Cr(BrCl)2
_symmetry_space_group_name_H-M   'P 1'
_cell_length_a   9.28920081
_cell_length_b   9.28920081
_cell_length_c   7.24652400
_cell_angle_alpha   90.00000000
_cell_angle_beta   90.00000000
_cell_angle_gamma   133.99802888
_symmetry_Int_Tables_number   1
_chemical_formula_structural   Rb2Cr(BrCl)2
_chemical_formula_sum   'Rb4 Cr2 Br4 Cl4'
_cell_volume   449.81605852
_cell_formula_units_Z   2
loop_
 _symmetry_equiv_pos_site_id
 _symmetry_equiv_pos_as_xyz
  1  'x, y, z'
loop_
 _atom_site_type_symbol
 _atom_site_label
 _atom_site_symmetry_multiplicity
 _atom_site_fract_x
 _atom_site_fract_y
 _atom_site_fract_z
 _atom_site_occupancy
  Rb  Rb0  1  0.13521100  0.86478900  0.50000000  1
  Rb  Rb1  1  0.63521100  0.36478900  0.00000000  1
  Rb  Rb2  1  0.86478900  0.13521100  0.50000000  1
  Rb  Rb3  1  0.36478900  0.63521100  0.00000000  1
  Cr  Cr4  1  0.50000000  0.50000000  0.50000000  1
  Cr  Cr5  1  0.00000000  0.00000000  0.00000000  1
  Br  Br6  1  0.34688800  0.65311200  0.50000000  1
  Br  Br7  1  0.84688800  0.15311200  0.00000000  1
  Br  Br8  1  0.65311200  0.34688800  0.50000000  1
  Br  Br9  1  0.15311200  0.84688800  0.00000000  1
  Cl  Cl10  1  0.26052500  0.26052500  0.25966500  1
  Cl  Cl11  1  0.73947500  0.73947500  0.74033500  1
  Cl  Cl12  1  0.23947500  0.23947500  0.75966500  1
  Cl  Cl13  1  0.76052500  0.76052500  0.24033500  1
