# generated using pymatgen
data_Ba2Ag8S7
_symmetry_space_group_name_H-M   'P 1'
_cell_length_a   4.43961000
_cell_length_b   10.99393600
_cell_length_c   16.15018600
_cell_angle_alpha   90.00000000
_cell_angle_beta   90.00000000
_cell_angle_gamma   90.00000000
_symmetry_Int_Tables_number   1
_chemical_formula_structural   Ba2Ag8S7
_chemical_formula_sum   'Ba4 Ag16 S14'
_cell_volume   788.27100794
_cell_formula_units_Z   2
loop_
 _symmetry_equiv_pos_site_id
 _symmetry_equiv_pos_as_xyz
  1  'x, y, z'
loop_
 _atom_site_type_symbol
 _atom_site_label
 _atom_site_symmetry_multiplicity
 _atom_site_fract_x
 _atom_site_fract_y
 _atom_site_fract_z
 _atom_site_occupancy
  Ba  Ba0  1  0.25729900  0.87713300  0.36306900  1
  Ba  Ba1  1  0.25729900  0.87713300  0.63693100  1
  Ba  Ba2  1  0.75729900  0.12286700  0.13693100  1
  Ba  Ba3  1  0.75729900  0.12286700  0.86306900  1
  Ag  Ag4  1  0.75283500  0.47877000  0.39518300  1
  Ag  Ag5  1  0.75283500  0.47877000  0.60481700  1
  Ag  Ag6  1  0.25283500  0.52123000  0.10481700  1
  Ag  Ag7  1  0.25283500  0.52123000  0.89518300  1
  Ag  Ag8  1  0.76621000  0.19669300  0.35604100  1
  Ag  Ag9  1  0.76621000  0.19669300  0.64395900  1
  Ag  Ag10  1  0.26621000  0.80330700  0.14395900  1
  Ag  Ag11  1  0.26621000  0.80330700  0.85604100  1
  Ag  Ag12  1  0.25577500  0.36830600  0.29018000  1
  Ag  Ag13  1  0.25577500  0.36830600  0.70982000  1
  Ag  Ag14  1  0.75577500  0.63169400  0.20982000  1
  Ag  Ag15  1  0.75577500  0.63169400  0.79018000  1
  Ag  Ag16  1  0.24781000  0.57760100  0.50000000  1
  Ag  Ag17  1  0.74781000  0.42239900  0.00000000  1
  Ag  Ag18  1  0.17222500  0.18766300  0.50000000  1
  Ag  Ag19  1  0.67222500  0.81233700  0.00000000  1
  S  S20  1  0.24384800  0.57698200  0.34808000  1
  S  S21  1  0.24384800  0.57698200  0.65192000  1
  S  S22  1  0.74384800  0.42301800  0.15192000  1
  S  S23  1  0.74384800  0.42301800  0.84808000  1
  S  S24  1  0.76246000  0.79909100  0.50000000  1
  S  S25  1  0.26246000  0.20090900  0.00000000  1
  S  S26  1  0.75671700  0.99556100  0.50000000  1
  S  S27  1  0.25671700  0.00443900  0.00000000  1
  S  S28  1  0.25783500  0.14572900  0.27865100  1
  S  S29  1  0.25783500  0.14572900  0.72134900  1
  S  S30  1  0.75783500  0.85427100  0.22134900  1
  S  S31  1  0.75783500  0.85427100  0.77865100  1
  S  S32  1  0.66018300  0.29904700  0.50000000  1
  S  S33  1  0.16018300  0.70095300  0.00000000  1
