# generated using pymatgen
data_Li5AlO4
_symmetry_space_group_name_H-M   'P 1'
_cell_length_a   9.04436900
_cell_length_b   9.17548700
_cell_length_c   9.21314000
_cell_angle_alpha   90.00000000
_cell_angle_beta   90.00000000
_cell_angle_gamma   90.00000000
_symmetry_Int_Tables_number   1
_chemical_formula_structural   Li5AlO4
_chemical_formula_sum   'Li40 Al8 O32'
_cell_volume   764.56615216
_cell_formula_units_Z   8
loop_
 _symmetry_equiv_pos_site_id
 _symmetry_equiv_pos_as_xyz
  1  'x, y, z'
loop_
 _atom_site_type_symbol
 _atom_site_label
 _atom_site_symmetry_multiplicity
 _atom_site_fract_x
 _atom_site_fract_y
 _atom_site_fract_z
 _atom_site_occupancy
  Li  Li0  1  0.86796800  0.14711000  0.62094100  1
  Li  Li1  1  0.36796800  0.85289000  0.87905900  1
  Li  Li2  1  0.63203200  0.64711000  0.37905900  1
  Li  Li3  1  0.13203200  0.35289000  0.12094100  1
  Li  Li4  1  0.13203200  0.85289000  0.37905900  1
  Li  Li5  1  0.63203200  0.14711000  0.12094100  1
  Li  Li6  1  0.36796800  0.35289000  0.62094100  1
  Li  Li7  1  0.86796800  0.64711000  0.87905900  1
  Li  Li8  1  0.83327700  0.10605000  0.88103800  1
  Li  Li9  1  0.33327700  0.89395000  0.61896200  1
  Li  Li10  1  0.66672300  0.60605000  0.11896200  1
  Li  Li11  1  0.16672300  0.39395000  0.38103800  1
  Li  Li12  1  0.16672300  0.89395000  0.11896200  1
  Li  Li13  1  0.66672300  0.10605000  0.38103800  1
  Li  Li14  1  0.33327700  0.39395000  0.88103800  1
  Li  Li15  1  0.83327700  0.60605000  0.61896200  1
  Li  Li16  1  0.90168800  0.12645000  0.14449000  1
  Li  Li17  1  0.40168800  0.87355000  0.35551000  1
  Li  Li18  1  0.59831200  0.62645000  0.85551000  1
  Li  Li19  1  0.86106700  0.88504700  0.39821200  1
  Li  Li20  1  0.09831200  0.87355000  0.85551000  1
  Li  Li21  1  0.59831200  0.12645000  0.64449000  1
  Li  Li22  1  0.40168800  0.37355000  0.14449000  1
  Li  Li23  1  0.90168800  0.62645000  0.35551000  1
  Li  Li24  1  0.89746500  0.38149200  0.84082200  1
  Li  Li25  1  0.39746500  0.61850800  0.65917800  1
  Li  Li26  1  0.60253500  0.88149200  0.15917800  1
  Li  Li27  1  0.10253500  0.11850800  0.34082200  1
  Li  Li28  1  0.10253500  0.61850800  0.15917800  1
  Li  Li29  1  0.60253500  0.38149200  0.34082200  1
  Li  Li30  1  0.39746500  0.11850800  0.84082200  1
  Li  Li31  1  0.89746500  0.88149200  0.65917800  1
  Li  Li32  1  0.86106700  0.38504700  0.10178800  1
  Li  Li33  1  0.36106700  0.61495300  0.39821200  1
  Li  Li34  1  0.63893300  0.88504700  0.89821200  1
  Li  Li35  1  0.13893300  0.11495300  0.60178800  1
  Li  Li36  1  0.13893300  0.61495300  0.89821200  1
  Li  Li37  1  0.63893300  0.38504700  0.60178800  1
  Li  Li38  1  0.36106700  0.11495300  0.10178800  1
  Li  Li39  1  0.09831200  0.37355000  0.64449000  1
  Al  Al40  1  0.88397500  0.35579200  0.37650400  1
  Al  Al41  1  0.38397500  0.64420800  0.12349600  1
  Al  Al42  1  0.61602500  0.85579200  0.62349600  1
  Al  Al43  1  0.11602500  0.14420800  0.87650400  1
  Al  Al44  1  0.11602500  0.64420800  0.62349600  1
  Al  Al45  1  0.61602500  0.35579200  0.87650400  1
  Al  Al46  1  0.38397500  0.14420800  0.37650400  1
  Al  Al47  1  0.88397500  0.85579200  0.12349600  1
  O  O48  1  0.76866700  0.25192200  0.25748400  1
  O  O49  1  0.26866700  0.74807800  0.24251600  1
  O  O50  1  0.73133300  0.75192200  0.74251600  1
  O  O51  1  0.23133300  0.24807800  0.75748400  1
  O  O52  1  0.23133300  0.74807800  0.74251600  1
  O  O53  1  0.73133300  0.25192200  0.75748400  1
  O  O54  1  0.26866700  0.24807800  0.25748400  1
  O  O55  1  0.76866700  0.75192200  0.24251600  1
  O  O56  1  0.76198500  0.48462500  0.46135400  1
  O  O57  1  0.26198500  0.51537500  0.03864600  1
  O  O58  1  0.73801500  0.98462500  0.53864600  1
  O  O59  1  0.23801500  0.01537500  0.96135400  1
  O  O60  1  0.23801500  0.51537500  0.53864600  1
  O  O61  1  0.73801500  0.48462500  0.96135400  1
  O  O62  1  0.26198500  0.01537500  0.46135400  1
  O  O63  1  0.76198500  0.98462500  0.03864600  1
  O  O64  1  0.99918600  0.46225800  0.25742000  1
  O  O65  1  0.49918600  0.53774200  0.24258000  1
  O  O66  1  0.50081400  0.96225800  0.74258000  1
  O  O67  1  0.00081400  0.03774200  0.75742000  1
  O  O68  1  0.00529100  0.75316400  0.01101900  1
  O  O69  1  0.50081400  0.46225800  0.75742000  1
  O  O70  1  0.49918600  0.03774200  0.25742000  1
  O  O71  1  0.99918600  0.96225800  0.24258000  1
  O  O72  1  0.00529100  0.25316400  0.48898100  1
  O  O73  1  0.50529100  0.74683600  0.01101900  1
  O  O74  1  0.49470900  0.75316400  0.51101900  1
  O  O75  1  0.99470900  0.24683600  0.98898100  1
  O  O76  1  0.99470900  0.74683600  0.51101900  1
  O  O77  1  0.49470900  0.25316400  0.98898100  1
  O  O78  1  0.50529100  0.24683600  0.48898100  1
  O  O79  1  0.00081400  0.53774200  0.74258000  1
