# generated using pymatgen
data_Nd(ZnAs)3
_symmetry_space_group_name_H-M   'P 1'
_cell_length_a   4.20050484
_cell_length_b   4.20677248
_cell_length_c   20.63238200
_cell_angle_alpha   90.00000000
_cell_angle_beta   90.00000000
_cell_angle_gamma   60.18725747
_symmetry_Int_Tables_number   1
_chemical_formula_structural   Nd(ZnAs)3
_chemical_formula_sum   'Nd2 Zn6 As6'
_cell_volume   316.33475535
_cell_formula_units_Z   2
loop_
 _symmetry_equiv_pos_site_id
 _symmetry_equiv_pos_as_xyz
  1  'x, y, z'
loop_
 _atom_site_type_symbol
 _atom_site_label
 _atom_site_symmetry_multiplicity
 _atom_site_fract_x
 _atom_site_fract_y
 _atom_site_fract_z
 _atom_site_occupancy
  Nd  Nd0  1  0.99749800  0.00054800  0.50005300  1
  Nd  Nd1  1  0.99749800  0.00054800  0.99994700  1
  Zn  Zn2  1  0.33239800  0.33488100  0.12825500  1
  Zn  Zn3  1  0.66696300  0.66706700  0.87165100  1
  Zn  Zn4  1  0.66696300  0.66706700  0.62834900  1
  Zn  Zn5  1  0.33239800  0.33488100  0.37174500  1
  Zn  Zn6  1  0.27099200  0.36171300  0.75000000  1
  Zn  Zn7  1  0.63807300  0.63685600  0.25000000  1
  As  As8  1  0.33272400  0.33395400  0.58621300  1
  As  As9  1  0.66505000  0.66801500  0.41391900  1
  As  As10  1  0.66505000  0.66801500  0.08608100  1
  As  As11  1  0.33272400  0.33395400  0.91378700  1
  As  As12  1  0.60106000  0.69909100  0.75000000  1
  As  As13  1  0.30140900  0.29850800  0.25000000  1
