# generated using pymatgen
data_NaTc12Br25
_symmetry_space_group_name_H-M   'P 1'
_cell_length_a   9.82883885
_cell_length_b   10.92174204
_cell_length_c   11.58192883
_cell_angle_alpha   84.51130367
_cell_angle_beta   74.25457008
_cell_angle_gamma   87.51665553
_symmetry_Int_Tables_number   1
_chemical_formula_structural   NaTc12Br25
_chemical_formula_sum   'Na1 Tc12 Br25'
_cell_volume   1190.96262395
_cell_formula_units_Z   1
loop_
 _symmetry_equiv_pos_site_id
 _symmetry_equiv_pos_as_xyz
  1  'x, y, z'
loop_
 _atom_site_type_symbol
 _atom_site_label
 _atom_site_symmetry_multiplicity
 _atom_site_fract_x
 _atom_site_fract_y
 _atom_site_fract_z
 _atom_site_occupancy
  Na  Na0  1  0.50000000  0.00000000  0.00000000  1
  Tc  Tc1  1  0.82790500  0.25297600  0.12348700  1
  Tc  Tc2  1  0.17209500  0.74702400  0.87651300  1
  Tc  Tc3  1  0.75379900  0.12021300  0.28030700  1
  Tc  Tc4  1  0.24620100  0.87978700  0.71969300  1
  Tc  Tc5  1  0.06657300  0.27336400  0.19344000  1
  Tc  Tc6  1  0.93342700  0.72663600  0.80656000  1
  Tc  Tc7  1  0.84434500  0.42780300  0.26784200  1
  Tc  Tc8  1  0.15565500  0.57219700  0.73215800  1
  Tc  Tc9  1  0.76753500  0.29668500  0.42734700  1
  Tc  Tc10  1  0.23246500  0.70331500  0.57265300  1
  Tc  Tc11  1  0.98975400  0.14287500  0.35314400  1
  Tc  Tc12  1  0.01024600  0.85712500  0.64685600  1
  Br  Br13  1  0.94381300  0.95835300  0.25886300  1
  Br  Br14  1  0.05618700  0.04164700  0.74113700  1
  Br  Br15  1  0.96806000  0.27699600  0.52097000  1
  Br  Br16  1  0.03194000  0.72300400  0.47903000  1
  Br  Br17  1  0.64574800  0.42227600  0.16977500  1
  Br  Br18  1  0.35425200  0.57772400  0.83022500  1
  Br  Br19  1  0.08874100  0.46797400  0.28249300  1
  Br  Br20  1  0.91125900  0.53202600  0.71750700  1
  Br  Br21  1  0.00000000  0.50000000  0.00000000  1
  Br  Br22  1  0.59818600  0.96334800  0.23403200  1
  Br  Br23  1  0.40181400  0.03665200  0.76596800  1
  Br  Br24  1  0.19840800  0.03054900  0.40863300  1
  Br  Br25  1  0.80159200  0.96945100  0.59136700  1
  Br  Br26  1  0.54045900  0.21796600  0.40957200  1
  Br  Br27  1  0.45954100  0.78203400  0.59042800  1
  Br  Br28  1  0.06064000  0.15884100  0.01967900  1
  Br  Br29  1  0.93936000  0.84115900  0.98032100  1
  Br  Br30  1  0.77258100  0.64253700  0.31692500  1
  Br  Br31  1  0.22741900  0.35746300  0.68307500  1
  Br  Br32  1  0.73394700  0.20785200  0.94841000  1
  Br  Br33  1  0.26605300  0.79214800  0.05159000  1
  Br  Br34  1  0.33240600  0.25754700  0.11981900  1
  Br  Br35  1  0.66759400  0.74245300  0.88018100  1
  Br  Br36  1  0.63285300  0.40791800  0.60154000  1
  Br  Br37  1  0.36714700  0.59208200  0.39846000  1
