# generated using pymatgen
data_Pr12(OsC3)5
_symmetry_space_group_name_H-M   'P 1'
_cell_length_a   11.05211581
_cell_length_b   11.05211581
_cell_length_c   5.40142300
_cell_angle_alpha   90.00000000
_cell_angle_beta   90.00000000
_cell_angle_gamma   119.99999885
_symmetry_Int_Tables_number   1
_chemical_formula_structural   Pr12(OsC3)5
_chemical_formula_sum   'Pr12 Os5 C15'
_cell_volume   571.38611166
_cell_formula_units_Z   1
loop_
 _symmetry_equiv_pos_site_id
 _symmetry_equiv_pos_as_xyz
  1  'x, y, z'
loop_
 _atom_site_type_symbol
 _atom_site_label
 _atom_site_symmetry_multiplicity
 _atom_site_fract_x
 _atom_site_fract_y
 _atom_site_fract_z
 _atom_site_occupancy
  Pr  Pr0  1  0.79355900  0.00000000  0.50000000  1
  Pr  Pr1  1  0.00000000  0.79355900  0.50000000  1
  Pr  Pr2  1  0.20644100  0.20644100  0.50000000  1
  Pr  Pr3  1  0.27400700  0.45794700  0.00000000  1
  Pr  Pr4  1  0.54205300  0.81606000  0.00000000  1
  Pr  Pr5  1  0.45794700  0.27400700  0.00000000  1
  Pr  Pr6  1  0.18394000  0.72599300  0.00000000  1
  Pr  Pr7  1  0.81606000  0.54205300  0.00000000  1
  Pr  Pr8  1  0.72599300  0.18394000  0.00000000  1
  Pr  Pr9  1  0.42651900  0.00000000  0.50000000  1
  Pr  Pr10  1  0.00000000  0.42651900  0.50000000  1
  Pr  Pr11  1  0.57348100  0.57348100  0.50000000  1
  Os  Os12  1  0.16010800  0.00000000  0.00000000  1
  Os  Os13  1  0.00000000  0.16010800  0.00000000  1
  Os  Os14  1  0.83989200  0.83989200  0.00000000  1
  Os  Os15  1  0.33333300  0.66666700  0.50000000  1
  Os  Os16  1  0.66666700  0.33333300  0.50000000  1
  C  C17  1  0.33039200  0.00000000  0.00000000  1
  C  C18  1  0.00000000  0.33039200  0.00000000  1
  C  C19  1  0.66960800  0.66960800  0.00000000  1
  C  C20  1  0.80125000  0.00000000  0.00000000  1
  C  C21  1  0.00000000  0.80125000  0.00000000  1
  C  C22  1  0.19875000  0.19875000  0.00000000  1
  C  C23  1  0.45102500  0.00000000  0.00000000  1
  C  C24  1  0.00000000  0.45102500  0.00000000  1
  C  C25  1  0.54897500  0.54897500  0.00000000  1
  C  C26  1  0.28816400  0.47538200  0.50000000  1
  C  C27  1  0.52461800  0.81278200  0.50000000  1
  C  C28  1  0.47538200  0.28816400  0.50000000  1
  C  C29  1  0.18721800  0.71183600  0.50000000  1
  C  C30  1  0.81278200  0.52461800  0.50000000  1
  C  C31  1  0.71183600  0.18721800  0.50000000  1
