# generated using pymatgen
data_Pr3Si6N11
_symmetry_space_group_name_H-M   'P 1'
_cell_length_a   10.17970700
_cell_length_b   10.17970700
_cell_length_c   4.89904100
_cell_angle_alpha   90.00000000
_cell_angle_beta   90.00000000
_cell_angle_gamma   90.00000000
_symmetry_Int_Tables_number   1
_chemical_formula_structural   Pr3Si6N11
_chemical_formula_sum   'Pr6 Si12 N22'
_cell_volume   507.67015182
_cell_formula_units_Z   2
loop_
 _symmetry_equiv_pos_site_id
 _symmetry_equiv_pos_as_xyz
  1  'x, y, z'
loop_
 _atom_site_type_symbol
 _atom_site_label
 _atom_site_symmetry_multiplicity
 _atom_site_fract_x
 _atom_site_fract_y
 _atom_site_fract_z
 _atom_site_occupancy
  Pr  Pr0  1  0.50000000  0.50000000  0.35220900  1
  Pr  Pr1  1  0.00000000  0.00000000  0.35220900  1
  Pr  Pr2  1  0.68203400  0.18203400  0.36660400  1
  Pr  Pr3  1  0.18203400  0.31796600  0.36660400  1
  Pr  Pr4  1  0.81796600  0.68203400  0.36660400  1
  Pr  Pr5  1  0.31796600  0.81796600  0.36660400  1
  Si  Si6  1  0.11727400  0.61727400  0.40566100  1
  Si  Si7  1  0.61727400  0.88272600  0.40566100  1
  Si  Si8  1  0.38272600  0.11727400  0.40566100  1
  Si  Si9  1  0.88272600  0.38272600  0.40566100  1
  Si  Si10  1  0.57935000  0.70873700  0.89487200  1
  Si  Si11  1  0.42065000  0.29126300  0.89487200  1
  Si  Si12  1  0.29126300  0.57935000  0.89487200  1
  Si  Si13  1  0.70873700  0.42065000  0.89487200  1
  Si  Si14  1  0.79126300  0.92065000  0.89487200  1
  Si  Si15  1  0.92065000  0.20873700  0.89487200  1
  Si  Si16  1  0.07935000  0.79126300  0.89487200  1
  Si  Si17  1  0.20873700  0.07935000  0.89487200  1
  N  N18  1  0.50000000  0.00000000  0.43112800  1
  N  N19  1  0.00000000  0.50000000  0.43112800  1
  N  N20  1  0.42083100  0.67923200  0.00536600  1
  N  N21  1  0.57916900  0.32076800  0.00536600  1
  N  N22  1  0.32076800  0.42083100  0.00536600  1
  N  N23  1  0.67923200  0.57916900  0.00536600  1
  N  N24  1  0.82076800  0.07916900  0.00536600  1
  N  N25  1  0.07916900  0.17923200  0.00536600  1
  N  N26  1  0.92083100  0.82076800  0.00536600  1
  N  N27  1  0.17923200  0.92083100  0.00536600  1
  N  N28  1  0.84562500  0.34562500  0.06030300  1
  N  N29  1  0.34562500  0.15437500  0.06030300  1
  N  N30  1  0.65437500  0.84562500  0.06030300  1
  N  N31  1  0.15437500  0.65437500  0.06030300  1
  N  N32  1  0.23016100  0.07604400  0.54248800  1
  N  N33  1  0.07604400  0.76983900  0.54248800  1
  N  N34  1  0.92395600  0.23016100  0.54248800  1
  N  N35  1  0.76983900  0.92395600  0.54248800  1
  N  N36  1  0.73016100  0.42395600  0.54248800  1
  N  N37  1  0.26983900  0.57604400  0.54248800  1
  N  N38  1  0.42395600  0.26983900  0.54248800  1
  N  N39  1  0.57604400  0.73016100  0.54248800  1
