# generated using pymatgen
data_CsLiCl2
_symmetry_space_group_name_H-M   'P 1'
_cell_length_a   7.85620113
_cell_length_b   7.85620113
_cell_length_c   9.86451491
_cell_angle_alpha   86.82078921
_cell_angle_beta   86.82078921
_cell_angle_gamma   124.16389721
_symmetry_Int_Tables_number   1
_chemical_formula_structural   CsLiCl2
_chemical_formula_sum   'Cs4 Li4 Cl8'
_cell_volume   500.22610959
_cell_formula_units_Z   4
loop_
 _symmetry_equiv_pos_site_id
 _symmetry_equiv_pos_as_xyz
  1  'x, y, z'
loop_
 _atom_site_type_symbol
 _atom_site_label
 _atom_site_symmetry_multiplicity
 _atom_site_fract_x
 _atom_site_fract_y
 _atom_site_fract_z
 _atom_site_occupancy
  Cs  Cs0  1  0.17909000  0.36786400  0.43442100  1
  Cs  Cs1  1  0.63213600  0.82091000  0.06557900  1
  Cs  Cs2  1  0.82091000  0.63213600  0.56557900  1
  Cs  Cs3  1  0.36786400  0.17909000  0.93442100  1
  Li  Li4  1  0.93955700  0.54435700  0.13461100  1
  Li  Li5  1  0.45564300  0.06044300  0.36538900  1
  Li  Li6  1  0.06044300  0.45564300  0.86538900  1
  Li  Li7  1  0.54435700  0.93955700  0.63461100  1
  Cl  Cl8  1  0.39278000  0.60722000  0.75000000  1
  Cl  Cl9  1  0.60722000  0.39278000  0.25000000  1
  Cl  Cl10  1  0.06938200  0.33842600  0.08921100  1
  Cl  Cl11  1  0.66157400  0.93061800  0.41078900  1
  Cl  Cl12  1  0.93061800  0.66157400  0.91078900  1
  Cl  Cl13  1  0.33842600  0.06938200  0.58921100  1
  Cl  Cl14  1  0.18549300  0.81450700  0.25000000  1
  Cl  Cl15  1  0.81450700  0.18549300  0.75000000  1
