# generated using pymatgen
data_K2Zr(PO4)2
_symmetry_space_group_name_H-M   'P 1'
_cell_length_a   5.24505759
_cell_length_b   5.24505759
_cell_length_c   9.13025600
_cell_angle_alpha   90.00000000
_cell_angle_beta   90.00000000
_cell_angle_gamma   119.99999484
_symmetry_Int_Tables_number   1
_chemical_formula_structural   K2Zr(PO4)2
_chemical_formula_sum   'K2 Zr1 P2 O8'
_cell_volume   217.52748129
_cell_formula_units_Z   1
loop_
 _symmetry_equiv_pos_site_id
 _symmetry_equiv_pos_as_xyz
  1  'x, y, z'
loop_
 _atom_site_type_symbol
 _atom_site_label
 _atom_site_symmetry_multiplicity
 _atom_site_fract_x
 _atom_site_fract_y
 _atom_site_fract_z
 _atom_site_occupancy
  K  K0  1  0.33333300  0.66666700  0.65037200  1
  K  K1  1  0.66666700  0.33333300  0.34962800  1
  Zr  Zr2  1  0.00000000  0.00000000  0.00000000  1
  P  P3  1  0.33333300  0.66666700  0.19431100  1
  P  P4  1  0.66666700  0.33333300  0.80568900  1
  O  O5  1  0.33333300  0.66666700  0.36131900  1
  O  O6  1  0.66666700  0.33333300  0.63868100  1
  O  O7  1  0.27082100  0.90932100  0.13534600  1
  O  O8  1  0.09067900  0.36149900  0.13534600  1
  O  O9  1  0.63850100  0.72917900  0.13534600  1
  O  O10  1  0.72917900  0.09067900  0.86465400  1
  O  O11  1  0.90932100  0.63850100  0.86465400  1
  O  O12  1  0.36149900  0.27082100  0.86465400  1
