# generated using pymatgen
data_La3(GeRh)4
_symmetry_space_group_name_H-M   'P 1'
_cell_length_a   13.14083270
_cell_length_b   13.14083270
_cell_length_c   13.14083270
_cell_angle_alpha   161.64241860
_cell_angle_beta   161.27306907
_cell_angle_gamma   26.34102982
_symmetry_Int_Tables_number   1
_chemical_formula_structural   La3(GeRh)4
_chemical_formula_sum   'La3 Ge4 Rh4'
_cell_volume   229.36909735
_cell_formula_units_Z   1
loop_
 _symmetry_equiv_pos_site_id
 _symmetry_equiv_pos_as_xyz
  1  'x, y, z'
loop_
 _atom_site_type_symbol
 _atom_site_label
 _atom_site_symmetry_multiplicity
 _atom_site_fract_x
 _atom_site_fract_y
 _atom_site_fract_z
 _atom_site_occupancy
  La  La0  1  0.35540500  0.85540500  0.50000000  1
  La  La1  1  0.64459500  0.14459500  0.50000000  1
  La  La2  1  0.00000000  0.00000000  0.00000000  1
  Ge  Ge3  1  0.45082300  0.45082300  0.00000000  1
  Ge  Ge4  1  0.54917700  0.54917700  0.00000000  1
  Ge  Ge5  1  0.80178400  0.30178400  0.50000000  1
  Ge  Ge6  1  0.19821600  0.69821600  0.50000000  1
  Rh  Rh7  1  0.89987300  0.39987300  0.50000000  1
  Rh  Rh8  1  0.25008500  0.25008500  0.00000000  1
  Rh  Rh9  1  0.74991500  0.74991500  0.00000000  1
  Rh  Rh10  1  0.10012700  0.60012700  0.50000000  1
