# generated using pymatgen
data_Ce(FeB)4
_symmetry_space_group_name_H-M   'P 1'
_cell_length_a   7.00782800
_cell_length_b   7.00782800
_cell_length_c   3.81675600
_cell_angle_alpha   90.00000000
_cell_angle_beta   90.00000000
_cell_angle_gamma   90.00000000
_symmetry_Int_Tables_number   1
_chemical_formula_structural   Ce(FeB)4
_chemical_formula_sum   'Ce2 Fe8 B8'
_cell_volume   187.43956381
_cell_formula_units_Z   2
loop_
 _symmetry_equiv_pos_site_id
 _symmetry_equiv_pos_as_xyz
  1  'x, y, z'
loop_
 _atom_site_type_symbol
 _atom_site_label
 _atom_site_symmetry_multiplicity
 _atom_site_fract_x
 _atom_site_fract_y
 _atom_site_fract_z
 _atom_site_occupancy
  Ce  Ce0  1  0.00000000  0.00000000  0.00000000  1
  Ce  Ce1  1  0.50000000  0.50000000  0.50000000  1
  Fe  Fe2  1  0.86869600  0.38523900  0.10442600  1
  Fe  Fe3  1  0.13130400  0.61476100  0.10442600  1
  Fe  Fe4  1  0.88523900  0.63130400  0.60442600  1
  Fe  Fe5  1  0.11476100  0.36869600  0.60442600  1
  Fe  Fe6  1  0.63130400  0.11476100  0.39557400  1
  Fe  Fe7  1  0.36869600  0.88523900  0.39557400  1
  Fe  Fe8  1  0.61476100  0.86869600  0.89557400  1
  Fe  Fe9  1  0.38523900  0.13130400  0.89557400  1
  B  B10  1  0.33522600  0.79684300  0.89555300  1
  B  B11  1  0.66477400  0.20315700  0.89555300  1
  B  B12  1  0.29684300  0.16477400  0.39555300  1
  B  B13  1  0.70315700  0.83522600  0.39555300  1
  B  B14  1  0.16477400  0.70315700  0.60444700  1
  B  B15  1  0.83522600  0.29684300  0.60444700  1
  B  B16  1  0.20315700  0.33522600  0.10444700  1
  B  B17  1  0.79684300  0.66477400  0.10444700  1
