# generated using pymatgen
data_Pr2TiO5
_symmetry_space_group_name_H-M   'P 1'
_cell_length_a   3.90036700
_cell_length_b   10.95135000
_cell_length_c   11.52453200
_cell_angle_alpha   90.00000000
_cell_angle_beta   90.00000000
_cell_angle_gamma   90.00000000
_symmetry_Int_Tables_number   1
_chemical_formula_structural   Pr2TiO5
_chemical_formula_sum   'Pr8 Ti4 O20'
_cell_volume   492.26213449
_cell_formula_units_Z   4
loop_
 _symmetry_equiv_pos_site_id
 _symmetry_equiv_pos_as_xyz
  1  'x, y, z'
loop_
 _atom_site_type_symbol
 _atom_site_label
 _atom_site_symmetry_multiplicity
 _atom_site_fract_x
 _atom_site_fract_y
 _atom_site_fract_z
 _atom_site_occupancy
  Pr  Pr0  1  0.25000000  0.13675400  0.94188700  1
  Pr  Pr1  1  0.25000000  0.63675400  0.55811300  1
  Pr  Pr2  1  0.75000000  0.86324600  0.05811300  1
  Pr  Pr3  1  0.75000000  0.36324600  0.44188700  1
  Pr  Pr4  1  0.75000000  0.39770200  0.78042100  1
  Pr  Pr5  1  0.75000000  0.89770200  0.71957900  1
  Pr  Pr6  1  0.25000000  0.60229800  0.21957900  1
  Pr  Pr7  1  0.25000000  0.10229800  0.28042100  1
  Ti  Ti8  1  0.25000000  0.18801100  0.62510500  1
  Ti  Ti9  1  0.25000000  0.68801100  0.87489500  1
  Ti  Ti10  1  0.75000000  0.81198900  0.37489500  1
  Ti  Ti11  1  0.75000000  0.31198900  0.12510500  1
  O  O12  1  0.25000000  0.22518300  0.46427500  1
  O  O13  1  0.25000000  0.72518300  0.03572500  1
  O  O14  1  0.75000000  0.77481700  0.53572500  1
  O  O15  1  0.75000000  0.27481700  0.96427500  1
  O  O16  1  0.25000000  0.49155000  0.39740500  1
  O  O17  1  0.25000000  0.99155000  0.10259500  1
  O  O18  1  0.75000000  0.50845000  0.60259500  1
  O  O19  1  0.75000000  0.00845000  0.89740500  1
  O  O20  1  0.25000000  0.26187300  0.12134500  1
  O  O21  1  0.25000000  0.76187300  0.37865500  1
  O  O22  1  0.75000000  0.73812700  0.87865500  1
  O  O23  1  0.75000000  0.23812700  0.62134500  1
  O  O24  1  0.25000000  0.03024700  0.66431700  1
  O  O25  1  0.25000000  0.53024700  0.83568300  1
  O  O26  1  0.75000000  0.96975300  0.33568300  1
  O  O27  1  0.75000000  0.46975300  0.16431700  1
  O  O28  1  0.25000000  0.27404100  0.76997200  1
  O  O29  1  0.25000000  0.77404100  0.73002800  1
  O  O30  1  0.75000000  0.72595900  0.23002800  1
  O  O31  1  0.75000000  0.22595900  0.26997200  1
