# generated using pymatgen
data_Ca3(SiIr)4
_symmetry_space_group_name_H-M   'P 1'
_cell_length_a   6.47571708
_cell_length_b   6.47571708
_cell_length_c   6.47571708
_cell_angle_alpha   109.47122063
_cell_angle_beta   109.47122063
_cell_angle_gamma   109.47122063
_symmetry_Int_Tables_number   1
_chemical_formula_structural   Ca3(SiIr)4
_chemical_formula_sum   'Ca3 Si4 Ir4'
_cell_volume   209.04592629
_cell_formula_units_Z   1
loop_
 _symmetry_equiv_pos_site_id
 _symmetry_equiv_pos_as_xyz
  1  'x, y, z'
loop_
 _atom_site_type_symbol
 _atom_site_label
 _atom_site_symmetry_multiplicity
 _atom_site_fract_x
 _atom_site_fract_y
 _atom_site_fract_z
 _atom_site_occupancy
  Ca  Ca0  1  0.50000000  0.00000000  0.50000000  1
  Ca  Ca1  1  0.50000000  0.50000000  0.00000000  1
  Ca  Ca2  1  0.00000000  0.50000000  0.50000000  1
  Si  Si3  1  0.00000000  0.36568800  0.00000000  1
  Si  Si4  1  0.63431200  0.63431200  0.63431200  1
  Si  Si5  1  0.00000000  0.00000000  0.36568800  1
  Si  Si6  1  0.36568800  0.00000000  0.00000000  1
  Ir  Ir7  1  0.00000000  0.72079400  0.00000000  1
  Ir  Ir8  1  0.00000000  0.00000000  0.72079400  1
  Ir  Ir9  1  0.27920600  0.27920600  0.27920600  1
  Ir  Ir10  1  0.72079400  0.00000000  0.00000000  1
