# generated using pymatgen
data_BaEu2PdO5
_symmetry_space_group_name_H-M   'P 1'
_cell_length_a   6.77868300
_cell_length_b   6.77868300
_cell_length_c   5.93051100
_cell_angle_alpha   90.00000000
_cell_angle_beta   90.00000000
_cell_angle_gamma   90.00000000
_symmetry_Int_Tables_number   1
_chemical_formula_structural   BaEu2PdO5
_chemical_formula_sum   'Ba2 Eu4 Pd2 O10'
_cell_volume   272.51020199
_cell_formula_units_Z   2
loop_
 _symmetry_equiv_pos_site_id
 _symmetry_equiv_pos_as_xyz
  1  'x, y, z'
loop_
 _atom_site_type_symbol
 _atom_site_label
 _atom_site_symmetry_multiplicity
 _atom_site_fract_x
 _atom_site_fract_y
 _atom_site_fract_z
 _atom_site_occupancy
  Ba  Ba0  1  0.00000000  0.00000000  0.00000000  1
  Ba  Ba1  1  0.50000000  0.50000000  0.00000000  1
  Eu  Eu2  1  0.32453200  0.17546800  0.50000000  1
  Eu  Eu3  1  0.67546800  0.82453200  0.50000000  1
  Eu  Eu4  1  0.82453200  0.32453200  0.50000000  1
  Eu  Eu5  1  0.17546800  0.67546800  0.50000000  1
  Pd  Pd6  1  0.50000000  0.00000000  0.00000000  1
  Pd  Pd7  1  0.00000000  0.50000000  0.00000000  1
  O  O8  1  0.14008900  0.35991100  0.75022900  1
  O  O9  1  0.64008900  0.14008900  0.24977100  1
  O  O10  1  0.85991100  0.64008900  0.75022900  1
  O  O11  1  0.14008900  0.35991100  0.24977100  1
  O  O12  1  0.50000000  0.50000000  0.50000000  1
  O  O13  1  0.35991100  0.85991100  0.75022900  1
  O  O14  1  0.64008900  0.14008900  0.75022900  1
  O  O15  1  0.85991100  0.64008900  0.24977100  1
  O  O16  1  0.35991100  0.85991100  0.24977100  1
  O  O17  1  0.00000000  0.00000000  0.50000000  1
