# generated using pymatgen
data_Pr2ThS5
_symmetry_space_group_name_H-M   'P 1'
_cell_length_a   7.59800700
_cell_length_b   8.28493800
_cell_length_c   12.10070900
_cell_angle_alpha   90.00000000
_cell_angle_beta   90.00000000
_cell_angle_gamma   90.00000000
_symmetry_Int_Tables_number   1
_chemical_formula_structural   Pr2ThS5
_chemical_formula_sum   'Pr8 Th4 S20'
_cell_volume   761.72773557
_cell_formula_units_Z   4
loop_
 _symmetry_equiv_pos_site_id
 _symmetry_equiv_pos_as_xyz
  1  'x, y, z'
loop_
 _atom_site_type_symbol
 _atom_site_label
 _atom_site_symmetry_multiplicity
 _atom_site_fract_x
 _atom_site_fract_y
 _atom_site_fract_z
 _atom_site_occupancy
  Pr  Pr0  1  0.52155300  0.50002300  0.32225600  1
  Pr  Pr1  1  0.97844700  0.99997700  0.82225600  1
  Pr  Pr2  1  0.47844700  0.00002300  0.67774400  1
  Pr  Pr3  1  0.02155300  0.49997700  0.17774400  1
  Pr  Pr4  1  0.47844700  0.49997700  0.67774400  1
  Pr  Pr5  1  0.02155300  0.00002300  0.17774400  1
  Pr  Pr6  1  0.52155300  0.99997700  0.32225600  1
  Pr  Pr7  1  0.97844700  0.50002300  0.82225600  1
  Th  Th8  1  0.07469200  0.75000000  0.49014500  1
  Th  Th9  1  0.42530800  0.75000000  0.99014500  1
  Th  Th10  1  0.92530800  0.25000000  0.50985500  1
  Th  Th11  1  0.57469200  0.25000000  0.00985500  1
  S  S12  1  0.83652300  0.95745100  0.59827300  1
  S  S13  1  0.66347700  0.54254900  0.09827300  1
  S  S14  1  0.16347700  0.45745100  0.40172700  1
  S  S15  1  0.33652300  0.04254900  0.90172700  1
  S  S16  1  0.16347700  0.04254900  0.40172700  1
  S  S17  1  0.33652300  0.45745100  0.90172700  1
  S  S18  1  0.83652300  0.54254900  0.59827300  1
  S  S19  1  0.66347700  0.95745100  0.09827300  1
  S  S20  1  0.82783200  0.75000000  0.31288200  1
  S  S21  1  0.67216800  0.75000000  0.81288200  1
  S  S22  1  0.17216800  0.25000000  0.68711800  1
  S  S23  1  0.32783200  0.25000000  0.18711800  1
  S  S24  1  0.45859200  0.75000000  0.49899700  1
  S  S25  1  0.04140800  0.75000000  0.99899700  1
  S  S26  1  0.54140800  0.25000000  0.50100300  1
  S  S27  1  0.95859200  0.25000000  0.00100300  1
  S  S28  1  0.19818800  0.75000000  0.71611200  1
  S  S29  1  0.30181200  0.75000000  0.21611200  1
  S  S30  1  0.80181200  0.25000000  0.28388800  1
  S  S31  1  0.69818800  0.25000000  0.78388800  1
