# generated using pymatgen
data_Dy6Nb4Al43
_symmetry_space_group_name_H-M   'P 1'
_cell_length_a   11.15210814
_cell_length_b   11.15210814
_cell_length_c   17.76054700
_cell_angle_alpha   90.00000000
_cell_angle_beta   90.00000000
_cell_angle_gamma   120.00000085
_symmetry_Int_Tables_number   1
_chemical_formula_structural   Dy6Nb4Al43
_chemical_formula_sum   'Dy12 Nb8 Al86'
_cell_volume   1912.93806735
_cell_formula_units_Z   2
loop_
 _symmetry_equiv_pos_site_id
 _symmetry_equiv_pos_as_xyz
  1  'x, y, z'
loop_
 _atom_site_type_symbol
 _atom_site_label
 _atom_site_symmetry_multiplicity
 _atom_site_fract_x
 _atom_site_fract_y
 _atom_site_fract_z
 _atom_site_occupancy
  Dy  Dy0  1  0.52959800  0.00000000  0.59588700  1
  Dy  Dy1  1  0.47040200  0.00000000  0.40411300  1
  Dy  Dy2  1  0.00000000  0.52959800  0.59588700  1
  Dy  Dy3  1  0.47040200  0.00000000  0.09588700  1
  Dy  Dy4  1  0.00000000  0.52959800  0.90411300  1
  Dy  Dy5  1  0.00000000  0.47040200  0.40411300  1
  Dy  Dy6  1  0.52959800  0.00000000  0.90411300  1
  Dy  Dy7  1  0.00000000  0.47040200  0.09588700  1
  Dy  Dy8  1  0.47040200  0.47040200  0.59588700  1
  Dy  Dy9  1  0.52959800  0.52959800  0.40411300  1
  Dy  Dy10  1  0.52959800  0.52959800  0.09588700  1
  Dy  Dy11  1  0.47040200  0.47040200  0.90411300  1
  Nb  Nb12  1  0.00000000  0.00000000  0.50000000  1
  Nb  Nb13  1  0.00000000  0.00000000  0.00000000  1
  Nb  Nb14  1  0.72691400  0.00000000  0.75000000  1
  Nb  Nb15  1  0.27308600  0.00000000  0.25000000  1
  Nb  Nb16  1  0.00000000  0.72691400  0.75000000  1
  Nb  Nb17  1  0.00000000  0.27308600  0.25000000  1
  Nb  Nb18  1  0.27308600  0.27308600  0.75000000  1
  Nb  Nb19  1  0.72691400  0.72691400  0.25000000  1
  Al  Al20  1  0.14886700  0.59514900  0.75000000  1
  Al  Al21  1  0.85113300  0.40485100  0.25000000  1
  Al  Al22  1  0.40485100  0.55371700  0.75000000  1
  Al  Al23  1  0.59514900  0.14886700  0.75000000  1
  Al  Al24  1  0.59514900  0.44628300  0.25000000  1
  Al  Al25  1  0.40485100  0.85113300  0.25000000  1
  Al  Al26  1  0.44628300  0.85113300  0.75000000  1
  Al  Al27  1  0.55371700  0.40485100  0.75000000  1
  Al  Al28  1  0.55371700  0.14886700  0.25000000  1
  Al  Al29  1  0.44628300  0.59514900  0.25000000  1
  Al  Al30  1  0.85113300  0.44628300  0.75000000  1
  Al  Al31  1  0.14886700  0.55371700  0.25000000  1
  Al  Al32  1  0.15915000  0.00000000  0.11515800  1
  Al  Al33  1  0.84085000  0.00000000  0.88484200  1
  Al  Al34  1  0.00000000  0.15915000  0.11515800  1
  Al  Al35  1  0.84085000  0.00000000  0.61515800  1
  Al  Al36  1  0.00000000  0.15915000  0.38484200  1
  Al  Al37  1  0.00000000  0.84085000  0.88484200  1
  Al  Al38  1  0.15915000  0.00000000  0.38484200  1
  Al  Al39  1  0.00000000  0.84085000  0.61515800  1
  Al  Al40  1  0.84085000  0.84085000  0.11515800  1
  Al  Al41  1  0.15915000  0.15915000  0.88484200  1
  Al  Al42  1  0.15915000  0.15915000  0.61515800  1
  Al  Al43  1  0.84085000  0.84085000  0.38484200  1
  Al  Al44  1  0.24717800  0.49435600  0.50000000  1
  Al  Al45  1  0.75282200  0.50564400  0.50000000  1
  Al  Al46  1  0.50564400  0.75282200  0.50000000  1
  Al  Al47  1  0.75282200  0.50564400  0.00000000  1
  Al  Al48  1  0.49435600  0.24717800  0.00000000  1
  Al  Al49  1  0.49435600  0.24717800  0.50000000  1
  Al  Al50  1  0.24717800  0.49435600  0.00000000  1
  Al  Al51  1  0.50564400  0.75282200  0.00000000  1
  Al  Al52  1  0.24717800  0.75282200  0.50000000  1
  Al  Al53  1  0.75282200  0.24717800  0.50000000  1
  Al  Al54  1  0.75282200  0.24717800  0.00000000  1
  Al  Al55  1  0.24717800  0.75282200  0.00000000  1
  Al  Al56  1  0.14697500  0.00000000  0.75000000  1
  Al  Al57  1  0.85302500  0.00000000  0.25000000  1
  Al  Al58  1  0.00000000  0.14697500  0.75000000  1
  Al  Al59  1  0.00000000  0.85302500  0.25000000  1
  Al  Al60  1  0.85302500  0.85302500  0.75000000  1
  Al  Al61  1  0.14697500  0.14697500  0.25000000  1
  Al  Al62  1  0.33333300  0.66666700  0.62655700  1
  Al  Al63  1  0.66666700  0.33333300  0.37344300  1
  Al  Al64  1  0.66666700  0.33333300  0.12655700  1
  Al  Al65  1  0.66666700  0.33333300  0.87344300  1
  Al  Al66  1  0.33333300  0.66666700  0.87344300  1
  Al  Al67  1  0.33333300  0.66666700  0.12655700  1
  Al  Al68  1  0.33333300  0.66666700  0.37344300  1
  Al  Al69  1  0.66666700  0.33333300  0.62655700  1
  Al  Al70  1  0.25624900  0.00000000  0.53026300  1
  Al  Al71  1  0.74375100  0.00000000  0.46973700  1
  Al  Al72  1  0.00000000  0.25624900  0.53026300  1
  Al  Al73  1  0.74375100  0.00000000  0.03026300  1
  Al  Al74  1  0.00000000  0.25624900  0.96973700  1
  Al  Al75  1  0.00000000  0.74375100  0.46973700  1
  Al  Al76  1  0.25624900  0.00000000  0.96973700  1
  Al  Al77  1  0.00000000  0.74375100  0.03026300  1
  Al  Al78  1  0.74375100  0.74375100  0.53026300  1
  Al  Al79  1  0.25624900  0.25624900  0.46973700  1
  Al  Al80  1  0.25624900  0.25624900  0.03026300  1
  Al  Al81  1  0.74375100  0.74375100  0.96973700  1
  Al  Al82  1  0.15716000  0.39467400  0.66369000  1
  Al  Al83  1  0.84284000  0.60532600  0.33631000  1
  Al  Al84  1  0.60532600  0.76248600  0.66369000  1
  Al  Al85  1  0.84284000  0.60532600  0.16369000  1
  Al  Al86  1  0.39467400  0.15716000  0.83631000  1
  Al  Al87  1  0.39467400  0.23751400  0.33631000  1
  Al  Al88  1  0.15716000  0.39467400  0.83631000  1
  Al  Al89  1  0.60532600  0.84284000  0.16369000  1
  Al  Al90  1  0.23751400  0.84284000  0.66369000  1
  Al  Al91  1  0.39467400  0.23751400  0.16369000  1
  Al  Al92  1  0.76248600  0.60532600  0.83631000  1
  Al  Al93  1  0.76248600  0.15716000  0.33631000  1
  Al  Al94  1  0.60532600  0.76248600  0.83631000  1
  Al  Al95  1  0.23751400  0.39467400  0.16369000  1
  Al  Al96  1  0.60532600  0.84284000  0.33631000  1
  Al  Al97  1  0.39467400  0.15716000  0.66369000  1
  Al  Al98  1  0.76248600  0.15716000  0.16369000  1
  Al  Al99  1  0.23751400  0.39467400  0.33631000  1
  Al  Al100  1  0.23751400  0.84284000  0.83631000  1
  Al  Al101  1  0.76248600  0.60532600  0.66369000  1
  Al  Al102  1  0.84284000  0.23751400  0.83631000  1
  Al  Al103  1  0.15716000  0.76248600  0.16369000  1
  Al  Al104  1  0.15716000  0.76248600  0.33631000  1
  Al  Al105  1  0.84284000  0.23751400  0.66369000  1
