# generated using pymatgen
data_Tb5Pb3
_symmetry_space_group_name_H-M   'P 1'
_cell_length_a   9.08440654
_cell_length_b   9.08440654
_cell_length_c   6.67885200
_cell_angle_alpha   90.00000000
_cell_angle_beta   90.00000000
_cell_angle_gamma   120.00000395
_symmetry_Int_Tables_number   1
_chemical_formula_structural   Tb5Pb3
_chemical_formula_sum   'Tb10 Pb6'
_cell_volume   477.33750303
_cell_formula_units_Z   2
loop_
 _symmetry_equiv_pos_site_id
 _symmetry_equiv_pos_as_xyz
  1  'x, y, z'
loop_
 _atom_site_type_symbol
 _atom_site_label
 _atom_site_symmetry_multiplicity
 _atom_site_fract_x
 _atom_site_fract_y
 _atom_site_fract_z
 _atom_site_occupancy
  Tb  Tb0  1  0.66666700  0.33333300  0.00000000  1
  Tb  Tb1  1  0.33333300  0.66666700  0.00000000  1
  Tb  Tb2  1  0.33333300  0.66666700  0.50000000  1
  Tb  Tb3  1  0.66666700  0.33333300  0.50000000  1
  Tb  Tb4  1  0.76108900  0.76108900  0.75000000  1
  Tb  Tb5  1  0.23891100  0.00000000  0.75000000  1
  Tb  Tb6  1  0.00000000  0.23891100  0.75000000  1
  Tb  Tb7  1  0.23891100  0.23891100  0.25000000  1
  Tb  Tb8  1  0.76108900  0.00000000  0.25000000  1
  Tb  Tb9  1  0.00000000  0.76108900  0.25000000  1
  Pb  Pb10  1  0.39422300  0.39422300  0.75000000  1
  Pb  Pb11  1  0.60577700  0.00000000  0.75000000  1
  Pb  Pb12  1  0.00000000  0.60577700  0.75000000  1
  Pb  Pb13  1  0.60577700  0.60577700  0.25000000  1
  Pb  Pb14  1  0.39422300  0.00000000  0.25000000  1
  Pb  Pb15  1  0.00000000  0.39422300  0.25000000  1
