# generated using pymatgen
data_Nb4VS8
_symmetry_space_group_name_H-M   'P 1'
_cell_length_a   6.68797727
_cell_length_b   6.68797727
_cell_length_c   12.27160800
_cell_angle_alpha   90.00000000
_cell_angle_beta   90.00000000
_cell_angle_gamma   119.99999274
_symmetry_Int_Tables_number   1
_chemical_formula_structural   Nb4VS8
_chemical_formula_sum   'Nb8 V2 S16'
_cell_volume   475.35899212
_cell_formula_units_Z   2
loop_
 _symmetry_equiv_pos_site_id
 _symmetry_equiv_pos_as_xyz
  1  'x, y, z'
loop_
 _atom_site_type_symbol
 _atom_site_label
 _atom_site_symmetry_multiplicity
 _atom_site_fract_x
 _atom_site_fract_y
 _atom_site_fract_z
 _atom_site_occupancy
  Nb  Nb0  1  0.00000000  0.00000000  0.25000000  1
  Nb  Nb1  1  0.00000000  0.00000000  0.75000000  1
  Nb  Nb2  1  0.50434100  0.49565900  0.25000000  1
  Nb  Nb3  1  0.50434100  0.00868200  0.25000000  1
  Nb  Nb4  1  0.99131800  0.49565900  0.25000000  1
  Nb  Nb5  1  0.49565900  0.50434100  0.75000000  1
  Nb  Nb6  1  0.49565900  0.99131800  0.75000000  1
  Nb  Nb7  1  0.00868200  0.50434100  0.75000000  1
  V  V8  1  0.00000000  0.00000000  0.50000000  1
  V  V9  1  0.00000000  0.00000000  0.00000000  1
  S  S10  1  0.33333300  0.66666700  0.87937100  1
  S  S11  1  0.66666700  0.33333300  0.12062900  1
  S  S12  1  0.66666700  0.33333300  0.37937100  1
  S  S13  1  0.33333300  0.66666700  0.62062900  1
  S  S14  1  0.16584500  0.83415500  0.37879500  1
  S  S15  1  0.16584500  0.33169000  0.37879500  1
  S  S16  1  0.66831000  0.83415500  0.37879500  1
  S  S17  1  0.83415500  0.16584500  0.62120500  1
  S  S18  1  0.83415500  0.66831000  0.62120500  1
  S  S19  1  0.33169000  0.16584500  0.62120500  1
  S  S20  1  0.83415500  0.16584500  0.87879500  1
  S  S21  1  0.83415500  0.66831000  0.87879500  1
  S  S22  1  0.33169000  0.16584500  0.87879500  1
  S  S23  1  0.16584500  0.83415500  0.12120500  1
  S  S24  1  0.16584500  0.33169000  0.12120500  1
  S  S25  1  0.66831000  0.83415500  0.12120500  1
