# generated using pymatgen
data_Ta2O5
_symmetry_space_group_name_H-M   'P 1'
_cell_length_a   3.87120600
_cell_length_b   3.90443500
_cell_length_c   13.12844800
_cell_angle_alpha   90.00002643
_cell_angle_beta   89.99996338
_cell_angle_gamma   90.00000025
_symmetry_Int_Tables_number   1
_chemical_formula_structural   Ta2O5
_chemical_formula_sum   'Ta4 O10'
_cell_volume   198.43481383
_cell_formula_units_Z   2
loop_
 _symmetry_equiv_pos_site_id
 _symmetry_equiv_pos_as_xyz
  1  'x, y, z'
loop_
 _atom_site_type_symbol
 _atom_site_label
 _atom_site_symmetry_multiplicity
 _atom_site_fract_x
 _atom_site_fract_y
 _atom_site_fract_z
 _atom_site_occupancy
  Ta  Ta0  1  0.01857100  0.97667400  0.14583200  1
  Ta  Ta1  1  0.51857100  0.02332400  0.35416700  1
  Ta  Ta2  1  0.51857000  0.02332100  0.64583100  1
  Ta  Ta3  1  0.01857000  0.97668100  0.85416900  1
  O  O4  1  0.51857300  0.99833400  0.18497800  1
  O  O5  1  0.01857300  0.00166100  0.31502300  1
  O  O6  1  0.01857200  0.00166400  0.68497700  1
  O  O7  1  0.51857200  0.99834100  0.81502200  1
  O  O8  1  0.01856600  0.49302200  0.85153800  1
  O  O9  1  0.51856800  0.50697200  0.64846200  1
  O  O10  1  0.51856800  0.50697700  0.35153800  1
  O  O11  1  0.51857400  0.00503800  0.50000000  1
  O  O12  1  0.01857400  0.99496200  0.99999900  1
  O  O13  1  0.01856900  0.49302700  0.14846100  1
