# generated using pymatgen
data_Ba2PrTaO6
_symmetry_space_group_name_H-M   'P 1'
_cell_length_a   6.13020137
_cell_length_b   6.13020137
_cell_length_c   6.17994794
_cell_angle_alpha   59.97541409
_cell_angle_beta   59.97541409
_cell_angle_gamma   60.05792717
_symmetry_Int_Tables_number   1
_chemical_formula_structural   Ba2PrTaO6
_chemical_formula_sum   'Ba2 Pr1 Ta1 O6'
_cell_volume   164.22808723
_cell_formula_units_Z   1
loop_
 _symmetry_equiv_pos_site_id
 _symmetry_equiv_pos_as_xyz
  1  'x, y, z'
loop_
 _atom_site_type_symbol
 _atom_site_label
 _atom_site_symmetry_multiplicity
 _atom_site_fract_x
 _atom_site_fract_y
 _atom_site_fract_z
 _atom_site_occupancy
  Ba  Ba0  1  0.75128500  0.75128500  0.74474600  1
  Ba  Ba1  1  0.24871500  0.24871500  0.25525400  1
  Pr  Pr2  1  0.00000000  0.00000000  0.00000000  1
  Ta  Ta3  1  0.50000000  0.50000000  0.50000000  1
  O  O4  1  0.69941100  0.23679200  0.30437600  1
  O  O5  1  0.30058900  0.76320800  0.69562400  1
  O  O6  1  0.76320800  0.30058900  0.69562400  1
  O  O7  1  0.23679200  0.69941100  0.30437600  1
  O  O8  1  0.72856000  0.72856000  0.21127200  1
  O  O9  1  0.27144000  0.27144000  0.78872800  1
