# generated using pymatgen
data_RbHSO4
_symmetry_space_group_name_H-M   'P 1'
_cell_length_a   4.65457600
_cell_length_b   14.68732400
_cell_length_c   15.17773604
_cell_angle_alpha   59.23317286
_cell_angle_beta   90.00000000
_cell_angle_gamma   90.00000000
_symmetry_Int_Tables_number   1
_chemical_formula_structural   RbHSO4
_chemical_formula_sum   'Rb8 H8 S8 O32'
_cell_volume   891.56390611
_cell_formula_units_Z   8
loop_
 _symmetry_equiv_pos_site_id
 _symmetry_equiv_pos_as_xyz
  1  'x, y, z'
loop_
 _atom_site_type_symbol
 _atom_site_label
 _atom_site_symmetry_multiplicity
 _atom_site_fract_x
 _atom_site_fract_y
 _atom_site_fract_z
 _atom_site_occupancy
  Rb  Rb0  1  0.57334300  0.71636100  0.87271700  1
  Rb  Rb1  1  0.42665700  0.71636100  0.37271700  1
  Rb  Rb2  1  0.13481100  0.96681300  0.95189800  1
  Rb  Rb3  1  0.86518900  0.96681300  0.45189800  1
  Rb  Rb4  1  0.59000600  0.21246700  0.62234900  1
  Rb  Rb5  1  0.40999400  0.21246700  0.12234900  1
  Rb  Rb6  1  0.02094600  0.46635600  0.70140800  1
  Rb  Rb7  1  0.97905400  0.46635600  0.20140800  1
  H  H8  1  0.03586400  0.71416200  0.67604700  1
  H  H9  1  0.96413600  0.71416200  0.17604700  1
  H  H10  1  0.56858200  0.46727300  0.90001300  1
  H  H11  1  0.43141800  0.46727300  0.40001300  1
  H  H12  1  0.58577400  0.95788200  0.14482500  1
  H  H13  1  0.41422600  0.95788200  0.64482500  1
  H  H14  1  0.96893000  0.21887300  0.92406300  1
  H  H15  1  0.03107000  0.21887300  0.42406300  1
  S  S16  1  0.53197300  0.71874300  0.11549600  1
  S  S17  1  0.46802700  0.71874300  0.61549600  1
  S  S18  1  0.00742400  0.46302500  0.95859100  1
  S  S19  1  0.99257600  0.46302500  0.45859100  1
  S  S20  1  0.02573500  0.96428500  0.71449600  1
  S  S21  1  0.97426500  0.96428500  0.21449600  1
  S  S22  1  0.54255400  0.21298900  0.86745100  1
  S  S23  1  0.45744600  0.21298900  0.36745100  1
  O  O24  1  0.76467100  0.68448700  0.20422500  1
  O  O25  1  0.23532900  0.68448700  0.70422500  1
  O  O26  1  0.28457500  0.75427900  0.15161800  1
  O  O27  1  0.71542500  0.75427900  0.65161800  1
  O  O28  1  0.65652900  0.80511700  0.02059200  1
  O  O29  1  0.34347100  0.80511700  0.52059200  1
  O  O30  1  0.46893800  0.62361500  0.11048100  1
  O  O31  1  0.53106200  0.62361500  0.61048100  1
  O  O32  1  0.11300700  0.06036600  0.71424000  1
  O  O33  1  0.88699300  0.06036600  0.21424000  1
  O  O34  1  0.73032900  0.96917200  0.67904900  1
  O  O35  1  0.26967100  0.96917200  0.17904900  1
  O  O36  1  0.09054600  0.86766600  0.81225900  1
  O  O37  1  0.90945400  0.86766600  0.31225900  1
  O  O38  1  0.20563400  0.95891400  0.62738600  1
  O  O39  1  0.79436600  0.95891400  0.12738600  1
  O  O40  1  0.76386400  0.50209800  0.87222400  1
  O  O41  1  0.23613600  0.50209800  0.37222400  1
  O  O42  1  0.24483600  0.42691100  0.91882700  1
  O  O43  1  0.75516400  0.42691100  0.41882700  1
  O  O44  1  0.88491600  0.37631700  0.05388300  1
  O  O45  1  0.11508400  0.37631700  0.55388300  1
  O  O46  1  0.08410700  0.55631800  0.96483600  1
  O  O47  1  0.91589300  0.55631800  0.46483600  1
  O  O48  1  0.66515500  0.12503200  0.86013700  1
  O  O49  1  0.33484500  0.12503200  0.36013700  1
  O  O50  1  0.28496700  0.18052200  0.93387100  1
  O  O51  1  0.71503300  0.18052200  0.43387100  1
  O  O52  1  0.49788700  0.30878700  0.76726300  1
  O  O53  1  0.50211300  0.30878700  0.26726300  1
  O  O54  1  0.76579100  0.24256800  0.92845600  1
  O  O55  1  0.23420900  0.24256800  0.42845600  1
