# generated using pymatgen
data_Pr2FeSbO7
_symmetry_space_group_name_H-M   'P 1'
_cell_length_a   7.49050049
_cell_length_b   7.49050049
_cell_length_c   7.49050049
_cell_angle_alpha   120.27208715
_cell_angle_beta   119.50882313
_cell_angle_gamma   90.19110898
_symmetry_Int_Tables_number   1
_chemical_formula_structural   Pr2FeSbO7
_chemical_formula_sum   'Pr4 Fe2 Sb2 O14'
_cell_volume   297.65241159
_cell_formula_units_Z   2
loop_
 _symmetry_equiv_pos_site_id
 _symmetry_equiv_pos_as_xyz
  1  'x, y, z'
loop_
 _atom_site_type_symbol
 _atom_site_label
 _atom_site_symmetry_multiplicity
 _atom_site_fract_x
 _atom_site_fract_y
 _atom_site_fract_z
 _atom_site_occupancy
  Pr  Pr0  1  0.50000000  0.00000000  0.00000000  1
  Pr  Pr1  1  0.50000000  0.50000000  0.50000000  1
  Pr  Pr2  1  0.50000000  0.00000000  0.50000000  1
  Pr  Pr3  1  0.00000000  0.00000000  0.00000000  1
  Fe  Fe4  1  0.00000000  0.50000000  0.00000000  1
  Fe  Fe5  1  0.00000000  0.00000000  0.50000000  1
  Sb  Sb6  1  0.00000000  0.50000000  0.50000000  1
  Sb  Sb7  1  0.50000000  0.50000000  0.00000000  1
  O  O8  1  0.91702300  0.16702300  0.75000000  1
  O  O9  1  0.32558100  0.57558100  0.75000000  1
  O  O10  1  0.91580900  0.57386000  0.73908300  1
  O  O11  1  0.33477800  0.17672600  0.76091700  1
  O  O12  1  0.91580900  0.17672600  0.34194900  1
  O  O13  1  0.33477800  0.57386000  0.15805100  1
  O  O14  1  0.08297700  0.83297700  0.25000000  1
  O  O15  1  0.67441900  0.42441900  0.25000000  1
  O  O16  1  0.08419100  0.42614000  0.26091700  1
  O  O17  1  0.66522200  0.82327400  0.23908300  1
  O  O18  1  0.08419100  0.82327400  0.65805100  1
  O  O19  1  0.66522200  0.42614000  0.84194900  1
  O  O20  1  0.62381800  0.87381800  0.75000000  1
  O  O21  1  0.37618200  0.12618200  0.25000000  1
