# generated using pymatgen
data_NdTlP2S7
_symmetry_space_group_name_H-M   'P 1'
_cell_length_a   12.52643500
_cell_length_b   9.09791900
_cell_length_c   9.89173408
_cell_angle_alpha   89.51248035
_cell_angle_beta   90.00000000
_cell_angle_gamma   90.00000000
_symmetry_Int_Tables_number   1
_chemical_formula_structural   NdTlP2S7
_chemical_formula_sum   'Nd4 Tl4 P8 S28'
_cell_volume   1127.26563102
_cell_formula_units_Z   4
loop_
 _symmetry_equiv_pos_site_id
 _symmetry_equiv_pos_as_xyz
  1  'x, y, z'
loop_
 _atom_site_type_symbol
 _atom_site_label
 _atom_site_symmetry_multiplicity
 _atom_site_fract_x
 _atom_site_fract_y
 _atom_site_fract_z
 _atom_site_occupancy
  Nd  Nd0  1  0.64275600  0.10703300  0.14367200  1
  Nd  Nd1  1  0.14275600  0.39296700  0.85632800  1
  Nd  Nd2  1  0.35724400  0.89296700  0.85632800  1
  Nd  Nd3  1  0.85724400  0.60703300  0.14367200  1
  Tl  Tl4  1  0.81105400  0.37194900  0.60407100  1
  Tl  Tl5  1  0.31105400  0.12805100  0.39592900  1
  Tl  Tl6  1  0.18894600  0.62805100  0.39592900  1
  Tl  Tl7  1  0.68894600  0.87194900  0.60407100  1
  P  P8  1  0.03724200  0.30283500  0.18641000  1
  P  P9  1  0.53724200  0.19716500  0.81359000  1
  P  P10  1  0.96275800  0.69716500  0.81359000  1
  P  P11  1  0.46275800  0.80283500  0.18641000  1
  P  P12  1  0.60085000  0.47715900  0.27561400  1
  P  P13  1  0.10085000  0.02284100  0.72438600  1
  P  P14  1  0.39915000  0.52284100  0.72438600  1
  P  P15  1  0.89915000  0.97715900  0.27561400  1
  S  S16  1  0.19230600  0.35317800  0.14793100  1
  S  S17  1  0.69230600  0.14682200  0.85206900  1
  S  S18  1  0.80769400  0.64682200  0.85206900  1
  S  S19  1  0.30769400  0.85317800  0.14793100  1
  S  S20  1  0.97688800  0.43009100  0.33576700  1
  S  S21  1  0.47688800  0.06990900  0.66423300  1
  S  S22  1  0.02311200  0.56990900  0.66423300  1
  S  S23  1  0.52311200  0.93009100  0.33576700  1
  S  S24  1  0.05333700  0.07821100  0.25111600  1
  S  S25  1  0.55333700  0.42178900  0.74888400  1
  S  S26  1  0.94666300  0.92178900  0.74888400  1
  S  S27  1  0.44666300  0.57821100  0.25111600  1
  S  S28  1  0.79364800  0.11018000  0.37160800  1
  S  S29  1  0.29364800  0.38982000  0.62839200  1
  S  S30  1  0.20635200  0.88982000  0.62839200  1
  S  S31  1  0.70635200  0.61018000  0.37160800  1
  S  S32  1  0.66653200  0.42839600  0.09183500  1
  S  S33  1  0.16653200  0.07160400  0.90816500  1
  S  S34  1  0.33346800  0.57160400  0.90816500  1
  S  S35  1  0.83346800  0.92839600  0.09183500  1
  S  S36  1  0.55615300  0.28913900  0.36837800  1
  S  S37  1  0.05615300  0.21086100  0.63162200  1
  S  S38  1  0.44384700  0.71086100  0.63162200  1
  S  S39  1  0.94384700  0.78913900  0.36837800  1
  S  S40  1  0.94196500  0.32178000  0.02004000  1
  S  S41  1  0.44196500  0.17822000  0.97996000  1
  S  S42  1  0.05803500  0.67822000  0.97996000  1
  S  S43  1  0.55803500  0.82178000  0.02004000  1
