# generated using pymatgen
data_Na2TiTeO6
_symmetry_space_group_name_H-M   'P 1'
_cell_length_a   6.15926259
_cell_length_b   6.15926259
_cell_length_c   6.15926246
_cell_angle_alpha   50.87330406
_cell_angle_beta   50.87330406
_cell_angle_gamma   50.87330848
_symmetry_Int_Tables_number   1
_chemical_formula_structural   Na2TiTeO6
_chemical_formula_sum   'Na2 Ti1 Te1 O6'
_cell_volume   129.66479319
_cell_formula_units_Z   1
loop_
 _symmetry_equiv_pos_site_id
 _symmetry_equiv_pos_as_xyz
  1  'x, y, z'
loop_
 _atom_site_type_symbol
 _atom_site_label
 _atom_site_symmetry_multiplicity
 _atom_site_fract_x
 _atom_site_fract_y
 _atom_site_fract_z
 _atom_site_occupancy
  Na  Na0  1  0.85937200  0.85937200  0.85937200  1
  Na  Na1  1  0.13842300  0.13842300  0.13842300  1
  Ti  Ti2  1  0.65642300  0.65642300  0.65642300  1
  Te  Te3  1  0.34067700  0.34067700  0.34067700  1
  O  O4  1  0.68232500  0.06400300  0.46365200  1
  O  O5  1  0.46365200  0.68232500  0.06400300  1
  O  O6  1  0.06400300  0.46365200  0.68232500  1
  O  O7  1  0.31311600  0.94642300  0.53558500  1
  O  O8  1  0.53558500  0.31311600  0.94642300  1
  O  O9  1  0.94642300  0.53558500  0.31311600  1
