# generated using pymatgen
data_GdAg(WO4)2
_symmetry_space_group_name_H-M   'P 1'
_cell_length_a   7.45765650
_cell_length_b   7.45765650
_cell_length_c   7.38149723
_cell_angle_alpha   65.58714018
_cell_angle_beta   65.58714018
_cell_angle_gamma   94.02736234
_symmetry_Int_Tables_number   1
_chemical_formula_structural   GdAg(WO4)2
_chemical_formula_sum   'Gd2 Ag2 W4 O16'
_cell_volume   325.70233852
_cell_formula_units_Z   2
loop_
 _symmetry_equiv_pos_site_id
 _symmetry_equiv_pos_as_xyz
  1  'x, y, z'
loop_
 _atom_site_type_symbol
 _atom_site_label
 _atom_site_symmetry_multiplicity
 _atom_site_fract_x
 _atom_site_fract_y
 _atom_site_fract_z
 _atom_site_occupancy
  Gd  Gd0  1  0.69962000  0.30038000  0.00000000  1
  Gd  Gd1  1  0.30038000  0.69962000  0.00000000  1
  Ag  Ag2  1  0.68507200  0.68507200  0.48243000  1
  Ag  Ag3  1  0.31492800  0.31492800  0.51757000  1
  W  W4  1  0.21155700  0.21155700  0.03298400  1
  W  W5  1  0.78844300  0.78844300  0.96701600  1
  W  W6  1  0.83656900  0.16343100  0.50000000  1
  W  W7  1  0.16343100  0.83656900  0.50000000  1
  O  O8  1  0.35091200  0.10151000  0.24367800  1
  O  O9  1  0.64908800  0.89849000  0.75632200  1
  O  O10  1  0.89849000  0.64908800  0.75632200  1
  O  O11  1  0.10151000  0.35091200  0.24367800  1
  O  O12  1  0.68538900  0.21705100  0.35450800  1
  O  O13  1  0.31461100  0.78294900  0.64549200  1
  O  O14  1  0.78294900  0.31461100  0.64549200  1
  O  O15  1  0.21705100  0.68538900  0.35450800  1
  O  O16  1  0.69915100  0.95714900  0.08530700  1
  O  O17  1  0.30084900  0.04285100  0.91469300  1
  O  O18  1  0.04285100  0.30084900  0.91469300  1
  O  O19  1  0.95714900  0.69915100  0.08530700  1
  O  O20  1  0.97844900  0.97844900  0.34241100  1
  O  O21  1  0.02155100  0.02155100  0.65758900  1
  O  O22  1  0.55710500  0.55710500  0.13687700  1
  O  O23  1  0.44289500  0.44289500  0.86312300  1
