# generated using pymatgen
data_Cs2ZnSn3Se8
_symmetry_space_group_name_H-M   'P 1'
_cell_length_a   8.03013100
_cell_length_b   13.65623700
_cell_length_c   18.79705300
_cell_angle_alpha   90.00000000
_cell_angle_beta   90.00000000
_cell_angle_gamma   90.00000000
_symmetry_Int_Tables_number   1
_chemical_formula_structural   Cs2ZnSn3Se8
_chemical_formula_sum   'Cs8 Zn4 Sn12 Se32'
_cell_volume   2061.31062298
_cell_formula_units_Z   4
loop_
 _symmetry_equiv_pos_site_id
 _symmetry_equiv_pos_as_xyz
  1  'x, y, z'
loop_
 _atom_site_type_symbol
 _atom_site_label
 _atom_site_symmetry_multiplicity
 _atom_site_fract_x
 _atom_site_fract_y
 _atom_site_fract_z
 _atom_site_occupancy
  Cs  Cs0  1  0.74891500  0.63119300  0.05279900  1
  Cs  Cs1  1  0.75108500  0.36880700  0.55279900  1
  Cs  Cs2  1  0.24891500  0.86880700  0.94720100  1
  Cs  Cs3  1  0.25108500  0.13119300  0.44720100  1
  Cs  Cs4  1  0.22896800  0.81149700  0.34175400  1
  Cs  Cs5  1  0.27103200  0.18850300  0.84175400  1
  Cs  Cs6  1  0.72896800  0.68850300  0.65824600  1
  Cs  Cs7  1  0.77103200  0.31149700  0.15824600  1
  Zn  Zn8  1  0.99050400  0.50068400  0.34729700  1
  Zn  Zn9  1  0.50949600  0.49931600  0.84729700  1
  Zn  Zn10  1  0.49050400  0.99931600  0.65270300  1
  Zn  Zn11  1  0.00949600  0.00068400  0.15270300  1
  Sn  Sn12  1  0.76130000  0.04716200  0.31913400  1
  Sn  Sn13  1  0.73870000  0.95283800  0.81913400  1
  Sn  Sn14  1  0.26130000  0.45283800  0.68086600  1
  Sn  Sn15  1  0.23870000  0.54716200  0.18086600  1
  Sn  Sn16  1  0.72851500  0.93625300  0.48505300  1
  Sn  Sn17  1  0.77148500  0.06374700  0.98505300  1
  Sn  Sn18  1  0.22851500  0.56374700  0.51494700  1
  Sn  Sn19  1  0.27148500  0.43625300  0.01494700  1
  Sn  Sn20  1  0.50597500  0.98760700  0.15086100  1
  Sn  Sn21  1  0.99402500  0.01239300  0.65086100  1
  Sn  Sn22  1  0.00597500  0.51239300  0.84913900  1
  Sn  Sn23  1  0.49402500  0.48760700  0.34913900  1
  Se  Se24  1  0.50571800  0.61305300  0.45490300  1
  Se  Se25  1  0.99428200  0.38694700  0.95490300  1
  Se  Se26  1  0.00571800  0.88694700  0.54509700  1
  Se  Se27  1  0.49428200  0.11305300  0.04509700  1
  Se  Se28  1  0.96867100  0.61538000  0.45088200  1
  Se  Se29  1  0.53132900  0.38462000  0.95088200  1
  Se  Se30  1  0.46867100  0.88462000  0.54911800  1
  Se  Se31  1  0.03132900  0.11538000  0.04911800  1
  Se  Se32  1  0.76936600  0.88454900  0.15514800  1
  Se  Se33  1  0.73063400  0.11545100  0.65514800  1
  Se  Se34  1  0.26936600  0.61545100  0.84485200  1
  Se  Se35  1  0.23063400  0.38454900  0.34485200  1
  Se  Se36  1  0.74877400  0.61889600  0.85193100  1
  Se  Se37  1  0.75122600  0.38110400  0.35193100  1
  Se  Se38  1  0.24877400  0.88110400  0.14806900  1
  Se  Se39  1  0.25122600  0.11889600  0.64806900  1
  Se  Se40  1  0.50712700  0.60873300  0.24114000  1
  Se  Se41  1  0.99287300  0.39126700  0.74114000  1
  Se  Se42  1  0.00712700  0.89126700  0.75886000  1
  Se  Se43  1  0.49287300  0.10873300  0.25886000  1
  Se  Se44  1  0.97196600  0.60374700  0.23681900  1
  Se  Se45  1  0.52803400  0.39625300  0.73681900  1
  Se  Se46  1  0.47196600  0.89625300  0.76318100  1
  Se  Se47  1  0.02803400  0.10374700  0.26318100  1
  Se  Se48  1  0.74119300  0.11956500  0.44786500  1
  Se  Se49  1  0.75880700  0.88043500  0.94786500  1
  Se  Se50  1  0.24119300  0.38043500  0.55213500  1
  Se  Se51  1  0.25880700  0.61956500  0.05213500  1
  Se  Se52  1  0.74131700  0.86493100  0.35700900  1
  Se  Se53  1  0.75868300  0.13506900  0.85700900  1
  Se  Se54  1  0.24131700  0.63506900  0.64299100  1
  Se  Se55  1  0.25868300  0.36493100  0.14299100  1
