# generated using pymatgen
data_CsY2CuTe4
_symmetry_space_group_name_H-M   'P 1'
_cell_length_a   18.89573430
_cell_length_b   18.89573430
_cell_length_c   21.03779624
_cell_angle_alpha   72.15375452
_cell_angle_beta   72.15375452
_cell_angle_gamma   13.81175444
_symmetry_Int_Tables_number   1
_chemical_formula_structural   CsY2CuTe4
_chemical_formula_sum   'Cs6 Y12 Cu6 Te24'
_cell_volume   1705.66016593
_cell_formula_units_Z   6
loop_
 _symmetry_equiv_pos_site_id
 _symmetry_equiv_pos_as_xyz
  1  'x, y, z'
loop_
 _atom_site_type_symbol
 _atom_site_label
 _atom_site_symmetry_multiplicity
 _atom_site_fract_x
 _atom_site_fract_y
 _atom_site_fract_z
 _atom_site_occupancy
  Cs  Cs0  1  0.23899200  0.23899200  0.88493000  1
  Cs  Cs1  1  0.76100800  0.76100800  0.11507000  1
  Cs  Cs2  1  0.11096300  0.11096300  0.54847500  1
  Cs  Cs3  1  0.88903700  0.88903700  0.45152500  1
  Cs  Cs4  1  0.01738700  0.01738700  0.75215600  1
  Cs  Cs5  1  0.98261300  0.98261300  0.24784400  1
  Y  Y6  1  0.00000000  0.00000000  0.00000000  1
  Y  Y7  1  0.00000000  0.00000000  0.50000000  1
  Y  Y8  1  0.36914800  0.36914800  0.68993500  1
  Y  Y9  1  0.63085200  0.63085200  0.31006500  1
  Y  Y10  1  0.12188000  0.12188000  0.13766200  1
  Y  Y11  1  0.87812000  0.87812000  0.86233800  1
  Y  Y12  1  0.39755900  0.39755900  0.02605700  1
  Y  Y13  1  0.60244100  0.60244100  0.97394300  1
  Y  Y14  1  0.16706100  0.16706100  0.72118000  1
  Y  Y15  1  0.83293900  0.83293900  0.27882000  1
  Y  Y16  1  0.24142300  0.24142300  0.41655300  1
  Y  Y17  1  0.75857700  0.75857700  0.58344700  1
  Cu  Cu18  1  0.39054300  0.39054300  0.17252900  1
  Cu  Cu19  1  0.60945700  0.60945700  0.82747100  1
  Cu  Cu20  1  0.45231200  0.45231200  0.63965400  1
  Cu  Cu21  1  0.54768800  0.54768800  0.36034600  1
  Cu  Cu22  1  0.20108200  0.20108200  0.31974800  1
  Cu  Cu23  1  0.79891800  0.79891800  0.68025200  1
  Te  Te24  1  0.13971700  0.13971700  0.87000600  1
  Te  Te25  1  0.86028300  0.86028300  0.12999400  1
  Te  Te26  1  0.38343100  0.38343100  0.29767500  1
  Te  Te27  1  0.61656900  0.61656900  0.70232500  1
  Te  Te28  1  0.46050300  0.46050300  0.09451000  1
  Te  Te29  1  0.53949700  0.53949700  0.90549000  1
  Te  Te30  1  0.08006500  0.08006500  0.39499700  1
  Te  Te31  1  0.91993500  0.91993500  0.60500300  1
  Te  Te32  1  0.47656400  0.47656400  0.41877700  1
  Te  Te33  1  0.52343600  0.52343600  0.58122300  1
  Te  Te34  1  0.42422300  0.42422300  0.77388400  1
  Te  Te35  1  0.57577700  0.57577700  0.22611600  1
  Te  Te36  1  0.31752300  0.31752300  0.60022300  1
  Te  Te37  1  0.68247700  0.68247700  0.39977700  1
  Te  Te38  1  0.17620100  0.17620100  0.21875200  1
  Te  Te39  1  0.82379900  0.82379900  0.78124800  1
  Te  Te40  1  0.27589700  0.27589700  0.26785600  1
  Te  Te41  1  0.72410300  0.72410300  0.73214400  1
  Te  Te42  1  0.06195000  0.06195000  0.06536400  1
  Te  Te43  1  0.93805000  0.93805000  0.93463600  1
  Te  Te44  1  0.33579200  0.33579200  0.95944400  1
  Te  Te45  1  0.66420800  0.66420800  0.04055600  1
  Te  Te46  1  0.20775400  0.20775400  0.56825900  1
  Te  Te47  1  0.79224600  0.79224600  0.43174100  1
