# generated using pymatgen
data_Ba3NbAs3O
_symmetry_space_group_name_H-M   'P 1'
_cell_length_a   6.82036200
_cell_length_b   11.25460700
_cell_length_c   13.67749500
_cell_angle_alpha   90.00000000
_cell_angle_beta   90.00000000
_cell_angle_gamma   90.00000000
_symmetry_Int_Tables_number   1
_chemical_formula_structural   Ba3NbAs3O
_chemical_formula_sum   'Ba12 Nb4 As12 O4'
_cell_volume   1049.89127162
_cell_formula_units_Z   4
loop_
 _symmetry_equiv_pos_site_id
 _symmetry_equiv_pos_as_xyz
  1  'x, y, z'
loop_
 _atom_site_type_symbol
 _atom_site_label
 _atom_site_symmetry_multiplicity
 _atom_site_fract_x
 _atom_site_fract_y
 _atom_site_fract_z
 _atom_site_occupancy
  Ba  Ba0  1  0.24329900  0.04522000  0.13082600  1
  Ba  Ba1  1  0.25670100  0.54522000  0.63082600  1
  Ba  Ba2  1  0.24329900  0.45478000  0.13082600  1
  Ba  Ba3  1  0.74329900  0.04522000  0.36917400  1
  Ba  Ba4  1  0.75670100  0.95478000  0.86917400  1
  Ba  Ba5  1  0.74329900  0.45478000  0.36917400  1
  Ba  Ba6  1  0.75670100  0.54522000  0.86917400  1
  Ba  Ba7  1  0.25670100  0.95478000  0.63082600  1
  Ba  Ba8  1  0.27327200  0.25000000  0.87200700  1
  Ba  Ba9  1  0.77327200  0.25000000  0.62799300  1
  Ba  Ba10  1  0.72672800  0.75000000  0.12799300  1
  Ba  Ba11  1  0.22672800  0.75000000  0.37200600  1
  Nb  Nb12  1  0.66031800  0.75000000  0.54543700  1
  Nb  Nb13  1  0.33968200  0.25000000  0.45456300  1
  Nb  Nb14  1  0.16031800  0.75000000  0.95456300  1
  Nb  Nb15  1  0.83968200  0.25000000  0.04543700  1
  As  As16  1  0.27291700  0.25000000  0.63331300  1
  As  As17  1  0.77291700  0.25000000  0.86668700  1
  As  As18  1  0.72708300  0.75000000  0.36668700  1
  As  As19  1  0.22708300  0.75000000  0.13331300  1
  As  As20  1  0.73658000  0.44394200  0.11735500  1
  As  As21  1  0.23658000  0.44394200  0.38264500  1
  As  As22  1  0.26342000  0.94394200  0.88264500  1
  As  As23  1  0.76342000  0.55605800  0.61735500  1
  As  As24  1  0.26342000  0.55605800  0.88264500  1
  As  As25  1  0.76342000  0.94394200  0.61735500  1
  As  As26  1  0.73658000  0.05605800  0.11735500  1
  As  As27  1  0.23658000  0.05605800  0.38264500  1
  O  O28  1  0.11855500  0.25000000  0.05338000  1
  O  O29  1  0.61855500  0.25000000  0.44662000  1
  O  O30  1  0.88144500  0.75000000  0.94662000  1
  O  O31  1  0.38144500  0.75000000  0.55338000  1
