# generated using pymatgen
data_CsLuCdTe3
_symmetry_space_group_name_H-M   'P 1'
_cell_length_a   8.97378162
_cell_length_b   8.97378162
_cell_length_c   11.78557200
_cell_angle_alpha   90.00000000
_cell_angle_beta   90.00000000
_cell_angle_gamma   150.97937712
_symmetry_Int_Tables_number   1
_chemical_formula_structural   CsLuCdTe3
_chemical_formula_sum   'Cs2 Lu2 Cd2 Te6'
_cell_volume   460.42063010
_cell_formula_units_Z   2
loop_
 _symmetry_equiv_pos_site_id
 _symmetry_equiv_pos_as_xyz
  1  'x, y, z'
loop_
 _atom_site_type_symbol
 _atom_site_label
 _atom_site_symmetry_multiplicity
 _atom_site_fract_x
 _atom_site_fract_y
 _atom_site_fract_z
 _atom_site_occupancy
  Cs  Cs0  1  0.24918000  0.75082000  0.25000000  1
  Cs  Cs1  1  0.75082000  0.24918000  0.75000000  1
  Lu  Lu2  1  0.00000000  0.00000000  0.50000000  1
  Lu  Lu3  1  0.00000000  0.00000000  0.00000000  1
  Cd  Cd4  1  0.53904700  0.46095300  0.25000000  1
  Cd  Cd5  1  0.46095300  0.53904700  0.75000000  1
  Te  Te6  1  0.61836300  0.38163700  0.04233800  1
  Te  Te7  1  0.38163700  0.61836300  0.95766200  1
  Te  Te8  1  0.06383300  0.93616700  0.75000000  1
  Te  Te9  1  0.93616700  0.06383300  0.25000000  1
  Te  Te10  1  0.61836300  0.38163700  0.45766200  1
  Te  Te11  1  0.38163700  0.61836300  0.54233800  1
