# generated using pymatgen
data_VSb(SeO3)4
_symmetry_space_group_name_H-M   'P 1'
_cell_length_a   8.22162300
_cell_length_b   8.21733400
_cell_length_c   8.22387666
_cell_angle_alpha   89.51663051
_cell_angle_beta   90.00000000
_cell_angle_gamma   90.00000000
_symmetry_Int_Tables_number   1
_chemical_formula_structural   VSb(SeO3)4
_chemical_formula_sum   'V2 Sb2 Se8 O24'
_cell_volume   555.58387299
_cell_formula_units_Z   2
loop_
 _symmetry_equiv_pos_site_id
 _symmetry_equiv_pos_as_xyz
  1  'x, y, z'
loop_
 _atom_site_type_symbol
 _atom_site_label
 _atom_site_symmetry_multiplicity
 _atom_site_fract_x
 _atom_site_fract_y
 _atom_site_fract_z
 _atom_site_occupancy
  V  V0  1  0.00000000  0.50000000  0.00000000  1
  V  V1  1  0.50000000  0.50000000  0.50000000  1
  Sb  Sb2  1  0.00000000  0.00000000  0.50000000  1
  Sb  Sb3  1  0.50000000  0.00000000  0.00000000  1
  Se  Se4  1  0.33044200  0.66116000  0.16878600  1
  Se  Se5  1  0.83044200  0.33884000  0.33121400  1
  Se  Se6  1  0.66559600  0.82754300  0.66625300  1
  Se  Se7  1  0.16559600  0.17245700  0.83374700  1
  Se  Se8  1  0.66955800  0.33884000  0.83121400  1
  Se  Se9  1  0.16955800  0.66116000  0.66878600  1
  Se  Se10  1  0.33440400  0.17245700  0.33374700  1
  Se  Se11  1  0.83440400  0.82754300  0.16625300  1
  O  O12  1  0.24259500  0.53321800  0.03242800  1
  O  O13  1  0.74259500  0.46678200  0.46757200  1
  O  O14  1  0.75716400  0.97089000  0.53180200  1
  O  O15  1  0.25716400  0.02911000  0.96819800  1
  O  O16  1  0.53158600  0.96982500  0.75744700  1
  O  O17  1  0.46805600  0.53288300  0.25717500  1
  O  O18  1  0.96805600  0.46711700  0.24282500  1
  O  O19  1  0.03158600  0.03017500  0.74255300  1
  O  O20  1  0.97164700  0.23979400  0.47116200  1
  O  O21  1  0.53393100  0.74548600  0.53295000  1
  O  O22  1  0.47164700  0.76020600  0.02883800  1
  O  O23  1  0.03393100  0.25451400  0.96705000  1
  O  O24  1  0.75740500  0.46678200  0.96757200  1
  O  O25  1  0.25740500  0.53321800  0.53242800  1
  O  O26  1  0.24283600  0.02911000  0.46819800  1
  O  O27  1  0.74283600  0.97089000  0.03180200  1
  O  O28  1  0.46841400  0.03017500  0.24255300  1
  O  O29  1  0.53194400  0.46711700  0.74282500  1
  O  O30  1  0.03194400  0.53288300  0.75717500  1
  O  O31  1  0.96841400  0.96982500  0.25744700  1
  O  O32  1  0.02835300  0.76020600  0.52883800  1
  O  O33  1  0.46606900  0.25451400  0.46705000  1
  O  O34  1  0.52835300  0.23979400  0.97116200  1
  O  O35  1  0.96606900  0.74548600  0.03295000  1
