# generated using pymatgen
data_HfHg4(AsCl3)2
_symmetry_space_group_name_H-M   'P 1'
_cell_length_a   13.72049300
_cell_length_b   13.81802200
_cell_length_c   17.22305500
_cell_angle_alpha   90.00000000
_cell_angle_beta   90.00000000
_cell_angle_gamma   90.00000000
_symmetry_Int_Tables_number   1
_chemical_formula_structural   HfHg4(AsCl3)2
_chemical_formula_sum   'Hf8 Hg32 As16 Cl48'
_cell_volume   3265.32027411
_cell_formula_units_Z   8
loop_
 _symmetry_equiv_pos_site_id
 _symmetry_equiv_pos_as_xyz
  1  'x, y, z'
loop_
 _atom_site_type_symbol
 _atom_site_label
 _atom_site_symmetry_multiplicity
 _atom_site_fract_x
 _atom_site_fract_y
 _atom_site_fract_z
 _atom_site_occupancy
  Hf  Hf0  1  0.70364800  0.99509800  0.11620200  1
  Hf  Hf1  1  0.20364800  0.50490200  0.88379800  1
  Hf  Hf2  1  0.29635200  0.49509800  0.38379800  1
  Hf  Hf3  1  0.79635200  0.00490200  0.61620200  1
  Hf  Hf4  1  0.29635200  0.00490200  0.88379800  1
  Hf  Hf5  1  0.79635200  0.49509800  0.11620200  1
  Hf  Hf6  1  0.70364800  0.50490200  0.61620200  1
  Hf  Hf7  1  0.20364800  0.99509800  0.38379800  1
  Hg  Hg8  1  0.73041000  0.23399000  0.87231700  1
  Hg  Hg9  1  0.23041000  0.26601000  0.12768300  1
  Hg  Hg10  1  0.26959000  0.73399000  0.62768300  1
  Hg  Hg11  1  0.76959000  0.76601000  0.37231700  1
  Hg  Hg12  1  0.26959000  0.76601000  0.12768300  1
  Hg  Hg13  1  0.76959000  0.73399000  0.87231700  1
  Hg  Hg14  1  0.73041000  0.26601000  0.37231700  1
  Hg  Hg15  1  0.23041000  0.23399000  0.62768300  1
  Hg  Hg16  1  0.47922500  0.28280600  0.99737200  1
  Hg  Hg17  1  0.97922500  0.21719400  0.00262800  1
  Hg  Hg18  1  0.52077500  0.78280600  0.50262800  1
  Hg  Hg19  1  0.02077500  0.71719400  0.49737200  1
  Hg  Hg20  1  0.52077500  0.71719400  0.00262800  1
  Hg  Hg21  1  0.02077500  0.78280600  0.99737200  1
  Hg  Hg22  1  0.47922500  0.21719400  0.49737200  1
  Hg  Hg23  1  0.97922500  0.28280600  0.50262800  1
  Hg  Hg24  1  0.58611400  0.49031900  0.85793800  1
  Hg  Hg25  1  0.08611400  0.00968100  0.14206200  1
  Hg  Hg26  1  0.41388600  0.99031900  0.64206200  1
  Hg  Hg27  1  0.91388600  0.50968100  0.35793800  1
  Hg  Hg28  1  0.41388600  0.50968100  0.14206200  1
  Hg  Hg29  1  0.91388600  0.99031900  0.85793800  1
  Hg  Hg30  1  0.58611400  0.00968100  0.35793800  1
  Hg  Hg31  1  0.08611400  0.49031900  0.64206200  1
  Hg  Hg32  1  0.47688700  0.24499300  0.74844000  1
  Hg  Hg33  1  0.97688700  0.25500700  0.25156000  1
  Hg  Hg34  1  0.52311300  0.74499300  0.75156000  1
  Hg  Hg35  1  0.02311300  0.75500700  0.24844000  1
  Hg  Hg36  1  0.52311300  0.75500700  0.25156000  1
  Hg  Hg37  1  0.02311300  0.74499300  0.74844000  1
  Hg  Hg38  1  0.47688700  0.25500700  0.24844000  1
  Hg  Hg39  1  0.97688700  0.24499300  0.75156000  1
  As  As40  1  0.56243700  0.30796300  0.86737900  1
  As  As41  1  0.06243700  0.19203700  0.13262100  1
  As  As42  1  0.43756300  0.80796300  0.63262100  1
  As  As43  1  0.93756300  0.69203700  0.36737900  1
  As  As44  1  0.43756300  0.69203700  0.13262100  1
  As  As45  1  0.93756300  0.80796300  0.86737900  1
  As  As46  1  0.56243700  0.19203700  0.36737900  1
  As  As47  1  0.06243700  0.30796300  0.63262100  1
  As  As48  1  0.90288900  0.17310900  0.87292900  1
  As  As49  1  0.40288900  0.32689100  0.12707100  1
  As  As50  1  0.09711100  0.67310900  0.62707100  1
  As  As51  1  0.59711100  0.82689100  0.37292900  1
  As  As52  1  0.09711100  0.82689100  0.12707100  1
  As  As53  1  0.59711100  0.67310900  0.87292900  1
  As  As54  1  0.90288900  0.32689100  0.37292900  1
  As  As55  1  0.40288900  0.17310900  0.62707100  1
  Cl  Cl56  1  0.77272400  0.07923400  0.22938600  1
  Cl  Cl57  1  0.27272400  0.42076600  0.77061400  1
  Cl  Cl58  1  0.22727600  0.57923400  0.27061400  1
  Cl  Cl59  1  0.72727600  0.92076600  0.72938600  1
  Cl  Cl60  1  0.22727600  0.92076600  0.77061400  1
  Cl  Cl61  1  0.72727600  0.57923400  0.22938600  1
  Cl  Cl62  1  0.77272400  0.42076600  0.72938600  1
  Cl  Cl63  1  0.27272400  0.07923400  0.27061400  1
  Cl  Cl64  1  0.86985400  0.99221000  0.05479700  1
  Cl  Cl65  1  0.36985400  0.50779000  0.94520300  1
  Cl  Cl66  1  0.13014600  0.49221000  0.44520300  1
  Cl  Cl67  1  0.63014600  0.00779000  0.55479700  1
  Cl  Cl68  1  0.13014600  0.00779000  0.94520300  1
  Cl  Cl69  1  0.63014600  0.49221000  0.05479700  1
  Cl  Cl70  1  0.86985400  0.50779000  0.55479700  1
  Cl  Cl71  1  0.36985400  0.99221000  0.44520300  1
  Cl  Cl72  1  0.53940400  0.99641200  0.17439200  1
  Cl  Cl73  1  0.03940400  0.50358800  0.82560800  1
  Cl  Cl74  1  0.46059600  0.49641200  0.32560800  1
  Cl  Cl75  1  0.96059600  0.00358800  0.67439200  1
  Cl  Cl76  1  0.46059600  0.00358800  0.82560800  1
  Cl  Cl77  1  0.96059600  0.49641200  0.17439200  1
  Cl  Cl78  1  0.53940400  0.50358800  0.67439200  1
  Cl  Cl79  1  0.03940400  0.99641200  0.32560800  1
  Cl  Cl80  1  0.66947700  0.14878300  0.04894200  1
  Cl  Cl81  1  0.16947700  0.35121700  0.95105800  1
  Cl  Cl82  1  0.33052300  0.64878300  0.45105800  1
  Cl  Cl83  1  0.83052300  0.85121700  0.54894200  1
  Cl  Cl84  1  0.33052300  0.85121700  0.95105800  1
  Cl  Cl85  1  0.83052300  0.64878300  0.04894200  1
  Cl  Cl86  1  0.66947700  0.35121700  0.54894200  1
  Cl  Cl87  1  0.16947700  0.14878300  0.45105800  1
  Cl  Cl88  1  0.64331300  0.90281400  0.00172800  1
  Cl  Cl89  1  0.14331300  0.59718600  0.99827200  1
  Cl  Cl90  1  0.35668700  0.40281400  0.49827200  1
  Cl  Cl91  1  0.85668700  0.09718600  0.50172800  1
  Cl  Cl92  1  0.35668700  0.09718600  0.99827200  1
  Cl  Cl93  1  0.85668700  0.40281400  0.00172800  1
  Cl  Cl94  1  0.64331300  0.59718600  0.50172800  1
  Cl  Cl95  1  0.14331300  0.90281400  0.49827200  1
  Cl  Cl96  1  0.73790700  0.84012000  0.18145400  1
  Cl  Cl97  1  0.23790700  0.65988000  0.81854600  1
  Cl  Cl98  1  0.26209300  0.34012000  0.31854600  1
  Cl  Cl99  1  0.76209300  0.15988000  0.68145400  1
  Cl  Cl100  1  0.26209300  0.15988000  0.81854600  1
  Cl  Cl101  1  0.76209300  0.34012000  0.18145400  1
  Cl  Cl102  1  0.73790700  0.65988000  0.68145400  1
  Cl  Cl103  1  0.23790700  0.84012000  0.31854600  1
