# generated using pymatgen
data_Eu(GaAs)2
_symmetry_space_group_name_H-M   'P 1'
_cell_length_a   4.09747500
_cell_length_b   9.57757080
_cell_length_c   12.46927700
_cell_angle_alpha   95.18564945
_cell_angle_beta   90.00000000
_cell_angle_gamma   90.00000000
_symmetry_Int_Tables_number   1
_chemical_formula_structural   Eu(GaAs)2
_chemical_formula_sum   'Eu4 Ga8 As8'
_cell_volume   487.33967675
_cell_formula_units_Z   4
loop_
 _symmetry_equiv_pos_site_id
 _symmetry_equiv_pos_as_xyz
  1  'x, y, z'
loop_
 _atom_site_type_symbol
 _atom_site_label
 _atom_site_symmetry_multiplicity
 _atom_site_fract_x
 _atom_site_fract_y
 _atom_site_fract_z
 _atom_site_occupancy
  Eu  Eu0  1  0.00000000  0.20069600  0.27613600  1
  Eu  Eu1  1  0.00000000  0.79930400  0.72386400  1
  Eu  Eu2  1  0.50000000  0.50000000  0.50000000  1
  Eu  Eu3  1  0.50000000  0.00000000  0.00000000  1
  Ga  Ga4  1  0.50000000  0.39804800  0.05429800  1
  Ga  Ga5  1  0.50000000  0.60195200  0.94570200  1
  Ga  Ga6  1  0.50000000  0.89095000  0.43727400  1
  Ga  Ga7  1  0.50000000  0.10905000  0.56272600  1
  Ga  Ga8  1  0.00000000  0.80570100  0.17593400  1
  Ga  Ga9  1  0.00000000  0.19429900  0.82406600  1
  Ga  Ga10  1  0.00000000  0.60461700  0.28147100  1
  Ga  Ga11  1  0.00000000  0.39538300  0.71852900  1
  As  As12  1  0.00000000  0.26244500  0.53159600  1
  As  As13  1  0.00000000  0.73755500  0.46840400  1
  As  As14  1  0.50000000  0.95218600  0.24051800  1
  As  As15  1  0.50000000  0.04781400  0.75948200  1
  As  As16  1  0.00000000  0.23956100  0.02613700  1
  As  As17  1  0.00000000  0.76043900  0.97386300  1
  As  As18  1  0.50000000  0.44671700  0.25659000  1
  As  As19  1  0.50000000  0.55328300  0.74341000  1
