# generated using pymatgen
data_Ba3YbIrRuO9
_symmetry_space_group_name_H-M   'P 1'
_cell_length_a   5.94918604
_cell_length_b   5.94912900
_cell_length_c   14.62862500
_cell_angle_alpha   90.00000000
_cell_angle_beta   90.00000000
_cell_angle_gamma   60.00032274
_symmetry_Int_Tables_number   1
_chemical_formula_structural   Ba3YbIrRuO9
_chemical_formula_sum   'Ba6 Yb2 Ir2 Ru2 O18'
_cell_volume   448.38026332
_cell_formula_units_Z   2
loop_
 _symmetry_equiv_pos_site_id
 _symmetry_equiv_pos_as_xyz
  1  'x, y, z'
loop_
 _atom_site_type_symbol
 _atom_site_label
 _atom_site_symmetry_multiplicity
 _atom_site_fract_x
 _atom_site_fract_y
 _atom_site_fract_z
 _atom_site_occupancy
  Ba  Ba0  1  0.33335000  0.33332500  0.40855300  1
  Ba  Ba1  1  0.66666200  0.66666900  0.59262300  1
  Ba  Ba2  1  0.66665000  0.66667500  0.90855300  1
  Ba  Ba3  1  0.33333800  0.33333100  0.09262300  1
  Ba  Ba4  1  0.99998800  0.00000600  0.74928800  1
  Ba  Ba5  1  0.00001200  0.99999400  0.24928800  1
  Yb  Yb6  1  0.00000200  0.99999900  0.50093200  1
  Yb  Yb7  1  0.99999800  0.00000100  0.00093200  1
  Ir  Ir8  1  0.33334000  0.33333000  0.66369200  1
  Ir  Ir9  1  0.66666000  0.66667000  0.16369200  1
  Ru  Ru10  1  0.66666100  0.66666900  0.33881300  1
  Ru  Ru11  1  0.33333900  0.33333100  0.83881300  1
  O  O12  1  0.48917200  0.02167400  0.74994600  1
  O  O13  1  0.02168800  0.48915600  0.74994700  1
  O  O14  1  0.48917200  0.48915400  0.74994600  1
  O  O15  1  0.51082800  0.97832600  0.24994600  1
  O  O16  1  0.97831200  0.51084400  0.24994700  1
  O  O17  1  0.51082800  0.51084600  0.24994600  1
  O  O18  1  0.17749400  0.64502700  0.91030900  1
  O  O19  1  0.64502500  0.17748700  0.91031400  1
  O  O20  1  0.17749400  0.17747900  0.91030900  1
  O  O21  1  0.82281000  0.35436500  0.08844300  1
  O  O22  1  0.35435900  0.82282000  0.08844200  1
  O  O23  1  0.82281000  0.82282600  0.08844300  1
  O  O24  1  0.82250600  0.35497300  0.41030900  1
  O  O25  1  0.35497500  0.82251300  0.41031400  1
  O  O26  1  0.82250600  0.82252100  0.41030900  1
  O  O27  1  0.17719000  0.64563500  0.58844300  1
  O  O28  1  0.64564100  0.17718000  0.58844200  1
  O  O29  1  0.17719000  0.17717400  0.58844300  1
