# generated using pymatgen
data_YMnGaO5
_symmetry_space_group_name_H-M   'P 1'
_cell_length_a   5.75920900
_cell_length_b   7.39335500
_cell_length_c   8.55636700
_cell_angle_alpha   90.00000000
_cell_angle_beta   90.00000000
_cell_angle_gamma   90.00000000
_symmetry_Int_Tables_number   1
_chemical_formula_structural   YMnGaO5
_chemical_formula_sum   'Y4 Mn4 Ga4 O20'
_cell_volume   364.32905149
_cell_formula_units_Z   4
loop_
 _symmetry_equiv_pos_site_id
 _symmetry_equiv_pos_as_xyz
  1  'x, y, z'
loop_
 _atom_site_type_symbol
 _atom_site_label
 _atom_site_symmetry_multiplicity
 _atom_site_fract_x
 _atom_site_fract_y
 _atom_site_fract_z
 _atom_site_occupancy
  Y  Y0  1  0.50000000  0.36649700  0.33161600  1
  Y  Y1  1  0.50000000  0.63350300  0.66838400  1
  Y  Y2  1  0.50000000  0.13350300  0.83161600  1
  Y  Y3  1  0.50000000  0.86649700  0.16838400  1
  Mn  Mn4  1  0.24861300  0.00000000  0.50000000  1
  Mn  Mn5  1  0.75138700  0.00000000  0.50000000  1
  Mn  Mn6  1  0.75138700  0.50000000  0.00000000  1
  Mn  Mn7  1  0.24861300  0.50000000  0.00000000  1
  Ga  Ga8  1  0.00000000  0.10956300  0.14608200  1
  Ga  Ga9  1  0.00000000  0.89043700  0.85391800  1
  Ga  Ga10  1  0.00000000  0.39043700  0.64608200  1
  Ga  Ga11  1  0.00000000  0.60956300  0.35391800  1
  O  O12  1  0.50000000  0.33992200  0.05821300  1
  O  O13  1  0.50000000  0.66007800  0.94178700  1
  O  O14  1  0.50000000  0.16007800  0.55821300  1
  O  O15  1  0.50000000  0.83992200  0.44178700  1
  O  O16  1  0.22832300  0.00000000  0.00000000  1
  O  O17  1  0.77167700  0.00000000  0.00000000  1
  O  O18  1  0.77167700  0.50000000  0.50000000  1
  O  O19  1  0.22832300  0.50000000  0.50000000  1
  O  O20  1  0.25824700  0.10803600  0.29384300  1
  O  O21  1  0.74175300  0.89196400  0.70615700  1
  O  O22  1  0.25824700  0.89196400  0.70615700  1
  O  O23  1  0.74175300  0.39196400  0.79384300  1
  O  O24  1  0.74175300  0.10803600  0.29384300  1
  O  O25  1  0.25824700  0.60803600  0.20615700  1
  O  O26  1  0.74175300  0.60803600  0.20615700  1
  O  O27  1  0.25824700  0.39196400  0.79384300  1
  O  O28  1  0.00000000  0.35047500  0.07198400  1
  O  O29  1  0.00000000  0.64952500  0.92801600  1
  O  O30  1  0.00000000  0.14952500  0.57198400  1
  O  O31  1  0.00000000  0.85047500  0.42801600  1
