# generated using pymatgen
data_NaFe(SeO3)2
_symmetry_space_group_name_H-M   'P 1'
_cell_length_a   5.45858600
_cell_length_b   8.05348000
_cell_length_c   12.76201900
_cell_angle_alpha   90.00000000
_cell_angle_beta   90.00000000
_cell_angle_gamma   90.00000000
_symmetry_Int_Tables_number   1
_chemical_formula_structural   NaFe(SeO3)2
_chemical_formula_sum   'Na4 Fe4 Se8 O24'
_cell_volume   561.02618065
_cell_formula_units_Z   4
loop_
 _symmetry_equiv_pos_site_id
 _symmetry_equiv_pos_as_xyz
  1  'x, y, z'
loop_
 _atom_site_type_symbol
 _atom_site_label
 _atom_site_symmetry_multiplicity
 _atom_site_fract_x
 _atom_site_fract_y
 _atom_site_fract_z
 _atom_site_occupancy
  Na  Na0  1  0.25000000  0.98955900  0.38631700  1
  Na  Na1  1  0.25000000  0.51044100  0.88631700  1
  Na  Na2  1  0.75000000  0.01044100  0.61368300  1
  Na  Na3  1  0.75000000  0.48955900  0.11368300  1
  Fe  Fe4  1  0.25000000  0.79793300  0.10102300  1
  Fe  Fe5  1  0.25000000  0.70206700  0.60102300  1
  Fe  Fe6  1  0.75000000  0.20206700  0.89897700  1
  Fe  Fe7  1  0.75000000  0.29793300  0.39897700  1
  Se  Se8  1  0.25000000  0.21273500  0.06772600  1
  Se  Se9  1  0.25000000  0.28726500  0.56772600  1
  Se  Se10  1  0.75000000  0.78726500  0.93227400  1
  Se  Se11  1  0.75000000  0.71273500  0.43227400  1
  Se  Se12  1  0.25000000  0.99476200  0.79352200  1
  Se  Se13  1  0.25000000  0.50523800  0.29352200  1
  Se  Se14  1  0.75000000  0.00523800  0.20647800  1
  Se  Se15  1  0.75000000  0.49476200  0.70647800  1
  O  O16  1  0.00738600  0.30016400  0.99998800  1
  O  O17  1  0.49261400  0.19983600  0.49998800  1
  O  O18  1  0.50738600  0.69983600  0.00001200  1
  O  O19  1  0.99261400  0.80016400  0.50001200  1
  O  O20  1  0.99261400  0.69983600  0.00001200  1
  O  O21  1  0.50738600  0.80016400  0.50001200  1
  O  O22  1  0.49261400  0.30016400  0.99998800  1
  O  O23  1  0.00738600  0.19983600  0.49998800  1
  O  O24  1  0.25000000  0.01153900  0.02251600  1
  O  O25  1  0.25000000  0.48846100  0.52251600  1
  O  O26  1  0.75000000  0.98846100  0.97748400  1
  O  O27  1  0.75000000  0.51153900  0.47748400  1
  O  O28  1  0.00154800  0.12864400  0.78895800  1
  O  O29  1  0.49845200  0.37135600  0.28895800  1
  O  O30  1  0.50154800  0.87135600  0.21104200  1
  O  O31  1  0.99845200  0.62864400  0.71104200  1
  O  O32  1  0.99845200  0.87135600  0.21104200  1
  O  O33  1  0.50154800  0.62864400  0.71104200  1
  O  O34  1  0.49845200  0.12864400  0.78895800  1
  O  O35  1  0.00154800  0.37135600  0.28895800  1
  O  O36  1  0.25000000  0.93755000  0.66275700  1
  O  O37  1  0.25000000  0.56245000  0.16275700  1
  O  O38  1  0.75000000  0.06245000  0.33724300  1
  O  O39  1  0.75000000  0.43755000  0.83724300  1
