# generated using pymatgen
data_TiNbB2
_symmetry_space_group_name_H-M   'P 1'
_cell_length_a   4.64187007
_cell_length_b   4.64187007
_cell_length_c   3.10587000
_cell_angle_alpha   90.00000000
_cell_angle_beta   90.00000000
_cell_angle_gamma   138.34370376
_symmetry_Int_Tables_number   1
_chemical_formula_structural   TiNbB2
_chemical_formula_sum   'Ti1 Nb1 B2'
_cell_volume   44.48045262
_cell_formula_units_Z   1
loop_
 _symmetry_equiv_pos_site_id
 _symmetry_equiv_pos_as_xyz
  1  'x, y, z'
loop_
 _atom_site_type_symbol
 _atom_site_label
 _atom_site_symmetry_multiplicity
 _atom_site_fract_x
 _atom_site_fract_y
 _atom_site_fract_z
 _atom_site_occupancy
  Ti  Ti0  1  0.85577300  0.14422700  0.00000000  1
  Nb  Nb1  1  0.14618800  0.85381200  0.50000000  1
  B  B2  1  0.44191400  0.55808600  0.50000000  1
  B  B3  1  0.55612500  0.44387500  0.00000000  1
