# generated using pymatgen
data_SiS2
_symmetry_space_group_name_H-M   'P 1'
_cell_length_a   6.87759285
_cell_length_b   6.87759285
_cell_length_c   6.87759285
_cell_angle_alpha   132.08740220
_cell_angle_beta   126.28457626
_cell_angle_gamma   74.80768930
_symmetry_Int_Tables_number   1
_chemical_formula_structural   SiS2
_chemical_formula_sum   'Si2 S4'
_cell_volume   189.62097896
_cell_formula_units_Z   2
loop_
 _symmetry_equiv_pos_site_id
 _symmetry_equiv_pos_as_xyz
  1  'x, y, z'
loop_
 _atom_site_type_symbol
 _atom_site_label
 _atom_site_symmetry_multiplicity
 _atom_site_fract_x
 _atom_site_fract_y
 _atom_site_fract_z
 _atom_site_occupancy
  Si  Si0  1  0.00000000  0.75000000  0.75000000  1
  Si  Si1  1  0.00000000  0.25000000  0.25000000  1
  S  S2  1  0.70894700  0.89454700  0.81439900  1
  S  S3  1  0.29105300  0.10545300  0.18560100  1
  S  S4  1  0.91985200  0.60545300  0.31439900  1
  S  S5  1  0.08014800  0.39454700  0.68560100  1
