# generated using pymatgen
data_Nd(FeAs3)4
_symmetry_space_group_name_H-M   'P 1'
_cell_length_a   7.24225868
_cell_length_b   7.24225868
_cell_length_c   7.24225868
_cell_angle_alpha   109.47122063
_cell_angle_beta   109.47122063
_cell_angle_gamma   109.47122063
_symmetry_Int_Tables_number   1
_chemical_formula_structural   Nd(FeAs3)4
_chemical_formula_sum   'Nd1 Fe4 As12'
_cell_volume   292.41537822
_cell_formula_units_Z   1
loop_
 _symmetry_equiv_pos_site_id
 _symmetry_equiv_pos_as_xyz
  1  'x, y, z'
loop_
 _atom_site_type_symbol
 _atom_site_label
 _atom_site_symmetry_multiplicity
 _atom_site_fract_x
 _atom_site_fract_y
 _atom_site_fract_z
 _atom_site_occupancy
  Nd  Nd0  1  0.00000000  0.00000000  0.00000000  1
  Fe  Fe1  1  0.50000000  0.50000000  0.50000000  1
  Fe  Fe2  1  0.50000000  0.00000000  0.00000000  1
  Fe  Fe3  1  0.00000000  0.50000000  0.00000000  1
  Fe  Fe4  1  0.00000000  0.00000000  0.50000000  1
  As  As5  1  0.84369200  0.65766300  0.50135400  1
  As  As6  1  0.15630800  0.34233700  0.49864600  1
  As  As7  1  0.15630800  0.65766300  0.81397100  1
  As  As8  1  0.84369200  0.34233700  0.18602900  1
  As  As9  1  0.65766300  0.50135400  0.84369200  1
  As  As10  1  0.34233700  0.49864600  0.15630800  1
  As  As11  1  0.65766300  0.81397100  0.15630800  1
  As  As12  1  0.34233700  0.18602900  0.84369200  1
  As  As13  1  0.50135400  0.84369200  0.65766300  1
  As  As14  1  0.49864600  0.15630800  0.34233700  1
  As  As15  1  0.18602900  0.84369200  0.34233700  1
  As  As16  1  0.81397100  0.15630800  0.65766300  1
