# generated using pymatgen
data_K2TaAgS4
_symmetry_space_group_name_H-M   'P 1'
_cell_length_a   13.38673219
_cell_length_b   11.93301532
_cell_length_c   7.39871058
_cell_angle_alpha   84.17101440
_cell_angle_beta   62.47348970
_cell_angle_gamma   33.35549590
_symmetry_Int_Tables_number   1
_chemical_formula_structural   K2TaAgS4
_chemical_formula_sum   'K4 Ta2 Ag2 S8'
_cell_volume   468.03869828
_cell_formula_units_Z   2
loop_
 _symmetry_equiv_pos_site_id
 _symmetry_equiv_pos_as_xyz
  1  'x, y, z'
loop_
 _atom_site_type_symbol
 _atom_site_label
 _atom_site_symmetry_multiplicity
 _atom_site_fract_x
 _atom_site_fract_y
 _atom_site_fract_z
 _atom_site_occupancy
  K  K0  1  0.43028300  0.43028300  0.06971700  1
  K  K1  1  0.81971700  0.81971700  0.18028300  1
  K  K2  1  0.06971700  0.06971700  0.43028300  1
  K  K3  1  0.18028300  0.18028300  0.81971700  1
  Ta  Ta4  1  0.00000000  0.00000000  0.00000000  1
  Ta  Ta5  1  0.25000000  0.25000000  0.25000000  1
  Ag  Ag6  1  0.50000000  0.50000000  0.50000000  1
  Ag  Ag7  1  0.75000000  0.75000000  0.75000000  1
  S  S8  1  0.74349500  0.37204900  0.05306200  1
  S  S9  1  0.83139400  0.05306200  0.37204900  1
  S  S10  1  0.05306200  0.83139400  0.74349500  1
  S  S11  1  0.37204900  0.74349500  0.83139400  1
  S  S12  1  0.50650500  0.87795100  0.19693800  1
  S  S13  1  0.87795100  0.50650500  0.41860600  1
  S  S14  1  0.19693800  0.41860600  0.50650500  1
  S  S15  1  0.41860600  0.19693800  0.87795100  1
