# generated using pymatgen
data_NaCe(GaS2)4
_symmetry_space_group_name_H-M   'P 1'
_cell_length_a   14.74648817
_cell_length_b   12.17799312
_cell_length_c   12.06487865
_cell_angle_alpha   74.92905438
_cell_angle_beta   52.88431648
_cell_angle_gamma   52.18662914
_symmetry_Int_Tables_number   1
_chemical_formula_structural   NaCe(GaS2)4
_chemical_formula_sum   'Na4 Ce4 Ga16 S32'
_cell_volume   1343.97481221
_cell_formula_units_Z   4
loop_
 _symmetry_equiv_pos_site_id
 _symmetry_equiv_pos_as_xyz
  1  'x, y, z'
loop_
 _atom_site_type_symbol
 _atom_site_label
 _atom_site_symmetry_multiplicity
 _atom_site_fract_x
 _atom_site_fract_y
 _atom_site_fract_z
 _atom_site_occupancy
  Na  Na0  1  0.49603300  0.49603300  0.00396700  1
  Na  Na1  1  0.00396700  0.00396700  0.49603300  1
  Na  Na2  1  0.75396700  0.75396700  0.24603300  1
  Na  Na3  1  0.24603300  0.24603300  0.75396700  1
  Ce  Ce4  1  0.25000000  0.25000000  0.25000000  1
  Ce  Ce5  1  0.00000000  0.00000000  0.00000000  1
  Ce  Ce6  1  0.75000000  0.75000000  0.75000000  1
  Ce  Ce7  1  0.50000000  0.50000000  0.50000000  1
  Ga  Ga8  1  0.48531400  0.75664300  0.74292100  1
  Ga  Ga9  1  0.75664300  0.48531400  0.01512100  1
  Ga  Ga10  1  0.74292100  0.01512100  0.48531400  1
  Ga  Ga11  1  0.01512100  0.74292100  0.75664300  1
  Ga  Ga12  1  0.76468600  0.49335700  0.50707900  1
  Ga  Ga13  1  0.49335700  0.76468600  0.23487900  1
  Ga  Ga14  1  0.50707900  0.23487900  0.76468600  1
  Ga  Ga15  1  0.23487900  0.50707900  0.49335700  1
  Ga  Ga16  1  0.98557000  0.26525000  0.65447100  1
  Ga  Ga17  1  0.26525000  0.98557000  0.09470900  1
  Ga  Ga18  1  0.65447100  0.09470900  0.98557000  1
  Ga  Ga19  1  0.09470900  0.65447100  0.26525000  1
  Ga  Ga20  1  0.26443000  0.98475000  0.59552900  1
  Ga  Ga21  1  0.98475000  0.26443000  0.15529100  1
  Ga  Ga22  1  0.59552900  0.15529100  0.26443000  1
  Ga  Ga23  1  0.15529100  0.59552900  0.98475000  1
  S  S24  1  0.46634700  0.27438700  0.97122000  1
  S  S25  1  0.27438700  0.46634700  0.28804600  1
  S  S26  1  0.97122000  0.28804600  0.46634700  1
  S  S27  1  0.28804600  0.97122000  0.27438700  1
  S  S28  1  0.78365300  0.97561300  0.27878000  1
  S  S29  1  0.97561300  0.78365300  0.96195400  1
  S  S30  1  0.27878000  0.96195400  0.78365300  1
  S  S31  1  0.96195400  0.27878000  0.97561300  1
  S  S32  1  0.47068300  0.77854100  0.94069400  1
  S  S33  1  0.77854100  0.47068300  0.81008200  1
  S  S34  1  0.94069400  0.81008200  0.47068300  1
  S  S35  1  0.81008200  0.94069400  0.77854100  1
  S  S36  1  0.77931700  0.47145900  0.30930600  1
  S  S37  1  0.47145900  0.77931700  0.43991800  1
  S  S38  1  0.30930600  0.43991800  0.77931700  1
  S  S39  1  0.43991800  0.30930600  0.47145900  1
  S  S40  1  0.03146200  0.55287000  0.71281800  1
  S  S41  1  0.55287000  0.03146200  0.70284900  1
  S  S42  1  0.71281800  0.70284900  0.03146200  1
  S  S43  1  0.70284900  0.71281800  0.55287000  1
  S  S44  1  0.21853800  0.69713000  0.53718200  1
  S  S45  1  0.69713000  0.21853800  0.54715100  1
  S  S46  1  0.53718200  0.54715100  0.21853800  1
  S  S47  1  0.54715100  0.53718200  0.69713000  1
  S  S48  1  0.20178400  0.71470700  0.04320900  1
  S  S49  1  0.71470700  0.20178400  0.04030000  1
  S  S50  1  0.04320900  0.04030000  0.20178400  1
  S  S51  1  0.04030000  0.04320900  0.71470700  1
  S  S52  1  0.04821600  0.53529300  0.20679100  1
  S  S53  1  0.53529300  0.04821600  0.20970000  1
  S  S54  1  0.20679100  0.20970000  0.04821600  1
  S  S55  1  0.20970000  0.20679100  0.53529300  1
