# generated using pymatgen
data_Na4Sr2SiAs4
_symmetry_space_group_name_H-M   'P 1'
_cell_length_a   9.60763936
_cell_length_b   9.60763936
_cell_length_c   7.49374232
_cell_angle_alpha   89.59446067
_cell_angle_beta   89.59446067
_cell_angle_gamma   119.79879091
_symmetry_Int_Tables_number   1
_chemical_formula_structural   Na4Sr2SiAs4
_chemical_formula_sum   'Na8 Sr4 Si2 As8'
_cell_volume   600.20069093
_cell_formula_units_Z   2
loop_
 _symmetry_equiv_pos_site_id
 _symmetry_equiv_pos_as_xyz
  1  'x, y, z'
loop_
 _atom_site_type_symbol
 _atom_site_label
 _atom_site_symmetry_multiplicity
 _atom_site_fract_x
 _atom_site_fract_y
 _atom_site_fract_z
 _atom_site_occupancy
  Na  Na0  1  0.05177400  0.52540500  0.61724300  1
  Na  Na1  1  0.52540500  0.05177400  0.11724300  1
  Na  Na2  1  0.28341200  0.13845400  0.81321700  1
  Na  Na3  1  0.86392300  0.70884500  0.78728900  1
  Na  Na4  1  0.85926100  0.15305000  0.79663500  1
  Na  Na5  1  0.70884500  0.86392300  0.28728900  1
  Na  Na6  1  0.13845400  0.28341200  0.31321700  1
  Na  Na7  1  0.15305000  0.85926100  0.29663500  1
  Sr  Sr8  1  0.47217400  0.95121200  0.62034000  1
  Sr  Sr9  1  0.46910300  0.52033400  0.62051000  1
  Sr  Sr10  1  0.95121200  0.47217400  0.12034000  1
  Sr  Sr11  1  0.52033400  0.46910300  0.12051000  1
  Si  Si12  1  0.67251300  0.33757700  0.50310300  1
  Si  Si13  1  0.33757700  0.67251300  0.00310300  1
  As  As14  1  0.66170100  0.33500300  0.82800400  1
  As  As15  1  0.33500300  0.66170100  0.32800400  1
  As  As16  1  0.61395700  0.80480100  0.89770300  1
  As  As17  1  0.19372900  0.38963600  0.91123400  1
  As  As18  1  0.19192100  0.80213400  0.90571200  1
  As  As19  1  0.38963600  0.19372900  0.41123400  1
  As  As20  1  0.80480100  0.61395700  0.39770300  1
  As  As21  1  0.80213400  0.19192100  0.40571200  1
