# generated using pymatgen
data_ErPdPb
_symmetry_space_group_name_H-M   'P 1'
_cell_length_a   7.85047767
_cell_length_b   7.85047767
_cell_length_c   3.83941200
_cell_angle_alpha   90.00000000
_cell_angle_beta   90.00000000
_cell_angle_gamma   119.99999723
_symmetry_Int_Tables_number   1
_chemical_formula_structural   ErPdPb
_chemical_formula_sum   'Er3 Pd3 Pb3'
_cell_volume   204.92150044
_cell_formula_units_Z   3
loop_
 _symmetry_equiv_pos_site_id
 _symmetry_equiv_pos_as_xyz
  1  'x, y, z'
loop_
 _atom_site_type_symbol
 _atom_site_label
 _atom_site_symmetry_multiplicity
 _atom_site_fract_x
 _atom_site_fract_y
 _atom_site_fract_z
 _atom_site_occupancy
  Er  Er0  1  0.39968900  0.39968900  0.50000000  1
  Er  Er1  1  0.60031100  0.00000000  0.50000000  1
  Er  Er2  1  0.00000000  0.60031100  0.50000000  1
  Pd  Pd3  1  0.66666700  0.33333300  0.00000000  1
  Pd  Pd4  1  0.33333300  0.66666700  0.00000000  1
  Pd  Pd5  1  0.00000000  0.00000000  0.50000000  1
  Pb  Pb6  1  0.73316600  0.73316600  0.00000000  1
  Pb  Pb7  1  0.26683400  0.00000000  0.00000000  1
  Pb  Pb8  1  0.00000000  0.26683400  0.00000000  1
