# generated using pymatgen
data_Ba(V5S8)2
_symmetry_space_group_name_H-M   'P 1'
_cell_length_a   6.50762200
_cell_length_b   8.94666940
_cell_length_c   9.06830381
_cell_angle_alpha   72.90626650
_cell_angle_beta   68.99443978
_cell_angle_gamma   79.53419246
_symmetry_Int_Tables_number   1
_chemical_formula_structural   Ba(V5S8)2
_chemical_formula_sum   'Ba1 V10 S16'
_cell_volume   469.38678944
_cell_formula_units_Z   1
loop_
 _symmetry_equiv_pos_site_id
 _symmetry_equiv_pos_as_xyz
  1  'x, y, z'
loop_
 _atom_site_type_symbol
 _atom_site_label
 _atom_site_symmetry_multiplicity
 _atom_site_fract_x
 _atom_site_fract_y
 _atom_site_fract_z
 _atom_site_occupancy
  Ba  Ba0  1  0.00000000  0.00000000  0.00000000  1
  V  V1  1  0.82438000  0.42293500  0.14090900  1
  V  V2  1  0.32335900  0.42153300  0.14160700  1
  V  V3  1  0.67664100  0.57846700  0.85839300  1
  V  V4  1  0.17562000  0.57706500  0.85909100  1
  V  V5  1  0.50000000  0.00000000  0.50000000  1
  V  V6  1  0.00000000  0.00000000  0.50000000  1
  V  V7  1  0.82828800  0.70618700  0.49096000  1
  V  V8  1  0.32791700  0.70321300  0.49236600  1
  V  V9  1  0.67208300  0.29678700  0.50763400  1
  V  V10  1  0.17171200  0.29381300  0.50904000  1
  S  S11  1  0.63279800  0.83095100  0.31394100  1
  S  S12  1  0.13780400  0.83125800  0.31378000  1
  S  S13  1  0.86219600  0.16874200  0.68622000  1
  S  S14  1  0.36720200  0.16904900  0.68605900  1
  S  S15  1  0.95921200  0.48165900  0.34083300  1
  S  S16  1  0.45874100  0.48157200  0.34114600  1
  S  S17  1  0.54125900  0.51842800  0.65885400  1
  S  S18  1  0.04078800  0.51834100  0.65916700  1
  S  S19  1  0.33100200  0.67858600  0.00164100  1
  S  S20  1  0.82786900  0.67932400  0.00173000  1
  S  S21  1  0.17213100  0.32067600  0.99827000  1
  S  S22  1  0.66899800  0.32141400  0.99835900  1
  S  S23  1  0.80145800  0.14977400  0.32225100  1
  S  S24  1  0.30143000  0.14956700  0.32248500  1
  S  S25  1  0.69857000  0.85043300  0.67751500  1
  S  S26  1  0.19854200  0.85022600  0.67774900  1
