# generated using pymatgen
data_Eu2Ni3Sb4
_symmetry_space_group_name_H-M   'P 1'
_cell_length_a   4.37099100
_cell_length_b   4.37099100
_cell_length_c   10.57054300
_cell_angle_alpha   90.00000000
_cell_angle_beta   90.00000000
_cell_angle_gamma   90.00000000
_symmetry_Int_Tables_number   1
_chemical_formula_structural   Eu2Ni3Sb4
_chemical_formula_sum   'Eu2 Ni3 Sb4'
_cell_volume   201.95616806
_cell_formula_units_Z   1
loop_
 _symmetry_equiv_pos_site_id
 _symmetry_equiv_pos_as_xyz
  1  'x, y, z'
loop_
 _atom_site_type_symbol
 _atom_site_label
 _atom_site_symmetry_multiplicity
 _atom_site_fract_x
 _atom_site_fract_y
 _atom_site_fract_z
 _atom_site_occupancy
  Eu  Eu0  1  0.50000000  0.00000000  0.75463600  1
  Eu  Eu1  1  0.00000000  0.50000000  0.24536400  1
  Ni  Ni2  1  0.00000000  0.00000000  0.50000000  1
  Ni  Ni3  1  0.00000000  0.00000000  0.00000000  1
  Ni  Ni4  1  0.50000000  0.50000000  0.50000000  1
  Sb  Sb5  1  0.00000000  0.50000000  0.89489900  1
  Sb  Sb6  1  0.50000000  0.00000000  0.38216000  1
  Sb  Sb7  1  0.50000000  0.00000000  0.10510100  1
  Sb  Sb8  1  0.00000000  0.50000000  0.61784000  1
