# generated using pymatgen
data_Tm2S3
_symmetry_space_group_name_H-M   'P 1'
_cell_length_a   10.86485161
_cell_length_b   10.86485161
_cell_length_c   10.86485161
_cell_angle_alpha   109.47122063
_cell_angle_beta   109.47122063
_cell_angle_gamma   109.47122063
_symmetry_Int_Tables_number   1
_chemical_formula_structural   Tm2S3
_chemical_formula_sum   'Tm16 S24'
_cell_volume   987.30083986
_cell_formula_units_Z   8
loop_
 _symmetry_equiv_pos_site_id
 _symmetry_equiv_pos_as_xyz
  1  'x, y, z'
loop_
 _atom_site_type_symbol
 _atom_site_label
 _atom_site_symmetry_multiplicity
 _atom_site_fract_x
 _atom_site_fract_y
 _atom_site_fract_z
 _atom_site_occupancy
  Tm  Tm0  1  0.25000000  0.20169500  0.95169500  1
  Tm  Tm1  1  0.29830500  0.54830500  0.75000000  1
  Tm  Tm2  1  0.95169500  0.25000000  0.20169500  1
  Tm  Tm3  1  0.54830500  0.75000000  0.29830500  1
  Tm  Tm4  1  0.20169500  0.95169500  0.25000000  1
  Tm  Tm5  1  0.75000000  0.29830500  0.54830500  1
  Tm  Tm6  1  0.75000000  0.79830500  0.04830500  1
  Tm  Tm7  1  0.70169500  0.45169500  0.25000000  1
  Tm  Tm8  1  0.04830500  0.75000000  0.79830500  1
  Tm  Tm9  1  0.45169500  0.25000000  0.70169500  1
  Tm  Tm10  1  0.79830500  0.04830500  0.75000000  1
  Tm  Tm11  1  0.25000000  0.70169500  0.45169500  1
  Tm  Tm12  1  0.50000000  0.00000000  0.00000000  1
  Tm  Tm13  1  0.00000000  0.00000000  0.50000000  1
  Tm  Tm14  1  0.00000000  0.50000000  0.00000000  1
  Tm  Tm15  1  0.50000000  0.50000000  0.50000000  1
  S  S16  1  0.27723600  0.00993100  0.05398200  1
  S  S17  1  0.04405100  0.49006900  0.76730500  1
  S  S18  1  0.22276400  0.27674500  0.73269500  1
  S  S19  1  0.22325500  0.44601800  0.45594900  1
  S  S20  1  0.44601800  0.45594900  0.22325500  1
  S  S21  1  0.05398200  0.27723600  0.00993100  1
  S  S22  1  0.49006900  0.76730500  0.04405100  1
  S  S23  1  0.73269500  0.22276400  0.27674500  1
  S  S24  1  0.00993100  0.05398200  0.27723600  1
  S  S25  1  0.76730500  0.04405100  0.49006900  1
  S  S26  1  0.27674500  0.73269500  0.22276400  1
  S  S27  1  0.45594900  0.22325500  0.44601800  1
  S  S28  1  0.72276400  0.99006900  0.94601800  1
  S  S29  1  0.95594900  0.50993100  0.23269500  1
  S  S30  1  0.77723600  0.72325500  0.26730500  1
  S  S31  1  0.77674500  0.55398200  0.54405100  1
  S  S32  1  0.54405100  0.77674500  0.55398200  1
  S  S33  1  0.72325500  0.26730500  0.77723600  1
  S  S34  1  0.23269500  0.95594900  0.50993100  1
  S  S35  1  0.99006900  0.94601800  0.72276400  1
  S  S36  1  0.26730500  0.77723600  0.72325500  1
  S  S37  1  0.50993100  0.23269500  0.95594900  1
  S  S38  1  0.94601800  0.72276400  0.99006900  1
  S  S39  1  0.55398200  0.54405100  0.77674500  1
