# generated using pymatgen
data_KSmSe2
_symmetry_space_group_name_H-M   'P 1'
_cell_length_a   8.06610458
_cell_length_b   8.06610458
_cell_length_c   8.06610418
_cell_angle_alpha   30.97586052
_cell_angle_beta   30.97586052
_cell_angle_gamma   30.97585667
_symmetry_Int_Tables_number   1
_chemical_formula_structural   KSmSe2
_chemical_formula_sum   'K1 Sm1 Se2'
_cell_volume   123.31771728
_cell_formula_units_Z   1
loop_
 _symmetry_equiv_pos_site_id
 _symmetry_equiv_pos_as_xyz
  1  'x, y, z'
loop_
 _atom_site_type_symbol
 _atom_site_label
 _atom_site_symmetry_multiplicity
 _atom_site_fract_x
 _atom_site_fract_y
 _atom_site_fract_z
 _atom_site_occupancy
  K  K0  1  0.00000000  0.00000000  0.00000000  1
  Sm  Sm1  1  0.50000000  0.50000000  0.50000000  1
  Se  Se2  1  0.76354900  0.76354900  0.76354900  1
  Se  Se3  1  0.23645100  0.23645100  0.23645100  1
