# generated using pymatgen
data_Li3Gd(NO3)6
_symmetry_space_group_name_H-M   'P 1'
_cell_length_a   7.66791300
_cell_length_b   7.90715800
_cell_length_c   25.35455275
_cell_angle_alpha   73.17534487
_cell_angle_beta   90.00000000
_cell_angle_gamma   90.00000000
_symmetry_Int_Tables_number   1
_chemical_formula_structural   Li3Gd(NO3)6
_chemical_formula_sum   'Li12 Gd4 N24 O72'
_cell_volume   1471.47871652
_cell_formula_units_Z   4
loop_
 _symmetry_equiv_pos_site_id
 _symmetry_equiv_pos_as_xyz
  1  'x, y, z'
loop_
 _atom_site_type_symbol
 _atom_site_label
 _atom_site_symmetry_multiplicity
 _atom_site_fract_x
 _atom_site_fract_y
 _atom_site_fract_z
 _atom_site_occupancy
  Li  Li0  1  0.18455200  0.92758100  0.36585200  1
  Li  Li1  1  0.81544800  0.07241900  0.63414800  1
  Li  Li2  1  0.68455200  0.07241900  0.13414800  1
  Li  Li3  1  0.31544800  0.92758100  0.86585200  1
  Li  Li4  1  0.44307300  0.74683300  0.25443000  1
  Li  Li5  1  0.55692700  0.25316700  0.74557000  1
  Li  Li6  1  0.94307300  0.25316700  0.24557000  1
  Li  Li7  1  0.05692700  0.74683300  0.75443000  1
  Li  Li8  1  0.71048000  0.78391300  0.47400700  1
  Li  Li9  1  0.28952000  0.21608700  0.52599300  1
  Li  Li10  1  0.21048000  0.21608700  0.02599300  1
  Li  Li11  1  0.78952000  0.78391300  0.97400700  1
  Gd  Gd12  1  0.69448900  0.36622200  0.39057500  1
  Gd  Gd13  1  0.30551100  0.63377800  0.60942500  1
  Gd  Gd14  1  0.19448900  0.63377800  0.10942500  1
  Gd  Gd15  1  0.80551100  0.36622200  0.89057500  1
  N  N16  1  0.20177200  0.99953300  0.26482500  1
  N  N17  1  0.79822800  0.00046700  0.73517500  1
  N  N18  1  0.70177200  0.00046700  0.23517500  1
  N  N19  1  0.29822800  0.99953300  0.76482500  1
  N  N20  1  0.69792700  0.47009300  0.26894000  1
  N  N21  1  0.30207300  0.52990700  0.73106000  1
  N  N22  1  0.19792700  0.52990700  0.23106000  1
  N  N23  1  0.80207300  0.47009300  0.76894000  1
  N  N24  1  0.51031200  0.80218800  0.05333700  1
  N  N25  1  0.48968800  0.19781200  0.94666300  1
  N  N26  1  0.01031200  0.19781200  0.44666300  1
  N  N27  1  0.98968800  0.80218800  0.55333700  1
  N  N28  1  0.86882200  0.53441200  0.06350700  1
  N  N29  1  0.13117800  0.46558800  0.93649300  1
  N  N30  1  0.36882200  0.46558800  0.43649300  1
  N  N31  1  0.63117800  0.53441200  0.56350700  1
  N  N32  1  0.88760300  0.68436800  0.39350000  1
  N  N33  1  0.11239700  0.31563200  0.60650000  1
  N  N34  1  0.38760300  0.31563200  0.10650000  1
  N  N35  1  0.61239700  0.68436800  0.89350000  1
  N  N36  1  0.99037700  0.95976900  0.09730800  1
  N  N37  1  0.00962300  0.04023100  0.90269200  1
  N  N38  1  0.49037700  0.04023100  0.40269200  1
  N  N39  1  0.50962300  0.95976900  0.59730800  1
  O  O40  1  0.60257200  0.54800900  0.29690300  1
  O  O41  1  0.39742800  0.45199100  0.70309700  1
  O  O42  1  0.10257200  0.45199100  0.20309700  1
  O  O43  1  0.89742800  0.54800900  0.79690300  1
  O  O44  1  0.47902500  0.80646000  0.10234000  1
  O  O45  1  0.52097500  0.19354000  0.89766000  1
  O  O46  1  0.97902500  0.19354000  0.39766000  1
  O  O47  1  0.02097500  0.80646000  0.60234000  1
  O  O48  1  0.39790300  0.72477900  0.03086900  1
  O  O49  1  0.60209700  0.27522100  0.96913100  1
  O  O50  1  0.89790300  0.27522100  0.46913100  1
  O  O51  1  0.10209700  0.72477900  0.53086900  1
  O  O52  1  0.69966000  0.51242200  0.21868500  1
  O  O53  1  0.30034000  0.48757800  0.78131500  1
  O  O54  1  0.19966000  0.48757800  0.28131500  1
  O  O55  1  0.80034000  0.51242200  0.71868500  1
  O  O56  1  0.73441600  0.49936400  0.04225100  1
  O  O57  1  0.26558400  0.50063600  0.95774900  1
  O  O58  1  0.23441600  0.50063600  0.45774900  1
  O  O59  1  0.76558400  0.49936400  0.54225100  1
  O  O60  1  0.94831300  0.81507900  0.13245400  1
  O  O61  1  0.05168700  0.18492100  0.86754600  1
  O  O62  1  0.44831300  0.18492100  0.36754600  1
  O  O63  1  0.55168700  0.81507900  0.63245400  1
  O  O64  1  0.64479900  0.87053600  0.02853600  1
  O  O65  1  0.35520100  0.12946400  0.97146400  1
  O  O66  1  0.14479900  0.12946400  0.47146400  1
  O  O67  1  0.85520100  0.87053600  0.52853600  1
  O  O68  1  0.70334700  0.95903200  0.28607800  1
  O  O69  1  0.29665300  0.04096800  0.71392200  1
  O  O70  1  0.20334700  0.04096800  0.21392200  1
  O  O71  1  0.79665300  0.95903200  0.78607800  1
  O  O72  1  0.36571200  0.96125300  0.57071500  1
  O  O73  1  0.63428800  0.03874700  0.42928500  1
  O  O74  1  0.86571200  0.03874700  0.92928500  1
  O  O75  1  0.13428800  0.96125300  0.07071500  1
  O  O76  1  0.96915400  0.81126600  0.40085200  1
  O  O77  1  0.03084600  0.18873400  0.59914800  1
  O  O78  1  0.46915400  0.18873400  0.09914800  1
  O  O79  1  0.53084600  0.81126600  0.90085200  1
  O  O80  1  0.97359100  0.65901300  0.03472700  1
  O  O81  1  0.02640900  0.34098700  0.96527300  1
  O  O82  1  0.47359100  0.34098700  0.46527300  1
  O  O83  1  0.52640900  0.65901300  0.53472700  1
  O  O84  1  0.91468800  0.45887100  0.11247700  1
  O  O85  1  0.08531200  0.54112900  0.88752300  1
  O  O86  1  0.41468800  0.54112900  0.38752300  1
  O  O87  1  0.58531200  0.45887100  0.61247700  1
  O  O88  1  0.79218500  0.34181700  0.29877800  1
  O  O89  1  0.20781500  0.65818300  0.70122200  1
  O  O90  1  0.29218500  0.65818300  0.20122200  1
  O  O91  1  0.70781500  0.34181700  0.79877800  1
  O  O92  1  0.39937500  0.90498800  0.41206000  1
  O  O93  1  0.60062500  0.09501200  0.58794000  1
  O  O94  1  0.89937500  0.09501200  0.08794000  1
  O  O95  1  0.10062500  0.90498800  0.91206000  1
  O  O96  1  0.93851400  0.59457900  0.36246400  1
  O  O97  1  0.06148600  0.40542100  0.63753600  1
  O  O98  1  0.43851400  0.40542100  0.13753600  1
  O  O99  1  0.56148600  0.59457900  0.86246400  1
  O  O100  1  0.74150400  0.63831300  0.41919600  1
  O  O101  1  0.25849600  0.36168700  0.58080400  1
  O  O102  1  0.24150400  0.36168700  0.08080400  1
  O  O103  1  0.75849600  0.63831300  0.91919600  1
  O  O104  1  0.60911300  0.91620300  0.20871800  1
  O  O105  1  0.39088700  0.08379700  0.79128200  1
  O  O106  1  0.10911300  0.08379700  0.29128200  1
  O  O107  1  0.89088700  0.91620300  0.70871800  1
  O  O108  1  0.29141600  0.87044300  0.29491600  1
  O  O109  1  0.70858400  0.12955700  0.70508400  1
  O  O110  1  0.79141600  0.12955700  0.20508400  1
  O  O111  1  0.20858400  0.87044300  0.79491600  1
