# generated using pymatgen
data_K(SiPt)4
_symmetry_space_group_name_H-M   'P 1'
_cell_length_a   6.43255154
_cell_length_b   6.43255154
_cell_length_c   6.43255154
_cell_angle_alpha   97.48208444
_cell_angle_beta   97.48208444
_cell_angle_gamma   137.69459892
_symmetry_Int_Tables_number   1
_chemical_formula_structural   K(SiPt)4
_chemical_formula_sum   'K1 Si4 Pt4'
_cell_volume   167.07967220
_cell_formula_units_Z   1
loop_
 _symmetry_equiv_pos_site_id
 _symmetry_equiv_pos_as_xyz
  1  'x, y, z'
loop_
 _atom_site_type_symbol
 _atom_site_label
 _atom_site_symmetry_multiplicity
 _atom_site_fract_x
 _atom_site_fract_y
 _atom_site_fract_z
 _atom_site_occupancy
  K  K0  1  0.29863300  0.29863300  0.00000000  1
  Si  Si1  1  0.38574000  0.88637200  0.27185900  1
  Si  Si2  1  0.61451300  0.11388100  0.72814100  1
  Si  Si3  1  0.11388100  0.38574000  0.49936800  1
  Si  Si4  1  0.88637200  0.61451300  0.50063200  1
  Pt  Pt5  1  0.17314600  0.67519100  0.84790700  1
  Pt  Pt6  1  0.82728400  0.32523900  0.15209300  1
  Pt  Pt7  1  0.32523900  0.17314600  0.49795500  1
  Pt  Pt8  1  0.67519100  0.82728400  0.50204500  1
