# generated using pymatgen
data_La7Ru3
_symmetry_space_group_name_H-M   'P 1'
_cell_length_a   6.75953800
_cell_length_b   7.41355000
_cell_length_c   23.77622600
_cell_angle_alpha   90.00000000
_cell_angle_beta   90.00000000
_cell_angle_gamma   90.00000000
_symmetry_Int_Tables_number   1
_chemical_formula_structural   La7Ru3
_chemical_formula_sum   'La28 Ru12'
_cell_volume   1191.47834917
_cell_formula_units_Z   4
loop_
 _symmetry_equiv_pos_site_id
 _symmetry_equiv_pos_as_xyz
  1  'x, y, z'
loop_
 _atom_site_type_symbol
 _atom_site_label
 _atom_site_symmetry_multiplicity
 _atom_site_fract_x
 _atom_site_fract_y
 _atom_site_fract_z
 _atom_site_occupancy
  La  La0  1  0.31789100  0.81924500  0.17469500  1
  La  La1  1  0.18210900  0.31924500  0.32530500  1
  La  La2  1  0.68210900  0.18075500  0.67469500  1
  La  La3  1  0.81789100  0.68075500  0.82530500  1
  La  La4  1  0.68210900  0.18075500  0.82530500  1
  La  La5  1  0.81789100  0.68075500  0.67469500  1
  La  La6  1  0.31789100  0.81924500  0.32530500  1
  La  La7  1  0.18210900  0.31924500  0.17469500  1
  La  La8  1  0.31938100  0.83013200  0.02387000  1
  La  La9  1  0.18061900  0.33013200  0.47613000  1
  La  La10  1  0.68061900  0.16986800  0.52387000  1
  La  La11  1  0.81938100  0.66986800  0.97613000  1
  La  La12  1  0.68061900  0.16986800  0.97613000  1
  La  La13  1  0.81938100  0.66986800  0.52387000  1
  La  La14  1  0.31938100  0.83013200  0.47613000  1
  La  La15  1  0.18061900  0.33013200  0.02387000  1
  La  La16  1  0.85715100  0.68282700  0.25000000  1
  La  La17  1  0.64284900  0.18282700  0.25000000  1
  La  La18  1  0.14284900  0.31717300  0.75000000  1
  La  La19  1  0.35715100  0.81717300  0.75000000  1
  La  La20  1  0.85088700  0.94956300  0.11471500  1
  La  La21  1  0.64911300  0.44956300  0.38528500  1
  La  La22  1  0.14911300  0.05043700  0.61471500  1
  La  La23  1  0.35088700  0.55043700  0.88528500  1
  La  La24  1  0.14911300  0.05043700  0.88528500  1
  La  La25  1  0.35088700  0.55043700  0.61471500  1
  La  La26  1  0.85088700  0.94956300  0.38528500  1
  La  La27  1  0.64911300  0.44956300  0.11471500  1
  Ru  Ru28  1  0.47134000  0.51920100  0.25000000  1
  Ru  Ru29  1  0.02866000  0.01920100  0.25000000  1
  Ru  Ru30  1  0.52866000  0.48079900  0.75000000  1
  Ru  Ru31  1  0.97134000  0.98079900  0.75000000  1
  Ru  Ru32  1  0.02859500  0.62052200  0.09495700  1
  Ru  Ru33  1  0.47140500  0.12052200  0.40504300  1
  Ru  Ru34  1  0.97140500  0.37947800  0.59495700  1
  Ru  Ru35  1  0.52859500  0.87947800  0.90504300  1
  Ru  Ru36  1  0.97140500  0.37947800  0.90504300  1
  Ru  Ru37  1  0.52859500  0.87947800  0.59495700  1
  Ru  Ru38  1  0.02859500  0.62052200  0.40504300  1
  Ru  Ru39  1  0.47140500  0.12052200  0.09495700  1
