# generated using pymatgen
data_K2NdCl5
_symmetry_space_group_name_H-M   'P 1'
_cell_length_a   8.16333400
_cell_length_b   8.77103100
_cell_length_c   13.14014900
_cell_angle_alpha   90.00000000
_cell_angle_beta   90.00000000
_cell_angle_gamma   90.00000000
_symmetry_Int_Tables_number   1
_chemical_formula_structural   K2NdCl5
_chemical_formula_sum   'K8 Nd4 Cl20'
_cell_volume   940.84591081
_cell_formula_units_Z   4
loop_
 _symmetry_equiv_pos_site_id
 _symmetry_equiv_pos_as_xyz
  1  'x, y, z'
loop_
 _atom_site_type_symbol
 _atom_site_label
 _atom_site_symmetry_multiplicity
 _atom_site_fract_x
 _atom_site_fract_y
 _atom_site_fract_z
 _atom_site_occupancy
  K  K0  1  0.53242400  0.49996500  0.82553200  1
  K  K1  1  0.46757600  0.50003500  0.17446800  1
  K  K2  1  0.03242400  0.50003500  0.67446800  1
  K  K3  1  0.46757600  0.99996500  0.17446800  1
  K  K4  1  0.96757600  0.49996500  0.32553200  1
  K  K5  1  0.53242400  0.00003500  0.82553200  1
  K  K6  1  0.96757600  0.00003500  0.32553200  1
  K  K7  1  0.03242400  0.99996500  0.67446800  1
  Nd  Nd8  1  0.57554000  0.75000000  0.50378800  1
  Nd  Nd9  1  0.42446000  0.25000000  0.49621200  1
  Nd  Nd10  1  0.07554000  0.25000000  0.99621200  1
  Nd  Nd11  1  0.92446000  0.75000000  0.00378800  1
  Cl  Cl12  1  0.82647800  0.75000000  0.79981200  1
  Cl  Cl13  1  0.17352200  0.25000000  0.20018800  1
  Cl  Cl14  1  0.32647800  0.25000000  0.70018800  1
  Cl  Cl15  1  0.67352200  0.75000000  0.29981200  1
  Cl  Cl16  1  0.36069500  0.75000000  0.66844700  1
  Cl  Cl17  1  0.63930500  0.25000000  0.33155300  1
  Cl  Cl18  1  0.86069500  0.25000000  0.83155300  1
  Cl  Cl19  1  0.13930500  0.75000000  0.16844700  1
  Cl  Cl20  1  0.91857900  0.75000000  0.51075100  1
  Cl  Cl21  1  0.08142100  0.25000000  0.48924900  1
  Cl  Cl22  1  0.41857900  0.25000000  0.98924900  1
  Cl  Cl23  1  0.58142100  0.75000000  0.01075100  1
  Cl  Cl24  1  0.65479800  0.04090400  0.58369200  1
  Cl  Cl25  1  0.34520200  0.95909600  0.41630800  1
  Cl  Cl26  1  0.15479800  0.95909600  0.91630800  1
  Cl  Cl27  1  0.34520200  0.54090400  0.41630800  1
  Cl  Cl28  1  0.84520200  0.04090400  0.08369200  1
  Cl  Cl29  1  0.65479800  0.45909600  0.58369200  1
  Cl  Cl30  1  0.84520200  0.45909600  0.08369200  1
  Cl  Cl31  1  0.15479800  0.54090400  0.91630800  1
