# generated using pymatgen
data_La3VH3O8
_symmetry_space_group_name_H-M   'P 1'
_cell_length_a   5.74534939
_cell_length_b   6.40913720
_cell_length_c   10.79754700
_cell_angle_alpha   89.99964205
_cell_angle_beta   89.99961640
_cell_angle_gamma   104.42233849
_symmetry_Int_Tables_number   1
_chemical_formula_structural   La3VH3O8
_chemical_formula_sum   'La6 V2 H6 O16'
_cell_volume   385.06542139
_cell_formula_units_Z   2
loop_
 _symmetry_equiv_pos_site_id
 _symmetry_equiv_pos_as_xyz
  1  'x, y, z'
loop_
 _atom_site_type_symbol
 _atom_site_label
 _atom_site_symmetry_multiplicity
 _atom_site_fract_x
 _atom_site_fract_y
 _atom_site_fract_z
 _atom_site_occupancy
  La  La0  1  0.77530000  0.80139300  0.75000200  1
  La  La1  1  0.22476900  0.19861700  0.25000600  1
  La  La2  1  0.68813800  0.30291400  0.54238100  1
  La  La3  1  0.31186200  0.69709300  0.04227400  1
  La  La4  1  0.31187800  0.69708800  0.45772200  1
  La  La5  1  0.68811700  0.30290700  0.95761800  1
  V  V6  1  0.80823000  0.53009000  0.25000000  1
  V  V7  1  0.19172600  0.46987000  0.75000000  1
  H  H8  1  0.37518400  0.09389000  0.74999400  1
  H  H9  1  0.62475300  0.90608300  0.25000100  1
  H  H10  1  0.84370800  0.90202100  0.46043400  1
  H  H11  1  0.15624300  0.09802300  0.96040400  1
  H  H12  1  0.15627900  0.09802700  0.53962400  1
  H  H13  1  0.84367500  0.90201300  0.03959100  1
  O  O14  1  0.06369000  0.19285100  0.74993700  1
  O  O15  1  0.93634600  0.80714300  0.24994500  1
  O  O16  1  0.54667600  0.09615200  0.75000800  1
  O  O17  1  0.45326100  0.90383200  0.25000400  1
  O  O18  1  0.00881900  0.59380200  0.62762500  1
  O  O19  1  0.99119800  0.40622400  0.12758000  1
  O  O20  1  0.99117400  0.40624600  0.37242600  1
  O  O21  1  0.00885400  0.59378000  0.87240300  1
  O  O22  1  0.45852600  0.54144800  0.63204600  1
  O  O23  1  0.54152300  0.45852000  0.13203700  1
  O  O24  1  0.54157500  0.45852200  0.36796800  1
  O  O25  1  0.45847500  0.54146200  0.86797400  1
  O  O26  1  0.73370800  0.93244600  0.52272400  1
  O  O27  1  0.26630100  0.06755000  0.02263500  1
  O  O28  1  0.26628400  0.06754100  0.47736200  1
  O  O29  1  0.73372800  0.93245100  0.97727400  1
