# generated using pymatgen
data_Eu5Cd2Sb5O
_symmetry_space_group_name_H-M   'P 1'
_cell_length_a   11.24426501
_cell_length_b   11.24426501
_cell_length_c   14.85070900
_cell_angle_alpha   90.00000000
_cell_angle_beta   90.00000000
_cell_angle_gamma   155.89846092
_symmetry_Int_Tables_number   1
_chemical_formula_structural   Eu5Cd2Sb5O
_chemical_formula_sum   'Eu10 Cd4 Sb10 O2'
_cell_volume   766.73835897
_cell_formula_units_Z   2
loop_
 _symmetry_equiv_pos_site_id
 _symmetry_equiv_pos_as_xyz
  1  'x, y, z'
loop_
 _atom_site_type_symbol
 _atom_site_label
 _atom_site_symmetry_multiplicity
 _atom_site_fract_x
 _atom_site_fract_y
 _atom_site_fract_z
 _atom_site_occupancy
  Eu  Eu0  1  0.72334700  0.27665300  0.87179500  1
  Eu  Eu1  1  0.27665300  0.72334700  0.12820500  1
  Eu  Eu2  1  0.72334700  0.27665300  0.62820500  1
  Eu  Eu3  1  0.27665300  0.72334700  0.37179500  1
  Eu  Eu4  1  0.89322100  0.10677900  0.25000000  1
  Eu  Eu5  1  0.10677900  0.89322100  0.75000000  1
  Eu  Eu6  1  0.09591800  0.90408200  0.25000000  1
  Eu  Eu7  1  0.90408200  0.09591800  0.75000000  1
  Eu  Eu8  1  0.00000000  0.00000000  0.50000000  1
  Eu  Eu9  1  0.00000000  0.00000000  0.00000000  1
  Cd  Cd10  1  0.63173000  0.36827000  0.41442500  1
  Cd  Cd11  1  0.36827000  0.63173000  0.58557500  1
  Cd  Cd12  1  0.63173000  0.36827000  0.08557500  1
  Cd  Cd13  1  0.36827000  0.63173000  0.91442500  1
  Sb  Sb14  1  0.84994700  0.15005300  0.47705800  1
  Sb  Sb15  1  0.15005300  0.84994700  0.52294200  1
  Sb  Sb16  1  0.84994700  0.15005300  0.02294200  1
  Sb  Sb17  1  0.15005300  0.84994700  0.97705800  1
  Sb  Sb18  1  0.50334400  0.49665600  0.34868800  1
  Sb  Sb19  1  0.49665600  0.50334400  0.65131200  1
  Sb  Sb20  1  0.50334400  0.49665600  0.15131200  1
  Sb  Sb21  1  0.49665600  0.50334400  0.84868800  1
  Sb  Sb22  1  0.70687200  0.29312800  0.25000000  1
  Sb  Sb23  1  0.29312800  0.70687200  0.75000000  1
  O  O24  1  0.34155100  0.65844900  0.25000000  1
  O  O25  1  0.65844900  0.34155100  0.75000000  1
