# generated using pymatgen
data_CeYCo17
_symmetry_space_group_name_H-M   'P 1'
_cell_length_a   6.27984417
_cell_length_b   6.27984417
_cell_length_c   6.27984375
_cell_angle_alpha   82.99030303
_cell_angle_beta   82.99030303
_cell_angle_gamma   82.99031206
_symmetry_Int_Tables_number   1
_chemical_formula_structural   CeYCo17
_chemical_formula_sum   'Ce1 Y1 Co17'
_cell_volume   242.51904778
_cell_formula_units_Z   1
loop_
 _symmetry_equiv_pos_site_id
 _symmetry_equiv_pos_as_xyz
  1  'x, y, z'
loop_
 _atom_site_type_symbol
 _atom_site_label
 _atom_site_symmetry_multiplicity
 _atom_site_fract_x
 _atom_site_fract_y
 _atom_site_fract_z
 _atom_site_occupancy
  Ce  Ce0  1  0.65318000  0.65318000  0.65318000  1
  Y  Y1  1  0.34372600  0.34372600  0.34372600  1
  Co  Co2  1  0.71378100  0.28822400  0.99944200  1
  Co  Co3  1  0.99944200  0.71378100  0.28822400  1
  Co  Co4  1  0.28822400  0.99944200  0.71378100  1
  Co  Co5  1  0.99944200  0.28822400  0.71378100  1
  Co  Co6  1  0.71378100  0.99944200  0.28822400  1
  Co  Co7  1  0.28822400  0.71378100  0.99944200  1
  Co  Co8  1  0.34730400  0.34730400  0.84908000  1
  Co  Co9  1  0.84908000  0.34730400  0.34730400  1
  Co  Co10  1  0.34730400  0.84908000  0.34730400  1
  Co  Co11  1  0.65400700  0.65400700  0.14337900  1
  Co  Co12  1  0.14337900  0.65400700  0.65400700  1
  Co  Co13  1  0.65400700  0.14337900  0.65400700  1
  Co  Co14  1  0.00327700  0.00327700  0.49899200  1
  Co  Co15  1  0.49899200  0.00327700  0.00327700  1
  Co  Co16  1  0.00327700  0.49899200  0.00327700  1
  Co  Co17  1  0.90201600  0.90201600  0.90201600  1
  Co  Co18  1  0.09755400  0.09755400  0.09755400  1
