# generated using pymatgen
data_YPtF7
_symmetry_space_group_name_H-M   'P 1'
_cell_length_a   5.54246200
_cell_length_b   8.95430100
_cell_length_c   12.04024030
_cell_angle_alpha   62.38448350
_cell_angle_beta   90.00000000
_cell_angle_gamma   90.00000000
_symmetry_Int_Tables_number   1
_chemical_formula_structural   YPtF7
_chemical_formula_sum   'Y4 Pt4 F28'
_cell_volume   529.47024740
_cell_formula_units_Z   4
loop_
 _symmetry_equiv_pos_site_id
 _symmetry_equiv_pos_as_xyz
  1  'x, y, z'
loop_
 _atom_site_type_symbol
 _atom_site_label
 _atom_site_symmetry_multiplicity
 _atom_site_fract_x
 _atom_site_fract_y
 _atom_site_fract_z
 _atom_site_occupancy
  Y  Y0  1  0.26373200  0.81532400  0.26306000  1
  Y  Y1  1  0.73626800  0.18467600  0.73694000  1
  Y  Y2  1  0.76373200  0.18467600  0.23694000  1
  Y  Y3  1  0.23626800  0.81532400  0.76306000  1
  Pt  Pt4  1  0.75882900  0.72711300  0.04198600  1
  Pt  Pt5  1  0.24117100  0.27288700  0.95801400  1
  Pt  Pt6  1  0.25882900  0.27288700  0.45801400  1
  Pt  Pt7  1  0.74117100  0.72711300  0.54198600  1
  F  F8  1  0.93820100  0.70964900  0.41243700  1
  F  F9  1  0.06179900  0.29035100  0.58756300  1
  F  F10  1  0.43820100  0.29035100  0.08756300  1
  F  F11  1  0.56179900  0.70964900  0.91243700  1
  F  F12  1  0.46526800  0.72971500  0.13267000  1
  F  F13  1  0.53473200  0.27028500  0.86733000  1
  F  F14  1  0.96526800  0.27028500  0.36733000  1
  F  F15  1  0.03473200  0.72971500  0.63267000  1
  F  F16  1  0.95042100  0.74100200  0.17474700  1
  F  F17  1  0.04957900  0.25899800  0.82525300  1
  F  F18  1  0.45042100  0.25899800  0.32525300  1
  F  F19  1  0.54957900  0.74100200  0.67474700  1
  F  F20  1  0.76726000  0.47946600  0.13852200  1
  F  F21  1  0.23274000  0.52053400  0.86147800  1
  F  F22  1  0.26726000  0.52053400  0.36147800  1
  F  F23  1  0.73274000  0.47946600  0.63852200  1
  F  F24  1  0.94166900  0.28116900  0.04336400  1
  F  F25  1  0.05833100  0.71883100  0.95663600  1
  F  F26  1  0.44166900  0.71883100  0.45663600  1
  F  F27  1  0.55833100  0.28116900  0.54336400  1
  F  F28  1  0.73760600  0.97438900  0.44784500  1
  F  F29  1  0.26239400  0.02561100  0.55215500  1
  F  F30  1  0.23760600  0.02561100  0.05215500  1
  F  F31  1  0.76239400  0.97438900  0.94784500  1
  F  F32  1  0.59392200  0.96806300  0.23152400  1
  F  F33  1  0.40607800  0.03193700  0.76847600  1
  F  F34  1  0.09392200  0.03193700  0.26847600  1
  F  F35  1  0.90607800  0.96806300  0.73152400  1
