# generated using pymatgen
data_Sr5(SnAs3)2
_symmetry_space_group_name_H-M   'P 1'
_cell_length_a   4.32585400
_cell_length_b   12.59934400
_cell_length_c   14.24965100
_cell_angle_alpha   90.00000000
_cell_angle_beta   90.00000000
_cell_angle_gamma   90.00000000
_symmetry_Int_Tables_number   1
_chemical_formula_structural   Sr5(SnAs3)2
_chemical_formula_sum   'Sr10 Sn4 As12'
_cell_volume   776.64762610
_cell_formula_units_Z   2
loop_
 _symmetry_equiv_pos_site_id
 _symmetry_equiv_pos_as_xyz
  1  'x, y, z'
loop_
 _atom_site_type_symbol
 _atom_site_label
 _atom_site_symmetry_multiplicity
 _atom_site_fract_x
 _atom_site_fract_y
 _atom_site_fract_z
 _atom_site_occupancy
  Sr  Sr0  1  0.00000000  0.62137900  0.25721000  1
  Sr  Sr1  1  0.00000000  0.37862100  0.74279000  1
  Sr  Sr2  1  0.00000000  0.12137900  0.24279000  1
  Sr  Sr3  1  0.00000000  0.87862100  0.75721000  1
  Sr  Sr4  1  0.00000000  0.86925500  0.43325200  1
  Sr  Sr5  1  0.00000000  0.13074500  0.56674800  1
  Sr  Sr6  1  0.00000000  0.36925500  0.06674800  1
  Sr  Sr7  1  0.00000000  0.63074500  0.93325200  1
  Sr  Sr8  1  0.00000000  0.50000000  0.50000000  1
  Sr  Sr9  1  0.00000000  0.00000000  0.00000000  1
  Sn  Sn10  1  0.50000000  0.78608400  0.10452700  1
  Sn  Sn11  1  0.50000000  0.21391600  0.89547300  1
  Sn  Sn12  1  0.50000000  0.28608400  0.39547300  1
  Sn  Sn13  1  0.50000000  0.71391600  0.60452700  1
  As  As14  1  0.50000000  0.57591400  0.10216500  1
  As  As15  1  0.50000000  0.42408600  0.89783500  1
  As  As16  1  0.50000000  0.07591400  0.39783500  1
  As  As17  1  0.50000000  0.92408600  0.60216500  1
  As  As18  1  0.50000000  0.67032500  0.42135600  1
  As  As19  1  0.50000000  0.32967500  0.57864400  1
  As  As20  1  0.50000000  0.17032500  0.07864400  1
  As  As21  1  0.50000000  0.82967500  0.92135600  1
  As  As22  1  0.00000000  0.86907900  0.19586100  1
  As  As23  1  0.00000000  0.13092100  0.80413900  1
  As  As24  1  0.00000000  0.36907900  0.30413900  1
  As  As25  1  0.00000000  0.63092100  0.69586100  1
