# generated using pymatgen
data_Nb7(B4Ru3)2
_symmetry_space_group_name_H-M   'P 1'
_cell_length_a   9.63509608
_cell_length_b   9.63509608
_cell_length_c   3.12544300
_cell_angle_alpha   90.00000000
_cell_angle_beta   90.00000000
_cell_angle_gamma   120.00000057
_symmetry_Int_Tables_number   1
_chemical_formula_structural   Nb7(B4Ru3)2
_chemical_formula_sum   'Nb7 B8 Ru6'
_cell_volume   251.27791041
_cell_formula_units_Z   1
loop_
 _symmetry_equiv_pos_site_id
 _symmetry_equiv_pos_as_xyz
  1  'x, y, z'
loop_
 _atom_site_type_symbol
 _atom_site_label
 _atom_site_symmetry_multiplicity
 _atom_site_fract_x
 _atom_site_fract_y
 _atom_site_fract_z
 _atom_site_occupancy
  Nb  Nb0  1  0.00000000  0.00000000  0.00000000  1
  Nb  Nb1  1  0.27637700  0.91484500  0.00000000  1
  Nb  Nb2  1  0.63846800  0.72362300  0.00000000  1
  Nb  Nb3  1  0.08515500  0.36153200  0.00000000  1
  Nb  Nb4  1  0.72362300  0.08515500  0.00000000  1
  Nb  Nb5  1  0.36153200  0.27637700  0.00000000  1
  Nb  Nb6  1  0.91484500  0.63846800  0.00000000  1
  B  B7  1  0.33333300  0.66666700  0.00000000  1
  B  B8  1  0.66666700  0.33333300  0.00000000  1
  B  B9  1  0.84761000  0.78180900  0.50000000  1
  B  B10  1  0.93419900  0.15239000  0.50000000  1
  B  B11  1  0.21819100  0.06580100  0.50000000  1
  B  B12  1  0.15239000  0.21819100  0.50000000  1
  B  B13  1  0.06580100  0.84761000  0.50000000  1
  B  B14  1  0.78180900  0.93419900  0.50000000  1
  Ru  Ru15  1  0.63987000  0.48546100  0.50000000  1
  Ru  Ru16  1  0.84559100  0.36013000  0.50000000  1
  Ru  Ru17  1  0.51453900  0.15440900  0.50000000  1
  Ru  Ru18  1  0.36013000  0.51453900  0.50000000  1
  Ru  Ru19  1  0.15440900  0.63987000  0.50000000  1
  Ru  Ru20  1  0.48546100  0.84559100  0.50000000  1
