# generated using pymatgen
data_SrNdNiRuO6
_symmetry_space_group_name_H-M   'P 1'
_cell_length_a   5.53686200
_cell_length_b   5.47312500
_cell_length_c   9.74746341
_cell_angle_alpha   55.80234639
_cell_angle_beta   90.00000000
_cell_angle_gamma   90.00000000
_symmetry_Int_Tables_number   1
_chemical_formula_structural   SrNdNiRuO6
_chemical_formula_sum   'Sr2 Nd2 Ni2 Ru2 O12'
_cell_volume   244.31525605
_cell_formula_units_Z   2
loop_
 _symmetry_equiv_pos_site_id
 _symmetry_equiv_pos_as_xyz
  1  'x, y, z'
loop_
 _atom_site_type_symbol
 _atom_site_label
 _atom_site_symmetry_multiplicity
 _atom_site_fract_x
 _atom_site_fract_y
 _atom_site_fract_z
 _atom_site_occupancy
  Sr  Sr0  1  0.21890200  0.24446600  0.24940400  1
  Sr  Sr1  1  0.78109800  0.24446600  0.74940400  1
  Nd  Nd2  1  0.29871600  0.76233300  0.75179700  1
  Nd  Nd3  1  0.70128400  0.76233300  0.25179700  1
  Ni  Ni4  1  0.75745400  0.49977300  0.00080500  1
  Ni  Ni5  1  0.24254600  0.49977300  0.50080500  1
  Ru  Ru6  1  0.75411900  0.00295300  0.49970300  1
  Ru  Ru7  1  0.24588100  0.00295300  0.99970300  1
  O  O8  1  0.95608300  0.75251900  0.45351800  1
  O  O9  1  0.04391700  0.75251900  0.95351800  1
  O  O10  1  0.52866000  0.23791300  0.54013200  1
  O  O11  1  0.47134000  0.23791300  0.04013200  1
  O  O12  1  0.04519000  0.15627200  0.54556600  1
  O  O13  1  0.95481000  0.15627200  0.04556600  1
  O  O14  1  0.47159800  0.81894600  0.45855800  1
  O  O15  1  0.52840200  0.81894600  0.95855800  1
  O  O16  1  0.76207800  0.33170200  0.25768200  1
  O  O17  1  0.23792200  0.33170200  0.75768200  1
  O  O18  1  0.72890500  0.69312300  0.74283600  1
  O  O19  1  0.27109500  0.69312300  0.24283600  1
