# generated using pymatgen
data_Y2(AlNi)5
_symmetry_space_group_name_H-M   'P 1'
_cell_length_a   4.06081100
_cell_length_b   8.89455800
_cell_length_c   15.47018772
_cell_angle_alpha   89.95074548
_cell_angle_beta   90.00000000
_cell_angle_gamma   90.00000000
_symmetry_Int_Tables_number   1
_chemical_formula_structural   Y2(AlNi)5
_chemical_formula_sum   'Y6 Al15 Ni15'
_cell_volume   558.76934409
_cell_formula_units_Z   3
loop_
 _symmetry_equiv_pos_site_id
 _symmetry_equiv_pos_as_xyz
  1  'x, y, z'
loop_
 _atom_site_type_symbol
 _atom_site_label
 _atom_site_symmetry_multiplicity
 _atom_site_fract_x
 _atom_site_fract_y
 _atom_site_fract_z
 _atom_site_occupancy
  Y  Y0  1  0.00000000  0.99931600  0.33664400  1
  Y  Y1  1  0.00000000  0.50381300  0.83570100  1
  Y  Y2  1  0.00000000  0.50591300  0.16886700  1
  Y  Y3  1  0.00000000  0.00250400  0.66392600  1
  Y  Y4  1  0.50000000  0.99269200  0.00058500  1
  Y  Y5  1  0.50000000  0.49699200  0.49648700  1
  Al  Al6  1  0.50000000  0.00904600  0.50150400  1
  Al  Al7  1  0.50000000  0.50824500  0.00043500  1
  Al  Al8  1  0.50000000  0.74818700  0.25564700  1
  Al  Al9  1  0.50000000  0.25278400  0.75133600  1
  Al  Al10  1  0.50000000  0.24962500  0.24894800  1
  Al  Al11  1  0.50000000  0.75265300  0.74834100  1
  Al  Al12  1  0.00000000  0.14652800  0.85237500  1
  Al  Al13  1  0.00000000  0.14697700  0.14817700  1
  Al  Al14  1  0.00000000  0.64813800  0.64781900  1
  Al  Al15  1  0.00000000  0.29694600  0.00092800  1
  Al  Al16  1  0.00000000  0.78345800  0.49420800  1
  Al  Al17  1  0.00000000  0.84891200  0.14136800  1
  Al  Al18  1  0.00000000  0.34979600  0.63995200  1
  Al  Al19  1  0.00000000  0.36002000  0.36021600  1
  Al  Al20  1  0.00000000  0.84961100  0.85942700  1
  Ni  Ni21  1  0.50000000  0.99599900  0.18337500  1
  Ni  Ni22  1  0.50000000  0.49989900  0.68092400  1
  Ni  Ni23  1  0.50000000  0.22650100  0.40567300  1
  Ni  Ni24  1  0.50000000  0.72808500  0.90702200  1
  Ni  Ni25  1  0.50000000  0.77838500  0.41089300  1
  Ni  Ni26  1  0.50000000  0.27460400  0.91048500  1
  Ni  Ni27  1  0.50000000  0.49601800  0.31661500  1
  Ni  Ni28  1  0.50000000  0.99991500  0.81764500  1
  Ni  Ni29  1  0.50000000  0.72653400  0.09479100  1
  Ni  Ni30  1  0.50000000  0.22955900  0.59303900  1
  Ni  Ni31  1  0.50000000  0.27472800  0.09043300  1
  Ni  Ni32  1  0.50000000  0.77444100  0.58892500  1
  Ni  Ni33  1  0.00000000  0.69609400  0.00023700  1
  Ni  Ni34  1  0.00000000  0.19604800  0.49925200  1
  Ni  Ni35  1  0.00000000  0.65123400  0.34780000  1
