# generated using pymatgen
data_EuCrTeO6
_symmetry_space_group_name_H-M   'P 1'
_cell_length_a   5.19650182
_cell_length_b   5.19972469
_cell_length_c   10.27903015
_cell_angle_alpha   90.14626510
_cell_angle_beta   89.92682175
_cell_angle_gamma   120.02052319
_symmetry_Int_Tables_number   1
_chemical_formula_structural   EuCrTeO6
_chemical_formula_sum   'Eu2 Cr2 Te2 O12'
_cell_volume   240.48220069
_cell_formula_units_Z   2
loop_
 _symmetry_equiv_pos_site_id
 _symmetry_equiv_pos_as_xyz
  1  'x, y, z'
loop_
 _atom_site_type_symbol
 _atom_site_label
 _atom_site_symmetry_multiplicity
 _atom_site_fract_x
 _atom_site_fract_y
 _atom_site_fract_z
 _atom_site_occupancy
  Eu  Eu0  1  0.00000000  0.00000000  0.00000000  1
  Eu  Eu1  1  0.00000000  0.00000000  0.50000000  1
  Cr  Cr2  1  0.33306700  0.66653300  0.25000000  1
  Cr  Cr3  1  0.66693300  0.33346700  0.75000000  1
  Te  Te4  1  0.33276900  0.66638400  0.75000000  1
  Te  Te5  1  0.66723100  0.33361600  0.25000000  1
  O  O6  1  0.37306500  0.36615100  0.14353000  1
  O  O7  1  0.63348500  0.00614100  0.14351200  1
  O  O8  1  0.99353500  0.62686800  0.14355600  1
  O  O9  1  0.62693500  0.63384900  0.85647000  1
  O  O10  1  0.36651500  0.99385900  0.85648800  1
  O  O11  1  0.00646500  0.37313200  0.85644400  1
  O  O12  1  0.63348500  0.62734500  0.35648800  1
  O  O13  1  0.37306500  0.00691400  0.35647000  1
  O  O14  1  0.99353500  0.36666700  0.35644400  1
  O  O15  1  0.36651500  0.37265500  0.64351200  1
  O  O16  1  0.62693500  0.99308600  0.64353000  1
  O  O17  1  0.00646500  0.63333300  0.64355600  1
