# generated using pymatgen
data_Sm5Tl3
_symmetry_space_group_name_H-M   'P 1'
_cell_length_a   6.29831800
_cell_length_b   9.35593172
_cell_length_c   9.35593172
_cell_angle_alpha   83.49464160
_cell_angle_beta   70.33044715
_cell_angle_gamma   70.33044715
_symmetry_Int_Tables_number   1
_chemical_formula_structural   Sm5Tl3
_chemical_formula_sum   'Sm10 Tl6'
_cell_volume   488.85186184
_cell_formula_units_Z   2
loop_
 _symmetry_equiv_pos_site_id
 _symmetry_equiv_pos_as_xyz
  1  'x, y, z'
loop_
 _atom_site_type_symbol
 _atom_site_label
 _atom_site_symmetry_multiplicity
 _atom_site_fract_x
 _atom_site_fract_y
 _atom_site_fract_z
 _atom_site_occupancy
  Sm  Sm0  1  0.21819300  0.69724200  0.86637300  1
  Sm  Sm1  1  0.78180700  0.30275800  0.13362700  1
  Sm  Sm2  1  0.28180700  0.13362700  0.30275800  1
  Sm  Sm3  1  0.71819300  0.86637300  0.69724200  1
  Sm  Sm4  1  0.08456600  0.13362700  0.69724200  1
  Sm  Sm5  1  0.91543400  0.86637300  0.30275800  1
  Sm  Sm6  1  0.58456600  0.69724200  0.13362700  1
  Sm  Sm7  1  0.41543400  0.30275800  0.86637300  1
  Sm  Sm8  1  0.75000000  0.50000000  0.50000000  1
  Sm  Sm9  1  0.25000000  0.50000000  0.50000000  1
  Tl  Tl10  1  0.66065100  0.17869900  0.50000000  1
  Tl  Tl11  1  0.33934900  0.82130100  0.50000000  1
  Tl  Tl12  1  0.83934900  0.50000000  0.82130100  1
  Tl  Tl13  1  0.16065100  0.50000000  0.17869900  1
  Tl  Tl14  1  0.25000000  0.00000000  0.00000000  1
  Tl  Tl15  1  0.75000000  0.00000000  0.00000000  1
