# generated using pymatgen
data_SmGa3Ag
_symmetry_space_group_name_H-M   'P 1'
_cell_length_a   4.26964800
_cell_length_b   4.26964800
_cell_length_c   6.25562929
_cell_angle_alpha   70.04606898
_cell_angle_beta   70.04606898
_cell_angle_gamma   90.00000000
_symmetry_Int_Tables_number   1
_chemical_formula_structural   SmGa3Ag
_chemical_formula_sum   'Sm1 Ga3 Ag1'
_cell_volume   99.87911020
_cell_formula_units_Z   1
loop_
 _symmetry_equiv_pos_site_id
 _symmetry_equiv_pos_as_xyz
  1  'x, y, z'
loop_
 _atom_site_type_symbol
 _atom_site_label
 _atom_site_symmetry_multiplicity
 _atom_site_fract_x
 _atom_site_fract_y
 _atom_site_fract_z
 _atom_site_occupancy
  Sm  Sm0  1  0.00000000  0.00000000  0.00000000  1
  Ga  Ga1  1  0.25000000  0.75000000  0.50000000  1
  Ga  Ga2  1  0.38841600  0.38841600  0.22316800  1
  Ga  Ga3  1  0.61158400  0.61158400  0.77683200  1
  Ag  Ag4  1  0.75000000  0.25000000  0.50000000  1
