# generated using pymatgen
data_U(BRu)4
_symmetry_space_group_name_H-M   'P 1'
_cell_length_a   9.19614569
_cell_length_b   9.19614569
_cell_length_c   9.19614569
_cell_angle_alpha   132.03126699
_cell_angle_beta   132.03126699
_cell_angle_gamma   70.17964856
_symmetry_Int_Tables_number   1
_chemical_formula_structural   U(BRu)4
_chemical_formula_sum   'U4 B16 Ru16'
_cell_volume   420.58966615
_cell_formula_units_Z   4
loop_
 _symmetry_equiv_pos_site_id
 _symmetry_equiv_pos_as_xyz
  1  'x, y, z'
loop_
 _atom_site_type_symbol
 _atom_site_label
 _atom_site_symmetry_multiplicity
 _atom_site_fract_x
 _atom_site_fract_y
 _atom_site_fract_z
 _atom_site_occupancy
  U  U0  1  0.25000000  0.25000000  0.00000000  1
  U  U1  1  0.75000000  0.75000000  0.00000000  1
  U  U2  1  0.50000000  0.00000000  0.50000000  1
  U  U3  1  0.00000000  0.50000000  0.50000000  1
  B  B4  1  0.22338100  0.91311300  0.97119900  1
  B  B5  1  0.72338100  0.75218300  0.31026900  1
  B  B6  1  0.16311300  0.97338100  0.47119900  1
  B  B7  1  0.66311300  0.19191400  0.18973100  1
  B  B8  1  0.52661900  0.33688700  0.52880100  1
  B  B9  1  0.02661900  0.49781700  0.18973100  1
  B  B10  1  0.58688700  0.27661900  0.02880100  1
  B  B11  1  0.08688700  0.05808600  0.31026900  1
  B  B12  1  0.44191400  0.41311300  0.68973100  1
  B  B13  1  0.94191400  0.25218300  0.02880100  1
  B  B14  1  0.00218300  0.47338100  0.81026900  1
  B  B15  1  0.50218300  0.69191400  0.52880100  1
  B  B16  1  0.30808600  0.83688700  0.81026900  1
  B  B17  1  0.80808600  0.99781700  0.47119900  1
  B  B18  1  0.74781700  0.77661900  0.68973100  1
  B  B19  1  0.24781700  0.55808600  0.97119900  1
  Ru  Ru20  1  0.53501100  0.07416400  0.23334300  1
  Ru  Ru21  1  0.03501100  0.80166700  0.46084600  1
  Ru  Ru22  1  0.32416400  0.28501100  0.73334300  1
  Ru  Ru23  1  0.82416400  0.09082100  0.03915400  1
  Ru  Ru24  1  0.21498900  0.17583600  0.26665700  1
  Ru  Ru25  1  0.71498900  0.44833300  0.03915400  1
  Ru  Ru26  1  0.42583600  0.96498900  0.76665700  1
  Ru  Ru27  1  0.92583600  0.15917900  0.46084600  1
  Ru  Ru28  1  0.34082100  0.57416400  0.53915400  1
  Ru  Ru29  1  0.84082100  0.30166700  0.76665700  1
  Ru  Ru30  1  0.05166700  0.78501100  0.96084600  1
  Ru  Ru31  1  0.55166700  0.59082100  0.26665700  1
  Ru  Ru32  1  0.40917900  0.67583600  0.96084600  1
  Ru  Ru33  1  0.90917900  0.94833300  0.73334300  1
  Ru  Ru34  1  0.69833300  0.46498900  0.53915400  1
  Ru  Ru35  1  0.19833300  0.65917900  0.23334300  1
