# generated using pymatgen
data_Li3AlF6
_symmetry_space_group_name_H-M   'P 1'
_cell_length_a   8.39300478
_cell_length_b   8.39300478
_cell_length_c   10.04853126
_cell_angle_alpha   86.46428948
_cell_angle_beta   86.46428948
_cell_angle_gamma   61.08806079
_symmetry_Int_Tables_number   1
_chemical_formula_structural   Li3AlF6
_chemical_formula_sum   'Li18 Al6 F36'
_cell_volume   618.03036912
_cell_formula_units_Z   6
loop_
 _symmetry_equiv_pos_site_id
 _symmetry_equiv_pos_as_xyz
  1  'x, y, z'
loop_
 _atom_site_type_symbol
 _atom_site_label
 _atom_site_symmetry_multiplicity
 _atom_site_fract_x
 _atom_site_fract_y
 _atom_site_fract_z
 _atom_site_occupancy
  Li  Li0  1  0.80829700  0.19170300  0.75000000  1
  Li  Li1  1  0.19170300  0.80829700  0.25000000  1
  Li  Li2  1  0.93865500  0.65694300  0.43158200  1
  Li  Li3  1  0.34305700  0.06134500  0.06841800  1
  Li  Li4  1  0.06134500  0.34305700  0.56841800  1
  Li  Li5  1  0.65694300  0.93865500  0.93158200  1
  Li  Li6  1  0.11699100  0.54928800  0.05443100  1
  Li  Li7  1  0.45071200  0.88300900  0.44556900  1
  Li  Li8  1  0.88300900  0.45071200  0.94556900  1
  Li  Li9  1  0.54928800  0.11699100  0.55443100  1
  Li  Li10  1  0.67431600  0.37610700  0.45587800  1
  Li  Li11  1  0.62389300  0.32568400  0.04412200  1
  Li  Li12  1  0.32568400  0.62389300  0.54412200  1
  Li  Li13  1  0.37610700  0.67431600  0.95587800  1
  Li  Li14  1  0.28222800  0.99503800  0.73217900  1
  Li  Li15  1  0.00496200  0.71777200  0.76782100  1
  Li  Li16  1  0.71777200  0.00496200  0.26782100  1
  Li  Li17  1  0.99503800  0.28222800  0.23217900  1
  Al  Al18  1  0.00000000  0.00000000  0.00000000  1
  Al  Al19  1  0.33842300  0.33432300  0.79948600  1
  Al  Al20  1  0.66567700  0.66157700  0.70051400  1
  Al  Al21  1  0.66157700  0.66567700  0.20051400  1
  Al  Al22  1  0.33432300  0.33842300  0.29948600  1
  Al  Al23  1  0.00000000  0.00000000  0.50000000  1
  F  F24  1  0.24555700  0.55641500  0.20585000  1
  F  F25  1  0.07288600  0.06334500  0.34188600  1
  F  F26  1  0.93665500  0.92711400  0.15811400  1
  F  F27  1  0.92711400  0.93665500  0.65811400  1
  F  F28  1  0.06334500  0.07288600  0.84188600  1
  F  F29  1  0.41485800  0.11840300  0.89594300  1
  F  F30  1  0.75444300  0.44358500  0.79415000  1
  F  F31  1  0.55641500  0.24555700  0.70585000  1
  F  F32  1  0.91302300  0.22971900  0.56154800  1
  F  F33  1  0.44358500  0.75444300  0.29415000  1
  F  F34  1  0.88297700  0.57375600  0.10933300  1
  F  F35  1  0.42624400  0.11702300  0.39066700  1
  F  F36  1  0.11702300  0.42624400  0.89066700  1
  F  F37  1  0.57375600  0.88297700  0.60933300  1
  F  F38  1  0.75674700  0.45293300  0.29990500  1
  F  F39  1  0.54706700  0.24325300  0.20009500  1
  F  F40  1  0.24325300  0.54706700  0.70009500  1
  F  F41  1  0.45293300  0.75674700  0.79990500  1
  F  F42  1  0.23114100  0.26459000  0.17451500  1
  F  F43  1  0.73541000  0.76885900  0.32548500  1
  F  F44  1  0.76885900  0.73541000  0.82548500  1
  F  F45  1  0.58514200  0.88159700  0.10405700  1
  F  F46  1  0.92043700  0.22977500  0.06175000  1
  F  F47  1  0.77022500  0.07956300  0.43825000  1
  F  F48  1  0.07956300  0.77022500  0.93825000  1
  F  F49  1  0.22977500  0.92043700  0.56175000  1
  F  F50  1  0.77028100  0.08697700  0.93845200  1
  F  F51  1  0.26459000  0.23114100  0.67451500  1
  F  F52  1  0.22971900  0.91302300  0.06154800  1
  F  F53  1  0.08697700  0.77028100  0.43845200  1
  F  F54  1  0.42786700  0.41361300  0.42757200  1
  F  F55  1  0.58638700  0.57213300  0.07242800  1
  F  F56  1  0.57213300  0.58638700  0.57242800  1
  F  F57  1  0.41361300  0.42786700  0.92757200  1
  F  F58  1  0.11840300  0.41485800  0.39594300  1
  F  F59  1  0.88159700  0.58514200  0.60405700  1
