# generated using pymatgen
data_DyB3Mo
_symmetry_space_group_name_H-M   'P 1'
_cell_length_a   3.17453300
_cell_length_b   5.45688400
_cell_length_c   6.84556362
_cell_angle_alpha   77.86119674
_cell_angle_beta   90.00000000
_cell_angle_gamma   90.00000000
_symmetry_Int_Tables_number   1
_chemical_formula_structural   DyB3Mo
_chemical_formula_sum   'Dy2 B6 Mo2'
_cell_volume   115.93463720
_cell_formula_units_Z   2
loop_
 _symmetry_equiv_pos_site_id
 _symmetry_equiv_pos_as_xyz
  1  'x, y, z'
loop_
 _atom_site_type_symbol
 _atom_site_label
 _atom_site_symmetry_multiplicity
 _atom_site_fract_x
 _atom_site_fract_y
 _atom_site_fract_z
 _atom_site_occupancy
  Dy  Dy0  1  0.25000000  0.32373400  0.70935000  1
  Dy  Dy1  1  0.75000000  0.67626600  0.29065000  1
  B  B2  1  0.25000000  0.92042100  0.52431600  1
  B  B3  1  0.75000000  0.07957900  0.47568400  1
  B  B4  1  0.25000000  0.91237900  0.00433600  1
  B  B5  1  0.75000000  0.08762100  0.99566400  1
  B  B6  1  0.25000000  0.58362200  0.00637000  1
  B  B7  1  0.75000000  0.41637800  0.99363000  1
  Mo  Mo8  1  0.25000000  0.18790200  0.21983600  1
  Mo  Mo9  1  0.75000000  0.81209800  0.78016400  1
