# generated using pymatgen
data_Hf4Al3
_symmetry_space_group_name_H-M   'P 1'
_cell_length_a   5.35945683
_cell_length_b   5.35945683
_cell_length_c   5.41736300
_cell_angle_alpha   90.00000000
_cell_angle_beta   90.00000000
_cell_angle_gamma   120.00001019
_symmetry_Int_Tables_number   1
_chemical_formula_structural   Hf4Al3
_chemical_formula_sum   'Hf4 Al3'
_cell_volume   134.75971312
_cell_formula_units_Z   1
loop_
 _symmetry_equiv_pos_site_id
 _symmetry_equiv_pos_as_xyz
  1  'x, y, z'
loop_
 _atom_site_type_symbol
 _atom_site_label
 _atom_site_symmetry_multiplicity
 _atom_site_fract_x
 _atom_site_fract_y
 _atom_site_fract_z
 _atom_site_occupancy
  Hf  Hf0  1  0.00000000  0.00000000  0.25875700  1
  Hf  Hf1  1  0.00000000  0.00000000  0.74124300  1
  Hf  Hf2  1  0.33333300  0.66666700  0.50000000  1
  Hf  Hf3  1  0.66666700  0.33333300  0.50000000  1
  Al  Al4  1  0.50000000  0.00000000  0.00000000  1
  Al  Al5  1  0.00000000  0.50000000  0.00000000  1
  Al  Al6  1  0.50000000  0.50000000  0.00000000  1
