# generated using pymatgen
data_Tm3C4
_symmetry_space_group_name_H-M   'P 1'
_cell_length_a   7.95558200
_cell_length_b   7.95558200
_cell_length_c   15.80428000
_cell_angle_alpha   90.00000000
_cell_angle_beta   90.00000000
_cell_angle_gamma   90.00000000
_symmetry_Int_Tables_number   1
_chemical_formula_structural   Tm3C4
_chemical_formula_sum   'Tm30 C40'
_cell_volume   1000.27318905
_cell_formula_units_Z   10
loop_
 _symmetry_equiv_pos_site_id
 _symmetry_equiv_pos_as_xyz
  1  'x, y, z'
loop_
 _atom_site_type_symbol
 _atom_site_label
 _atom_site_symmetry_multiplicity
 _atom_site_fract_x
 _atom_site_fract_y
 _atom_site_fract_z
 _atom_site_occupancy
  Tm  Tm0  1  0.50000000  0.50000000  0.50000000  1
  Tm  Tm1  1  0.00000000  0.00000000  0.00000000  1
  Tm  Tm2  1  0.50000000  0.50000000  0.18730300  1
  Tm  Tm3  1  0.00000000  0.00000000  0.68730300  1
  Tm  Tm4  1  0.50000000  0.50000000  0.81269700  1
  Tm  Tm5  1  0.00000000  0.00000000  0.31269700  1
  Tm  Tm6  1  0.70253200  0.90448500  0.50000000  1
  Tm  Tm7  1  0.29746800  0.09551500  0.50000000  1
  Tm  Tm8  1  0.79746800  0.40448500  0.00000000  1
  Tm  Tm9  1  0.20253200  0.59551500  0.00000000  1
  Tm  Tm10  1  0.90448500  0.29746800  0.50000000  1
  Tm  Tm11  1  0.09551500  0.70253200  0.50000000  1
  Tm  Tm12  1  0.40448500  0.20253200  0.00000000  1
  Tm  Tm13  1  0.59551500  0.79746800  0.00000000  1
  Tm  Tm14  1  0.78815600  0.60040300  0.35396500  1
  Tm  Tm15  1  0.21184400  0.39959700  0.35396500  1
  Tm  Tm16  1  0.71184400  0.10040300  0.85396500  1
  Tm  Tm17  1  0.28815600  0.89959700  0.85396500  1
  Tm  Tm18  1  0.60040300  0.21184400  0.35396500  1
  Tm  Tm19  1  0.39959700  0.78815600  0.35396500  1
  Tm  Tm20  1  0.10040300  0.28815600  0.85396500  1
  Tm  Tm21  1  0.89959700  0.71184400  0.85396500  1
  Tm  Tm22  1  0.21184400  0.39959700  0.64603500  1
  Tm  Tm23  1  0.78815600  0.60040300  0.64603500  1
  Tm  Tm24  1  0.28815600  0.89959700  0.14603500  1
  Tm  Tm25  1  0.71184400  0.10040300  0.14603500  1
  Tm  Tm26  1  0.39959700  0.78815600  0.64603500  1
  Tm  Tm27  1  0.60040300  0.21184400  0.64603500  1
  Tm  Tm28  1  0.89959700  0.71184400  0.14603500  1
  Tm  Tm29  1  0.10040300  0.28815600  0.14603500  1
  C  C30  1  0.50000000  0.50000000  0.95843800  1
  C  C31  1  0.00000000  0.00000000  0.45843800  1
  C  C32  1  0.50000000  0.50000000  0.04156200  1
  C  C33  1  0.00000000  0.00000000  0.54156200  1
  C  C34  1  0.50000000  0.50000000  0.34304500  1
  C  C35  1  0.00000000  0.00000000  0.84304500  1
  C  C36  1  0.50000000  0.50000000  0.65695500  1
  C  C37  1  0.00000000  0.00000000  0.15695500  1
  C  C38  1  0.60611700  0.19657600  0.50000000  1
  C  C39  1  0.39388300  0.80342400  0.50000000  1
  C  C40  1  0.89388300  0.69657600  0.00000000  1
  C  C41  1  0.10611700  0.30342400  0.00000000  1
  C  C42  1  0.19657600  0.39388300  0.50000000  1
  C  C43  1  0.80342400  0.60611700  0.50000000  1
  C  C44  1  0.69657600  0.10611700  0.00000000  1
  C  C45  1  0.30342400  0.89388300  0.00000000  1
  C  C46  1  0.69292300  0.90193600  0.32841700  1
  C  C47  1  0.30707700  0.09806400  0.32841700  1
  C  C48  1  0.80707700  0.40193600  0.82841700  1
  C  C49  1  0.19292300  0.59806400  0.82841700  1
  C  C50  1  0.90193600  0.30707700  0.32841700  1
  C  C51  1  0.09806400  0.69292300  0.32841700  1
  C  C52  1  0.40193600  0.19292300  0.82841700  1
  C  C53  1  0.59806400  0.80707700  0.82841700  1
  C  C54  1  0.30707700  0.09806400  0.67158300  1
  C  C55  1  0.69292300  0.90193600  0.67158300  1
  C  C56  1  0.19292300  0.59806400  0.17158300  1
  C  C57  1  0.80707700  0.40193600  0.17158300  1
  C  C58  1  0.09806400  0.69292300  0.67158300  1
  C  C59  1  0.90193600  0.30707700  0.67158300  1
  C  C60  1  0.59806400  0.80707700  0.17158300  1
  C  C61  1  0.40193600  0.19292300  0.17158300  1
  C  C62  1  0.64986100  0.85013900  0.25000000  1
  C  C63  1  0.35013900  0.14986100  0.25000000  1
  C  C64  1  0.85013900  0.35013900  0.75000000  1
  C  C65  1  0.14986100  0.64986100  0.75000000  1
  C  C66  1  0.85013900  0.35013900  0.25000000  1
  C  C67  1  0.14986100  0.64986100  0.25000000  1
  C  C68  1  0.35013900  0.14986100  0.75000000  1
  C  C69  1  0.64986100  0.85013900  0.75000000  1
