# generated using pymatgen
data_Rb2Bi(IO3)5
_symmetry_space_group_name_H-M   'P 1'
_cell_length_a   8.41553300
_cell_length_b   8.49424000
_cell_length_c   12.67283491
_cell_angle_alpha   109.58079288
_cell_angle_beta   90.00000000
_cell_angle_gamma   90.00000000
_symmetry_Int_Tables_number   1
_chemical_formula_structural   Rb2Bi(IO3)5
_chemical_formula_sum   'Rb4 Bi2 I10 O30'
_cell_volume   853.51102605
_cell_formula_units_Z   2
loop_
 _symmetry_equiv_pos_site_id
 _symmetry_equiv_pos_as_xyz
  1  'x, y, z'
loop_
 _atom_site_type_symbol
 _atom_site_label
 _atom_site_symmetry_multiplicity
 _atom_site_fract_x
 _atom_site_fract_y
 _atom_site_fract_z
 _atom_site_occupancy
  Rb  Rb0  1  0.00000000  0.64804300  0.00000000  1
  Rb  Rb1  1  0.00000000  0.14804300  0.00000000  1
  Rb  Rb2  1  0.52549000  0.38332100  0.50000000  1
  Rb  Rb3  1  0.47451000  0.88332100  0.50000000  1
  Bi  Bi4  1  0.50000000  0.74697700  0.00000000  1
  Bi  Bi5  1  0.50000000  0.24697700  0.00000000  1
  I  I6  1  0.75711800  0.74330100  0.73357400  1
  I  I7  1  0.24288200  0.00972700  0.26642600  1
  I  I8  1  0.24288200  0.24330100  0.73357400  1
  I  I9  1  0.75711800  0.50972700  0.26642600  1
  I  I10  1  0.72870500  0.99360000  0.21126300  1
  I  I11  1  0.27129500  0.78233800  0.78873700  1
  I  I12  1  0.27129500  0.49360000  0.21126300  1
  I  I13  1  0.72870500  0.28233800  0.78873700  1
  I  I14  1  0.06072700  0.44038200  0.50000000  1
  I  I15  1  0.93927300  0.94038200  0.50000000  1
  O  O16  1  0.93174900  0.98706900  0.16191500  1
  O  O17  1  0.06825100  0.82515400  0.83808500  1
  O  O18  1  0.06825100  0.48706900  0.16191500  1
  O  O19  1  0.93174900  0.32515400  0.83808500  1
  O  O20  1  0.55785700  0.73523500  0.67494500  1
  O  O21  1  0.44214300  0.06029000  0.32505500  1
  O  O22  1  0.44214300  0.23523500  0.67494500  1
  O  O23  1  0.55785700  0.56029000  0.32505500  1
  O  O24  1  0.62031700  0.01153400  0.08451900  1
  O  O25  1  0.37968300  0.92701500  0.91548100  1
  O  O26  1  0.37968300  0.51153400  0.08451900  1
  O  O27  1  0.62031700  0.42701500  0.91548100  1
  O  O28  1  0.68603800  0.76708200  0.16138700  1
  O  O29  1  0.31396200  0.60569600  0.83861300  1
  O  O30  1  0.31396200  0.26708200  0.16138700  1
  O  O31  1  0.68603800  0.10569600  0.83861300  1
  O  O32  1  0.71431800  0.74764600  0.87742100  1
  O  O33  1  0.28568200  0.87022600  0.12257900  1
  O  O34  1  0.28568200  0.24764600  0.87742100  1
  O  O35  1  0.71431800  0.37022600  0.12257900  1
  O  O36  1  0.80968600  0.52213300  0.67211100  1
  O  O37  1  0.19031300  0.85002100  0.32788900  1
  O  O38  1  0.19031300  0.02213300  0.67211100  1
  O  O39  1  0.80968600  0.35002100  0.32788900  1
  O  O40  1  0.10181400  0.22754000  0.50000000  1
  O  O41  1  0.89818600  0.72754000  0.50000000  1
  O  O42  1  0.19587200  0.55431000  0.61384900  1
  O  O43  1  0.80412800  0.94046100  0.38615100  1
  O  O44  1  0.80412800  0.05431000  0.61384900  1
  O  O45  1  0.19587200  0.44046100  0.38615100  1
