# generated using pymatgen
data_Dy2B6Ru
_symmetry_space_group_name_H-M   'P 1'
_cell_length_a   3.66884900
_cell_length_b   9.14444300
_cell_length_c   11.51047600
_cell_angle_alpha   90.00000000
_cell_angle_beta   90.00000000
_cell_angle_gamma   90.00000000
_symmetry_Int_Tables_number   1
_chemical_formula_structural   Dy2B6Ru
_chemical_formula_sum   'Dy8 B24 Ru4'
_cell_volume   386.17164180
_cell_formula_units_Z   4
loop_
 _symmetry_equiv_pos_site_id
 _symmetry_equiv_pos_as_xyz
  1  'x, y, z'
loop_
 _atom_site_type_symbol
 _atom_site_label
 _atom_site_symmetry_multiplicity
 _atom_site_fract_x
 _atom_site_fract_y
 _atom_site_fract_z
 _atom_site_occupancy
  Dy  Dy0  1  0.00000000  0.32258400  0.41428600  1
  Dy  Dy1  1  0.00000000  0.67741600  0.58571400  1
  Dy  Dy2  1  0.00000000  0.82258400  0.08571400  1
  Dy  Dy3  1  0.00000000  0.17741600  0.91428600  1
  Dy  Dy4  1  0.00000000  0.94457400  0.37224800  1
  Dy  Dy5  1  0.00000000  0.05542600  0.62775200  1
  Dy  Dy6  1  0.00000000  0.44457400  0.12775200  1
  Dy  Dy7  1  0.00000000  0.55542600  0.87224800  1
  B  B8  1  0.50000000  0.55478100  0.43304300  1
  B  B9  1  0.50000000  0.44521900  0.56695700  1
  B  B10  1  0.50000000  0.05478100  0.06695700  1
  B  B11  1  0.50000000  0.94521900  0.93304300  1
  B  B12  1  0.50000000  0.74874800  0.42002300  1
  B  B13  1  0.50000000  0.25125200  0.57997700  1
  B  B14  1  0.50000000  0.24874800  0.07997700  1
  B  B15  1  0.50000000  0.75125200  0.92002300  1
  B  B16  1  0.50000000  0.79154100  0.26652300  1
  B  B17  1  0.50000000  0.20845900  0.73347700  1
  B  B18  1  0.50000000  0.29154100  0.23347700  1
  B  B19  1  0.50000000  0.70845900  0.76652300  1
  B  B20  1  0.50000000  0.63273500  0.18523000  1
  B  B21  1  0.50000000  0.36726500  0.81477000  1
  B  B22  1  0.50000000  0.13273500  0.31477000  1
  B  B23  1  0.50000000  0.86726500  0.68523000  1
  B  B24  1  0.50000000  0.98508500  0.21251600  1
  B  B25  1  0.50000000  0.01491500  0.78748400  1
  B  B26  1  0.50000000  0.48508500  0.28748400  1
  B  B27  1  0.50000000  0.51491500  0.71251600  1
  B  B28  1  0.50000000  0.60978000  0.03016100  1
  B  B29  1  0.50000000  0.39022000  0.96983900  1
  B  B30  1  0.50000000  0.10978000  0.46983900  1
  B  B31  1  0.50000000  0.89022000  0.53016100  1
  Ru  Ru32  1  0.00000000  0.63882700  0.32119100  1
  Ru  Ru33  1  0.00000000  0.36117300  0.67880900  1
  Ru  Ru34  1  0.00000000  0.13882700  0.17880900  1
  Ru  Ru35  1  0.00000000  0.86117300  0.82119100  1
