# generated using pymatgen
data_Pr(As3Ru)4
_symmetry_space_group_name_H-M   'P 1'
_cell_length_a   7.45378019
_cell_length_b   7.45378019
_cell_length_c   7.45378019
_cell_angle_alpha   109.47122063
_cell_angle_beta   109.47122063
_cell_angle_gamma   109.47122063
_symmetry_Int_Tables_number   1
_chemical_formula_structural   Pr(As3Ru)4
_chemical_formula_sum   'Pr1 As12 Ru4'
_cell_volume   318.79232245
_cell_formula_units_Z   1
loop_
 _symmetry_equiv_pos_site_id
 _symmetry_equiv_pos_as_xyz
  1  'x, y, z'
loop_
 _atom_site_type_symbol
 _atom_site_label
 _atom_site_symmetry_multiplicity
 _atom_site_fract_x
 _atom_site_fract_y
 _atom_site_fract_z
 _atom_site_occupancy
  Pr  Pr0  1  0.00000000  0.00000000  0.00000000  1
  As  As1  1  0.15000000  0.80072300  0.65072400  1
  As  As2  1  0.85000000  0.19927700  0.34927600  1
  As  As3  1  0.15000000  0.49927600  0.34927600  1
  As  As4  1  0.85000000  0.50072400  0.65072400  1
  As  As5  1  0.65072400  0.15000000  0.80072300  1
  As  As6  1  0.34927600  0.85000000  0.19927700  1
  As  As7  1  0.34927600  0.15000000  0.49927600  1
  As  As8  1  0.65072400  0.85000000  0.50072400  1
  As  As9  1  0.80072300  0.65072400  0.15000000  1
  As  As10  1  0.19927700  0.34927600  0.85000000  1
  As  As11  1  0.49927600  0.34927600  0.15000000  1
  As  As12  1  0.50072400  0.65072400  0.85000000  1
  Ru  Ru13  1  0.50000000  0.00000000  0.00000000  1
  Ru  Ru14  1  0.00000000  0.00000000  0.50000000  1
  Ru  Ru15  1  0.00000000  0.50000000  0.00000000  1
  Ru  Ru16  1  0.50000000  0.50000000  0.50000000  1
