# generated using pymatgen
data_PrGaSi
_symmetry_space_group_name_H-M   'P 1'
_cell_length_a   7.78803269
_cell_length_b   7.78803269
_cell_length_c   7.78803269
_cell_angle_alpha   148.32045269
_cell_angle_beta   148.32045269
_cell_angle_gamma   45.41253492
_symmetry_Int_Tables_number   1
_chemical_formula_structural   PrGaSi
_chemical_formula_sum   'Pr2 Ga2 Si2'
_cell_volume   129.85778264
_cell_formula_units_Z   2
loop_
 _symmetry_equiv_pos_site_id
 _symmetry_equiv_pos_as_xyz
  1  'x, y, z'
loop_
 _atom_site_type_symbol
 _atom_site_label
 _atom_site_symmetry_multiplicity
 _atom_site_fract_x
 _atom_site_fract_y
 _atom_site_fract_z
 _atom_site_occupancy
  Pr  Pr0  1  0.62503700  0.12503700  0.50000000  1
  Pr  Pr1  1  0.87503700  0.87503700  0.00000000  1
  Ga  Ga2  1  0.45850200  0.45850200  0.00000000  1
  Ga  Ga3  1  0.20850200  0.70850200  0.50000000  1
  Si  Si4  1  0.04146100  0.54146100  0.50000000  1
  Si  Si5  1  0.29146100  0.29146100  0.00000000  1
