# generated using pymatgen
data_Ca2B5ClO9
_symmetry_space_group_name_H-M   'P 1'
_cell_length_a   6.34629100
_cell_length_b   11.27661000
_cell_length_c   11.41466900
_cell_angle_alpha   90.00000000
_cell_angle_beta   90.00000000
_cell_angle_gamma   90.00000000
_symmetry_Int_Tables_number   1
_chemical_formula_structural   Ca2B5ClO9
_chemical_formula_sum   'Ca8 B20 Cl4 O36'
_cell_volume   816.88677534
_cell_formula_units_Z   4
loop_
 _symmetry_equiv_pos_site_id
 _symmetry_equiv_pos_as_xyz
  1  'x, y, z'
loop_
 _atom_site_type_symbol
 _atom_site_label
 _atom_site_symmetry_multiplicity
 _atom_site_fract_x
 _atom_site_fract_y
 _atom_site_fract_z
 _atom_site_occupancy
  Ca  Ca0  1  0.14979500  0.03703000  0.74621300  1
  Ca  Ca1  1  0.14979500  0.96297000  0.25378700  1
  Ca  Ca2  1  0.64979500  0.53703000  0.75378700  1
  Ca  Ca3  1  0.64979500  0.46297000  0.24621300  1
  Ca  Ca4  1  0.31790900  0.25477500  0.46753900  1
  Ca  Ca5  1  0.31790900  0.74522500  0.53246100  1
  Ca  Ca6  1  0.81790900  0.75477500  0.03246100  1
  Ca  Ca7  1  0.81790900  0.24522500  0.96753900  1
  B  B8  1  0.31439100  0.72130500  0.19460500  1
  B  B9  1  0.31439100  0.27869500  0.80539500  1
  B  B10  1  0.81439100  0.22130500  0.30539500  1
  B  B11  1  0.81439100  0.77869500  0.69460500  1
  B  B12  1  0.35640800  0.24797400  0.02673600  1
  B  B13  1  0.35640800  0.75202600  0.97326400  1
  B  B14  1  0.85640800  0.74797400  0.47326400  1
  B  B15  1  0.85640800  0.25202600  0.52673600  1
  B  B16  1  0.19184200  0.51249500  0.23646000  1
  B  B17  1  0.19184200  0.48750500  0.76354000  1
  B  B18  1  0.69184200  0.01249500  0.26354000  1
  B  B19  1  0.69184200  0.98750500  0.73646000  1
  B  B20  1  0.45554700  0.17889700  0.22653000  1
  B  B21  1  0.45554700  0.82110300  0.77347000  1
  B  B22  1  0.95554700  0.67889700  0.27347000  1
  B  B23  1  0.95554700  0.32110300  0.72653000  1
  B  B24  1  0.12863200  0.29051600  0.19302300  1
  B  B25  1  0.12863200  0.70948400  0.80697700  1
  B  B26  1  0.62863200  0.79051600  0.30697700  1
  B  B27  1  0.62863200  0.20948400  0.69302300  1
  Cl  Cl28  1  0.99782600  0.00000000  0.00000000  1
  Cl  Cl29  1  0.49782600  0.50000000  0.50000000  1
  Cl  Cl30  1  0.23447500  0.00000000  0.50000000  1
  Cl  Cl31  1  0.73447500  0.50000000  0.00000000  1
  O  O32  1  0.51252300  0.21775400  0.10610100  1
  O  O33  1  0.51252300  0.78224600  0.89389900  1
  O  O34  1  0.01252300  0.71775400  0.39389900  1
  O  O35  1  0.01252300  0.28224600  0.60610100  1
  O  O36  1  0.42468600  0.75695600  0.08659500  1
  O  O37  1  0.42468600  0.24304400  0.91340500  1
  O  O38  1  0.92468600  0.25695600  0.41340500  1
  O  O39  1  0.92468600  0.74304400  0.58659500  1
  O  O40  1  0.35067500  0.59227900  0.21450600  1
  O  O41  1  0.35067500  0.40772100  0.78549400  1
  O  O42  1  0.85067500  0.09227900  0.28549400  1
  O  O43  1  0.85067500  0.90772100  0.71450600  1
  O  O44  1  0.58513700  0.24571400  0.31296200  1
  O  O45  1  0.58513700  0.75428600  0.68703800  1
  O  O46  1  0.08513700  0.74571400  0.18703800  1
  O  O47  1  0.08513700  0.25428600  0.81296200  1
  O  O48  1  0.40175400  0.20527800  0.71027400  1
  O  O49  1  0.40175400  0.79472200  0.28972600  1
  O  O50  1  0.90175400  0.70527800  0.78972600  1
  O  O51  1  0.90175400  0.29472200  0.21027400  1
  O  O52  1  0.49206300  0.04867600  0.23611600  1
  O  O53  1  0.49206300  0.95132400  0.76388400  1
  O  O54  1  0.99206300  0.54867600  0.26388400  1
  O  O55  1  0.99206300  0.45132400  0.73611600  1
  O  O56  1  0.23260600  0.19034400  0.25230500  1
  O  O57  1  0.23260600  0.80965600  0.74769500  1
  O  O58  1  0.73260600  0.69034400  0.24769500  1
  O  O59  1  0.73260600  0.30965600  0.75230500  1
  O  O60  1  0.15826000  0.28098400  0.06197100  1
  O  O61  1  0.15826000  0.71901600  0.93802900  1
  O  O62  1  0.65826000  0.78098400  0.43802900  1
  O  O63  1  0.65826000  0.21901600  0.56197100  1
  O  O64  1  0.25037200  0.39632800  0.23496700  1
  O  O65  1  0.25037200  0.60367200  0.76503300  1
  O  O66  1  0.75037200  0.89632800  0.26503300  1
  O  O67  1  0.75037200  0.10367200  0.73496700  1
