# generated using pymatgen
data_Pr9Ga5S21
_symmetry_space_group_name_H-M   'P 1'
_cell_length_a   11.81892180
_cell_length_b   11.81892180
_cell_length_c   11.81892093
_cell_angle_alpha   95.60038280
_cell_angle_beta   95.60038280
_cell_angle_gamma   95.60038112
_symmetry_Int_Tables_number   1
_chemical_formula_structural   Pr9Ga5S21
_chemical_formula_sum   'Pr18 Ga10 S42'
_cell_volume   1625.63534706
_cell_formula_units_Z   2
loop_
 _symmetry_equiv_pos_site_id
 _symmetry_equiv_pos_as_xyz
  1  'x, y, z'
loop_
 _atom_site_type_symbol
 _atom_site_label
 _atom_site_symmetry_multiplicity
 _atom_site_fract_x
 _atom_site_fract_y
 _atom_site_fract_z
 _atom_site_occupancy
  Pr  Pr0  1  0.11602500  0.87998800  0.74300500  1
  Pr  Pr1  1  0.45797400  0.22468000  0.08292900  1
  Pr  Pr2  1  0.77756800  0.55037200  0.40312300  1
  Pr  Pr3  1  0.40312300  0.77756800  0.55037200  1
  Pr  Pr4  1  0.74300500  0.11602500  0.87998800  1
  Pr  Pr5  1  0.08292900  0.45797400  0.22468000  1
  Pr  Pr6  1  0.22468000  0.08292900  0.45797400  1
  Pr  Pr7  1  0.55037200  0.40312300  0.77756800  1
  Pr  Pr8  1  0.87998800  0.74300500  0.11602500  1
  Pr  Pr9  1  0.21004000  0.44193700  0.58347200  1
  Pr  Pr10  1  0.55304900  0.78548600  0.92840700  1
  Pr  Pr11  1  0.87569100  0.10847000  0.24979800  1
  Pr  Pr12  1  0.92840700  0.55304900  0.78548600  1
  Pr  Pr13  1  0.24979800  0.87569100  0.10847000  1
  Pr  Pr14  1  0.58347200  0.21004000  0.44193700  1
  Pr  Pr15  1  0.10847000  0.24979800  0.87569100  1
  Pr  Pr16  1  0.44193700  0.58347200  0.21004000  1
  Pr  Pr17  1  0.78548600  0.92840700  0.55304900  1
  Ga  Ga18  1  0.72396300  0.39069400  0.05277800  1
  Ga  Ga19  1  0.05277800  0.72396300  0.39069400  1
  Ga  Ga20  1  0.39069400  0.05277800  0.72396300  1
  Ga  Ga21  1  0.88785700  0.22589100  0.55360000  1
  Ga  Ga22  1  0.22589100  0.55360000  0.88785700  1
  Ga  Ga23  1  0.55360000  0.88785700  0.22589100  1
  Ga  Ga24  1  0.85396900  0.85396900  0.85396900  1
  Ga  Ga25  1  0.15440900  0.15440900  0.15440900  1
  Ga  Ga26  1  0.65395700  0.65395700  0.65395700  1
  Ga  Ga27  1  0.35399500  0.35399500  0.35399500  1
  S  S28  1  0.54516000  0.44925400  0.01844100  1
  S  S29  1  0.87469800  0.78215300  0.36015000  1
  S  S30  1  0.20936700  0.10761500  0.69840100  1
  S  S31  1  0.69840100  0.20936700  0.10761500  1
  S  S32  1  0.01844100  0.54516000  0.44925400  1
  S  S33  1  0.36015000  0.87469800  0.78215300  1
  S  S34  1  0.78215300  0.36015000  0.87469800  1
  S  S35  1  0.10761500  0.69840100  0.20936700  1
  S  S36  1  0.44925400  0.01844100  0.54516000  1
  S  S37  1  0.96833200  0.07022700  0.47989500  1
  S  S38  1  0.30045200  0.39376900  0.81461900  1
  S  S39  1  0.63256300  0.72729300  0.15888200  1
  S  S40  1  0.81461900  0.30045200  0.39376900  1
  S  S41  1  0.15888200  0.63256300  0.72729300  1
  S  S42  1  0.47989500  0.96833200  0.07022700  1
  S  S43  1  0.72729300  0.15888200  0.63256300  1
  S  S44  1  0.07022700  0.47989500  0.96833200  1
  S  S45  1  0.39376900  0.81461900  0.30045200  1
  S  S46  1  0.84609600  0.51154700  0.17761500  1
  S  S47  1  0.17761500  0.84609600  0.51154700  1
  S  S48  1  0.51154700  0.17761500  0.84609600  1
  S  S49  1  0.67842600  0.01089300  0.34594400  1
  S  S50  1  0.01089300  0.34594400  0.67842600  1
  S  S51  1  0.34594400  0.67842600  0.01089300  1
  S  S52  1  0.55352000  0.40082900  0.30802900  1
  S  S53  1  0.89116900  0.75226600  0.66302400  1
  S  S54  1  0.23515900  0.08888800  0.99382500  1
  S  S55  1  0.99382500  0.23515900  0.08888800  1
  S  S56  1  0.30802900  0.55352000  0.40082900  1
  S  S57  1  0.66302400  0.89116900  0.75226600  1
  S  S58  1  0.75226600  0.66302400  0.89116900  1
  S  S59  1  0.08888800  0.99382500  0.23515900  1
  S  S60  1  0.40082900  0.30802900  0.55352000  1
  S  S61  1  0.14617000  0.28564600  0.37361800  1
  S  S62  1  0.47715800  0.62093900  0.71913300  1
  S  S63  1  0.78786200  0.94211500  0.03323100  1
  S  S64  1  0.71913300  0.47715800  0.62093900  1
  S  S65  1  0.03323100  0.78786200  0.94211500  1
  S  S66  1  0.37361800  0.14617000  0.28564600  1
  S  S67  1  0.94211500  0.03323100  0.78786200  1
  S  S68  1  0.28564600  0.37361800  0.14617000  1
  S  S69  1  0.62093900  0.71913300  0.47715800  1
