# generated using pymatgen
data_NaOsO3
_symmetry_space_group_name_H-M   'P 1'
_cell_length_a   5.43119108
_cell_length_b   7.65305940
_cell_length_c   5.39148435
_cell_angle_alpha   89.96279507
_cell_angle_beta   89.98135563
_cell_angle_gamma   89.99915841
_symmetry_Int_Tables_number   1
_chemical_formula_structural   NaOsO3
_chemical_formula_sum   'Na4 Os4 O12'
_cell_volume   224.09821686
_cell_formula_units_Z   4
loop_
 _symmetry_equiv_pos_site_id
 _symmetry_equiv_pos_as_xyz
  1  'x, y, z'
loop_
 _atom_site_type_symbol
 _atom_site_label
 _atom_site_symmetry_multiplicity
 _atom_site_fract_x
 _atom_site_fract_y
 _atom_site_fract_z
 _atom_site_occupancy
  Na  Na0  1  0.03266000  0.24985900  0.99337200  1
  Na  Na1  1  0.96734100  0.75014000  0.00662800  1
  Na  Na2  1  0.53259700  0.25003400  0.50667000  1
  Na  Na3  1  0.46740200  0.74996600  0.49332900  1
  Os  Os4  1  0.99999900  0.00000000  0.50000000  1
  Os  Os5  1  0.00000100  0.50000000  0.50000100  1
  Os  Os6  1  0.50000100  0.50000000  0.00000100  1
  Os  Os7  1  0.50000000  0.00000000  0.99999900  1
  O  O8  1  0.48903800  0.24991400  0.08137500  1
  O  O9  1  0.51096200  0.75008600  0.91862400  1
  O  O10  1  0.98906600  0.25007900  0.41870400  1
  O  O11  1  0.01093400  0.74992100  0.58129600  1
  O  O12  1  0.28968300  0.04092600  0.70919100  1
  O  O13  1  0.71029300  0.54086700  0.29076000  1
  O  O14  1  0.71031700  0.95907400  0.29080900  1
  O  O15  1  0.28970800  0.45913300  0.70924000  1
  O  O16  1  0.78967500  0.45911100  0.79080400  1
  O  O17  1  0.21026500  0.95909100  0.20920200  1
  O  O18  1  0.21032400  0.54088900  0.20919600  1
  O  O19  1  0.78973500  0.04090900  0.79079900  1
