# generated using pymatgen
data_Fe2H2Se3O10
_symmetry_space_group_name_H-M   'P 1'
_cell_length_a   10.16561500
_cell_length_b   8.01407800
_cell_length_c   12.93070066
_cell_angle_alpha   63.36164156
_cell_angle_beta   90.00000000
_cell_angle_gamma   90.00000000
_symmetry_Int_Tables_number   1
_chemical_formula_structural   Fe2H2Se3O10
_chemical_formula_sum   'Fe8 H8 Se12 O40'
_cell_volume   941.62070622
_cell_formula_units_Z   4
loop_
 _symmetry_equiv_pos_site_id
 _symmetry_equiv_pos_as_xyz
  1  'x, y, z'
loop_
 _atom_site_type_symbol
 _atom_site_label
 _atom_site_symmetry_multiplicity
 _atom_site_fract_x
 _atom_site_fract_y
 _atom_site_fract_z
 _atom_site_occupancy
  Fe  Fe0  1  0.76407000  0.96620800  0.72722600  1
  Fe  Fe1  1  0.23593000  0.03379200  0.27277400  1
  Fe  Fe2  1  0.26407000  0.03379200  0.77277400  1
  Fe  Fe3  1  0.73593000  0.96620800  0.22722600  1
  Fe  Fe4  1  0.25951600  0.46416600  0.73055600  1
  Fe  Fe5  1  0.74048400  0.53583400  0.26944400  1
  Fe  Fe6  1  0.75951600  0.53583400  0.76944400  1
  Fe  Fe7  1  0.24048400  0.46416600  0.23055600  1
  H  H8  1  0.19490800  0.53236700  0.50008800  1
  H  H9  1  0.80509200  0.46763300  0.49991200  1
  H  H10  1  0.69490800  0.46763300  0.99991200  1
  H  H11  1  0.30509200  0.53236700  0.00008800  1
  H  H12  1  0.22394500  0.72157100  0.50934700  1
  H  H13  1  0.77605500  0.27842900  0.49065300  1
  H  H14  1  0.72394500  0.27842900  0.99065300  1
  H  H15  1  0.27605500  0.72157100  0.00934700  1
  Se  Se16  1  0.47679800  0.82260900  0.69061300  1
  Se  Se17  1  0.52320200  0.17739100  0.30938700  1
  Se  Se18  1  0.97679800  0.17739100  0.80938700  1
  Se  Se19  1  0.02320200  0.82260900  0.19061300  1
  Se  Se20  1  0.83674300  0.86290500  0.50548800  1
  Se  Se21  1  0.16325700  0.13709500  0.49451200  1
  Se  Se22  1  0.33674300  0.13709500  0.99451200  1
  Se  Se23  1  0.66325700  0.86290500  0.00548800  1
  Se  Se24  1  0.04837700  0.66660800  0.83175500  1
  Se  Se25  1  0.95162300  0.33339200  0.16824500  1
  Se  Se26  1  0.54837700  0.33339200  0.66824500  1
  Se  Se27  1  0.45162300  0.66660800  0.33175500  1
  O  O28  1  0.77007700  0.91941200  0.89186900  1
  O  O29  1  0.22992300  0.08058800  0.10813100  1
  O  O30  1  0.27007700  0.08058800  0.60813100  1
  O  O31  1  0.72992300  0.91941200  0.39186900  1
  O  O32  1  0.13510100  0.66043800  0.71928000  1
  O  O33  1  0.86489900  0.33956200  0.28072000  1
  O  O34  1  0.63510100  0.33956200  0.78072000  1
  O  O35  1  0.36489900  0.66043800  0.21928000  1
  O  O36  1  0.27386100  0.35738400  0.90255400  1
  O  O37  1  0.72613900  0.64261600  0.09744600  1
  O  O38  1  0.77386100  0.64261600  0.59744600  1
  O  O39  1  0.22613900  0.35738400  0.40255400  1
  O  O40  1  0.42157900  0.61995600  0.69142700  1
  O  O41  1  0.57842100  0.38004400  0.30857300  1
  O  O42  1  0.92157900  0.38004400  0.80857300  1
  O  O43  1  0.07842100  0.61995600  0.19142700  1
  O  O44  1  0.10104200  0.87515300  0.82402800  1
  O  O45  1  0.89895800  0.12484700  0.17597200  1
  O  O46  1  0.60104200  0.12484700  0.67597200  1
  O  O47  1  0.39895800  0.87515300  0.32402800  1
  O  O48  1  0.24051200  0.58544500  0.54530900  1
  O  O49  1  0.75948800  0.41455500  0.45469100  1
  O  O50  1  0.74051200  0.41455500  0.95469100  1
  O  O51  1  0.25948800  0.58544500  0.04530900  1
  O  O52  1  0.27681500  0.98904400  0.94014100  1
  O  O53  1  0.72318500  0.01095600  0.05985900  1
  O  O54  1  0.77681500  0.01095600  0.55985900  1
  O  O55  1  0.22318500  0.98904400  0.44014100  1
  O  O56  1  0.13330100  0.25692600  0.73846800  1
  O  O57  1  0.86669900  0.74307400  0.26153200  1
  O  O58  1  0.63330100  0.74307400  0.76153200  1
  O  O59  1  0.36669900  0.25692600  0.23846800  1
  O  O60  1  0.89054000  0.73851800  0.76726200  1
  O  O61  1  0.10946000  0.26148200  0.23273800  1
  O  O62  1  0.39054000  0.26148200  0.73273800  1
  O  O63  1  0.60946000  0.73851800  0.26726200  1
  O  O64  1  0.39354700  0.82900200  0.80537100  1
  O  O65  1  0.60645300  0.17099800  0.19462900  1
  O  O66  1  0.89354700  0.17099800  0.69462900  1
  O  O67  1  0.10645300  0.82900200  0.30537100  1
