# generated using pymatgen
data_NaRh(SO4)2
_symmetry_space_group_name_H-M   'P 1'
_cell_length_a   4.76859174
_cell_length_b   4.76859174
_cell_length_c   7.21793413
_cell_angle_alpha   87.62960871
_cell_angle_beta   87.62960871
_cell_angle_gamma   66.56947829
_symmetry_Int_Tables_number   1
_chemical_formula_structural   NaRh(SO4)2
_chemical_formula_sum   'Na1 Rh1 S2 O8'
_cell_volume   150.41370181
_cell_formula_units_Z   1
loop_
 _symmetry_equiv_pos_site_id
 _symmetry_equiv_pos_as_xyz
  1  'x, y, z'
loop_
 _atom_site_type_symbol
 _atom_site_label
 _atom_site_symmetry_multiplicity
 _atom_site_fract_x
 _atom_site_fract_y
 _atom_site_fract_z
 _atom_site_occupancy
  Na  Na0  1  0.00000000  0.00000000  0.50000000  1
  Rh  Rh1  1  0.00000000  0.00000000  0.00000000  1
  S  S2  1  0.36627400  0.36627400  0.78464600  1
  S  S3  1  0.63372600  0.63372600  0.21535400  1
  O  O4  1  0.28348900  0.28348900  0.61072900  1
  O  O5  1  0.71651100  0.71651100  0.38927100  1
  O  O6  1  0.71357600  0.24487300  0.78902000  1
  O  O7  1  0.28642400  0.75512700  0.21098000  1
  O  O8  1  0.75512700  0.28642400  0.21098000  1
  O  O9  1  0.24487300  0.71357600  0.78902000  1
  O  O10  1  0.25626300  0.25626300  0.95780600  1
  O  O11  1  0.74373700  0.74373700  0.04219400  1
