# generated using pymatgen
data_Tb2ReB6
_symmetry_space_group_name_H-M   'P 1'
_cell_length_a   3.69589500
_cell_length_b   9.21460100
_cell_length_c   11.60533200
_cell_angle_alpha   90.00000000
_cell_angle_beta   90.00000000
_cell_angle_gamma   90.00000000
_symmetry_Int_Tables_number   1
_chemical_formula_structural   Tb2ReB6
_chemical_formula_sum   'Tb8 Re4 B24'
_cell_volume   395.23348170
_cell_formula_units_Z   4
loop_
 _symmetry_equiv_pos_site_id
 _symmetry_equiv_pos_as_xyz
  1  'x, y, z'
loop_
 _atom_site_type_symbol
 _atom_site_label
 _atom_site_symmetry_multiplicity
 _atom_site_fract_x
 _atom_site_fract_y
 _atom_site_fract_z
 _atom_site_occupancy
  Tb  Tb0  1  0.00000000  0.32484200  0.41351600  1
  Tb  Tb1  1  0.00000000  0.67515800  0.58648400  1
  Tb  Tb2  1  0.00000000  0.82484200  0.08648400  1
  Tb  Tb3  1  0.00000000  0.17515800  0.91351600  1
  Tb  Tb4  1  0.00000000  0.94430700  0.37008900  1
  Tb  Tb5  1  0.00000000  0.05569300  0.62991100  1
  Tb  Tb6  1  0.00000000  0.44430700  0.12991100  1
  Tb  Tb7  1  0.00000000  0.55569300  0.87008900  1
  Re  Re8  1  0.00000000  0.63893000  0.32119400  1
  Re  Re9  1  0.00000000  0.36107000  0.67880600  1
  Re  Re10  1  0.00000000  0.13893000  0.17880600  1
  Re  Re11  1  0.00000000  0.86107000  0.82119400  1
  B  B12  1  0.50000000  0.55381200  0.43281600  1
  B  B13  1  0.50000000  0.44618800  0.56718400  1
  B  B14  1  0.50000000  0.05381200  0.06718400  1
  B  B15  1  0.50000000  0.94618800  0.93281600  1
  B  B16  1  0.50000000  0.74925200  0.41944200  1
  B  B17  1  0.50000000  0.25074800  0.58055800  1
  B  B18  1  0.50000000  0.24925200  0.08055800  1
  B  B19  1  0.50000000  0.75074800  0.91944200  1
  B  B20  1  0.50000000  0.79291000  0.26659000  1
  B  B21  1  0.50000000  0.20709000  0.73341000  1
  B  B22  1  0.50000000  0.29291000  0.23341000  1
  B  B23  1  0.50000000  0.70709000  0.76659000  1
  B  B24  1  0.50000000  0.63277100  0.18689300  1
  B  B25  1  0.50000000  0.36722900  0.81310700  1
  B  B26  1  0.50000000  0.13277100  0.31310700  1
  B  B27  1  0.50000000  0.86722900  0.68689300  1
  B  B28  1  0.50000000  0.98440900  0.21202900  1
  B  B29  1  0.50000000  0.01559100  0.78797100  1
  B  B30  1  0.50000000  0.48440900  0.28797100  1
  B  B31  1  0.50000000  0.51559100  0.71202900  1
  B  B32  1  0.50000000  0.60321400  0.02898100  1
  B  B33  1  0.50000000  0.39678600  0.97101900  1
  B  B34  1  0.50000000  0.10321400  0.47101900  1
  B  B35  1  0.50000000  0.89678600  0.52898100  1
