# generated using pymatgen
data_ErNi5Ge3
_symmetry_space_group_name_H-M   'P 1'
_cell_length_a   3.84435300
_cell_length_b   6.85330200
_cell_length_c   19.05643100
_cell_angle_alpha   90.00000000
_cell_angle_beta   90.00000000
_cell_angle_gamma   90.00000000
_symmetry_Int_Tables_number   1
_chemical_formula_structural   ErNi5Ge3
_chemical_formula_sum   'Er4 Ni20 Ge12'
_cell_volume   502.07048999
_cell_formula_units_Z   4
loop_
 _symmetry_equiv_pos_site_id
 _symmetry_equiv_pos_as_xyz
  1  'x, y, z'
loop_
 _atom_site_type_symbol
 _atom_site_label
 _atom_site_symmetry_multiplicity
 _atom_site_fract_x
 _atom_site_fract_y
 _atom_site_fract_z
 _atom_site_occupancy
  Er  Er0  1  0.25000000  0.62150200  0.64545100  1
  Er  Er1  1  0.25000000  0.87849800  0.14545100  1
  Er  Er2  1  0.75000000  0.37849800  0.35454900  1
  Er  Er3  1  0.75000000  0.12150200  0.85454900  1
  Ni  Ni4  1  0.25000000  0.81244700  0.79892000  1
  Ni  Ni5  1  0.25000000  0.68755300  0.29892000  1
  Ni  Ni6  1  0.75000000  0.18755300  0.20108000  1
  Ni  Ni7  1  0.75000000  0.31244700  0.70108000  1
  Ni  Ni8  1  0.25000000  0.12964800  0.99614400  1
  Ni  Ni9  1  0.25000000  0.37035200  0.49614400  1
  Ni  Ni10  1  0.75000000  0.87035200  0.00385600  1
  Ni  Ni11  1  0.75000000  0.62964800  0.50385600  1
  Ni  Ni12  1  0.25000000  0.87923600  0.51210600  1
  Ni  Ni13  1  0.25000000  0.62076400  0.01210600  1
  Ni  Ni14  1  0.75000000  0.12076400  0.48789400  1
  Ni  Ni15  1  0.75000000  0.37923600  0.98789400  1
  Ni  Ni16  1  0.25000000  0.13901000  0.61172400  1
  Ni  Ni17  1  0.25000000  0.36099000  0.11172400  1
  Ni  Ni18  1  0.75000000  0.86099000  0.38827600  1
  Ni  Ni19  1  0.75000000  0.63901000  0.88827600  1
  Ni  Ni20  1  0.25000000  0.42479300  0.79334800  1
  Ni  Ni21  1  0.25000000  0.07520700  0.29334800  1
  Ni  Ni22  1  0.75000000  0.57520700  0.20665200  1
  Ni  Ni23  1  0.75000000  0.92479300  0.70665200  1
  Ge  Ge24  1  0.25000000  0.40258600  0.91478400  1
  Ge  Ge25  1  0.25000000  0.09741400  0.41478400  1
  Ge  Ge26  1  0.75000000  0.59741400  0.08521600  1
  Ge  Ge27  1  0.75000000  0.90258600  0.58521600  1
  Ge  Ge28  1  0.25000000  0.11721700  0.73677700  1
  Ge  Ge29  1  0.25000000  0.38278300  0.23677700  1
  Ge  Ge30  1  0.75000000  0.88278300  0.26322300  1
  Ge  Ge31  1  0.75000000  0.61721700  0.76322300  1
  Ge  Ge32  1  0.25000000  0.85244900  0.92271600  1
  Ge  Ge33  1  0.25000000  0.64755100  0.42271600  1
  Ge  Ge34  1  0.75000000  0.14755100  0.07728400  1
  Ge  Ge35  1  0.75000000  0.35244900  0.57728400  1
