# generated using pymatgen
data_Zn3Cd3(TeO6)2
_symmetry_space_group_name_H-M   'P 1'
_cell_length_a   11.02099426
_cell_length_b   11.02099426
_cell_length_c   11.02099426
_cell_angle_alpha   109.47122063
_cell_angle_beta   109.47122063
_cell_angle_gamma   109.47122063
_symmetry_Int_Tables_number   1
_chemical_formula_structural   Zn3Cd3(TeO6)2
_chemical_formula_sum   'Zn12 Cd12 Te8 O48'
_cell_volume   1030.48206446
_cell_formula_units_Z   4
loop_
 _symmetry_equiv_pos_site_id
 _symmetry_equiv_pos_as_xyz
  1  'x, y, z'
loop_
 _atom_site_type_symbol
 _atom_site_label
 _atom_site_symmetry_multiplicity
 _atom_site_fract_x
 _atom_site_fract_y
 _atom_site_fract_z
 _atom_site_occupancy
  Zn  Zn0  1  0.25000000  0.62500000  0.37500000  1
  Zn  Zn1  1  0.75000000  0.37500000  0.62500000  1
  Zn  Zn2  1  0.75000000  0.87500000  0.12500000  1
  Zn  Zn3  1  0.37500000  0.25000000  0.62500000  1
  Zn  Zn4  1  0.62500000  0.75000000  0.37500000  1
  Zn  Zn5  1  0.25000000  0.12500000  0.87500000  1
  Zn  Zn6  1  0.12500000  0.75000000  0.87500000  1
  Zn  Zn7  1  0.87500000  0.25000000  0.12500000  1
  Zn  Zn8  1  0.62500000  0.37500000  0.25000000  1
  Zn  Zn9  1  0.37500000  0.62500000  0.75000000  1
  Zn  Zn10  1  0.87500000  0.12500000  0.75000000  1
  Zn  Zn11  1  0.12500000  0.87500000  0.25000000  1
  Cd  Cd12  1  0.25000000  0.37500000  0.12500000  1
  Cd  Cd13  1  0.75000000  0.62500000  0.87500000  1
  Cd  Cd14  1  0.75000000  0.12500000  0.37500000  1
  Cd  Cd15  1  0.12500000  0.25000000  0.37500000  1
  Cd  Cd16  1  0.37500000  0.75000000  0.12500000  1
  Cd  Cd17  1  0.25000000  0.87500000  0.62500000  1
  Cd  Cd18  1  0.87500000  0.75000000  0.62500000  1
  Cd  Cd19  1  0.62500000  0.25000000  0.87500000  1
  Cd  Cd20  1  0.37500000  0.12500000  0.25000000  1
  Cd  Cd21  1  0.62500000  0.87500000  0.75000000  1
  Cd  Cd22  1  0.12500000  0.37500000  0.75000000  1
  Cd  Cd23  1  0.87500000  0.62500000  0.25000000  1
  Te  Te24  1  0.00000000  0.00000000  0.00000000  1
  Te  Te25  1  0.50000000  0.00000000  0.50000000  1
  Te  Te26  1  0.00000000  0.50000000  0.50000000  1
  Te  Te27  1  0.50000000  0.00000000  0.00000000  1
  Te  Te28  1  0.50000000  0.50000000  0.00000000  1
  Te  Te29  1  0.50000000  0.50000000  0.50000000  1
  Te  Te30  1  0.00000000  0.00000000  0.50000000  1
  Te  Te31  1  0.00000000  0.50000000  0.00000000  1
  O  O32  1  0.47670600  0.38105500  0.30695700  1
  O  O33  1  0.52329400  0.61894500  0.69304300  1
  O  O34  1  0.57409800  0.16975000  0.19304300  1
  O  O35  1  0.92590200  0.11894500  0.59565100  1
  O  O36  1  0.30695700  0.47670600  0.38105500  1
  O  O37  1  0.33025000  0.92590200  0.30695700  1
  O  O38  1  0.42590200  0.83025000  0.80695700  1
  O  O39  1  0.07409800  0.88105500  0.40434900  1
  O  O40  1  0.69304300  0.52329400  0.61894500  1
  O  O41  1  0.66975000  0.07409800  0.69304300  1
  O  O42  1  0.02329400  0.33025000  0.90434900  1
  O  O43  1  0.19304300  0.57409800  0.16975000  1
  O  O44  1  0.11894500  0.02329400  0.19304300  1
  O  O45  1  0.97670600  0.66975000  0.09565100  1
  O  O46  1  0.80695700  0.42590200  0.83025000  1
  O  O47  1  0.88105500  0.97670600  0.80695700  1
  O  O48  1  0.59565100  0.92590200  0.11894500  1
  O  O49  1  0.16975000  0.47670600  0.59565100  1
  O  O50  1  0.40434900  0.07409800  0.88105500  1
  O  O51  1  0.83025000  0.52329400  0.40434900  1
  O  O52  1  0.90434900  0.02329400  0.33025000  1
  O  O53  1  0.38105500  0.57409800  0.90434900  1
  O  O54  1  0.09565100  0.97670600  0.66975000  1
  O  O55  1  0.61894500  0.42590200  0.09565100  1
  O  O56  1  0.38105500  0.30695700  0.47670600  1
  O  O57  1  0.57409800  0.90434900  0.38105500  1
  O  O58  1  0.61894500  0.69304300  0.52329400  1
  O  O59  1  0.42590200  0.09565100  0.61894500  1
  O  O60  1  0.11894500  0.59565100  0.92590200  1
  O  O61  1  0.02329400  0.19304300  0.11894500  1
  O  O62  1  0.88105500  0.40434900  0.07409800  1
  O  O63  1  0.97670600  0.80695700  0.88105500  1
  O  O64  1  0.33025000  0.90434900  0.02329400  1
  O  O65  1  0.92590200  0.30695700  0.33025000  1
  O  O66  1  0.66975000  0.09565100  0.97670600  1
  O  O67  1  0.07409800  0.69304300  0.66975000  1
  O  O68  1  0.16975000  0.19304300  0.57409800  1
  O  O69  1  0.47670600  0.59565100  0.16975000  1
  O  O70  1  0.83025000  0.80695700  0.42590200  1
  O  O71  1  0.52329400  0.40434900  0.83025000  1
  O  O72  1  0.30695700  0.33025000  0.92590200  1
  O  O73  1  0.69304300  0.66975000  0.07409800  1
  O  O74  1  0.19304300  0.11894500  0.02329400  1
  O  O75  1  0.80695700  0.88105500  0.97670600  1
  O  O76  1  0.90434900  0.38105500  0.57409800  1
  O  O77  1  0.09565100  0.61894500  0.42590200  1
  O  O78  1  0.59565100  0.16975000  0.47670600  1
  O  O79  1  0.40434900  0.83025000  0.52329400  1
