# generated using pymatgen
data_CsBrF4
_symmetry_space_group_name_H-M   'P 1'
_cell_length_a   7.71493071
_cell_length_b   7.71493071
_cell_length_c   7.71493071
_cell_angle_alpha   135.28960729
_cell_angle_beta   126.18246842
_cell_angle_gamma   72.48048622
_symmetry_Int_Tables_number   1
_chemical_formula_structural   CsBrF4
_chemical_formula_sum   'Cs2 Br2 F8'
_cell_volume   255.00695426
_cell_formula_units_Z   2
loop_
 _symmetry_equiv_pos_site_id
 _symmetry_equiv_pos_as_xyz
  1  'x, y, z'
loop_
 _atom_site_type_symbol
 _atom_site_label
 _atom_site_symmetry_multiplicity
 _atom_site_fract_x
 _atom_site_fract_y
 _atom_site_fract_z
 _atom_site_occupancy
  Cs  Cs0  1  0.71798500  0.71798500  0.00000000  1
  Cs  Cs1  1  0.28201500  0.28201500  0.00000000  1
  Br  Br2  1  0.50000000  0.00000000  0.50000000  1
  Br  Br3  1  0.00000000  0.50000000  0.50000000  1
  F  F4  1  0.27669100  0.50000000  0.77669100  1
  F  F5  1  0.72330900  0.50000000  0.22330900  1
  F  F6  1  0.80466600  0.11176700  0.69289900  1
  F  F7  1  0.19533400  0.88823300  0.30710100  1
  F  F8  1  0.58113100  0.88823300  0.69289900  1
  F  F9  1  0.41886900  0.11176700  0.30710100  1
  F  F10  1  0.84376200  0.34376200  0.50000000  1
  F  F11  1  0.15623800  0.65623800  0.50000000  1
