# generated using pymatgen
data_CsVOF4
_symmetry_space_group_name_H-M   'P 1'
_cell_length_a   5.65371300
_cell_length_b   6.47474000
_cell_length_c   14.91406200
_cell_angle_alpha   90.00000000
_cell_angle_beta   90.00000000
_cell_angle_gamma   90.00000000
_symmetry_Int_Tables_number   1
_chemical_formula_structural   CsVOF4
_chemical_formula_sum   'Cs4 V4 O4 F16'
_cell_volume   545.94895157
_cell_formula_units_Z   4
loop_
 _symmetry_equiv_pos_site_id
 _symmetry_equiv_pos_as_xyz
  1  'x, y, z'
loop_
 _atom_site_type_symbol
 _atom_site_label
 _atom_site_symmetry_multiplicity
 _atom_site_fract_x
 _atom_site_fract_y
 _atom_site_fract_z
 _atom_site_occupancy
  Cs  Cs0  1  0.53257000  0.75000000  0.37209100  1
  Cs  Cs1  1  0.03257000  0.75000000  0.12790900  1
  Cs  Cs2  1  0.46743000  0.25000000  0.62790900  1
  Cs  Cs3  1  0.96743000  0.25000000  0.87209100  1
  V  V4  1  0.01069500  0.25000000  0.35905400  1
  V  V5  1  0.51069500  0.25000000  0.14094600  1
  V  V6  1  0.98930500  0.75000000  0.64094600  1
  V  V7  1  0.48930500  0.75000000  0.85905400  1
  O  O8  1  0.81333900  0.25000000  0.43708300  1
  O  O9  1  0.31333900  0.25000000  0.06291700  1
  O  O10  1  0.18666100  0.75000000  0.56291700  1
  O  O11  1  0.68666100  0.75000000  0.93708300  1
  F  F12  1  0.05326500  0.97164500  0.33755200  1
  F  F13  1  0.55326500  0.52835500  0.16244800  1
  F  F14  1  0.94673500  0.47164500  0.66244800  1
  F  F15  1  0.44673500  0.02835500  0.83755200  1
  F  F16  1  0.94673500  0.02835500  0.66244800  1
  F  F17  1  0.44673500  0.47164500  0.83755200  1
  F  F18  1  0.05326500  0.52835500  0.33755200  1
  F  F19  1  0.55326500  0.97164500  0.16244800  1
  F  F20  1  0.82210000  0.25000000  0.25759100  1
  F  F21  1  0.32210000  0.25000000  0.24240900  1
  F  F22  1  0.17790000  0.75000000  0.74240900  1
  F  F23  1  0.67790000  0.75000000  0.75759100  1
  F  F24  1  0.28659900  0.25000000  0.42366100  1
  F  F25  1  0.78659900  0.25000000  0.07633900  1
  F  F26  1  0.71340100  0.75000000  0.57633900  1
  F  F27  1  0.21340100  0.75000000  0.92366100  1
