# generated using pymatgen
data_Mn2VHO5
_symmetry_space_group_name_H-M   'P 1'
_cell_length_a   6.23336900
_cell_length_b   9.29908900
_cell_length_c   15.09329200
_cell_angle_alpha   90.00000000
_cell_angle_beta   90.00000000
_cell_angle_gamma   90.00000000
_symmetry_Int_Tables_number   1
_chemical_formula_structural   Mn2VHO5
_chemical_formula_sum   'Mn16 V8 H8 O40'
_cell_volume   874.87743493
_cell_formula_units_Z   8
loop_
 _symmetry_equiv_pos_site_id
 _symmetry_equiv_pos_as_xyz
  1  'x, y, z'
loop_
 _atom_site_type_symbol
 _atom_site_label
 _atom_site_symmetry_multiplicity
 _atom_site_fract_x
 _atom_site_fract_y
 _atom_site_fract_z
 _atom_site_occupancy
  Mn  Mn0  1  0.25000000  0.41804400  0.57140600  1
  Mn  Mn1  1  0.25000000  0.08195600  0.07140600  1
  Mn  Mn2  1  0.75000000  0.58195600  0.42859400  1
  Mn  Mn3  1  0.75000000  0.91804400  0.92859400  1
  Mn  Mn4  1  0.25000000  0.34091100  0.78854500  1
  Mn  Mn5  1  0.25000000  0.15908900  0.28854500  1
  Mn  Mn6  1  0.75000000  0.65908900  0.21145500  1
  Mn  Mn7  1  0.75000000  0.84091100  0.71145500  1
  Mn  Mn8  1  0.00272800  0.62374100  0.86228800  1
  Mn  Mn9  1  0.49727200  0.87625900  0.36228800  1
  Mn  Mn10  1  0.50272800  0.37625900  0.13771200  1
  Mn  Mn11  1  0.99727200  0.12374100  0.63771200  1
  Mn  Mn12  1  0.99727200  0.37625900  0.13771200  1
  Mn  Mn13  1  0.50272800  0.12374100  0.63771200  1
  Mn  Mn14  1  0.49727200  0.62374100  0.86228800  1
  Mn  Mn15  1  0.00272800  0.87625900  0.36228800  1
  V  V16  1  0.75000000  0.31307400  0.92543500  1
  V  V17  1  0.75000000  0.18692600  0.42543500  1
  V  V18  1  0.25000000  0.68692600  0.07456500  1
  V  V19  1  0.25000000  0.81307400  0.57456500  1
  V  V20  1  0.75000000  0.47248500  0.66576200  1
  V  V21  1  0.75000000  0.02751500  0.16576200  1
  V  V22  1  0.25000000  0.52751500  0.33423800  1
  V  V23  1  0.25000000  0.97248500  0.83423800  1
  H  H24  1  0.25000000  0.60860200  0.71450000  1
  H  H25  1  0.25000000  0.89139800  0.21450000  1
  H  H26  1  0.75000000  0.39139800  0.28550000  1
  H  H27  1  0.75000000  0.10860200  0.78550000  1
  H  H28  1  0.25000000  0.15848700  0.49318600  1
  H  H29  1  0.25000000  0.34151300  0.99318600  1
  H  H30  1  0.75000000  0.84151300  0.50681400  1
  H  H31  1  0.75000000  0.65848700  0.00681400  1
  O  O32  1  0.51653800  0.38877500  0.87855600  1
  O  O33  1  0.98346200  0.11122500  0.37855600  1
  O  O34  1  0.01653800  0.61122500  0.12144400  1
  O  O35  1  0.48346200  0.88877500  0.62144400  1
  O  O36  1  0.48346200  0.61122500  0.12144400  1
  O  O37  1  0.01653800  0.88877500  0.62144400  1
  O  O38  1  0.98346200  0.38877500  0.87855600  1
  O  O39  1  0.51653800  0.11122500  0.37855600  1
  O  O40  1  0.25000000  0.63169700  0.59699500  1
  O  O41  1  0.25000000  0.86830300  0.09699500  1
  O  O42  1  0.75000000  0.36830300  0.40300500  1
  O  O43  1  0.75000000  0.13169700  0.90300500  1
  O  O44  1  0.25000000  0.65396700  0.96039300  1
  O  O45  1  0.25000000  0.84603300  0.46039300  1
  O  O46  1  0.75000000  0.34603300  0.03960700  1
  O  O47  1  0.75000000  0.15396700  0.53960700  1
  O  O48  1  0.98815600  0.36557200  0.67082300  1
  O  O49  1  0.51184400  0.13442800  0.17082300  1
  O  O50  1  0.48815600  0.63442800  0.32917700  1
  O  O51  1  0.01184400  0.86557200  0.82917700  1
  O  O52  1  0.01184400  0.63442800  0.32917700  1
  O  O53  1  0.48815600  0.86557200  0.82917700  1
  O  O54  1  0.51184400  0.36557200  0.67082300  1
  O  O55  1  0.98815600  0.13442800  0.17082300  1
  O  O56  1  0.25000000  0.44604600  0.43463100  1
  O  O57  1  0.25000000  0.05395400  0.93463100  1
  O  O58  1  0.75000000  0.55395400  0.56536900  1
  O  O59  1  0.75000000  0.94604600  0.06536900  1
  O  O60  1  0.25000000  0.11447500  0.75172800  1
  O  O61  1  0.25000000  0.38552500  0.25172800  1
  O  O62  1  0.75000000  0.88552500  0.24827200  1
  O  O63  1  0.75000000  0.61447500  0.74827200  1
  O  O64  1  0.25000000  0.57140400  0.77593600  1
  O  O65  1  0.25000000  0.92859600  0.27593600  1
  O  O66  1  0.75000000  0.42859600  0.22406400  1
  O  O67  1  0.75000000  0.07140400  0.72406400  1
  O  O68  1  0.25000000  0.19148300  0.55498000  1
  O  O69  1  0.25000000  0.30851700  0.05498000  1
  O  O70  1  0.75000000  0.80851700  0.44502000  1
  O  O71  1  0.75000000  0.69148300  0.94502000  1
