# generated using pymatgen
data_Er4MgRh
_symmetry_space_group_name_H-M   'P 1'
_cell_length_a   9.64171775
_cell_length_b   9.64171775
_cell_length_c   9.64171775
_cell_angle_alpha   60.00000000
_cell_angle_beta   60.00000000
_cell_angle_gamma   60.00000000
_symmetry_Int_Tables_number   1
_chemical_formula_structural   Er4MgRh
_chemical_formula_sum   'Er16 Mg4 Rh4'
_cell_volume   633.79417461
_cell_formula_units_Z   4
loop_
 _symmetry_equiv_pos_site_id
 _symmetry_equiv_pos_as_xyz
  1  'x, y, z'
loop_
 _atom_site_type_symbol
 _atom_site_label
 _atom_site_symmetry_multiplicity
 _atom_site_fract_x
 _atom_site_fract_y
 _atom_site_fract_z
 _atom_site_occupancy
  Er  Er0  1  0.34614100  0.34614100  0.34614100  1
  Er  Er1  1  0.34614100  0.34614100  0.96157600  1
  Er  Er2  1  0.34614100  0.96157600  0.34614100  1
  Er  Er3  1  0.96157600  0.34614100  0.34614100  1
  Er  Er4  1  0.81252600  0.18747400  0.18747400  1
  Er  Er5  1  0.18747400  0.81252600  0.81252600  1
  Er  Er6  1  0.18747400  0.81252600  0.18747400  1
  Er  Er7  1  0.81252600  0.18747400  0.81252600  1
  Er  Er8  1  0.18747400  0.18747400  0.81252600  1
  Er  Er9  1  0.81252600  0.81252600  0.18747400  1
  Er  Er10  1  0.93569700  0.56430300  0.56430300  1
  Er  Er11  1  0.56430300  0.93569700  0.93569700  1
  Er  Er12  1  0.56430300  0.93569700  0.56430300  1
  Er  Er13  1  0.93569700  0.56430300  0.93569700  1
  Er  Er14  1  0.56430300  0.56430300  0.93569700  1
  Er  Er15  1  0.93569700  0.93569700  0.56430300  1
  Mg  Mg16  1  0.57923800  0.57923800  0.57923800  1
  Mg  Mg17  1  0.57923800  0.57923800  0.26228500  1
  Mg  Mg18  1  0.57923800  0.26228500  0.57923800  1
  Mg  Mg19  1  0.26228500  0.57923800  0.57923800  1
  Rh  Rh20  1  0.14157200  0.14157200  0.14157200  1
  Rh  Rh21  1  0.14157200  0.14157200  0.57528300  1
  Rh  Rh22  1  0.14157200  0.57528300  0.14157200  1
  Rh  Rh23  1  0.57528300  0.14157200  0.14157200  1
