# generated using pymatgen
data_BaNaH6Ir
_symmetry_space_group_name_H-M   'P 1'
_cell_length_a   5.54732199
_cell_length_b   5.54732199
_cell_length_c   5.54732199
_cell_angle_alpha   60.00000000
_cell_angle_beta   60.00000000
_cell_angle_gamma   60.00000000
_symmetry_Int_Tables_number   1
_chemical_formula_structural   BaNaH6Ir
_chemical_formula_sum   'Ba1 Na1 H6 Ir1'
_cell_volume   120.70774257
_cell_formula_units_Z   1
loop_
 _symmetry_equiv_pos_site_id
 _symmetry_equiv_pos_as_xyz
  1  'x, y, z'
loop_
 _atom_site_type_symbol
 _atom_site_label
 _atom_site_symmetry_multiplicity
 _atom_site_fract_x
 _atom_site_fract_y
 _atom_site_fract_z
 _atom_site_occupancy
  Ba  Ba0  1  0.75000000  0.75000000  0.75000000  1
  Na  Na1  1  0.25000000  0.25000000  0.25000000  1
  H  H2  1  0.78497300  0.21502700  0.21502700  1
  H  H3  1  0.21502700  0.78497300  0.21502700  1
  H  H4  1  0.78497300  0.78497300  0.21502700  1
  H  H5  1  0.21502700  0.78497300  0.78497300  1
  H  H6  1  0.78497300  0.21502700  0.78497300  1
  H  H7  1  0.21502700  0.21502700  0.78497300  1
  Ir  Ir8  1  0.00000000  0.00000000  0.00000000  1
