# generated using pymatgen
data_Sr3ZnRhO6
_symmetry_space_group_name_H-M   'P 1'
_cell_length_a   6.74637815
_cell_length_b   6.74637815
_cell_length_c   6.74637791
_cell_angle_alpha   91.93305495
_cell_angle_beta   91.93305495
_cell_angle_gamma   91.93306362
_symmetry_Int_Tables_number   1
_chemical_formula_structural   Sr3ZnRhO6
_chemical_formula_sum   'Sr6 Zn2 Rh2 O12'
_cell_volume   306.51575208
_cell_formula_units_Z   2
loop_
 _symmetry_equiv_pos_site_id
 _symmetry_equiv_pos_as_xyz
  1  'x, y, z'
loop_
 _atom_site_type_symbol
 _atom_site_label
 _atom_site_symmetry_multiplicity
 _atom_site_fract_x
 _atom_site_fract_y
 _atom_site_fract_z
 _atom_site_occupancy
  Sr  Sr0  1  0.61435000  0.25000000  0.88565000  1
  Sr  Sr1  1  0.88565000  0.61435000  0.25000000  1
  Sr  Sr2  1  0.75000000  0.11435000  0.38565000  1
  Sr  Sr3  1  0.38565000  0.75000000  0.11435000  1
  Sr  Sr4  1  0.11435000  0.38565000  0.75000000  1
  Sr  Sr5  1  0.25000000  0.88565000  0.61435000  1
  Zn  Zn6  1  0.25000000  0.25000000  0.25000000  1
  Zn  Zn7  1  0.75000000  0.75000000  0.75000000  1
  Rh  Rh8  1  0.00000000  0.00000000  0.00000000  1
  Rh  Rh9  1  0.50000000  0.50000000  0.50000000  1
  O  O10  1  0.59237600  0.78567500  0.45923200  1
  O  O11  1  0.45923200  0.59237600  0.78567500  1
  O  O12  1  0.78567500  0.45923200  0.59237600  1
  O  O13  1  0.90762400  0.04076800  0.71432500  1
  O  O14  1  0.71432500  0.90762400  0.04076800  1
  O  O15  1  0.04076800  0.71432500  0.90762400  1
  O  O16  1  0.40762400  0.21432500  0.54076800  1
  O  O17  1  0.54076800  0.40762400  0.21432500  1
  O  O18  1  0.21432500  0.54076800  0.40762400  1
  O  O19  1  0.09237600  0.95923200  0.28567500  1
  O  O20  1  0.95923200  0.28567500  0.09237600  1
  O  O21  1  0.28567500  0.09237600  0.95923200  1
