# generated using pymatgen
data_Ba2N
_symmetry_space_group_name_H-M   'P 1'
_cell_length_a   7.96232221
_cell_length_b   7.96232221
_cell_length_c   7.96232196
_cell_angle_alpha   29.57353276
_cell_angle_beta   29.57353276
_cell_angle_gamma   29.57352783
_symmetry_Int_Tables_number   1
_chemical_formula_structural   Ba2N
_chemical_formula_sum   'Ba2 N1'
_cell_volume   108.84745516
_cell_formula_units_Z   1
loop_
 _symmetry_equiv_pos_site_id
 _symmetry_equiv_pos_as_xyz
  1  'x, y, z'
loop_
 _atom_site_type_symbol
 _atom_site_label
 _atom_site_symmetry_multiplicity
 _atom_site_fract_x
 _atom_site_fract_y
 _atom_site_fract_z
 _atom_site_occupancy
  Ba  Ba0  1  0.73266900  0.73266900  0.73266900  1
  Ba  Ba1  1  0.26733100  0.26733100  0.26733100  1
  N  N2  1  0.00000000  0.00000000  0.00000000  1
