# generated using pymatgen
data_DyOF
_symmetry_space_group_name_H-M   'P 1'
_cell_length_a   6.74230053
_cell_length_b   6.74230053
_cell_length_c   6.74230030
_cell_angle_alpha   32.92491908
_cell_angle_beta   32.92491908
_cell_angle_gamma   32.92492388
_symmetry_Int_Tables_number   1
_chemical_formula_structural   DyOF
_chemical_formula_sum   'Dy2 O2 F2'
_cell_volume   80.57157449
_cell_formula_units_Z   2
loop_
 _symmetry_equiv_pos_site_id
 _symmetry_equiv_pos_as_xyz
  1  'x, y, z'
loop_
 _atom_site_type_symbol
 _atom_site_label
 _atom_site_symmetry_multiplicity
 _atom_site_fract_x
 _atom_site_fract_y
 _atom_site_fract_z
 _atom_site_occupancy
  Dy  Dy0  1  0.25914300  0.25914300  0.25914300  1
  Dy  Dy1  1  0.74085700  0.74085700  0.74085700  1
  O  O2  1  0.37809600  0.37809600  0.37809600  1
  O  O3  1  0.62190400  0.62190400  0.62190400  1
  F  F4  1  0.12996800  0.12996800  0.12996800  1
  F  F5  1  0.87003200  0.87003200  0.87003200  1
