# generated using pymatgen
data_Lu6GaNi2
_symmetry_space_group_name_H-M   'P 1'
_cell_length_a   8.12290745
_cell_length_b   8.12290745
_cell_length_c   8.12290745
_cell_angle_alpha   111.84615679
_cell_angle_beta   110.02838424
_cell_angle_gamma   106.58268134
_symmetry_Int_Tables_number   1
_chemical_formula_structural   Lu6GaNi2
_chemical_formula_sum   'Lu12 Ga2 Ni4'
_cell_volume   411.69335742
_cell_formula_units_Z   2
loop_
 _symmetry_equiv_pos_site_id
 _symmetry_equiv_pos_as_xyz
  1  'x, y, z'
loop_
 _atom_site_type_symbol
 _atom_site_label
 _atom_site_symmetry_multiplicity
 _atom_site_fract_x
 _atom_site_fract_y
 _atom_site_fract_z
 _atom_site_occupancy
  Lu  Lu0  1  0.43569200  0.23675600  0.19893600  1
  Lu  Lu1  1  0.56430800  0.76324400  0.80106400  1
  Lu  Lu2  1  0.03782000  0.23675600  0.80106400  1
  Lu  Lu3  1  0.96218000  0.76324400  0.19893600  1
  Lu  Lu4  1  0.18073500  0.28289800  0.46363300  1
  Lu  Lu5  1  0.81926500  0.71710200  0.53636700  1
  Lu  Lu6  1  0.18073500  0.71710200  0.89783700  1
  Lu  Lu7  1  0.81926500  0.28289800  0.10216300  1
  Lu  Lu8  1  0.32591900  0.62779100  0.30187200  1
  Lu  Lu9  1  0.67408100  0.37220900  0.69812800  1
  Lu  Lu10  1  0.32591900  0.02404700  0.69812800  1
  Lu  Lu11  1  0.67408100  0.97595300  0.30187200  1
  Ga  Ga12  1  0.50000000  0.50000000  0.00000000  1
  Ga  Ga13  1  0.00000000  0.00000000  0.00000000  1
  Ni  Ni14  1  0.35239400  0.00000000  0.35239400  1
  Ni  Ni15  1  0.64760600  0.00000000  0.64760600  1
  Ni  Ni16  1  0.12364100  0.62364100  0.50000000  1
  Ni  Ni17  1  0.87635900  0.37635900  0.50000000  1
