# generated using pymatgen
data_KTa3(TeO6)2
_symmetry_space_group_name_H-M   'P 1'
_cell_length_a   3.98561100
_cell_length_b   15.17885800
_cell_length_c   17.65517200
_cell_angle_alpha   90.00000000
_cell_angle_beta   90.00000000
_cell_angle_gamma   90.00000000
_symmetry_Int_Tables_number   1
_chemical_formula_structural   KTa3(TeO6)2
_chemical_formula_sum   'K4 Ta12 Te8 O48'
_cell_volume   1068.08535383
_cell_formula_units_Z   4
loop_
 _symmetry_equiv_pos_site_id
 _symmetry_equiv_pos_as_xyz
  1  'x, y, z'
loop_
 _atom_site_type_symbol
 _atom_site_label
 _atom_site_symmetry_multiplicity
 _atom_site_fract_x
 _atom_site_fract_y
 _atom_site_fract_z
 _atom_site_occupancy
  K  K0  1  0.22153000  0.07095300  0.75000000  1
  K  K1  1  0.77847000  0.92904700  0.25000000  1
  K  K2  1  0.22153000  0.42904700  0.25000000  1
  K  K3  1  0.77847000  0.57095300  0.75000000  1
  Ta  Ta4  1  0.25241000  0.79373600  0.75000000  1
  Ta  Ta5  1  0.74759000  0.20626400  0.25000000  1
  Ta  Ta6  1  0.25241000  0.70626400  0.25000000  1
  Ta  Ta7  1  0.74759000  0.29373600  0.75000000  1
  Ta  Ta8  1  0.75099800  0.14990700  0.56949500  1
  Ta  Ta9  1  0.24900200  0.85009300  0.06949500  1
  Ta  Ta10  1  0.75099800  0.35009300  0.43050500  1
  Ta  Ta11  1  0.24900200  0.64990700  0.93050500  1
  Ta  Ta12  1  0.24900200  0.85009300  0.43050500  1
  Ta  Ta13  1  0.75099800  0.14990700  0.93050500  1
  Ta  Ta14  1  0.24900200  0.64990700  0.56949500  1
  Ta  Ta15  1  0.75099800  0.35009300  0.06949500  1
  Te  Te16  1  0.62008400  0.91419300  0.59759700  1
  Te  Te17  1  0.37991600  0.08580700  0.09759700  1
  Te  Te18  1  0.62008400  0.58580700  0.40240300  1
  Te  Te19  1  0.37991600  0.41419300  0.90240300  1
  Te  Te20  1  0.37991600  0.08580700  0.40240300  1
  Te  Te21  1  0.62008400  0.91419300  0.90240300  1
  Te  Te22  1  0.37991600  0.41419300  0.59759700  1
  Te  Te23  1  0.62008400  0.58580700  0.09759700  1
  O  O24  1  0.27996900  0.93319200  0.52325400  1
  O  O25  1  0.72003100  0.06680800  0.02325400  1
  O  O26  1  0.27996900  0.56680800  0.47674600  1
  O  O27  1  0.72003100  0.43319200  0.97674600  1
  O  O28  1  0.72003100  0.06680800  0.47674600  1
  O  O29  1  0.27996900  0.93319200  0.97674600  1
  O  O30  1  0.72003100  0.43319200  0.52325400  1
  O  O31  1  0.27996900  0.56680800  0.02325400  1
  O  O32  1  0.70296300  0.03151000  0.62966700  1
  O  O33  1  0.29703700  0.96849000  0.12966700  1
  O  O34  1  0.70296300  0.46849000  0.37033300  1
  O  O35  1  0.29703700  0.53151000  0.87033300  1
  O  O36  1  0.29703700  0.96849000  0.37033300  1
  O  O37  1  0.70296300  0.03151000  0.87033300  1
  O  O38  1  0.29703700  0.53151000  0.62966700  1
  O  O39  1  0.70296300  0.46849000  0.12966700  1
  O  O40  1  0.28596800  0.89637900  0.67367800  1
  O  O41  1  0.71403200  0.10362100  0.17367800  1
  O  O42  1  0.28596800  0.60362100  0.32632200  1
  O  O43  1  0.71403200  0.39637900  0.82632200  1
  O  O44  1  0.71403200  0.10362100  0.32632200  1
  O  O45  1  0.28596800  0.89637900  0.82632200  1
  O  O46  1  0.71403200  0.39637900  0.67367800  1
  O  O47  1  0.28596800  0.60362100  0.17367800  1
  O  O48  1  0.28733100  0.70752300  0.66821700  1
  O  O49  1  0.71266900  0.29247700  0.16821700  1
  O  O50  1  0.28733100  0.79247700  0.33178300  1
  O  O51  1  0.71266900  0.20752300  0.83178300  1
  O  O52  1  0.71266900  0.29247700  0.33178300  1
  O  O53  1  0.28733100  0.70752300  0.83178300  1
  O  O54  1  0.71266900  0.20752300  0.66821700  1
  O  O55  1  0.28733100  0.79247700  0.16821700  1
  O  O56  1  0.78282700  0.80239200  0.75000000  1
  O  O57  1  0.21717300  0.19760800  0.25000000  1
  O  O58  1  0.78282700  0.69760800  0.25000000  1
  O  O59  1  0.21717300  0.30239200  0.75000000  1
  O  O60  1  0.70903800  0.25000000  0.50000000  1
  O  O61  1  0.29096200  0.75000000  0.00000000  1
  O  O62  1  0.29096200  0.75000000  0.50000000  1
  O  O63  1  0.70903800  0.25000000  0.00000000  1
  O  O64  1  0.21848400  0.14470600  0.56741600  1
  O  O65  1  0.78151600  0.85529400  0.06741600  1
  O  O66  1  0.21848400  0.35529400  0.43258400  1
  O  O67  1  0.78151600  0.64470600  0.93258400  1
  O  O68  1  0.78151600  0.85529400  0.43258400  1
  O  O69  1  0.21848400  0.14470600  0.93258400  1
  O  O70  1  0.78151600  0.64470600  0.56741600  1
  O  O71  1  0.21848400  0.35529400  0.06741600  1
