# generated using pymatgen
data_YGaAu
_symmetry_space_group_name_H-M   'P 1'
_cell_length_a   5.73327728
_cell_length_b   5.73327728
_cell_length_c   7.16034741
_cell_angle_alpha   52.12526055
_cell_angle_beta   52.12526055
_cell_angle_gamma   46.45171152
_symmetry_Int_Tables_number   1
_chemical_formula_structural   YGaAu
_chemical_formula_sum   'Y2 Ga2 Au2'
_cell_volume   126.93448598
_cell_formula_units_Z   2
loop_
 _symmetry_equiv_pos_site_id
 _symmetry_equiv_pos_as_xyz
  1  'x, y, z'
loop_
 _atom_site_type_symbol
 _atom_site_label
 _atom_site_symmetry_multiplicity
 _atom_site_fract_x
 _atom_site_fract_y
 _atom_site_fract_z
 _atom_site_occupancy
  Y  Y0  1  0.46300800  0.46300800  0.29747200  1
  Y  Y1  1  0.53699200  0.53699200  0.70252800  1
  Ga  Ga2  1  0.15769100  0.15769100  0.89341800  1
  Ga  Ga3  1  0.84230900  0.84230900  0.10658200  1
  Au  Au4  1  0.82187700  0.82187700  0.71762600  1
  Au  Au5  1  0.17812300  0.17812300  0.28237400  1
