# generated using pymatgen
data_Tm3Pd4
_symmetry_space_group_name_H-M   'P 1'
_cell_length_a   7.78928952
_cell_length_b   7.78928952
_cell_length_c   7.78928943
_cell_angle_alpha   114.28240451
_cell_angle_beta   114.28240451
_cell_angle_gamma   114.28240301
_symmetry_Int_Tables_number   1
_chemical_formula_structural   Tm3Pd4
_chemical_formula_sum   'Tm6 Pd8'
_cell_volume   281.01528800
_cell_formula_units_Z   2
loop_
 _symmetry_equiv_pos_site_id
 _symmetry_equiv_pos_as_xyz
  1  'x, y, z'
loop_
 _atom_site_type_symbol
 _atom_site_label
 _atom_site_symmetry_multiplicity
 _atom_site_fract_x
 _atom_site_fract_y
 _atom_site_fract_z
 _atom_site_occupancy
  Tm  Tm0  1  0.40358600  0.02520900  0.27890100  1
  Tm  Tm1  1  0.02520900  0.27890100  0.40358600  1
  Tm  Tm2  1  0.27890100  0.40358600  0.02520900  1
  Tm  Tm3  1  0.59641400  0.97479100  0.72109900  1
  Tm  Tm4  1  0.97479100  0.72109900  0.59641400  1
  Tm  Tm5  1  0.72109900  0.59641400  0.97479100  1
  Pd  Pd6  1  0.00000000  0.00000000  0.00000000  1
  Pd  Pd7  1  0.50000000  0.50000000  0.50000000  1
  Pd  Pd8  1  0.22656400  0.06241300  0.55136200  1
  Pd  Pd9  1  0.06241300  0.55136200  0.22656400  1
  Pd  Pd10  1  0.55136200  0.22656400  0.06241300  1
  Pd  Pd11  1  0.77343600  0.93758700  0.44863800  1
  Pd  Pd12  1  0.93758700  0.44863800  0.77343600  1
  Pd  Pd13  1  0.44863800  0.77343600  0.93758700  1
