# generated using pymatgen
data_Ta7BiO19
_symmetry_space_group_name_H-M   'P 1'
_cell_length_a   6.27304000
_cell_length_b   6.27304000
_cell_length_c   20.21733000
_cell_angle_alpha   90.00000000
_cell_angle_beta   90.00000000
_cell_angle_gamma   120.00000001
_symmetry_Int_Tables_number   1
_chemical_formula_structural   Ta7BiO19
_chemical_formula_sum   'Ta14 Bi2 O38'
_cell_volume   688.98623502
_cell_formula_units_Z   2
loop_
 _symmetry_equiv_pos_site_id
 _symmetry_equiv_pos_as_xyz
  1  'x, y, z'
loop_
 _atom_site_type_symbol
 _atom_site_label
 _atom_site_symmetry_multiplicity
 _atom_site_fract_x
 _atom_site_fract_y
 _atom_site_fract_z
 _atom_site_occupancy
  Ta  Ta0  1  0.00000000  0.00000000  0.00000000  1
  Ta  Ta1  1  0.00000000  0.00000000  0.50000000  1
  Ta  Ta2  1  0.66724400  0.69361000  0.84372500  1
  Ta  Ta3  1  0.30639000  0.97363400  0.84372500  1
  Ta  Ta4  1  0.02636600  0.33275600  0.84372500  1
  Ta  Ta5  1  0.66724400  0.69361000  0.65627500  1
  Ta  Ta6  1  0.30639000  0.97363400  0.65627500  1
  Ta  Ta7  1  0.02636600  0.33275600  0.65627500  1
  Ta  Ta8  1  0.66724400  0.97363400  0.34372500  1
  Ta  Ta9  1  0.30639000  0.33275600  0.34372500  1
  Ta  Ta10  1  0.02636600  0.69361000  0.34372500  1
  Ta  Ta11  1  0.66724400  0.97363400  0.15627500  1
  Ta  Ta12  1  0.30639000  0.33275600  0.15627500  1
  Ta  Ta13  1  0.02636600  0.69361000  0.15627500  1
  Bi  Bi14  1  0.33333300  0.66666700  0.00000000  1
  Bi  Bi15  1  0.33333300  0.66666700  0.50000000  1
  O  O16  1  0.66680000  0.08628000  0.84655700  1
  O  O17  1  0.91372000  0.58052000  0.84655700  1
  O  O18  1  0.41948000  0.33320000  0.84655700  1
  O  O19  1  0.66680000  0.08628000  0.65344300  1
  O  O20  1  0.91372000  0.58052000  0.65344300  1
  O  O21  1  0.41948000  0.33320000  0.65344300  1
  O  O22  1  0.66680000  0.58052000  0.34655700  1
  O  O23  1  0.91372000  0.33320000  0.34655700  1
  O  O24  1  0.41948000  0.08628000  0.34655700  1
  O  O25  1  0.66680000  0.58052000  0.15344300  1
  O  O26  1  0.91372000  0.33320000  0.15344300  1
  O  O27  1  0.41948000  0.08628000  0.15344300  1
  O  O28  1  0.00000000  0.00000000  0.83283700  1
  O  O29  1  0.00000000  0.00000000  0.66716300  1
  O  O30  1  0.00000000  0.00000000  0.33283700  1
  O  O31  1  0.00000000  0.00000000  0.16716300  1
  O  O32  1  0.33333300  0.66666700  0.86634600  1
  O  O33  1  0.33333300  0.66666700  0.63365400  1
  O  O34  1  0.33333300  0.66666700  0.36634600  1
  O  O35  1  0.33333300  0.66666700  0.13365400  1
  O  O36  1  0.62509300  0.70788800  0.75000000  1
  O  O37  1  0.29211200  0.91720500  0.75000000  1
  O  O38  1  0.08279500  0.37490700  0.75000000  1
  O  O39  1  0.62509300  0.91720500  0.25000000  1
  O  O40  1  0.29211200  0.37490700  0.25000000  1
  O  O41  1  0.08279500  0.70788800  0.25000000  1
  O  O42  1  0.71600300  0.76165700  0.94352200  1
  O  O43  1  0.23834300  0.95434600  0.94352200  1
  O  O44  1  0.04565400  0.28399700  0.94352200  1
  O  O45  1  0.71600300  0.76165700  0.55647800  1
  O  O46  1  0.23834300  0.95434600  0.55647800  1
  O  O47  1  0.04565400  0.28399700  0.55647800  1
  O  O48  1  0.71600300  0.95434600  0.44352200  1
  O  O49  1  0.23834300  0.28399700  0.44352200  1
  O  O50  1  0.04565400  0.76165700  0.44352200  1
  O  O51  1  0.71600300  0.95434600  0.05647800  1
  O  O52  1  0.23834300  0.28399700  0.05647800  1
  O  O53  1  0.04565400  0.76165700  0.05647800  1
