# generated using pymatgen
data_Tb6Mg(GeS7)2
_symmetry_space_group_name_H-M   'P 1'
_cell_length_a   9.88430505
_cell_length_b   9.88430505
_cell_length_c   5.82090900
_cell_angle_alpha   90.00000000
_cell_angle_beta   90.00000000
_cell_angle_gamma   119.99999365
_symmetry_Int_Tables_number   1
_chemical_formula_structural   Tb6Mg(GeS7)2
_chemical_formula_sum   'Tb6 Mg1 Ge2 S14'
_cell_volume   492.50852226
_cell_formula_units_Z   1
loop_
 _symmetry_equiv_pos_site_id
 _symmetry_equiv_pos_as_xyz
  1  'x, y, z'
loop_
 _atom_site_type_symbol
 _atom_site_label
 _atom_site_symmetry_multiplicity
 _atom_site_fract_x
 _atom_site_fract_y
 _atom_site_fract_z
 _atom_site_occupancy
  Tb  Tb0  1  0.86396600  0.22336000  0.26061100  1
  Tb  Tb1  1  0.35939300  0.13603400  0.26061100  1
  Tb  Tb2  1  0.77664000  0.64060700  0.26061100  1
  Tb  Tb3  1  0.13555300  0.77769600  0.76571400  1
  Tb  Tb4  1  0.64214300  0.86444700  0.76571400  1
  Tb  Tb5  1  0.22230400  0.35785700  0.76571400  1
  Mg  Mg6  1  0.00000000  0.00000000  0.47793900  1
  Ge  Ge7  1  0.66666700  0.33333300  0.84044200  1
  Ge  Ge8  1  0.33333300  0.66666700  0.34545700  1
  S  S9  1  0.66666700  0.33333300  0.46218200  1
  S  S10  1  0.33333300  0.66666700  0.96632000  1
  S  S11  1  0.74817300  0.90312000  0.22865300  1
  S  S12  1  0.15494600  0.25182700  0.22865300  1
  S  S13  1  0.09688000  0.84505400  0.22865300  1
  S  S14  1  0.25206300  0.09895100  0.70955700  1
  S  S15  1  0.84688700  0.74793700  0.70955700  1
  S  S16  1  0.90104900  0.15311300  0.70955700  1
  S  S17  1  0.51913100  0.42166400  0.00068700  1
  S  S18  1  0.90253300  0.48086900  0.00068700  1
  S  S19  1  0.57833600  0.09746700  0.00068700  1
  S  S20  1  0.48027800  0.57794600  0.50527800  1
  S  S21  1  0.09766800  0.51972200  0.50527800  1
  S  S22  1  0.42205400  0.90233200  0.50527800  1
