# generated using pymatgen
data_Nd2InNi2
_symmetry_space_group_name_H-M   'P 1'
_cell_length_a   7.59078200
_cell_length_b   7.59078200
_cell_length_c   3.78810400
_cell_angle_alpha   90.00000000
_cell_angle_beta   90.00000000
_cell_angle_gamma   90.00000000
_symmetry_Int_Tables_number   1
_chemical_formula_structural   Nd2InNi2
_chemical_formula_sum   'Nd4 In2 Ni4'
_cell_volume   218.27044403
_cell_formula_units_Z   2
loop_
 _symmetry_equiv_pos_site_id
 _symmetry_equiv_pos_as_xyz
  1  'x, y, z'
loop_
 _atom_site_type_symbol
 _atom_site_label
 _atom_site_symmetry_multiplicity
 _atom_site_fract_x
 _atom_site_fract_y
 _atom_site_fract_z
 _atom_site_occupancy
  Nd  Nd0  1  0.67515500  0.17515500  0.50000000  1
  Nd  Nd1  1  0.32484500  0.82484500  0.50000000  1
  Nd  Nd2  1  0.17515500  0.32484500  0.50000000  1
  Nd  Nd3  1  0.82484500  0.67515500  0.50000000  1
  In  In4  1  0.50000000  0.50000000  0.00000000  1
  In  In5  1  0.00000000  0.00000000  0.00000000  1
  Ni  Ni6  1  0.11735100  0.61735100  0.00000000  1
  Ni  Ni7  1  0.88264900  0.38264900  0.00000000  1
  Ni  Ni8  1  0.61735100  0.88264900  0.00000000  1
  Ni  Ni9  1  0.38264900  0.11735100  0.00000000  1
