# generated using pymatgen
data_Nd2(SeO3)3
_symmetry_space_group_name_H-M   'P 1'
_cell_length_a   7.06288400
_cell_length_b   8.42316200
_cell_length_c   14.32257900
_cell_angle_alpha   90.00000000
_cell_angle_beta   90.00000000
_cell_angle_gamma   90.00000000
_symmetry_Int_Tables_number   1
_chemical_formula_structural   Nd2(SeO3)3
_chemical_formula_sum   'Nd8 Se12 O36'
_cell_volume   852.07623622
_cell_formula_units_Z   4
loop_
 _symmetry_equiv_pos_site_id
 _symmetry_equiv_pos_as_xyz
  1  'x, y, z'
loop_
 _atom_site_type_symbol
 _atom_site_label
 _atom_site_symmetry_multiplicity
 _atom_site_fract_x
 _atom_site_fract_y
 _atom_site_fract_z
 _atom_site_occupancy
  Nd  Nd0  1  0.32019800  0.30127400  0.06306400  1
  Nd  Nd1  1  0.67980200  0.69872600  0.93693600  1
  Nd  Nd2  1  0.82019800  0.19872600  0.93693600  1
  Nd  Nd3  1  0.67980200  0.69872600  0.56306400  1
  Nd  Nd4  1  0.17980200  0.80127400  0.06306400  1
  Nd  Nd5  1  0.32019800  0.30127400  0.43693600  1
  Nd  Nd6  1  0.17980200  0.80127400  0.43693600  1
  Nd  Nd7  1  0.82019800  0.19872600  0.56306400  1
  Se  Se8  1  0.09194400  0.04545300  0.25000000  1
  Se  Se9  1  0.90805600  0.95454700  0.75000000  1
  Se  Se10  1  0.59194400  0.45454700  0.75000000  1
  Se  Se11  1  0.40805600  0.54545300  0.25000000  1
  Se  Se12  1  0.32140800  0.04759000  0.62447000  1
  Se  Se13  1  0.67859200  0.95241000  0.37553000  1
  Se  Se14  1  0.82140800  0.45241000  0.37553000  1
  Se  Se15  1  0.67859200  0.95241000  0.12447000  1
  Se  Se16  1  0.17859200  0.54759000  0.62447000  1
  Se  Se17  1  0.32140800  0.04759000  0.87553000  1
  Se  Se18  1  0.17859200  0.54759000  0.87553000  1
  Se  Se19  1  0.82140800  0.45241000  0.12447000  1
  O  O20  1  0.43457400  0.34281800  0.25000000  1
  O  O21  1  0.56542600  0.65718200  0.75000000  1
  O  O22  1  0.93457400  0.15718200  0.75000000  1
  O  O23  1  0.06542600  0.84281800  0.25000000  1
  O  O24  1  0.47109300  0.20198000  0.59462000  1
  O  O25  1  0.52890700  0.79802000  0.40538000  1
  O  O26  1  0.97109300  0.29802000  0.40538000  1
  O  O27  1  0.52890700  0.79802000  0.09462000  1
  O  O28  1  0.02890700  0.70198000  0.59462000  1
  O  O29  1  0.47109300  0.20198000  0.90538000  1
  O  O30  1  0.02890700  0.70198000  0.90538000  1
  O  O31  1  0.97109300  0.29802000  0.09462000  1
  O  O32  1  0.58988500  0.12275100  0.07674200  1
  O  O33  1  0.41011500  0.87724900  0.92325800  1
  O  O34  1  0.08988500  0.37724900  0.92325800  1
  O  O35  1  0.41011500  0.87724900  0.57674200  1
  O  O36  1  0.91011500  0.62275100  0.07674200  1
  O  O37  1  0.58988500  0.12275100  0.42325800  1
  O  O38  1  0.91011500  0.62275100  0.42325800  1
  O  O39  1  0.08988500  0.37724900  0.57674200  1
  O  O40  1  0.23951800  0.05748800  0.15334600  1
  O  O41  1  0.76048200  0.94251200  0.84665400  1
  O  O42  1  0.73951800  0.44251200  0.84665400  1
  O  O43  1  0.76048200  0.94251200  0.65334600  1
  O  O44  1  0.26048200  0.55748800  0.15334600  1
  O  O45  1  0.23951800  0.05748800  0.34665400  1
  O  O46  1  0.26048200  0.55748800  0.34665400  1
  O  O47  1  0.73951800  0.44251200  0.65334600  1
  O  O48  1  0.14850200  0.07239300  0.53825900  1
  O  O49  1  0.85149800  0.92760700  0.46174100  1
  O  O50  1  0.64850200  0.42760700  0.46174100  1
  O  O51  1  0.85149800  0.92760700  0.03825900  1
  O  O52  1  0.35149800  0.57239300  0.53825900  1
  O  O53  1  0.14850200  0.07239300  0.96174100  1
  O  O54  1  0.35149800  0.57239300  0.96174100  1
  O  O55  1  0.64850200  0.42760700  0.03825900  1
