# generated using pymatgen
data_Dy2Cr2C3
_symmetry_space_group_name_H-M   'P 1'
_cell_length_a   5.48455079
_cell_length_b   5.48455079
_cell_length_c   5.58276313
_cell_angle_alpha   74.94242465
_cell_angle_beta   74.94242465
_cell_angle_gamma   35.76006413
_symmetry_Int_Tables_number   1
_chemical_formula_structural   Dy2Cr2C3
_chemical_formula_sum   'Dy2 Cr2 C3'
_cell_volume   94.41054629
_cell_formula_units_Z   1
loop_
 _symmetry_equiv_pos_site_id
 _symmetry_equiv_pos_as_xyz
  1  'x, y, z'
loop_
 _atom_site_type_symbol
 _atom_site_label
 _atom_site_symmetry_multiplicity
 _atom_site_fract_x
 _atom_site_fract_y
 _atom_site_fract_z
 _atom_site_occupancy
  Dy  Dy0  1  0.39407300  0.39407300  0.31681300  1
  Dy  Dy1  1  0.60592700  0.60592700  0.68318700  1
  Cr  Cr2  1  0.15687500  0.15687500  0.10901400  1
  Cr  Cr3  1  0.84312500  0.84312500  0.89098600  1
  C  C4  1  0.71507900  0.71507900  0.23024000  1
  C  C5  1  0.28492100  0.28492100  0.76976000  1
  C  C6  1  0.00000000  0.00000000  0.00000000  1
