# generated using pymatgen
data_K2Ce(PO4)2
_symmetry_space_group_name_H-M   'P 1'
_cell_length_a   11.03389600
_cell_length_b   7.83117500
_cell_length_c   9.73088286
_cell_angle_alpha   62.30401994
_cell_angle_beta   90.00000000
_cell_angle_gamma   90.00000000
_symmetry_Int_Tables_number   1
_chemical_formula_structural   K2Ce(PO4)2
_chemical_formula_sum   'K8 Ce4 P8 O32'
_cell_volume   744.49270572
_cell_formula_units_Z   4
loop_
 _symmetry_equiv_pos_site_id
 _symmetry_equiv_pos_as_xyz
  1  'x, y, z'
loop_
 _atom_site_type_symbol
 _atom_site_label
 _atom_site_symmetry_multiplicity
 _atom_site_fract_x
 _atom_site_fract_y
 _atom_site_fract_z
 _atom_site_occupancy
  K  K0  1  0.37096600  0.14925000  0.95617300  1
  K  K1  1  0.12903400  0.14925000  0.45617300  1
  K  K2  1  0.62903400  0.85075000  0.04382700  1
  K  K3  1  0.87096600  0.85075000  0.54382700  1
  K  K4  1  0.38600300  0.33573900  0.54062000  1
  K  K5  1  0.11399700  0.33573900  0.04062000  1
  K  K6  1  0.61399700  0.66426100  0.45938000  1
  K  K7  1  0.88600300  0.66426100  0.95938000  1
  Ce  Ce8  1  0.36052000  0.74511300  0.78042400  1
  Ce  Ce9  1  0.13948000  0.74511300  0.28042400  1
  Ce  Ce10  1  0.63948000  0.25488700  0.21957600  1
  Ce  Ce11  1  0.86052000  0.25488700  0.71957600  1
  P  P12  1  0.35946400  0.93594300  0.35324600  1
  P  P13  1  0.14053600  0.93594300  0.85324600  1
  P  P14  1  0.64053600  0.06405700  0.64675400  1
  P  P15  1  0.85946400  0.06405700  0.14675400  1
  P  P16  1  0.63101000  0.46480400  0.86433500  1
  P  P17  1  0.86899000  0.46480400  0.36433500  1
  P  P18  1  0.36899000  0.53519600  0.13566500  1
  P  P19  1  0.13101000  0.53519600  0.63566500  1
  O  O20  1  0.24348100  0.03336900  0.25571300  1
  O  O21  1  0.25651900  0.03336900  0.75571300  1
  O  O22  1  0.75651900  0.96663100  0.74428700  1
  O  O23  1  0.74348100  0.96663100  0.24428700  1
  O  O24  1  0.35393100  0.93911400  0.51216600  1
  O  O25  1  0.14606900  0.93911400  0.01216600  1
  O  O26  1  0.64606900  0.06088600  0.48783400  1
  O  O27  1  0.85393100  0.06088600  0.98783400  1
  O  O28  1  0.47606900  0.03605100  0.26300900  1
  O  O29  1  0.02393100  0.03605100  0.76300900  1
  O  O30  1  0.52393100  0.96394900  0.73699100  1
  O  O31  1  0.97606900  0.96394900  0.23699100  1
  O  O32  1  0.35351300  0.72682500  0.37609400  1
  O  O33  1  0.14648700  0.72682500  0.87609400  1
  O  O34  1  0.64648700  0.27317500  0.62390600  1
  O  O35  1  0.85351300  0.27317500  0.12390600  1
  O  O36  1  0.64931400  0.54731900  0.98119300  1
  O  O37  1  0.85068600  0.54731900  0.48119300  1
  O  O38  1  0.35068600  0.45268100  0.01880700  1
  O  O39  1  0.14931400  0.45268100  0.51880700  1
  O  O40  1  0.74759100  0.48912000  0.76811400  1
  O  O41  1  0.75240900  0.48912000  0.26811400  1
  O  O42  1  0.25240900  0.51088000  0.23188600  1
  O  O43  1  0.24759100  0.51088000  0.73188600  1
  O  O44  1  0.52301500  0.56867800  0.75273500  1
  O  O45  1  0.97698500  0.56867800  0.25273500  1
  O  O46  1  0.47698500  0.43132200  0.24726500  1
  O  O47  1  0.02301500  0.43132200  0.74726500  1
  O  O48  1  0.60191500  0.24875100  0.97359600  1
  O  O49  1  0.89808500  0.24875100  0.47359600  1
  O  O50  1  0.39808500  0.75124900  0.02640400  1
  O  O51  1  0.10191500  0.75124900  0.52640400  1
