# generated using pymatgen
data_TbSi
_symmetry_space_group_name_H-M   'P 1'
_cell_length_a   3.85003300
_cell_length_b   5.72780600
_cell_length_c   7.96277400
_cell_angle_alpha   90.00000000
_cell_angle_beta   90.00000000
_cell_angle_gamma   90.00000000
_symmetry_Int_Tables_number   1
_chemical_formula_structural   TbSi
_chemical_formula_sum   'Tb4 Si4'
_cell_volume   175.59702018
_cell_formula_units_Z   4
loop_
 _symmetry_equiv_pos_site_id
 _symmetry_equiv_pos_as_xyz
  1  'x, y, z'
loop_
 _atom_site_type_symbol
 _atom_site_label
 _atom_site_symmetry_multiplicity
 _atom_site_fract_x
 _atom_site_fract_y
 _atom_site_fract_z
 _atom_site_occupancy
  Tb  Tb0  1  0.25000000  0.38545000  0.67944700  1
  Tb  Tb1  1  0.75000000  0.61455000  0.32055300  1
  Tb  Tb2  1  0.75000000  0.88545000  0.82055300  1
  Tb  Tb3  1  0.25000000  0.11455000  0.17944700  1
  Si  Si4  1  0.25000000  0.87150900  0.53755700  1
  Si  Si5  1  0.75000000  0.12849100  0.46244300  1
  Si  Si6  1  0.75000000  0.37150900  0.96244300  1
  Si  Si7  1  0.25000000  0.62849100  0.03755700  1
