# generated using pymatgen
data_Hf6NiSb2
_symmetry_space_group_name_H-M   'P 1'
_cell_length_a   7.71897214
_cell_length_b   7.71897214
_cell_length_c   3.61915500
_cell_angle_alpha   90.00000000
_cell_angle_beta   90.00000000
_cell_angle_gamma   120.00000116
_symmetry_Int_Tables_number   1
_chemical_formula_structural   Hf6NiSb2
_chemical_formula_sum   'Hf6 Ni1 Sb2'
_cell_volume   186.74834270
_cell_formula_units_Z   1
loop_
 _symmetry_equiv_pos_site_id
 _symmetry_equiv_pos_as_xyz
  1  'x, y, z'
loop_
 _atom_site_type_symbol
 _atom_site_label
 _atom_site_symmetry_multiplicity
 _atom_site_fract_x
 _atom_site_fract_y
 _atom_site_fract_z
 _atom_site_occupancy
  Hf  Hf0  1  0.75962200  0.00000000  0.50000000  1
  Hf  Hf1  1  0.24037800  0.24037800  0.50000000  1
  Hf  Hf2  1  0.00000000  0.75962200  0.50000000  1
  Hf  Hf3  1  0.00000000  0.39781700  0.00000000  1
  Hf  Hf4  1  0.60218300  0.60218300  0.00000000  1
  Hf  Hf5  1  0.39781700  0.00000000  0.00000000  1
  Ni  Ni6  1  0.00000000  0.00000000  0.00000000  1
  Sb  Sb7  1  0.33333300  0.66666700  0.50000000  1
  Sb  Sb8  1  0.66666700  0.33333300  0.50000000  1
