# generated using pymatgen
data_Li
_symmetry_space_group_name_H-M   'P 1'
_cell_length_a   7.62993003
_cell_length_b   7.62993003
_cell_length_c   7.62993022
_cell_angle_alpha   23.16431390
_cell_angle_beta   23.16431390
_cell_angle_gamma   23.16431675
_symmetry_Int_Tables_number   1
_chemical_formula_structural   Li
_chemical_formula_sum   Li3
_cell_volume   60.33455343
_cell_formula_units_Z   3
loop_
 _symmetry_equiv_pos_site_id
 _symmetry_equiv_pos_as_xyz
  1  'x, y, z'
loop_
 _atom_site_type_symbol
 _atom_site_label
 _atom_site_symmetry_multiplicity
 _atom_site_fract_x
 _atom_site_fract_y
 _atom_site_fract_z
 _atom_site_occupancy
  Li  Li0  1  0.77794600  0.77794600  0.77794600  1
  Li  Li1  1  0.22205400  0.22205400  0.22205400  1
  Li  Li2  1  0.00000000  0.00000000  0.00000000  1
