# generated using pymatgen
data_DyInCu
_symmetry_space_group_name_H-M   'P 1'
_cell_length_a   7.49845070
_cell_length_b   7.49845070
_cell_length_c   3.90908300
_cell_angle_alpha   90.00000000
_cell_angle_beta   90.00000000
_cell_angle_gamma   120.00000620
_symmetry_Int_Tables_number   1
_chemical_formula_structural   DyInCu
_chemical_formula_sum   'Dy3 In3 Cu3'
_cell_volume   190.34811374
_cell_formula_units_Z   3
loop_
 _symmetry_equiv_pos_site_id
 _symmetry_equiv_pos_as_xyz
  1  'x, y, z'
loop_
 _atom_site_type_symbol
 _atom_site_label
 _atom_site_symmetry_multiplicity
 _atom_site_fract_x
 _atom_site_fract_y
 _atom_site_fract_z
 _atom_site_occupancy
  Dy  Dy0  1  0.41054600  0.00000000  0.50000000  1
  Dy  Dy1  1  0.00000000  0.41054600  0.50000000  1
  Dy  Dy2  1  0.58945400  0.58945400  0.50000000  1
  In  In3  1  0.74669800  0.00000000  0.00000000  1
  In  In4  1  0.00000000  0.74669800  0.00000000  1
  In  In5  1  0.25330200  0.25330200  0.00000000  1
  Cu  Cu6  1  0.00000000  0.00000000  0.50000000  1
  Cu  Cu7  1  0.33333300  0.66666700  0.00000000  1
  Cu  Cu8  1  0.66666700  0.33333300  0.00000000  1
