# generated using pymatgen
data_Li6OsN4
_symmetry_space_group_name_H-M   'P 1'
_cell_length_a   6.75361200
_cell_length_b   6.75361200
_cell_length_c   4.82092800
_cell_angle_alpha   90.00000000
_cell_angle_beta   90.00000000
_cell_angle_gamma   90.00000000
_symmetry_Int_Tables_number   1
_chemical_formula_structural   Li6OsN4
_chemical_formula_sum   'Li12 Os2 N8'
_cell_volume   219.88867299
_cell_formula_units_Z   2
loop_
 _symmetry_equiv_pos_site_id
 _symmetry_equiv_pos_as_xyz
  1  'x, y, z'
loop_
 _atom_site_type_symbol
 _atom_site_label
 _atom_site_symmetry_multiplicity
 _atom_site_fract_x
 _atom_site_fract_y
 _atom_site_fract_z
 _atom_site_occupancy
  Li  Li0  1  0.50000000  0.00000000  0.61183100  1
  Li  Li1  1  0.00000000  0.50000000  0.88816900  1
  Li  Li2  1  0.00000000  0.50000000  0.38816900  1
  Li  Li3  1  0.50000000  0.00000000  0.11183100  1
  Li  Li4  1  0.21046000  0.21046000  0.50000000  1
  Li  Li5  1  0.78954000  0.78954000  0.50000000  1
  Li  Li6  1  0.71046000  0.71046000  0.00000000  1
  Li  Li7  1  0.28954000  0.28954000  0.00000000  1
  Li  Li8  1  0.21046000  0.78954000  0.50000000  1
  Li  Li9  1  0.78954000  0.21046000  0.50000000  1
  Li  Li10  1  0.71046000  0.28954000  0.00000000  1
  Li  Li11  1  0.28954000  0.71046000  0.00000000  1
  Os  Os12  1  0.50000000  0.50000000  0.50000000  1
  Os  Os13  1  0.00000000  0.00000000  0.00000000  1
  N  N14  1  0.50000000  0.24836500  0.32953900  1
  N  N15  1  0.50000000  0.75163500  0.32953900  1
  N  N16  1  0.00000000  0.74836500  0.17046100  1
  N  N17  1  0.00000000  0.25163500  0.17046100  1
  N  N18  1  0.24836500  0.50000000  0.67046100  1
  N  N19  1  0.75163500  0.50000000  0.67046100  1
  N  N20  1  0.74836500  0.00000000  0.82953900  1
  N  N21  1  0.25163500  0.00000000  0.82953900  1
