# generated using pymatgen
data_Sc2(SO4)3
_symmetry_space_group_name_H-M   'P 1'
_cell_length_a   9.17373122
_cell_length_b   9.17373122
_cell_length_c   9.17373024
_cell_angle_alpha   57.69112150
_cell_angle_beta   57.69112150
_cell_angle_gamma   57.69112413
_symmetry_Int_Tables_number   1
_chemical_formula_structural   Sc2(SO4)3
_chemical_formula_sum   'Sc4 S6 O24'
_cell_volume   516.95172123
_cell_formula_units_Z   2
loop_
 _symmetry_equiv_pos_site_id
 _symmetry_equiv_pos_as_xyz
  1  'x, y, z'
loop_
 _atom_site_type_symbol
 _atom_site_label
 _atom_site_symmetry_multiplicity
 _atom_site_fract_x
 _atom_site_fract_y
 _atom_site_fract_z
 _atom_site_occupancy
  Sc  Sc0  1  0.14414300  0.14414300  0.14414300  1
  Sc  Sc1  1  0.85585700  0.85585700  0.85585700  1
  Sc  Sc2  1  0.35585700  0.35585700  0.35585700  1
  Sc  Sc3  1  0.64414300  0.64414300  0.64414300  1
  S  S4  1  0.03645400  0.46354600  0.75000000  1
  S  S5  1  0.46354600  0.75000000  0.03645400  1
  S  S6  1  0.75000000  0.03645400  0.46354600  1
  S  S7  1  0.96354600  0.53645400  0.25000000  1
  S  S8  1  0.25000000  0.96354600  0.53645400  1
  S  S9  1  0.53645400  0.25000000  0.96354600  1
  O  O10  1  0.22757000  0.99138800  0.37407500  1
  O  O11  1  0.37407500  0.22757000  0.99138800  1
  O  O12  1  0.99138800  0.37407500  0.22757000  1
  O  O13  1  0.77243000  0.00861200  0.62592500  1
  O  O14  1  0.62592500  0.77243000  0.00861200  1
  O  O15  1  0.00861200  0.62592500  0.77243000  1
  O  O16  1  0.27243000  0.12592500  0.50861200  1
  O  O17  1  0.50861200  0.27243000  0.12592500  1
  O  O18  1  0.12592500  0.50861200  0.27243000  1
  O  O19  1  0.72757000  0.87407500  0.49138800  1
  O  O20  1  0.06386800  0.29803200  0.91404200  1
  O  O21  1  0.29803200  0.91404200  0.06386800  1
  O  O22  1  0.91404200  0.06386800  0.29803200  1
  O  O23  1  0.93613200  0.70196800  0.08595800  1
  O  O24  1  0.70196800  0.08595800  0.93613200  1
  O  O25  1  0.08595800  0.93613200  0.70196800  1
  O  O26  1  0.20196800  0.43613200  0.58595800  1
  O  O27  1  0.43613200  0.58595800  0.20196800  1
  O  O28  1  0.58595800  0.20196800  0.43613200  1
  O  O29  1  0.79803200  0.56386800  0.41404200  1
  O  O30  1  0.56386800  0.41404200  0.79803200  1
  O  O31  1  0.41404200  0.79803200  0.56386800  1
  O  O32  1  0.87407500  0.49138800  0.72757000  1
  O  O33  1  0.49138800  0.72757000  0.87407500  1
