# generated using pymatgen
data_MgMnSiO4
_symmetry_space_group_name_H-M   'P 1'
_cell_length_a   4.84312900
_cell_length_b   6.21333000
_cell_length_c   10.67256400
_cell_angle_alpha   90.00000000
_cell_angle_beta   90.00000000
_cell_angle_gamma   90.00000000
_symmetry_Int_Tables_number   1
_chemical_formula_structural   MgMnSiO4
_chemical_formula_sum   'Mg4 Mn4 Si4 O16'
_cell_volume   321.15835521
_cell_formula_units_Z   4
loop_
 _symmetry_equiv_pos_site_id
 _symmetry_equiv_pos_as_xyz
  1  'x, y, z'
loop_
 _atom_site_type_symbol
 _atom_site_label
 _atom_site_symmetry_multiplicity
 _atom_site_fract_x
 _atom_site_fract_y
 _atom_site_fract_z
 _atom_site_occupancy
  Mg  Mg0  1  0.50000000  0.50000000  0.50000000  1
  Mg  Mg1  1  0.00000000  0.50000000  0.00000000  1
  Mg  Mg2  1  0.50000000  0.00000000  0.50000000  1
  Mg  Mg3  1  0.00000000  0.00000000  0.00000000  1
  Mn  Mn4  1  0.01274300  0.75000000  0.72135300  1
  Mn  Mn5  1  0.98725700  0.25000000  0.27864700  1
  Mn  Mn6  1  0.51274300  0.25000000  0.77864700  1
  Mn  Mn7  1  0.48725700  0.75000000  0.22135300  1
  Si  Si8  1  0.57849600  0.75000000  0.90958800  1
  Si  Si9  1  0.42150400  0.25000000  0.09041200  1
  Si  Si10  1  0.07849600  0.25000000  0.59041200  1
  Si  Si11  1  0.92150400  0.75000000  0.40958800  1
  O  O12  1  0.76697400  0.75000000  0.55011100  1
  O  O13  1  0.23302600  0.25000000  0.44988900  1
  O  O14  1  0.26697400  0.25000000  0.94988900  1
  O  O15  1  0.73302600  0.75000000  0.05011100  1
  O  O16  1  0.24090500  0.75000000  0.91469300  1
  O  O17  1  0.75909500  0.25000000  0.08530700  1
  O  O18  1  0.74090500  0.25000000  0.58530700  1
  O  O19  1  0.25909500  0.75000000  0.41469300  1
  O  O20  1  0.72283900  0.53751000  0.84240900  1
  O  O21  1  0.27716100  0.46249000  0.15759100  1
  O  O22  1  0.22283900  0.46249000  0.65759100  1
  O  O23  1  0.27716100  0.03751000  0.15759100  1
  O  O24  1  0.77716100  0.53751000  0.34240900  1
  O  O25  1  0.72283900  0.96249000  0.84240900  1
  O  O26  1  0.77716100  0.96249000  0.34240900  1
  O  O27  1  0.22283900  0.03751000  0.65759100  1
