# generated using pymatgen
data_TbSiPd2
_symmetry_space_group_name_H-M   'P 1'
_cell_length_a   5.57184600
_cell_length_b   6.99184100
_cell_length_c   7.38561800
_cell_angle_alpha   90.00000000
_cell_angle_beta   90.00000000
_cell_angle_gamma   90.00000000
_symmetry_Int_Tables_number   1
_chemical_formula_structural   TbSiPd2
_chemical_formula_sum   'Tb4 Si4 Pd8'
_cell_volume   287.72492747
_cell_formula_units_Z   4
loop_
 _symmetry_equiv_pos_site_id
 _symmetry_equiv_pos_as_xyz
  1  'x, y, z'
loop_
 _atom_site_type_symbol
 _atom_site_label
 _atom_site_symmetry_multiplicity
 _atom_site_fract_x
 _atom_site_fract_y
 _atom_site_fract_z
 _atom_site_occupancy
  Tb  Tb0  1  0.14276400  0.75000000  0.52815600  1
  Tb  Tb1  1  0.85723600  0.25000000  0.47184400  1
  Tb  Tb2  1  0.64276400  0.25000000  0.97184400  1
  Tb  Tb3  1  0.35723600  0.75000000  0.02815600  1
  Si  Si4  1  0.85612800  0.75000000  0.87754300  1
  Si  Si5  1  0.14387200  0.25000000  0.12245700  1
  Si  Si6  1  0.35612800  0.25000000  0.62245700  1
  Si  Si7  1  0.64387200  0.75000000  0.37754300  1
  Pd  Pd8  1  0.59392600  0.55125500  0.67715300  1
  Pd  Pd9  1  0.40607400  0.44874500  0.32284700  1
  Pd  Pd10  1  0.09392600  0.44874500  0.82284700  1
  Pd  Pd11  1  0.40607400  0.05125500  0.32284700  1
  Pd  Pd12  1  0.90607400  0.55125500  0.17715300  1
  Pd  Pd13  1  0.59392600  0.94874500  0.67715300  1
  Pd  Pd14  1  0.90607400  0.94874500  0.17715300  1
  Pd  Pd15  1  0.09392600  0.05125500  0.82284700  1
