# generated using pymatgen
data_Er(SiPt)2
_symmetry_space_group_name_H-M   'P 1'
_cell_length_a   4.17574000
_cell_length_b   4.17574000
_cell_length_c   9.91729100
_cell_angle_alpha   90.00000000
_cell_angle_beta   90.00000000
_cell_angle_gamma   90.00000000
_symmetry_Int_Tables_number   1
_chemical_formula_structural   Er(SiPt)2
_chemical_formula_sum   'Er2 Si4 Pt4'
_cell_volume   172.92586481
_cell_formula_units_Z   2
loop_
 _symmetry_equiv_pos_site_id
 _symmetry_equiv_pos_as_xyz
  1  'x, y, z'
loop_
 _atom_site_type_symbol
 _atom_site_label
 _atom_site_symmetry_multiplicity
 _atom_site_fract_x
 _atom_site_fract_y
 _atom_site_fract_z
 _atom_site_occupancy
  Er  Er0  1  0.00000000  0.50000000  0.25344100  1
  Er  Er1  1  0.50000000  0.00000000  0.74656000  1
  Si  Si2  1  0.00000000  0.00000000  0.50000000  1
  Si  Si3  1  0.50000000  0.50000000  0.50000000  1
  Si  Si4  1  0.00000000  0.50000000  0.86411800  1
  Si  Si5  1  0.50000000  0.00000000  0.13588200  1
  Pt  Pt6  1  0.00000000  0.00000000  0.00000000  1
  Pt  Pt7  1  0.50000000  0.50000000  0.00000000  1
  Pt  Pt8  1  0.00000000  0.50000000  0.62483900  1
  Pt  Pt9  1  0.50000000  0.00000000  0.37516100  1
