# generated using pymatgen
data_U8FeSe17
_symmetry_space_group_name_H-M   'P 1'
_cell_length_a   8.21310358
_cell_length_b   8.21310358
_cell_length_c   10.82778239
_cell_angle_alpha   80.49051088
_cell_angle_beta   80.49051088
_cell_angle_gamma   64.28460115
_symmetry_Int_Tables_number   1
_chemical_formula_structural   U8FeSe17
_chemical_formula_sum   'U8 Fe1 Se17'
_cell_volume   645.40372206
_cell_formula_units_Z   1
loop_
 _symmetry_equiv_pos_site_id
 _symmetry_equiv_pos_as_xyz
  1  'x, y, z'
loop_
 _atom_site_type_symbol
 _atom_site_label
 _atom_site_symmetry_multiplicity
 _atom_site_fract_x
 _atom_site_fract_y
 _atom_site_fract_z
 _atom_site_occupancy
  U  U0  1  0.81905000  0.30005700  0.29875600  1
  U  U1  1  0.30005700  0.81905000  0.29875600  1
  U  U2  1  0.18095000  0.69994300  0.70124400  1
  U  U3  1  0.69994300  0.18095000  0.70124400  1
  U  U4  1  0.20217500  0.20217500  0.54330700  1
  U  U5  1  0.79782500  0.79782500  0.45669300  1
  U  U6  1  0.68051900  0.68051900  0.98464300  1
  U  U7  1  0.31948100  0.31948100  0.01535700  1
  Fe  Fe8  1  0.00000000  0.00000000  0.00000000  1
  Se  Se9  1  0.81944100  0.43431100  0.53589200  1
  Se  Se10  1  0.43431100  0.81944100  0.53589200  1
  Se  Se11  1  0.18055900  0.56568900  0.46410800  1
  Se  Se12  1  0.56568900  0.18055900  0.46410800  1
  Se  Se13  1  0.94406600  0.32457600  0.02741400  1
  Se  Se14  1  0.32457600  0.94406600  0.02741400  1
  Se  Se15  1  0.05593400  0.67542400  0.97258600  1
  Se  Se16  1  0.67542400  0.05593400  0.97258600  1
  Se  Se17  1  0.21354400  0.21354400  0.27676600  1
  Se  Se18  1  0.78645600  0.78645600  0.72323400  1
  Se  Se19  1  0.05700700  0.05700700  0.77459000  1
  Se  Se20  1  0.94299300  0.94299300  0.22541000  1
  Se  Se21  1  0.30072000  0.30072000  0.75522700  1
  Se  Se22  1  0.69928000  0.69928000  0.24477300  1
  Se  Se23  1  0.52072900  0.52072900  0.82979900  1
  Se  Se24  1  0.47927100  0.47927100  0.17020100  1
  Se  Se25  1  0.00000000  0.00000000  0.50000000  1
