# generated using pymatgen
data_Be3Cd4Si3TeO12
_symmetry_space_group_name_H-M   'P 1'
_cell_length_a   8.68419500
_cell_length_b   8.68419500
_cell_length_c   8.68419500
_cell_angle_alpha   90.00000000
_cell_angle_beta   90.00000000
_cell_angle_gamma   90.00000000
_symmetry_Int_Tables_number   1
_chemical_formula_structural   Be3Cd4Si3TeO12
_chemical_formula_sum   'Be6 Cd8 Si6 Te2 O24'
_cell_volume   654.92067443
_cell_formula_units_Z   2
loop_
 _symmetry_equiv_pos_site_id
 _symmetry_equiv_pos_as_xyz
  1  'x, y, z'
loop_
 _atom_site_type_symbol
 _atom_site_label
 _atom_site_symmetry_multiplicity
 _atom_site_fract_x
 _atom_site_fract_y
 _atom_site_fract_z
 _atom_site_occupancy
  Be  Be0  1  0.25000000  0.50000000  0.00000000  1
  Be  Be1  1  0.50000000  0.00000000  0.75000000  1
  Be  Be2  1  0.50000000  0.00000000  0.25000000  1
  Be  Be3  1  0.00000000  0.25000000  0.50000000  1
  Be  Be4  1  0.00000000  0.75000000  0.50000000  1
  Be  Be5  1  0.75000000  0.50000000  0.00000000  1
  Cd  Cd6  1  0.18469000  0.18469000  0.18469000  1
  Cd  Cd7  1  0.31531000  0.68469000  0.31531000  1
  Cd  Cd8  1  0.31531000  0.31531000  0.68469000  1
  Cd  Cd9  1  0.68469000  0.31531000  0.31531000  1
  Cd  Cd10  1  0.81531000  0.81531000  0.18469000  1
  Cd  Cd11  1  0.18469000  0.81531000  0.81531000  1
  Cd  Cd12  1  0.81531000  0.18469000  0.81531000  1
  Cd  Cd13  1  0.68469000  0.68469000  0.68469000  1
  Si  Si14  1  0.75000000  0.00000000  0.50000000  1
  Si  Si15  1  0.50000000  0.75000000  0.00000000  1
  Si  Si16  1  0.50000000  0.25000000  0.00000000  1
  Si  Si17  1  0.00000000  0.50000000  0.25000000  1
  Si  Si18  1  0.00000000  0.50000000  0.75000000  1
  Si  Si19  1  0.25000000  0.00000000  0.50000000  1
  Te  Te20  1  0.00000000  0.00000000  0.00000000  1
  Te  Te21  1  0.50000000  0.50000000  0.50000000  1
  O  O22  1  0.85385700  0.43770000  0.85384700  1
  O  O23  1  0.85385700  0.56230000  0.14615300  1
  O  O24  1  0.43770000  0.85384700  0.85385700  1
  O  O25  1  0.56230000  0.85384700  0.14614300  1
  O  O26  1  0.85384700  0.85385700  0.43770000  1
  O  O27  1  0.14615300  0.14614300  0.43770000  1
  O  O28  1  0.35385700  0.35384700  0.93770000  1
  O  O29  1  0.14614300  0.43770000  0.14615300  1
  O  O30  1  0.14614300  0.56230000  0.85384700  1
  O  O31  1  0.56230000  0.14615300  0.85385700  1
  O  O32  1  0.43770000  0.14615300  0.14614300  1
  O  O33  1  0.85384700  0.14614300  0.56230000  1
  O  O34  1  0.14615300  0.85385700  0.56230000  1
  O  O35  1  0.93770000  0.35385700  0.35384700  1
  O  O36  1  0.35384700  0.93770000  0.35385700  1
  O  O37  1  0.64615300  0.06230000  0.35385700  1
  O  O38  1  0.93770000  0.64614300  0.64615300  1
  O  O39  1  0.64615300  0.93770000  0.64614300  1
  O  O40  1  0.06230000  0.64614300  0.35384700  1
  O  O41  1  0.06230000  0.35385700  0.64615300  1
  O  O42  1  0.35384700  0.06230000  0.64614300  1
  O  O43  1  0.35385700  0.64615300  0.06230000  1
  O  O44  1  0.64614300  0.35384700  0.06230000  1
  O  O45  1  0.64614300  0.64615300  0.93770000  1
