# generated using pymatgen
data_Tm4In(NiGe2)2
_symmetry_space_group_name_H-M   'P 1'
_cell_length_a   7.95385638
_cell_length_b   7.95385638
_cell_length_c   6.98959541
_cell_angle_alpha   72.06714339
_cell_angle_beta   72.06714339
_cell_angle_gamma   30.55783146
_symmetry_Int_Tables_number   1
_chemical_formula_structural   Tm4In(NiGe2)2
_chemical_formula_sum   'Tm4 In1 Ni2 Ge4'
_cell_volume   213.05282058
_cell_formula_units_Z   1
loop_
 _symmetry_equiv_pos_site_id
 _symmetry_equiv_pos_as_xyz
  1  'x, y, z'
loop_
 _atom_site_type_symbol
 _atom_site_label
 _atom_site_symmetry_multiplicity
 _atom_site_fract_x
 _atom_site_fract_y
 _atom_site_fract_z
 _atom_site_occupancy
  Tm  Tm0  1  0.34397100  0.34397100  0.93717100  1
  Tm  Tm1  1  0.65602900  0.65602900  0.06282900  1
  Tm  Tm2  1  0.40869300  0.40869300  0.39097300  1
  Tm  Tm3  1  0.59130700  0.59130700  0.60902700  1
  In  In4  1  0.00000000  0.00000000  0.00000000  1
  Ni  Ni5  1  0.21810400  0.21810400  0.36203900  1
  Ni  Ni6  1  0.78189600  0.78189600  0.63796100  1
  Ge  Ge7  1  0.06617100  0.06617100  0.33733200  1
  Ge  Ge8  1  0.93382900  0.93382900  0.66266800  1
  Ge  Ge9  1  0.20155000  0.20155000  0.73554900  1
  Ge  Ge10  1  0.79845000  0.79845000  0.26445100  1
