# generated using pymatgen
data_Th14Au51
_symmetry_space_group_name_H-M   'P 1'
_cell_length_a   13.01798413
_cell_length_b   13.01798413
_cell_length_c   9.40170400
_cell_angle_alpha   90.00000000
_cell_angle_beta   90.00000000
_cell_angle_gamma   120.00000066
_symmetry_Int_Tables_number   1
_chemical_formula_structural   Th14Au51
_chemical_formula_sum   'Th14 Au51'
_cell_volume   1379.82712516
_cell_formula_units_Z   1
loop_
 _symmetry_equiv_pos_site_id
 _symmetry_equiv_pos_as_xyz
  1  'x, y, z'
loop_
 _atom_site_type_symbol
 _atom_site_label
 _atom_site_symmetry_multiplicity
 _atom_site_fract_x
 _atom_site_fract_y
 _atom_site_fract_z
 _atom_site_occupancy
  Th  Th0  1  0.66666700  0.33333300  0.70314700  1
  Th  Th1  1  0.66666700  0.33333300  0.29685300  1
  Th  Th2  1  0.39048600  0.94629200  0.00000000  1
  Th  Th3  1  0.55580600  0.60951400  0.00000000  1
  Th  Th4  1  0.05370800  0.44419400  0.00000000  1
  Th  Th5  1  0.95341600  0.73390800  0.00000000  1
  Th  Th6  1  0.78049100  0.04658400  0.00000000  1
  Th  Th7  1  0.26609200  0.21950900  0.00000000  1
  Th  Th8  1  0.98890100  0.18954600  0.50000000  1
  Th  Th9  1  0.20064500  0.01109900  0.50000000  1
  Th  Th10  1  0.81045400  0.79935500  0.50000000  1
  Th  Th11  1  0.34385000  0.47665200  0.50000000  1
  Th  Th12  1  0.13280200  0.65615000  0.50000000  1
  Th  Th13  1  0.52334800  0.86719800  0.50000000  1
  Au  Au14  1  0.04224400  0.21661100  0.84756800  1
  Au  Au15  1  0.17436700  0.95775600  0.84756800  1
  Au  Au16  1  0.78338900  0.82563300  0.84756800  1
  Au  Au17  1  0.28905500  0.45136900  0.84816300  1
  Au  Au18  1  0.16231300  0.71094500  0.84816300  1
  Au  Au19  1  0.54863100  0.83768700  0.84816300  1
  Au  Au20  1  0.28905500  0.45136900  0.15183700  1
  Au  Au21  1  0.16231300  0.71094500  0.15183700  1
  Au  Au22  1  0.54863100  0.83768700  0.15183700  1
  Au  Au23  1  0.04224400  0.21661100  0.15243200  1
  Au  Au24  1  0.17436700  0.95775600  0.15243200  1
  Au  Au25  1  0.78338900  0.82563300  0.15243200  1
  Au  Au26  1  0.32763300  0.89129300  0.66362800  1
  Au  Au27  1  0.56366000  0.67236700  0.66362800  1
  Au  Au28  1  0.10870700  0.43634000  0.66362800  1
  Au  Au29  1  0.00697700  0.77669300  0.66358300  1
  Au  Au30  1  0.76971600  0.99302300  0.66358300  1
  Au  Au31  1  0.22330700  0.23028400  0.66358300  1
  Au  Au32  1  0.00697700  0.77669300  0.33641700  1
  Au  Au33  1  0.76971600  0.99302300  0.33641700  1
  Au  Au34  1  0.22330700  0.23028400  0.33641700  1
  Au  Au35  1  0.32763300  0.89129300  0.33637200  1
  Au  Au36  1  0.56366000  0.67236700  0.33637200  1
  Au  Au37  1  0.10870700  0.43634000  0.33637200  1
  Au  Au38  1  0.00000000  0.00000000  0.00000000  1
  Au  Au39  1  0.33333300  0.66666700  0.00000000  1
  Au  Au40  1  0.00000000  0.00000000  0.68945700  1
  Au  Au41  1  0.33333300  0.66666700  0.68864000  1
  Au  Au42  1  0.33333300  0.66666700  0.31136000  1
  Au  Au43  1  0.00000000  0.00000000  0.31054300  1
  Au  Au44  1  0.85839200  0.25925500  0.77199300  1
  Au  Au45  1  0.40086300  0.14160800  0.77199300  1
  Au  Au46  1  0.74074500  0.59913700  0.77199300  1
  Au  Au47  1  0.47497300  0.41165900  0.76885900  1
  Au  Au48  1  0.93668600  0.52502700  0.76885900  1
  Au  Au49  1  0.58834100  0.06331400  0.76885900  1
  Au  Au50  1  0.47497300  0.41165900  0.23114100  1
  Au  Au51  1  0.93668600  0.52502700  0.23114100  1
  Au  Au52  1  0.58834100  0.06331400  0.23114100  1
  Au  Au53  1  0.85839200  0.25925500  0.22800700  1
  Au  Au54  1  0.40086300  0.14160800  0.22800700  1
  Au  Au55  1  0.74074500  0.59913700  0.22800700  1
  Au  Au56  1  0.48705700  0.09639400  0.50000000  1
  Au  Au57  1  0.60933800  0.51294300  0.50000000  1
  Au  Au58  1  0.90360600  0.39066200  0.50000000  1
  Au  Au59  1  0.84689300  0.57137300  0.50000000  1
  Au  Au60  1  0.72448000  0.15310700  0.50000000  1
  Au  Au61  1  0.42862700  0.27552000  0.50000000  1
  Au  Au62  1  0.69645300  0.22611300  0.00000000  1
  Au  Au63  1  0.52966000  0.30354700  0.00000000  1
  Au  Au64  1  0.77388700  0.47034000  0.00000000  1
