# generated using pymatgen
data_CsMoN2
_symmetry_space_group_name_H-M   'P 1'
_cell_length_a   6.20008900
_cell_length_b   8.77016400
_cell_length_c   12.39550400
_cell_angle_alpha   90.00000000
_cell_angle_beta   90.00000000
_cell_angle_gamma   90.00000000
_symmetry_Int_Tables_number   1
_chemical_formula_structural   CsMoN2
_chemical_formula_sum   'Cs8 Mo8 N16'
_cell_volume   674.01541349
_cell_formula_units_Z   8
loop_
 _symmetry_equiv_pos_site_id
 _symmetry_equiv_pos_as_xyz
  1  'x, y, z'
loop_
 _atom_site_type_symbol
 _atom_site_label
 _atom_site_symmetry_multiplicity
 _atom_site_fract_x
 _atom_site_fract_y
 _atom_site_fract_z
 _atom_site_occupancy
  Cs  Cs0  1  0.75000000  0.12603000  0.00000000  1
  Cs  Cs1  1  0.25000000  0.87397000  0.50000000  1
  Cs  Cs2  1  0.25000000  0.87397000  0.00000000  1
  Cs  Cs3  1  0.75000000  0.12603000  0.50000000  1
  Cs  Cs4  1  0.71368300  0.37547600  0.25000000  1
  Cs  Cs5  1  0.21368300  0.62452400  0.25000000  1
  Cs  Cs6  1  0.28631700  0.62452400  0.75000000  1
  Cs  Cs7  1  0.78631700  0.37547600  0.75000000  1
  Mo  Mo8  1  0.25000000  0.37449400  0.00000000  1
  Mo  Mo9  1  0.75000000  0.62550600  0.50000000  1
  Mo  Mo10  1  0.75000000  0.62550600  0.00000000  1
  Mo  Mo11  1  0.25000000  0.37449400  0.50000000  1
  Mo  Mo12  1  0.22773700  0.12423200  0.25000000  1
  Mo  Mo13  1  0.72773700  0.87576800  0.25000000  1
  Mo  Mo14  1  0.77226300  0.87576800  0.75000000  1
  Mo  Mo15  1  0.27226300  0.12423200  0.75000000  1
  N  N16  1  0.96156100  0.01626800  0.25000000  1
  N  N17  1  0.46156100  0.98373200  0.25000000  1
  N  N18  1  0.03843900  0.98373200  0.75000000  1
  N  N19  1  0.53843900  0.01626800  0.75000000  1
  N  N20  1  0.24719000  0.24896300  0.37501200  1
  N  N21  1  0.74719000  0.75103700  0.12498800  1
  N  N22  1  0.75281000  0.75103700  0.87501200  1
  N  N23  1  0.25281000  0.24896300  0.62498800  1
  N  N24  1  0.75281000  0.75103700  0.62498800  1
  N  N25  1  0.25281000  0.24896300  0.87501200  1
  N  N26  1  0.24719000  0.24896300  0.12498800  1
  N  N27  1  0.74719000  0.75103700  0.37501200  1
  N  N28  1  0.50000000  0.50000000  0.50000000  1
  N  N29  1  0.00000000  0.50000000  0.00000000  1
  N  N30  1  0.50000000  0.50000000  0.00000000  1
  N  N31  1  0.00000000  0.50000000  0.50000000  1
