# generated using pymatgen
data_Nd14Ag51
_symmetry_space_group_name_H-M   'P 1'
_cell_length_a   13.01888736
_cell_length_b   13.01888736
_cell_length_c   9.53192900
_cell_angle_alpha   90.00000000
_cell_angle_beta   90.00000000
_cell_angle_gamma   119.99999676
_symmetry_Int_Tables_number   1
_chemical_formula_structural   Nd14Ag51
_chemical_formula_sum   'Nd14 Ag51'
_cell_volume   1399.13359197
_cell_formula_units_Z   1
loop_
 _symmetry_equiv_pos_site_id
 _symmetry_equiv_pos_as_xyz
  1  'x, y, z'
loop_
 _atom_site_type_symbol
 _atom_site_label
 _atom_site_symmetry_multiplicity
 _atom_site_fract_x
 _atom_site_fract_y
 _atom_site_fract_z
 _atom_site_occupancy
  Nd  Nd0  1  0.33827700  0.86599200  0.50000000  1
  Nd  Nd1  1  0.13400800  0.47228600  0.50000000  1
  Nd  Nd2  1  0.52771400  0.66172300  0.50000000  1
  Nd  Nd3  1  0.99510500  0.80264300  0.50000000  1
  Nd  Nd4  1  0.19735700  0.19246200  0.50000000  1
  Nd  Nd5  1  0.80753800  0.00489500  0.50000000  1
  Nd  Nd6  1  0.93693100  0.21953500  0.00000000  1
  Nd  Nd7  1  0.78046500  0.71739600  0.00000000  1
  Nd  Nd8  1  0.28260400  0.06306900  0.00000000  1
  Nd  Nd9  1  0.38374700  0.45130400  0.00000000  1
  Nd  Nd10  1  0.54869600  0.93244300  0.00000000  1
  Nd  Nd11  1  0.06755700  0.61625300  0.00000000  1
  Nd  Nd12  1  0.66666700  0.33333300  0.30391000  1
  Nd  Nd13  1  0.66666700  0.33333300  0.69609000  1
  Ag  Ag14  1  0.28883600  0.83963000  0.15342400  1
  Ag  Ag15  1  0.16037000  0.44920600  0.15342400  1
  Ag  Ag16  1  0.55079400  0.71116400  0.15342400  1
  Ag  Ag17  1  0.04696700  0.83028700  0.15260900  1
  Ag  Ag18  1  0.16971300  0.21668000  0.15260900  1
  Ag  Ag19  1  0.78332000  0.95303300  0.15260900  1
  Ag  Ag20  1  0.04696700  0.83028700  0.84739100  1
  Ag  Ag21  1  0.16971300  0.21668000  0.84739100  1
  Ag  Ag22  1  0.78332000  0.95303300  0.84739100  1
  Ag  Ag23  1  0.28883600  0.83963000  0.84657600  1
  Ag  Ag24  1  0.16037000  0.44920600  0.84657600  1
  Ag  Ag25  1  0.55079400  0.71116400  0.84657600  1
  Ag  Ag26  1  0.84560200  0.27466400  0.50000000  1
  Ag  Ag27  1  0.72533600  0.57093800  0.50000000  1
  Ag  Ag28  1  0.42906200  0.15439800  0.50000000  1
  Ag  Ag29  1  0.48754400  0.39292100  0.50000000  1
  Ag  Ag30  1  0.60707900  0.09462300  0.50000000  1
  Ag  Ag31  1  0.90537700  0.51245600  0.50000000  1
  Ag  Ag32  1  0.33333300  0.66666700  0.00000000  1
  Ag  Ag33  1  0.00000000  0.00000000  0.00000000  1
  Ag  Ag34  1  0.99911000  0.22795600  0.33048700  1
  Ag  Ag35  1  0.77204400  0.77115500  0.33048700  1
  Ag  Ag36  1  0.22884500  0.00089000  0.33048700  1
  Ag  Ag37  1  0.33310000  0.43879000  0.33188500  1
  Ag  Ag38  1  0.56121000  0.89430900  0.33188500  1
  Ag  Ag39  1  0.10569100  0.66690000  0.33188500  1
  Ag  Ag40  1  0.33310000  0.43879000  0.66811500  1
  Ag  Ag41  1  0.56121000  0.89430900  0.66811500  1
  Ag  Ag42  1  0.10569100  0.66690000  0.66811500  1
  Ag  Ag43  1  0.99911000  0.22795600  0.66951300  1
  Ag  Ag44  1  0.77204400  0.77115500  0.66951300  1
  Ag  Ag45  1  0.22884500  0.00089000  0.66951300  1
  Ag  Ag46  1  0.74136900  0.13856300  0.24044100  1
  Ag  Ag47  1  0.86143700  0.60280600  0.24044100  1
  Ag  Ag48  1  0.39719400  0.25863100  0.24044100  1
  Ag  Ag49  1  0.59206200  0.52450500  0.23486600  1
  Ag  Ag50  1  0.47549500  0.06755700  0.23486600  1
  Ag  Ag51  1  0.93244300  0.40793800  0.23486600  1
  Ag  Ag52  1  0.59206200  0.52450500  0.76513400  1
  Ag  Ag53  1  0.47549500  0.06755700  0.76513400  1
  Ag  Ag54  1  0.93244300  0.40793800  0.76513400  1
  Ag  Ag55  1  0.74136900  0.13856300  0.75955900  1
  Ag  Ag56  1  0.86143700  0.60280600  0.75955900  1
  Ag  Ag57  1  0.39719400  0.25863100  0.75955900  1
  Ag  Ag58  1  0.33333300  0.66666700  0.29658500  1
  Ag  Ag59  1  0.00000000  0.00000000  0.29602400  1
  Ag  Ag60  1  0.00000000  0.00000000  0.70397600  1
  Ag  Ag61  1  0.33333300  0.66666700  0.70341500  1
  Ag  Ag62  1  0.64795700  0.19859400  0.00000000  1
  Ag  Ag63  1  0.80140600  0.44936300  0.00000000  1
  Ag  Ag64  1  0.55063700  0.35204300  0.00000000  1
