# generated using pymatgen
data_CsNbN2
_symmetry_space_group_name_H-M   'P 1'
_cell_length_a   6.27071500
_cell_length_b   12.62395100
_cell_length_c   17.71299200
_cell_angle_alpha   90.00000000
_cell_angle_beta   90.00000000
_cell_angle_gamma   90.00000000
_symmetry_Int_Tables_number   1
_chemical_formula_structural   CsNbN2
_chemical_formula_sum   'Cs16 Nb16 N32'
_cell_volume   1402.18168274
_cell_formula_units_Z   16
loop_
 _symmetry_equiv_pos_site_id
 _symmetry_equiv_pos_as_xyz
  1  'x, y, z'
loop_
 _atom_site_type_symbol
 _atom_site_label
 _atom_site_symmetry_multiplicity
 _atom_site_fract_x
 _atom_site_fract_y
 _atom_site_fract_z
 _atom_site_occupancy
  Cs  Cs0  1  0.24806200  0.99938500  0.43711600  1
  Cs  Cs1  1  0.74806200  0.50061500  0.56288400  1
  Cs  Cs2  1  0.75193800  0.49938500  0.06288400  1
  Cs  Cs3  1  0.25193800  0.00061500  0.93711600  1
  Cs  Cs4  1  0.75193800  0.00061500  0.56288400  1
  Cs  Cs5  1  0.25193800  0.49938500  0.43711600  1
  Cs  Cs6  1  0.24806200  0.50061500  0.93711600  1
  Cs  Cs7  1  0.74806200  0.99938500  0.06288400  1
  Cs  Cs8  1  0.28976500  0.25184200  0.31236800  1
  Cs  Cs9  1  0.78976500  0.24815800  0.68763200  1
  Cs  Cs10  1  0.71023500  0.75184200  0.18763200  1
  Cs  Cs11  1  0.21023500  0.74815800  0.81236800  1
  Cs  Cs12  1  0.71023500  0.74815800  0.68763200  1
  Cs  Cs13  1  0.21023500  0.75184200  0.31236800  1
  Cs  Cs14  1  0.28976500  0.24815800  0.81236800  1
  Cs  Cs15  1  0.78976500  0.25184200  0.18763200  1
  Nb  Nb16  1  0.74680200  0.00341300  0.31248500  1
  Nb  Nb17  1  0.24680200  0.49658700  0.68751500  1
  Nb  Nb18  1  0.25319800  0.50341300  0.18751500  1
  Nb  Nb19  1  0.75319800  0.99658700  0.81248500  1
  Nb  Nb20  1  0.25319800  0.99658700  0.68751500  1
  Nb  Nb21  1  0.75319800  0.50341300  0.31248500  1
  Nb  Nb22  1  0.74680200  0.49658700  0.81248500  1
  Nb  Nb23  1  0.24680200  0.00341300  0.18751500  1
  Nb  Nb24  1  0.77719600  0.25581700  0.43807200  1
  Nb  Nb25  1  0.27719600  0.24418300  0.56192800  1
  Nb  Nb26  1  0.22280400  0.75581700  0.06192800  1
  Nb  Nb27  1  0.72280400  0.74418300  0.93807200  1
  Nb  Nb28  1  0.22280400  0.74418300  0.56192800  1
  Nb  Nb29  1  0.72280400  0.75581700  0.43807200  1
  Nb  Nb30  1  0.77719600  0.24418300  0.93807200  1
  Nb  Nb31  1  0.27719600  0.25581700  0.06192800  1
  N  N32  1  0.06140100  0.26595900  0.48317200  1
  N  N33  1  0.56140100  0.23404100  0.51682800  1
  N  N34  1  0.93859900  0.76595900  0.01682800  1
  N  N35  1  0.43859900  0.73404100  0.98317200  1
  N  N36  1  0.93859900  0.73404100  0.51682800  1
  N  N37  1  0.43859900  0.76595900  0.48317200  1
  N  N38  1  0.06140100  0.23404100  0.98317200  1
  N  N39  1  0.56140100  0.26595900  0.01682800  1
  N  N40  1  0.71402800  0.38780200  0.38485300  1
  N  N41  1  0.21402800  0.11219800  0.61514700  1
  N  N42  1  0.28597200  0.88780200  0.11514700  1
  N  N43  1  0.78597200  0.61219800  0.88485300  1
  N  N44  1  0.28597200  0.61219800  0.61514700  1
  N  N45  1  0.78597200  0.88780200  0.38485300  1
  N  N46  1  0.71402800  0.11219800  0.88485300  1
  N  N47  1  0.21402800  0.38780200  0.11514700  1
  N  N48  1  0.77145100  0.13877600  0.36554400  1
  N  N49  1  0.27145100  0.36122400  0.63445600  1
  N  N50  1  0.22854900  0.63877600  0.13445600  1
  N  N51  1  0.72854900  0.86122400  0.86554400  1
  N  N52  1  0.22854900  0.86122400  0.63445600  1
  N  N53  1  0.72854900  0.63877600  0.36554400  1
  N  N54  1  0.77145100  0.36122400  0.86554400  1
  N  N55  1  0.27145100  0.13877600  0.13445600  1
  N  N56  1  0.53603300  0.49356500  0.23345500  1
  N  N57  1  0.03603300  0.00643500  0.76654500  1
  N  N58  1  0.46396700  0.99356500  0.26654500  1
  N  N59  1  0.96396700  0.50643500  0.73345500  1
  N  N60  1  0.46396700  0.50643500  0.76654500  1
  N  N61  1  0.96396700  0.99356500  0.23345500  1
  N  N62  1  0.53603300  0.00643500  0.73345500  1
  N  N63  1  0.03603300  0.49356500  0.26654500  1
