# generated using pymatgen
data_Nd
_symmetry_space_group_name_H-M   'P 1'
_cell_length_a   3.70707961
_cell_length_b   3.70707961
_cell_length_c   11.91086800
_cell_angle_alpha   90.00000000
_cell_angle_beta   90.00000000
_cell_angle_gamma   119.99999299
_symmetry_Int_Tables_number   1
_chemical_formula_structural   Nd
_chemical_formula_sum   Nd4
_cell_volume   141.75484083
_cell_formula_units_Z   4
loop_
 _symmetry_equiv_pos_site_id
 _symmetry_equiv_pos_as_xyz
  1  'x, y, z'
loop_
 _atom_site_type_symbol
 _atom_site_label
 _atom_site_symmetry_multiplicity
 _atom_site_fract_x
 _atom_site_fract_y
 _atom_site_fract_z
 _atom_site_occupancy
  Nd  Nd0  1  0.00000000  0.00000000  0.00000000  1
  Nd  Nd1  1  0.00000000  0.00000000  0.50000000  1
  Nd  Nd2  1  0.33333300  0.66666700  0.25000000  1
  Nd  Nd3  1  0.66666700  0.33333300  0.75000000  1
