# generated using pymatgen
data_LaTe3
_symmetry_space_group_name_H-M   'P 1'
_cell_length_a   13.77174379
_cell_length_b   13.77174379
_cell_length_c   4.42965700
_cell_angle_alpha   90.00000000
_cell_angle_beta   90.00000000
_cell_angle_gamma   161.44892198
_symmetry_Int_Tables_number   1
_chemical_formula_structural   LaTe3
_chemical_formula_sum   'La2 Te6'
_cell_volume   267.28821810
_cell_formula_units_Z   2
loop_
 _symmetry_equiv_pos_site_id
 _symmetry_equiv_pos_as_xyz
  1  'x, y, z'
loop_
 _atom_site_type_symbol
 _atom_site_label
 _atom_site_symmetry_multiplicity
 _atom_site_fract_x
 _atom_site_fract_y
 _atom_site_fract_z
 _atom_site_occupancy
  La  La0  1  0.17013400  0.82986600  0.25000000  1
  La  La1  1  0.82986600  0.17013400  0.75000000  1
  Te  Te2  1  0.92571600  0.07428400  0.25000000  1
  Te  Te3  1  0.07428400  0.92571600  0.75000000  1
  Te  Te4  1  0.57503700  0.42496300  0.25000000  1
  Te  Te5  1  0.42496300  0.57503700  0.75000000  1
  Te  Te6  1  0.29497400  0.70502600  0.25000000  1
  Te  Te7  1  0.70502600  0.29497400  0.75000000  1
