# generated using pymatgen
data_Zn3SiNi2
_symmetry_space_group_name_H-M   'P 1'
_cell_length_a   7.57050723
_cell_length_b   7.57050723
_cell_length_c   7.57050723
_cell_angle_alpha   60.00000000
_cell_angle_beta   60.00000000
_cell_angle_gamma   60.00000000
_symmetry_Int_Tables_number   1
_chemical_formula_structural   Zn3SiNi2
_chemical_formula_sum   'Zn12 Si4 Ni8'
_cell_volume   306.80323739
_cell_formula_units_Z   4
loop_
 _symmetry_equiv_pos_site_id
 _symmetry_equiv_pos_as_xyz
  1  'x, y, z'
loop_
 _atom_site_type_symbol
 _atom_site_label
 _atom_site_symmetry_multiplicity
 _atom_site_fract_x
 _atom_site_fract_y
 _atom_site_fract_z
 _atom_site_occupancy
  Zn  Zn0  1  0.81283300  0.81283300  0.18716700  1
  Zn  Zn1  1  0.18716700  0.18716700  0.81283300  1
  Zn  Zn2  1  0.81283300  0.18716700  0.81283300  1
  Zn  Zn3  1  0.18716700  0.81283300  0.18716700  1
  Zn  Zn4  1  0.18716700  0.81283300  0.81283300  1
  Zn  Zn5  1  0.81283300  0.18716700  0.18716700  1
  Zn  Zn6  1  0.43716700  0.43716700  0.06283300  1
  Zn  Zn7  1  0.06283300  0.06283300  0.43716700  1
  Zn  Zn8  1  0.43716700  0.06283300  0.43716700  1
  Zn  Zn9  1  0.06283300  0.43716700  0.06283300  1
  Zn  Zn10  1  0.06283300  0.43716700  0.43716700  1
  Zn  Zn11  1  0.43716700  0.06283300  0.06283300  1
  Si  Si12  1  0.12500000  0.62500000  0.62500000  1
  Si  Si13  1  0.62500000  0.12500000  0.62500000  1
  Si  Si14  1  0.62500000  0.62500000  0.12500000  1
  Si  Si15  1  0.62500000  0.62500000  0.62500000  1
  Ni  Ni16  1  0.75690500  0.41436500  0.41436500  1
  Ni  Ni17  1  0.41436500  0.75690500  0.41436500  1
  Ni  Ni18  1  0.41436500  0.41436500  0.75690500  1
  Ni  Ni19  1  0.41436500  0.41436500  0.41436500  1
  Ni  Ni20  1  0.49309500  0.83563500  0.83563500  1
  Ni  Ni21  1  0.83563500  0.49309500  0.83563500  1
  Ni  Ni22  1  0.83563500  0.83563500  0.49309500  1
  Ni  Ni23  1  0.83563500  0.83563500  0.83563500  1
