# generated using pymatgen
data_SrTh(PS4)2
_symmetry_space_group_name_H-M   'P 1'
_cell_length_a   11.24240300
_cell_length_b   11.24240300
_cell_length_c   9.76439300
_cell_angle_alpha   90.00000000
_cell_angle_beta   90.00000000
_cell_angle_gamma   90.00000000
_symmetry_Int_Tables_number   1
_chemical_formula_structural   SrTh(PS4)2
_chemical_formula_sum   'Sr4 Th4 P8 S32'
_cell_volume   1234.13750050
_cell_formula_units_Z   4
loop_
 _symmetry_equiv_pos_site_id
 _symmetry_equiv_pos_as_xyz
  1  'x, y, z'
loop_
 _atom_site_type_symbol
 _atom_site_label
 _atom_site_symmetry_multiplicity
 _atom_site_fract_x
 _atom_site_fract_y
 _atom_site_fract_z
 _atom_site_occupancy
  Sr  Sr0  1  0.50000000  0.00000000  0.75000000  1
  Sr  Sr1  1  0.00000000  0.50000000  0.25000000  1
  Sr  Sr2  1  0.00000000  0.50000000  0.75000000  1
  Sr  Sr3  1  0.50000000  0.00000000  0.25000000  1
  Th  Th4  1  0.50000000  0.50000000  0.75000000  1
  Th  Th5  1  0.50000000  0.50000000  0.25000000  1
  Th  Th6  1  0.00000000  0.00000000  0.75000000  1
  Th  Th7  1  0.00000000  0.00000000  0.25000000  1
  P  P8  1  0.46471100  0.25924400  0.50000000  1
  P  P9  1  0.74075600  0.46471100  0.00000000  1
  P  P10  1  0.96471100  0.24075600  0.50000000  1
  P  P11  1  0.75924400  0.96471100  0.00000000  1
  P  P12  1  0.53528900  0.74075600  0.50000000  1
  P  P13  1  0.25924400  0.53528900  0.00000000  1
  P  P14  1  0.03528900  0.75924400  0.50000000  1
  P  P15  1  0.24075600  0.03528900  0.00000000  1
  S  S16  1  0.26585300  0.43068800  0.82705900  1
  S  S17  1  0.56931200  0.26585300  0.32705900  1
  S  S18  1  0.76585300  0.06931200  0.82705900  1
  S  S19  1  0.93068800  0.76585300  0.32705900  1
  S  S20  1  0.26585300  0.43068800  0.17294100  1
  S  S21  1  0.56931200  0.26585300  0.67294100  1
  S  S22  1  0.76585300  0.06931200  0.17294100  1
  S  S23  1  0.93068800  0.76585300  0.67294100  1
  S  S24  1  0.73414700  0.56931200  0.17294100  1
  S  S25  1  0.43068800  0.73414700  0.67294100  1
  S  S26  1  0.23414700  0.93068800  0.17294100  1
  S  S27  1  0.06931200  0.23414700  0.67294100  1
  S  S28  1  0.73414700  0.56931200  0.82705900  1
  S  S29  1  0.43068800  0.73414700  0.32705900  1
  S  S30  1  0.23414700  0.93068800  0.82705900  1
  S  S31  1  0.06931200  0.23414700  0.32705900  1
  S  S32  1  0.36671200  0.41666700  0.50000000  1
  S  S33  1  0.58333300  0.36671200  0.00000000  1
  S  S34  1  0.86671200  0.08333300  0.50000000  1
  S  S35  1  0.91666700  0.86671200  0.00000000  1
  S  S36  1  0.63328800  0.58333300  0.50000000  1
  S  S37  1  0.41666700  0.63328800  0.00000000  1
  S  S38  1  0.13328800  0.91666700  0.50000000  1
  S  S39  1  0.08333300  0.13328800  0.00000000  1
  S  S40  1  0.36579700  0.11019400  0.50000000  1
  S  S41  1  0.88980600  0.36579700  0.00000000  1
  S  S42  1  0.86579700  0.38980600  0.50000000  1
  S  S43  1  0.61019400  0.86579700  0.00000000  1
  S  S44  1  0.63420300  0.88980600  0.50000000  1
  S  S45  1  0.11019400  0.63420300  0.00000000  1
  S  S46  1  0.13420300  0.61019400  0.50000000  1
  S  S47  1  0.38980600  0.13420300  0.00000000  1
