# generated using pymatgen
data_KYb2Cd2Sb3
_symmetry_space_group_name_H-M   'P 1'
_cell_length_a   4.84595300
_cell_length_b   12.41750700
_cell_length_c   15.99037900
_cell_angle_alpha   90.00000000
_cell_angle_beta   90.00000000
_cell_angle_gamma   90.00000000
_symmetry_Int_Tables_number   1
_chemical_formula_structural   KYb2Cd2Sb3
_chemical_formula_sum   'K4 Yb8 Cd8 Sb12'
_cell_volume   962.21554443
_cell_formula_units_Z   4
loop_
 _symmetry_equiv_pos_site_id
 _symmetry_equiv_pos_as_xyz
  1  'x, y, z'
loop_
 _atom_site_type_symbol
 _atom_site_label
 _atom_site_symmetry_multiplicity
 _atom_site_fract_x
 _atom_site_fract_y
 _atom_site_fract_z
 _atom_site_occupancy
  K  K0  1  0.25000000  0.40982200  0.46274700  1
  K  K1  1  0.25000000  0.90982200  0.03725300  1
  K  K2  1  0.75000000  0.59017800  0.53725300  1
  K  K3  1  0.75000000  0.09017800  0.96274700  1
  Yb  Yb4  1  0.25000000  0.10021800  0.57913100  1
  Yb  Yb5  1  0.25000000  0.60021800  0.92086900  1
  Yb  Yb6  1  0.75000000  0.89978200  0.42086900  1
  Yb  Yb7  1  0.75000000  0.39978200  0.07913100  1
  Yb  Yb8  1  0.25000000  0.35464000  0.72570500  1
  Yb  Yb9  1  0.25000000  0.85464000  0.77429500  1
  Yb  Yb10  1  0.75000000  0.64536000  0.27429500  1
  Yb  Yb11  1  0.75000000  0.14536000  0.22570500  1
  Cd  Cd12  1  0.25000000  0.30062300  0.92890900  1
  Cd  Cd13  1  0.25000000  0.80062300  0.57109100  1
  Cd  Cd14  1  0.75000000  0.69937700  0.07109100  1
  Cd  Cd15  1  0.75000000  0.19937700  0.42890900  1
  Cd  Cd16  1  0.25000000  0.37833300  0.22222200  1
  Cd  Cd17  1  0.25000000  0.87833300  0.27777800  1
  Cd  Cd18  1  0.75000000  0.62166700  0.77777800  1
  Cd  Cd19  1  0.75000000  0.12166700  0.72222200  1
  Sb  Sb20  1  0.25000000  0.08196000  0.37661200  1
  Sb  Sb21  1  0.25000000  0.58196000  0.12338800  1
  Sb  Sb22  1  0.75000000  0.91804000  0.62338800  1
  Sb  Sb23  1  0.75000000  0.41804000  0.87661200  1
  Sb  Sb24  1  0.25000000  0.10899100  0.81289200  1
  Sb  Sb25  1  0.25000000  0.60899100  0.68710800  1
  Sb  Sb26  1  0.75000000  0.89100900  0.18710800  1
  Sb  Sb27  1  0.75000000  0.39100900  0.31289200  1
  Sb  Sb28  1  0.25000000  0.71107600  0.40410900  1
  Sb  Sb29  1  0.25000000  0.21107600  0.09589100  1
  Sb  Sb30  1  0.75000000  0.28892400  0.59589100  1
  Sb  Sb31  1  0.75000000  0.78892400  0.90410900  1
