# generated using pymatgen
data_ErSiPd
_symmetry_space_group_name_H-M   'P 1'
_cell_length_a   4.31588700
_cell_length_b   7.44681300
_cell_length_c   13.85322200
_cell_angle_alpha   90.00000000
_cell_angle_beta   90.00000000
_cell_angle_gamma   90.00000000
_symmetry_Int_Tables_number   1
_chemical_formula_structural   ErSiPd
_chemical_formula_sum   'Er8 Si8 Pd8'
_cell_volume   445.23706114
_cell_formula_units_Z   8
loop_
 _symmetry_equiv_pos_site_id
 _symmetry_equiv_pos_as_xyz
  1  'x, y, z'
loop_
 _atom_site_type_symbol
 _atom_site_label
 _atom_site_symmetry_multiplicity
 _atom_site_fract_x
 _atom_site_fract_y
 _atom_site_fract_z
 _atom_site_occupancy
  Er  Er0  1  0.00000000  0.30024600  0.00000000  1
  Er  Er1  1  0.50000000  0.69975400  0.50000000  1
  Er  Er2  1  0.00000000  0.29306800  0.50000000  1
  Er  Er3  1  0.50000000  0.70693200  0.00000000  1
  Er  Er4  1  0.00000000  0.20954900  0.24870600  1
  Er  Er5  1  0.50000000  0.79045100  0.25129400  1
  Er  Er6  1  0.00000000  0.20954900  0.75129400  1
  Er  Er7  1  0.50000000  0.79045100  0.74870600  1
  Si  Si8  1  0.00000000  0.90842600  0.59289400  1
  Si  Si9  1  0.50000000  0.09157400  0.90710600  1
  Si  Si10  1  0.00000000  0.90842600  0.40710600  1
  Si  Si11  1  0.50000000  0.09157400  0.09289400  1
  Si  Si12  1  0.00000000  0.59251900  0.14489600  1
  Si  Si13  1  0.50000000  0.40748100  0.35510400  1
  Si  Si14  1  0.00000000  0.59251900  0.85510400  1
  Si  Si15  1  0.50000000  0.40748100  0.64489600  1
  Pd  Pd16  1  0.50000000  0.07603200  0.60851500  1
  Pd  Pd17  1  0.00000000  0.92396800  0.89148500  1
  Pd  Pd18  1  0.50000000  0.07603200  0.39148500  1
  Pd  Pd19  1  0.00000000  0.92396800  0.10851500  1
  Pd  Pd20  1  0.50000000  0.41821100  0.15656600  1
  Pd  Pd21  1  0.00000000  0.58178900  0.34343400  1
  Pd  Pd22  1  0.50000000  0.41821100  0.84343400  1
  Pd  Pd23  1  0.00000000  0.58178900  0.65656600  1
