# generated using pymatgen
data_NaAs
_symmetry_space_group_name_H-M   'P 1'
_cell_length_a   5.96036200
_cell_length_b   6.30272300
_cell_length_c   11.67028544
_cell_angle_alpha   63.17597517
_cell_angle_beta   90.00000000
_cell_angle_gamma   90.00000000
_symmetry_Int_Tables_number   1
_chemical_formula_structural   NaAs
_chemical_formula_sum   'Na8 As8'
_cell_volume   391.23732692
_cell_formula_units_Z   8
loop_
 _symmetry_equiv_pos_site_id
 _symmetry_equiv_pos_as_xyz
  1  'x, y, z'
loop_
 _atom_site_type_symbol
 _atom_site_label
 _atom_site_symmetry_multiplicity
 _atom_site_fract_x
 _atom_site_fract_y
 _atom_site_fract_z
 _atom_site_occupancy
  Na  Na0  1  0.39043300  0.78109600  0.32999100  1
  Na  Na1  1  0.89043300  0.21890400  0.17000900  1
  Na  Na2  1  0.60956700  0.21890400  0.67000900  1
  Na  Na3  1  0.10956700  0.78109600  0.82999100  1
  Na  Na4  1  0.66337400  0.76524900  0.03240500  1
  Na  Na5  1  0.16337400  0.23475100  0.46759500  1
  Na  Na6  1  0.33662600  0.23475100  0.96759500  1
  Na  Na7  1  0.83662600  0.76524900  0.53240500  1
  As  As8  1  0.89399800  0.67963400  0.28928800  1
  As  As9  1  0.39399800  0.32036600  0.21071200  1
  As  As10  1  0.10600200  0.32036600  0.71071200  1
  As  As11  1  0.60600200  0.67963400  0.78928800  1
  As  As12  1  0.16085200  0.68703200  0.11934900  1
  As  As13  1  0.66085200  0.31296800  0.38065100  1
  As  As14  1  0.83914800  0.31296800  0.88065100  1
  As  As15  1  0.33914800  0.68703200  0.61934900  1
