# generated using pymatgen
data_Cs2MgSn3Se8
_symmetry_space_group_name_H-M   'P 1'
_cell_length_a   8.20284300
_cell_length_b   13.77870400
_cell_length_c   18.85809400
_cell_angle_alpha   90.00000000
_cell_angle_beta   90.00000000
_cell_angle_gamma   90.00000000
_symmetry_Int_Tables_number   1
_chemical_formula_structural   Cs2MgSn3Se8
_chemical_formula_sum   'Cs8 Mg4 Sn12 Se32'
_cell_volume   2131.42750628
_cell_formula_units_Z   4
loop_
 _symmetry_equiv_pos_site_id
 _symmetry_equiv_pos_as_xyz
  1  'x, y, z'
loop_
 _atom_site_type_symbol
 _atom_site_label
 _atom_site_symmetry_multiplicity
 _atom_site_fract_x
 _atom_site_fract_y
 _atom_site_fract_z
 _atom_site_occupancy
  Cs  Cs0  1  0.75103900  0.63331900  0.05336500  1
  Cs  Cs1  1  0.74896100  0.36668100  0.55336500  1
  Cs  Cs2  1  0.25103900  0.86668100  0.94663500  1
  Cs  Cs3  1  0.24896100  0.13331900  0.44663500  1
  Cs  Cs4  1  0.24438600  0.80989900  0.34295300  1
  Cs  Cs5  1  0.25561400  0.19010100  0.84295300  1
  Cs  Cs6  1  0.74438600  0.69010100  0.65704700  1
  Cs  Cs7  1  0.75561400  0.30989900  0.15704700  1
  Mg  Mg8  1  0.98573400  0.50174900  0.34738700  1
  Mg  Mg9  1  0.51426600  0.49825100  0.84738700  1
  Mg  Mg10  1  0.48573400  0.99825100  0.65261300  1
  Mg  Mg11  1  0.01426600  0.00174900  0.15261300  1
  Sn  Sn12  1  0.76365200  0.04690700  0.32006200  1
  Sn  Sn13  1  0.73634800  0.95309300  0.82006200  1
  Sn  Sn14  1  0.26365200  0.45309300  0.67993800  1
  Sn  Sn15  1  0.23634800  0.54690700  0.17993800  1
  Sn  Sn16  1  0.73195300  0.93728200  0.48469400  1
  Sn  Sn17  1  0.76804700  0.06271800  0.98469400  1
  Sn  Sn18  1  0.23195300  0.56271800  0.51530600  1
  Sn  Sn19  1  0.26804700  0.43728200  0.01530600  1
  Sn  Sn20  1  0.51137100  0.98276800  0.15189200  1
  Sn  Sn21  1  0.98862900  0.01723200  0.65189200  1
  Sn  Sn22  1  0.01137100  0.51723200  0.84810800  1
  Sn  Sn23  1  0.48862900  0.48276800  0.34810800  1
  Se  Se24  1  0.98077400  0.61114300  0.23482500  1
  Se  Se25  1  0.51922600  0.38885700  0.73482500  1
  Se  Se26  1  0.48077400  0.88885700  0.76517500  1
  Se  Se27  1  0.01922600  0.11114300  0.26517500  1
  Se  Se28  1  0.97522800  0.61819200  0.45626400  1
  Se  Se29  1  0.52477200  0.38180800  0.95626400  1
  Se  Se30  1  0.47522800  0.88180800  0.54373600  1
  Se  Se31  1  0.02477200  0.11819200  0.04373600  1
  Se  Se32  1  0.76822700  0.88197300  0.15592400  1
  Se  Se33  1  0.73177300  0.11802700  0.65592400  1
  Se  Se34  1  0.26822700  0.61802700  0.84407600  1
  Se  Se35  1  0.23177300  0.38197300  0.34407600  1
  Se  Se36  1  0.75895500  0.62091600  0.85166400  1
  Se  Se37  1  0.74104500  0.37908400  0.35166400  1
  Se  Se38  1  0.25895500  0.87908400  0.14833600  1
  Se  Se39  1  0.24104500  0.12091600  0.64833600  1
  Se  Se40  1  0.75697300  0.86608200  0.35731600  1
  Se  Se41  1  0.74302700  0.13391800  0.85731600  1
  Se  Se42  1  0.25697300  0.63391800  0.64268400  1
  Se  Se43  1  0.24302700  0.36608200  0.14268400  1
  Se  Se44  1  0.73767900  0.11861300  0.44830600  1
  Se  Se45  1  0.76232100  0.88138700  0.94830600  1
  Se  Se46  1  0.23767900  0.38138700  0.55169400  1
  Se  Se47  1  0.26232100  0.61861300  0.05169400  1
  Se  Se48  1  0.50407800  0.60053700  0.23951200  1
  Se  Se49  1  0.99592200  0.39946300  0.73951200  1
  Se  Se50  1  0.00407800  0.89946300  0.76048800  1
  Se  Se51  1  0.49592200  0.10053700  0.26048800  1
  Se  Se52  1  0.50018000  0.60869800  0.45197400  1
  Se  Se53  1  0.99982000  0.39130200  0.95197400  1
  Se  Se54  1  0.00018000  0.89130200  0.54802600  1
  Se  Se55  1  0.49982000  0.10869800  0.04802600  1
