# generated using pymatgen
data_Eu5(ZrS4)3
_symmetry_space_group_name_H-M   'P 1'
_cell_length_a   11.72810177
_cell_length_b   11.72810177
_cell_length_c   3.91315500
_cell_angle_alpha   90.00000000
_cell_angle_beta   90.00000000
_cell_angle_gamma   119.99999868
_symmetry_Int_Tables_number   1
_chemical_formula_structural   Eu5(ZrS4)3
_chemical_formula_sum   'Eu5 Zr3 S12'
_cell_volume   466.13653075
_cell_formula_units_Z   1
loop_
 _symmetry_equiv_pos_site_id
 _symmetry_equiv_pos_as_xyz
  1  'x, y, z'
loop_
 _atom_site_type_symbol
 _atom_site_label
 _atom_site_symmetry_multiplicity
 _atom_site_fract_x
 _atom_site_fract_y
 _atom_site_fract_z
 _atom_site_occupancy
  Eu  Eu0  1  0.28359900  0.28359900  0.00000000  1
  Eu  Eu1  1  0.71640100  0.00000000  0.00000000  1
  Eu  Eu2  1  0.00000000  0.71640100  0.00000000  1
  Eu  Eu3  1  0.66666700  0.33333300  0.00000000  1
  Eu  Eu4  1  0.33333300  0.66666700  0.00000000  1
  Zr  Zr5  1  0.67352600  0.67352600  0.50000000  1
  Zr  Zr6  1  0.32647400  0.00000000  0.50000000  1
  Zr  Zr7  1  0.00000000  0.32647400  0.50000000  1
  S  S8  1  0.74790000  0.19486700  0.50000000  1
  S  S9  1  0.80513300  0.55303300  0.50000000  1
  S  S10  1  0.44696700  0.25210000  0.50000000  1
  S  S11  1  0.19486700  0.74790000  0.50000000  1
  S  S12  1  0.55303300  0.80513300  0.50000000  1
  S  S13  1  0.25210000  0.44696700  0.50000000  1
  S  S14  1  0.82223500  0.82223500  0.00000000  1
  S  S15  1  0.17776500  0.00000000  0.00000000  1
  S  S16  1  0.00000000  0.17776500  0.00000000  1
  S  S17  1  0.53123200  0.53123200  0.00000000  1
  S  S18  1  0.46876800  0.00000000  0.00000000  1
  S  S19  1  0.00000000  0.46876800  0.00000000  1
