# generated using pymatgen
data_AlPS4
_symmetry_space_group_name_H-M   'P 1'
_cell_length_a   6.60998586
_cell_length_b   6.60998586
_cell_length_c   6.60998586
_cell_angle_alpha   128.88390791
_cell_angle_beta   123.67801816
_cell_angle_gamma   79.49801102
_symmetry_Int_Tables_number   1
_chemical_formula_structural   AlPS4
_chemical_formula_sum   'Al1 P1 S4'
_cell_volume   180.84521315
_cell_formula_units_Z   1
loop_
 _symmetry_equiv_pos_site_id
 _symmetry_equiv_pos_as_xyz
  1  'x, y, z'
loop_
 _atom_site_type_symbol
 _atom_site_label
 _atom_site_symmetry_multiplicity
 _atom_site_fract_x
 _atom_site_fract_y
 _atom_site_fract_z
 _atom_site_occupancy
  Al  Al0  1  0.00000000  0.50000000  0.50000000  1
  P  P1  1  0.00000000  0.00000000  0.00000000  1
  S  S2  1  0.07267600  0.66397900  0.96246500  1
  S  S3  1  0.70151400  0.11021100  0.03753500  1
  S  S4  1  0.92732400  0.88978900  0.59130300  1
  S  S5  1  0.29848600  0.33602100  0.40869700  1
