# generated using pymatgen
data_Ba16Re6O37
_symmetry_space_group_name_H-M   'P 1'
_cell_length_a   10.97212517
_cell_length_b   10.97212517
_cell_length_c   15.83502220
_cell_angle_alpha   87.59165092
_cell_angle_beta   87.59165092
_cell_angle_gamma   31.55844282
_symmetry_Int_Tables_number   1
_chemical_formula_structural   Ba16Re6O37
_chemical_formula_sum   'Ba16 Re6 O37'
_cell_volume   996.76528065
_cell_formula_units_Z   1
loop_
 _symmetry_equiv_pos_site_id
 _symmetry_equiv_pos_as_xyz
  1  'x, y, z'
loop_
 _atom_site_type_symbol
 _atom_site_label
 _atom_site_symmetry_multiplicity
 _atom_site_fract_x
 _atom_site_fract_y
 _atom_site_fract_z
 _atom_site_occupancy
  Ba  Ba0  1  0.54855000  0.54855000  0.85782200  1
  Ba  Ba1  1  0.45145000  0.45145000  0.14217800  1
  Ba  Ba2  1  0.18129900  0.18129900  0.95491200  1
  Ba  Ba3  1  0.81870100  0.81870100  0.04508800  1
  Ba  Ba4  1  0.42034500  0.42034500  0.64829900  1
  Ba  Ba5  1  0.57965500  0.57965500  0.35170100  1
  Ba  Ba6  1  0.91278300  0.91278300  0.79882400  1
  Ba  Ba7  1  0.08721700  0.08721700  0.20117600  1
  Ba  Ba8  1  0.60699200  0.60699200  0.60296700  1
  Ba  Ba9  1  0.39300800  0.39300800  0.39703300  1
  Ba  Ba10  1  0.73578600  0.73578600  0.79947600  1
  Ba  Ba11  1  0.26421400  0.26421400  0.20052400  1
  Ba  Ba12  1  0.23609100  0.23609100  0.60072100  1
  Ba  Ba13  1  0.76390900  0.76390900  0.39927900  1
  Ba  Ba14  1  0.00000000  0.00000000  0.00000000  1
  Ba  Ba15  1  0.00000000  0.00000000  0.50000000  1
  Re  Re16  1  0.35801700  0.35801700  0.92956100  1
  Re  Re17  1  0.64198300  0.64198300  0.07043900  1
  Re  Re18  1  0.08081400  0.08081400  0.73472400  1
  Re  Re19  1  0.91918600  0.91918600  0.26527600  1
  Re  Re20  1  0.82712500  0.82712500  0.60908600  1
  Re  Re21  1  0.17287500  0.17287500  0.39091400  1
  O  O22  1  0.33612900  0.33612900  0.05049400  1
  O  O23  1  0.66387100  0.66387100  0.94950600  1
  O  O24  1  0.91592600  0.91592600  0.62578200  1
  O  O25  1  0.08407400  0.08407400  0.37421800  1
  O  O26  1  0.73714700  0.73714700  0.60598400  1
  O  O27  1  0.26285300  0.26285300  0.39401600  1
  O  O28  1  0.39754800  0.39754800  0.82253700  1
  O  O29  1  0.60245200  0.60245200  0.17746300  1
  O  O30  1  0.07316200  0.52026800  0.90934500  1
  O  O31  1  0.52026800  0.07316200  0.90934500  1
  O  O32  1  0.92683800  0.47973200  0.09065500  1
  O  O33  1  0.47973200  0.92683800  0.09065500  1
  O  O34  1  0.06682400  0.60327800  0.52849100  1
  O  O35  1  0.60327800  0.06682400  0.52849100  1
  O  O36  1  0.93317600  0.39672200  0.47150900  1
  O  O37  1  0.39672200  0.93317600  0.47150900  1
  O  O38  1  0.78560700  0.25170500  0.72426600  1
  O  O39  1  0.25170500  0.78560700  0.72426600  1
  O  O40  1  0.21439300  0.74829500  0.27573400  1
  O  O41  1  0.74829500  0.21439300  0.27573400  1
  O  O42  1  0.05842700  0.05842700  0.85483600  1
  O  O43  1  0.94157300  0.94157300  0.14516400  1
  O  O44  1  0.09701600  0.09701600  0.61763200  1
  O  O45  1  0.90298400  0.90298400  0.38236800  1
  O  O46  1  0.91768700  0.36726800  0.75280500  1
  O  O47  1  0.36726800  0.91768700  0.75280500  1
  O  O48  1  0.08231300  0.63273200  0.24719500  1
  O  O49  1  0.63273200  0.08231300  0.24719500  1
  O  O50  1  0.18448200  0.64871100  0.95695900  1
  O  O51  1  0.64871100  0.18448200  0.95695900  1
  O  O52  1  0.81551800  0.35128900  0.04304100  1
  O  O53  1  0.35128900  0.81551800  0.04304100  1
  O  O54  1  0.50000000  0.50000000  0.50000000  1
  O  O55  1  0.04375600  0.59593100  0.69736000  1
  O  O56  1  0.59593100  0.04375600  0.69736000  1
  O  O57  1  0.95624400  0.40406900  0.30264000  1
  O  O58  1  0.40406900  0.95624400  0.30264000  1
