# generated using pymatgen
data_Cs9(NbAs3)2
_symmetry_space_group_name_H-M   'P 1'
_cell_length_a   17.30174855
_cell_length_b   17.94430583
_cell_length_c   18.47040846
_cell_angle_alpha   90.00000000
_cell_angle_beta   90.00000000
_cell_angle_gamma   90.00000000
_symmetry_Int_Tables_number   1
_chemical_formula_structural   Cs9(NbAs3)2
_chemical_formula_sum   'Cs72 Nb16 As48'
_cell_volume   5734.46832412
_cell_formula_units_Z   8
loop_
 _symmetry_equiv_pos_site_id
 _symmetry_equiv_pos_as_xyz
  1  'x, y, z'
loop_
 _atom_site_type_symbol
 _atom_site_label
 _atom_site_symmetry_multiplicity
 _atom_site_fract_x
 _atom_site_fract_y
 _atom_site_fract_z
 _atom_site_occupancy
  Cs  Cs0  1  0.78097914  0.50139077  0.87137687  1
  Cs  Cs1  1  0.71902086  0.00139077  0.12862313  1
  Cs  Cs2  1  0.28097914  0.49860923  0.62862313  1
  Cs  Cs3  1  0.21902086  0.99860923  0.37137687  1
  Cs  Cs4  1  0.21902086  0.49860923  0.12862313  1
  Cs  Cs5  1  0.28097914  0.99860923  0.87137687  1
  Cs  Cs6  1  0.71902086  0.50139077  0.37137687  1
  Cs  Cs7  1  0.78097914  0.00139077  0.62862313  1
  Cs  Cs8  1  0.76353808  0.73011697  0.86222939  1
  Cs  Cs9  1  0.73646192  0.23011697  0.13777061  1
  Cs  Cs10  1  0.26353808  0.26988303  0.63777061  1
  Cs  Cs11  1  0.23646192  0.76988303  0.36222939  1
  Cs  Cs12  1  0.23646192  0.26988303  0.13777061  1
  Cs  Cs13  1  0.26353808  0.76988303  0.86222939  1
  Cs  Cs14  1  0.73646192  0.73011697  0.36222939  1
  Cs  Cs15  1  0.76353808  0.23011697  0.63777061  1
  Cs  Cs16  1  0.76722890  0.27689718  0.88190210  1
  Cs  Cs17  1  0.73277110  0.77689718  0.11809790  1
  Cs  Cs18  1  0.26722890  0.72310282  0.61809790  1
  Cs  Cs19  1  0.23277110  0.22310282  0.38190210  1
  Cs  Cs20  1  0.23277110  0.72310282  0.11809790  1
  Cs  Cs21  1  0.26722890  0.22310282  0.88190210  1
  Cs  Cs22  1  0.73277110  0.27689718  0.38190210  1
  Cs  Cs23  1  0.76722890  0.77689718  0.61809790  1
  Cs  Cs24  1  0.54003212  0.70740828  0.66790614  1
  Cs  Cs25  1  0.95996788  0.20740828  0.33209386  1
  Cs  Cs26  1  0.04003212  0.29259172  0.83209386  1
  Cs  Cs27  1  0.45996788  0.79259172  0.16790614  1
  Cs  Cs28  1  0.45996788  0.29259172  0.33209386  1
  Cs  Cs29  1  0.04003212  0.79259172  0.66790614  1
  Cs  Cs30  1  0.95996788  0.70740828  0.16790614  1
  Cs  Cs31  1  0.54003212  0.20740828  0.83209386  1
  Cs  Cs32  1  0.56695895  0.55347800  0.83148293  1
  Cs  Cs33  1  0.93304105  0.05347800  0.16851707  1
  Cs  Cs34  1  0.06695895  0.44652200  0.66851707  1
  Cs  Cs35  1  0.43304105  0.94652200  0.33148293  1
  Cs  Cs36  1  0.43304105  0.44652200  0.16851707  1
  Cs  Cs37  1  0.06695895  0.94652200  0.83148293  1
  Cs  Cs38  1  0.93304105  0.55347800  0.33148293  1
  Cs  Cs39  1  0.56695895  0.05347800  0.66851707  1
  Cs  Cs40  1  0.55252411  0.78151880  0.91736499  1
  Cs  Cs41  1  0.94747589  0.28151880  0.08263501  1
  Cs  Cs42  1  0.05252411  0.21848120  0.58263501  1
  Cs  Cs43  1  0.44747589  0.71848120  0.41736499  1
  Cs  Cs44  1  0.44747589  0.21848120  0.08263501  1
  Cs  Cs45  1  0.05252411  0.71848120  0.91736499  1
  Cs  Cs46  1  0.94747589  0.78151880  0.41736499  1
  Cs  Cs47  1  0.55252411  0.28151880  0.58263501  1
  Cs  Cs48  1  0.01344871  0.50301669  0.89090785  1
  Cs  Cs49  1  0.48655129  0.00301669  0.10909215  1
  Cs  Cs50  1  0.51344871  0.49698331  0.60909215  1
  Cs  Cs51  1  0.98655129  0.99698331  0.39090785  1
  Cs  Cs52  1  0.98655129  0.49698331  0.10909215  1
  Cs  Cs53  1  0.51344871  0.99698331  0.89090785  1
  Cs  Cs54  1  0.48655129  0.50301669  0.39090785  1
  Cs  Cs55  1  0.01344871  0.00301669  0.60909215  1
  Cs  Cs56  1  0.59538755  0.39855458  0.01591320  1
  Cs  Cs57  1  0.90461245  0.89855458  0.98408680  1
  Cs  Cs58  1  0.09538755  0.60144542  0.48408680  1
  Cs  Cs59  1  0.40461245  0.10144542  0.51591320  1
  Cs  Cs60  1  0.40461245  0.60144542  0.98408680  1
  Cs  Cs61  1  0.09538755  0.10144542  0.01591320  1
  Cs  Cs62  1  0.90461245  0.39855458  0.51591320  1
  Cs  Cs63  1  0.59538755  0.89855458  0.48408680  1
  Cs  Cs64  1  0.91286152  0.59951594  0.69864843  1
  Cs  Cs65  1  0.58713848  0.09951594  0.30135157  1
  Cs  Cs66  1  0.41286152  0.40048406  0.80135157  1
  Cs  Cs67  1  0.08713848  0.90048406  0.19864843  1
  Cs  Cs68  1  0.08713848  0.40048406  0.30135157  1
  Cs  Cs69  1  0.41286152  0.90048406  0.69864843  1
  Cs  Cs70  1  0.58713848  0.59951594  0.19864843  1
  Cs  Cs71  1  0.91286152  0.09951594  0.80135157  1
  Nb  Nb72  1  0.73171345  0.43859942  0.68443184  1
  Nb  Nb73  1  0.76828655  0.93859942  0.31556816  1
  Nb  Nb74  1  0.23171345  0.56140058  0.81556816  1
  Nb  Nb75  1  0.26828655  0.06140058  0.18443184  1
  Nb  Nb76  1  0.26828655  0.56140058  0.31556816  1
  Nb  Nb77  1  0.23171345  0.06140058  0.68443184  1
  Nb  Nb78  1  0.76828655  0.43859942  0.18443184  1
  Nb  Nb79  1  0.73171345  0.93859942  0.81556816  1
  Nb  Nb80  1  0.77429401  0.56872398  0.05777128  1
  Nb  Nb81  1  0.72570599  0.06872398  0.94222872  1
  Nb  Nb82  1  0.27429401  0.43127602  0.44222872  1
  Nb  Nb83  1  0.22570599  0.93127602  0.55777128  1
  Nb  Nb84  1  0.22570599  0.43127602  0.94222872  1
  Nb  Nb85  1  0.27429401  0.93127602  0.05777128  1
  Nb  Nb86  1  0.72570599  0.56872398  0.55777128  1
  Nb  Nb87  1  0.77429401  0.06872398  0.44222872  1
  As  As88  1  0.62650300  0.37590746  0.75496987  1
  As  As89  1  0.87349700  0.87590746  0.24503013  1
  As  As90  1  0.12650300  0.62409254  0.74503013  1
  As  As91  1  0.37349700  0.12409254  0.25496987  1
  As  As92  1  0.37349700  0.62409254  0.24503013  1
  As  As93  1  0.12650300  0.12409254  0.75496987  1
  As  As94  1  0.87349700  0.37590746  0.25496987  1
  As  As95  1  0.62650300  0.87590746  0.74503013  1
  As  As96  1  0.86651661  0.39510601  0.71970882  1
  As  As97  1  0.63348339  0.89510601  0.28029118  1
  As  As98  1  0.36651661  0.60489399  0.78029118  1
  As  As99  1  0.13348339  0.10489399  0.21970882  1
  As  As100  1  0.13348339  0.60489399  0.28029118  1
  As  As101  1  0.36651661  0.10489399  0.71970882  1
  As  As102  1  0.63348339  0.39510601  0.21970882  1
  As  As103  1  0.86651661  0.89510601  0.78029118  1
  As  As104  1  0.88254168  0.63970496  0.99956607  1
  As  As105  1  0.61745832  0.13970496  0.00043393  1
  As  As106  1  0.38254168  0.36029504  0.50043393  1
  As  As107  1  0.11745832  0.86029504  0.49956607  1
  As  As108  1  0.11745832  0.36029504  0.00043393  1
  As  As109  1  0.38254168  0.86029504  0.99956607  1
  As  As110  1  0.61745832  0.63970496  0.49956607  1
  As  As111  1  0.88254168  0.13970496  0.50043393  1
  As  As112  1  0.64384284  0.60876026  0.01029818  1
  As  As113  1  0.85615716  0.10876026  0.98970182  1
  As  As114  1  0.14384284  0.39123974  0.48970182  1
  As  As115  1  0.35615716  0.89123974  0.51029818  1
  As  As116  1  0.35615716  0.39123974  0.98970182  1
  As  As117  1  0.14384284  0.89123974  0.01029818  1
  As  As118  1  0.85615716  0.60876026  0.51029818  1
  As  As119  1  0.64384284  0.10876026  0.48970182  1
  As  As120  1  0.71077755  0.58172650  0.69560937  1
  As  As121  1  0.78922245  0.08172650  0.30439063  1
  As  As122  1  0.21077755  0.41827350  0.80439063  1
  As  As123  1  0.28922245  0.91827350  0.19560937  1
  As  As124  1  0.28922245  0.41827350  0.30439063  1
  As  As125  1  0.21077755  0.91827350  0.69560937  1
  As  As126  1  0.78922245  0.58172650  0.19560937  1
  As  As127  1  0.71077755  0.08172650  0.80439063  1
  As  As128  1  0.79636782  0.42491539  0.04883823  1
  As  As129  1  0.70363218  0.92491539  0.95116177  1
  As  As130  1  0.29636782  0.57508461  0.45116177  1
  As  As131  1  0.20363218  0.07508461  0.54883823  1
  As  As132  1  0.20363218  0.57508461  0.95116177  1
  As  As133  1  0.29636782  0.07508461  0.04883823  1
  As  As134  1  0.70363218  0.42491539  0.54883823  1
  As  As135  1  0.79636782  0.92491539  0.45116177  1
