# generated using pymatgen
data_Pr2AlSi
_symmetry_space_group_name_H-M   'P 1'
_cell_length_a   6.14705290
_cell_length_b   6.14705290
_cell_length_c   4.10445100
_cell_angle_alpha   90.00000000
_cell_angle_beta   90.00000000
_cell_angle_gamma   136.99928731
_symmetry_Int_Tables_number   1
_chemical_formula_structural   Pr2AlSi
_chemical_formula_sum   'Pr2 Al1 Si1'
_cell_volume   105.77379832
_cell_formula_units_Z   1
loop_
 _symmetry_equiv_pos_site_id
 _symmetry_equiv_pos_as_xyz
  1  'x, y, z'
loop_
 _atom_site_type_symbol
 _atom_site_label
 _atom_site_symmetry_multiplicity
 _atom_site_fract_x
 _atom_site_fract_y
 _atom_site_fract_z
 _atom_site_occupancy
  Pr  Pr0  1  0.35894200  0.64105800  0.00000000  1
  Pr  Pr1  1  0.64394900  0.35605100  0.50000000  1
  Al  Al2  1  0.06630600  0.93369400  0.00000000  1
  Si  Si3  1  0.93080300  0.06919700  0.50000000  1
