# generated using pymatgen
data_NaP7
_symmetry_space_group_name_H-M   'P 1'
_cell_length_a   12.61813474
_cell_length_b   12.61813474
_cell_length_c   12.61813474
_cell_angle_alpha   110.28583415
_cell_angle_beta   110.28583415
_cell_angle_gamma   107.85399740
_symmetry_Int_Tables_number   1
_chemical_formula_structural   NaP7
_chemical_formula_sum   'Na8 P56'
_cell_volume   1545.62777157
_cell_formula_units_Z   8
loop_
 _symmetry_equiv_pos_site_id
 _symmetry_equiv_pos_as_xyz
  1  'x, y, z'
loop_
 _atom_site_type_symbol
 _atom_site_label
 _atom_site_symmetry_multiplicity
 _atom_site_fract_x
 _atom_site_fract_y
 _atom_site_fract_z
 _atom_site_occupancy
  Na  Na0  1  0.13720100  0.36279900  0.00000000  1
  Na  Na1  1  0.63720100  0.63720100  0.77440200  1
  Na  Na2  1  0.38720100  0.11279900  0.50000000  1
  Na  Na3  1  0.88720100  0.38720100  0.27440200  1
  Na  Na4  1  0.36279900  0.13720100  0.00000000  1
  Na  Na5  1  0.86279900  0.86279900  0.22559800  1
  Na  Na6  1  0.61279900  0.88720100  0.50000000  1
  Na  Na7  1  0.11279900  0.61279900  0.72559800  1
  P  P8  1  0.12500000  0.40096900  0.77596900  1
  P  P9  1  0.62500000  0.84903100  0.72403100  1
  P  P10  1  0.12500000  0.90096900  0.27596900  1
  P  P11  1  0.62500000  0.34903100  0.22403100  1
  P  P12  1  0.59903100  0.37500000  0.72403100  1
  P  P13  1  0.15096900  0.87500000  0.77596900  1
  P  P14  1  0.09903100  0.37500000  0.22403100  1
  P  P15  1  0.65096900  0.87500000  0.27596900  1
  P  P16  1  0.96451700  0.20489700  0.62361500  1
  P  P17  1  0.46451700  0.84090200  0.75962000  1
  P  P18  1  0.16871800  0.90909800  0.12361500  1
  P  P19  1  0.66871800  0.54510300  0.25962000  1
  P  P20  1  0.58128200  0.34090200  0.37638500  1
  P  P21  1  0.08128200  0.70489700  0.24038000  1
  P  P22  1  0.78548300  0.04510300  0.87638500  1
  P  P23  1  0.28548300  0.40909800  0.74038000  1
  P  P24  1  0.79510300  0.41871800  0.75962000  1
  P  P25  1  0.15909800  0.91871800  0.62361500  1
  P  P26  1  0.09090200  0.21451700  0.25962000  1
  P  P27  1  0.45489700  0.71451700  0.12361500  1
  P  P28  1  0.65909800  0.03548300  0.24038000  1
  P  P29  1  0.29510300  0.53548300  0.37638500  1
  P  P30  1  0.95489700  0.83128200  0.74038000  1
  P  P31  1  0.59090200  0.33128200  0.87638500  1
  P  P32  1  0.03832000  0.27770900  0.41259100  1
  P  P33  1  0.53832000  0.12572900  0.76061100  1
  P  P34  1  0.88488200  0.62427100  0.91259100  1
  P  P35  1  0.38488200  0.47229100  0.26061100  1
  P  P36  1  0.86511800  0.62572900  0.58740900  1
  P  P37  1  0.36511800  0.77770900  0.23938900  1
  P  P38  1  0.71168000  0.97229100  0.08740900  1
  P  P39  1  0.21168000  0.12427100  0.73938900  1
  P  P40  1  0.72229100  0.13488200  0.76061100  1
  P  P41  1  0.87427100  0.63488200  0.41259100  1
  P  P42  1  0.37572900  0.28832000  0.26061100  1
  P  P43  1  0.52770900  0.78832000  0.91259100  1
  P  P44  1  0.37427100  0.96168000  0.23938900  1
  P  P45  1  0.22229100  0.46168000  0.58740900  1
  P  P46  1  0.02770900  0.11511800  0.73938900  1
  P  P47  1  0.87572900  0.61511800  0.08740900  1
  P  P48  1  0.02148900  0.13340900  0.47746000  1
  P  P49  1  0.52148900  0.04402900  0.88808000  1
  P  P50  1  0.09405100  0.70597100  0.97746000  1
  P  P51  1  0.59405100  0.61659100  0.38808000  1
  P  P52  1  0.65594900  0.54402900  0.52254000  1
  P  P53  1  0.15594900  0.63340900  0.11192000  1
  P  P54  1  0.72851100  0.11659100  0.02254000  1
  P  P55  1  0.22851100  0.20597100  0.61192000  1
  P  P56  1  0.86659100  0.34405100  0.88808000  1
  P  P57  1  0.95597100  0.84405100  0.47746000  1
  P  P58  1  0.29402900  0.27148900  0.38808000  1
  P  P59  1  0.38340900  0.77148900  0.97746000  1
  P  P60  1  0.45597100  0.97851100  0.11192000  1
  P  P61  1  0.36659100  0.47851100  0.52254000  1
  P  P62  1  0.88340900  0.90594900  0.61192000  1
  P  P63  1  0.79402900  0.40594900  0.02254000  1
