# generated using pymatgen
data_U11(PbO12)3
_symmetry_space_group_name_H-M   'P 1'
_cell_length_a   6.82896900
_cell_length_b   8.47455500
_cell_length_c   28.68048300
_cell_angle_alpha   90.00000000
_cell_angle_beta   90.00000000
_cell_angle_gamma   90.00000000
_symmetry_Int_Tables_number   1
_chemical_formula_structural   U11(PbO12)3
_chemical_formula_sum   'U22 Pb6 O72'
_cell_volume   1659.81048905
_cell_formula_units_Z   2
loop_
 _symmetry_equiv_pos_site_id
 _symmetry_equiv_pos_as_xyz
  1  'x, y, z'
loop_
 _atom_site_type_symbol
 _atom_site_label
 _atom_site_symmetry_multiplicity
 _atom_site_fract_x
 _atom_site_fract_y
 _atom_site_fract_z
 _atom_site_occupancy
  U  U0  1  0.32115400  0.00000000  0.00000000  1
  U  U1  1  0.67884600  0.50000000  0.50000000  1
  U  U2  1  0.24832700  0.00000000  0.86614800  1
  U  U3  1  0.24832700  0.00000000  0.13385200  1
  U  U4  1  0.75167300  0.50000000  0.63385200  1
  U  U5  1  0.75167300  0.50000000  0.36614800  1
  U  U6  1  0.77220200  0.00000000  0.78690800  1
  U  U7  1  0.77220200  0.00000000  0.21309200  1
  U  U8  1  0.22779800  0.50000000  0.71309200  1
  U  U9  1  0.22779800  0.50000000  0.28690800  1
  U  U10  1  0.77946000  0.00000000  0.92811200  1
  U  U11  1  0.77946000  0.00000000  0.07188800  1
  U  U12  1  0.22054000  0.50000000  0.57188800  1
  U  U13  1  0.22054000  0.50000000  0.42811200  1
  U  U14  1  0.22314400  0.00000000  0.57285700  1
  U  U15  1  0.22314400  0.00000000  0.42714300  1
  U  U16  1  0.77685600  0.50000000  0.92714300  1
  U  U17  1  0.77685600  0.50000000  0.07285700  1
  U  U18  1  0.22745500  0.00000000  0.71941500  1
  U  U19  1  0.22745500  0.00000000  0.28058500  1
  U  U20  1  0.77254500  0.50000000  0.78058500  1
  U  U21  1  0.77254500  0.50000000  0.21941500  1
  Pb  Pb22  1  0.76312000  0.00000000  0.50000000  1
  Pb  Pb23  1  0.23688000  0.50000000  0.00000000  1
  Pb  Pb24  1  0.69231400  0.00000000  0.64629700  1
  Pb  Pb25  1  0.69231400  0.00000000  0.35370300  1
  Pb  Pb26  1  0.30768600  0.50000000  0.85370300  1
  Pb  Pb27  1  0.30768600  0.50000000  0.14629700  1
  O  O28  1  0.32222500  0.78150600  0.00000000  1
  O  O29  1  0.32222500  0.21849400  0.00000000  1
  O  O30  1  0.67777500  0.71849400  0.50000000  1
  O  O31  1  0.67777500  0.28150600  0.50000000  1
  O  O32  1  0.24426000  0.78107400  0.86533800  1
  O  O33  1  0.24426000  0.78107400  0.13466200  1
  O  O34  1  0.24426000  0.21892600  0.86533800  1
  O  O35  1  0.24426000  0.21892600  0.13466200  1
  O  O36  1  0.75574000  0.71892600  0.63466200  1
  O  O37  1  0.75574000  0.71892600  0.36533800  1
  O  O38  1  0.75574000  0.28107400  0.63466200  1
  O  O39  1  0.75574000  0.28107400  0.36533800  1
  O  O40  1  0.22234600  0.72757800  0.71729000  1
  O  O41  1  0.22234600  0.72757800  0.28271000  1
  O  O42  1  0.22234600  0.27242200  0.71729000  1
  O  O43  1  0.22234600  0.27242200  0.28271000  1
  O  O44  1  0.77765400  0.77242200  0.78271000  1
  O  O45  1  0.77765400  0.77242200  0.21729000  1
  O  O46  1  0.77765400  0.22757800  0.78271000  1
  O  O47  1  0.77765400  0.22757800  0.21729000  1
  O  O48  1  0.22249000  0.73539500  0.57210400  1
  O  O49  1  0.22249000  0.73539500  0.42789600  1
  O  O50  1  0.22249000  0.26460500  0.57210400  1
  O  O51  1  0.22249000  0.26460500  0.42789600  1
  O  O52  1  0.77751000  0.76460500  0.92789600  1
  O  O53  1  0.77751000  0.76460500  0.07210400  1
  O  O54  1  0.77751000  0.23539500  0.92789600  1
  O  O55  1  0.77751000  0.23539500  0.07210400  1
  O  O56  1  0.08308800  0.00000000  0.94302000  1
  O  O57  1  0.08308800  0.00000000  0.05698000  1
  O  O58  1  0.91691200  0.50000000  0.55698000  1
  O  O59  1  0.91691200  0.50000000  0.44302000  1
  O  O60  1  0.14070000  0.00000000  0.78657800  1
  O  O61  1  0.14070000  0.00000000  0.21342200  1
  O  O62  1  0.85930000  0.50000000  0.71342200  1
  O  O63  1  0.85930000  0.50000000  0.28657800  1
  O  O64  1  0.28378700  0.00000000  0.64996800  1
  O  O65  1  0.28378700  0.00000000  0.35003200  1
  O  O66  1  0.71621300  0.50000000  0.85003200  1
  O  O67  1  0.71621300  0.50000000  0.14996800  1
  O  O68  1  0.15184200  0.00000000  0.50000000  1
  O  O69  1  0.84815800  0.50000000  0.00000000  1
  O  O70  1  0.69009200  0.00000000  0.00000000  1
  O  O71  1  0.30990800  0.50000000  0.50000000  1
  O  O72  1  0.90714500  0.00000000  0.85906000  1
  O  O73  1  0.90714500  0.00000000  0.14094000  1
  O  O74  1  0.09285500  0.50000000  0.64094000  1
  O  O75  1  0.09285500  0.50000000  0.35906000  1
  O  O76  1  0.93752200  0.00000000  0.71124300  1
  O  O77  1  0.93752200  0.00000000  0.28875700  1
  O  O78  1  0.06247800  0.50000000  0.78875700  1
  O  O79  1  0.06247800  0.50000000  0.21124300  1
  O  O80  1  0.94944700  0.00000000  0.58449500  1
  O  O81  1  0.94944700  0.00000000  0.41550500  1
  O  O82  1  0.05055300  0.50000000  0.91550500  1
  O  O83  1  0.05055300  0.50000000  0.08449500  1
  O  O84  1  0.46521000  0.00000000  0.92606100  1
  O  O85  1  0.46521000  0.00000000  0.07393900  1
  O  O86  1  0.53479000  0.50000000  0.57393900  1
  O  O87  1  0.53479000  0.50000000  0.42606100  1
  O  O88  1  0.53069000  0.00000000  0.82825700  1
  O  O89  1  0.53069000  0.00000000  0.17174300  1
  O  O90  1  0.46931000  0.50000000  0.67174300  1
  O  O91  1  0.46931000  0.50000000  0.32825700  1
  O  O92  1  0.51613900  0.00000000  0.73064000  1
  O  O93  1  0.51613900  0.00000000  0.26936000  1
  O  O94  1  0.48386100  0.50000000  0.76936000  1
  O  O95  1  0.48386100  0.50000000  0.23064000  1
  O  O96  1  0.49868100  0.00000000  0.56369700  1
  O  O97  1  0.49868100  0.00000000  0.43630300  1
  O  O98  1  0.50131900  0.50000000  0.93630300  1
  O  O99  1  0.50131900  0.50000000  0.06369700  1
