# generated using pymatgen
data_ErGePt
_symmetry_space_group_name_H-M   'P 1'
_cell_length_a   4.36400400
_cell_length_b   6.97333500
_cell_length_c   7.61950900
_cell_angle_alpha   90.00000000
_cell_angle_beta   90.00000000
_cell_angle_gamma   90.00000000
_symmetry_Int_Tables_number   1
_chemical_formula_structural   ErGePt
_chemical_formula_sum   'Er4 Ge4 Pt4'
_cell_volume   231.87432122
_cell_formula_units_Z   4
loop_
 _symmetry_equiv_pos_site_id
 _symmetry_equiv_pos_as_xyz
  1  'x, y, z'
loop_
 _atom_site_type_symbol
 _atom_site_label
 _atom_site_symmetry_multiplicity
 _atom_site_fract_x
 _atom_site_fract_y
 _atom_site_fract_z
 _atom_site_occupancy
  Er  Er0  1  0.75000000  0.49741900  0.79601100  1
  Er  Er1  1  0.25000000  0.00258100  0.29601100  1
  Er  Er2  1  0.75000000  0.99741900  0.70398900  1
  Er  Er3  1  0.25000000  0.50258100  0.20398900  1
  Ge  Ge4  1  0.25000000  0.69091100  0.58957600  1
  Ge  Ge5  1  0.25000000  0.19091100  0.91042400  1
  Ge  Ge6  1  0.75000000  0.30908900  0.41042400  1
  Ge  Ge7  1  0.75000000  0.80908900  0.08957600  1
  Pt  Pt8  1  0.25000000  0.79442700  0.91622500  1
  Pt  Pt9  1  0.25000000  0.29442700  0.58377500  1
  Pt  Pt10  1  0.75000000  0.70557300  0.41622500  1
  Pt  Pt11  1  0.75000000  0.20557300  0.08377500  1
