# generated using pymatgen
data_Nd(Al5Os)2
_symmetry_space_group_name_H-M   'P 1'
_cell_length_a   6.89029110
_cell_length_b   6.89029110
_cell_length_c   9.22179800
_cell_angle_alpha   90.00000000
_cell_angle_beta   90.00000000
_cell_angle_gamma   96.69335780
_symmetry_Int_Tables_number   1
_chemical_formula_structural   Nd(Al5Os)2
_chemical_formula_sum   'Nd2 Al20 Os4'
_cell_volume   434.83103534
_cell_formula_units_Z   2
loop_
 _symmetry_equiv_pos_site_id
 _symmetry_equiv_pos_as_xyz
  1  'x, y, z'
loop_
 _atom_site_type_symbol
 _atom_site_label
 _atom_site_symmetry_multiplicity
 _atom_site_fract_x
 _atom_site_fract_y
 _atom_site_fract_z
 _atom_site_occupancy
  Nd  Nd0  1  0.87428500  0.12571500  0.75000000  1
  Nd  Nd1  1  0.12571500  0.87428500  0.25000000  1
  Al  Al2  1  0.62214500  0.37785500  0.54963700  1
  Al  Al3  1  0.37785500  0.62214500  0.45036300  1
  Al  Al4  1  0.37785500  0.62214500  0.04963700  1
  Al  Al5  1  0.62214500  0.37785500  0.95036300  1
  Al  Al6  1  0.22655900  0.22655900  0.50000000  1
  Al  Al7  1  0.77344100  0.77344100  0.50000000  1
  Al  Al8  1  0.77344100  0.77344100  0.00000000  1
  Al  Al9  1  0.22655900  0.22655900  0.00000000  1
  Al  Al10  1  0.83980900  0.16019100  0.10228600  1
  Al  Al11  1  0.16019100  0.83980900  0.89771400  1
  Al  Al12  1  0.16019100  0.83980900  0.60228600  1
  Al  Al13  1  0.83980900  0.16019100  0.39771400  1
  Al  Al14  1  0.85708100  0.58712800  0.75000000  1
  Al  Al15  1  0.14291900  0.41287200  0.25000000  1
  Al  Al16  1  0.41287200  0.14291900  0.75000000  1
  Al  Al17  1  0.58712800  0.85708100  0.25000000  1
  Al  Al18  1  0.21928800  0.48333800  0.75000000  1
  Al  Al19  1  0.78071200  0.51666200  0.25000000  1
  Al  Al20  1  0.51666200  0.78071200  0.75000000  1
  Al  Al21  1  0.48333800  0.21928800  0.25000000  1
  Os  Os22  1  0.00000000  0.50000000  0.50000000  1
  Os  Os23  1  0.00000000  0.50000000  0.00000000  1
  Os  Os24  1  0.50000000  0.00000000  0.00000000  1
  Os  Os25  1  0.50000000  0.00000000  0.50000000  1
