# generated using pymatgen
data_Pr14Au51
_symmetry_space_group_name_H-M   'P 1'
_cell_length_a   13.05088083
_cell_length_b   13.05088083
_cell_length_c   9.48234100
_cell_angle_alpha   90.00000000
_cell_angle_beta   90.00000000
_cell_angle_gamma   119.99999406
_symmetry_Int_Tables_number   1
_chemical_formula_structural   Pr14Au51
_chemical_formula_sum   'Pr14 Au51'
_cell_volume   1398.70418674
_cell_formula_units_Z   1
loop_
 _symmetry_equiv_pos_site_id
 _symmetry_equiv_pos_as_xyz
  1  'x, y, z'
loop_
 _atom_site_type_symbol
 _atom_site_label
 _atom_site_symmetry_multiplicity
 _atom_site_fract_x
 _atom_site_fract_y
 _atom_site_fract_z
 _atom_site_occupancy
  Pr  Pr0  1  0.13161500  0.47320500  0.50000000  1
  Pr  Pr1  1  0.52679500  0.65841000  0.50000000  1
  Pr  Pr2  1  0.34159000  0.86838500  0.50000000  1
  Pr  Pr3  1  0.19916900  0.19193800  0.50000000  1
  Pr  Pr4  1  0.80806200  0.00723000  0.50000000  1
  Pr  Pr5  1  0.99277000  0.80083100  0.50000000  1
  Pr  Pr6  1  0.78263700  0.71752100  0.00000000  1
  Pr  Pr7  1  0.28247900  0.06511600  0.00000000  1
  Pr  Pr8  1  0.93488400  0.21736300  0.00000000  1
  Pr  Pr9  1  0.54773800  0.93311700  0.00000000  1
  Pr  Pr10  1  0.06688300  0.61462100  0.00000000  1
  Pr  Pr11  1  0.38537900  0.45226200  0.00000000  1
  Pr  Pr12  1  0.66666700  0.33333300  0.29708800  1
  Pr  Pr13  1  0.66666700  0.33333300  0.70291200  1
  Au  Au14  1  0.72938400  0.57099200  0.50000000  1
  Au  Au15  1  0.42900800  0.15839200  0.50000000  1
  Au  Au16  1  0.84160800  0.27061600  0.50000000  1
  Au  Au17  1  0.60282000  0.09382900  0.50000000  1
  Au  Au18  1  0.90617100  0.50899100  0.50000000  1
  Au  Au19  1  0.49100900  0.39718000  0.50000000  1
  Au  Au20  1  0.16034200  0.44790100  0.15304300  1
  Au  Au21  1  0.55209900  0.71244100  0.15304300  1
  Au  Au22  1  0.28755900  0.83965800  0.15304300  1
  Au  Au23  1  0.16831900  0.21754500  0.15100700  1
  Au  Au24  1  0.78245500  0.95077400  0.15100700  1
  Au  Au25  1  0.04922600  0.83168100  0.15100700  1
  Au  Au26  1  0.16831900  0.21754500  0.84899300  1
  Au  Au27  1  0.78245500  0.95077400  0.84899300  1
  Au  Au28  1  0.04922600  0.83168100  0.84899300  1
  Au  Au29  1  0.16034200  0.44790100  0.84695700  1
  Au  Au30  1  0.55209900  0.71244100  0.84695700  1
  Au  Au31  1  0.28755900  0.83965800  0.84695700  1
  Au  Au32  1  0.33333300  0.66666700  0.00000000  1
  Au  Au33  1  0.00000000  0.00000000  0.00000000  1
  Au  Au34  1  0.77307800  0.77339200  0.33411600  1
  Au  Au35  1  0.22660800  0.99968600  0.33411600  1
  Au  Au36  1  0.00031400  0.22692200  0.33411600  1
  Au  Au37  1  0.56036500  0.89070000  0.33586300  1
  Au  Au38  1  0.10930000  0.66966400  0.33586300  1
  Au  Au39  1  0.33033600  0.43963500  0.33586300  1
  Au  Au40  1  0.56036500  0.89070000  0.66413700  1
  Au  Au41  1  0.10930000  0.66966400  0.66413700  1
  Au  Au42  1  0.33033600  0.43963500  0.66413700  1
  Au  Au43  1  0.77307800  0.77339200  0.66588400  1
  Au  Au44  1  0.22660800  0.99968600  0.66588400  1
  Au  Au45  1  0.00031400  0.22692200  0.66588400  1
  Au  Au46  1  0.86489000  0.60399400  0.23668500  1
  Au  Au47  1  0.39600600  0.26089500  0.23668500  1
  Au  Au48  1  0.73910500  0.13511000  0.23668500  1
  Au  Au49  1  0.47128800  0.06780600  0.23024800  1
  Au  Au50  1  0.93219400  0.40348200  0.23024800  1
  Au  Au51  1  0.59651800  0.52871200  0.23024800  1
  Au  Au52  1  0.47128800  0.06780600  0.76975200  1
  Au  Au53  1  0.93219400  0.40348200  0.76975200  1
  Au  Au54  1  0.59651800  0.52871200  0.76975200  1
  Au  Au55  1  0.86489000  0.60399400  0.76331500  1
  Au  Au56  1  0.39600600  0.26089500  0.76331500  1
  Au  Au57  1  0.73910500  0.13511000  0.76331500  1
  Au  Au58  1  0.33333300  0.66666700  0.30344500  1
  Au  Au59  1  0.00000000  0.00000000  0.30354500  1
  Au  Au60  1  0.00000000  0.00000000  0.69645500  1
  Au  Au61  1  0.33333300  0.66666700  0.69655500  1
  Au  Au62  1  0.80448500  0.44431900  0.00000000  1
  Au  Au63  1  0.55568100  0.36016600  0.00000000  1
  Au  Au64  1  0.63983400  0.19551500  0.00000000  1
