# generated using pymatgen
data_ThPt2
_symmetry_space_group_name_H-M   'P 1'
_cell_length_a   7.84620758
_cell_length_b   7.84620758
_cell_length_c   7.84620758
_cell_angle_alpha   148.94035371
_cell_angle_beta   148.94035371
_cell_angle_gamma   44.49910985
_symmetry_Int_Tables_number   1
_chemical_formula_structural   ThPt2
_chemical_formula_sum   'Th2 Pt4'
_cell_volume   128.19244914
_cell_formula_units_Z   2
loop_
 _symmetry_equiv_pos_site_id
 _symmetry_equiv_pos_as_xyz
  1  'x, y, z'
loop_
 _atom_site_type_symbol
 _atom_site_label
 _atom_site_symmetry_multiplicity
 _atom_site_fract_x
 _atom_site_fract_y
 _atom_site_fract_z
 _atom_site_occupancy
  Th  Th0  1  0.65595800  0.65595800  0.00000000  1
  Th  Th1  1  0.34404200  0.34404200  0.00000000  1
  Pt  Pt2  1  0.00000000  0.50000000  0.50000000  1
  Pt  Pt3  1  0.50000000  0.00000000  0.50000000  1
  Pt  Pt4  1  0.86335500  0.86335500  0.00000000  1
  Pt  Pt5  1  0.13664500  0.13664500  0.00000000  1
