# generated using pymatgen
data_Ni5H2Se6(ClO4)4
_symmetry_space_group_name_H-M   'P 1'
_cell_length_a   8.57591000
_cell_length_b   11.87926745
_cell_length_c   13.01810315
_cell_angle_alpha   116.49917203
_cell_angle_beta   90.00000000
_cell_angle_gamma   111.15924024
_symmetry_Int_Tables_number   1
_chemical_formula_structural   Ni5H2Se6(ClO4)4
_chemical_formula_sum   'Ni10 H4 Se12 Cl8 O32'
_cell_volume   1086.06993105
_cell_formula_units_Z   2
loop_
 _symmetry_equiv_pos_site_id
 _symmetry_equiv_pos_as_xyz
  1  'x, y, z'
loop_
 _atom_site_type_symbol
 _atom_site_label
 _atom_site_symmetry_multiplicity
 _atom_site_fract_x
 _atom_site_fract_y
 _atom_site_fract_z
 _atom_site_occupancy
  Ni  Ni0  1  0.07846500  0.32826900  0.19130100  1
  Ni  Ni1  1  0.75019600  0.67173100  0.30869900  1
  Ni  Ni2  1  0.92153500  0.67173100  0.80869900  1
  Ni  Ni3  1  0.24980400  0.32826900  0.69130100  1
  Ni  Ni4  1  0.95312800  0.51327700  0.12394900  1
  Ni  Ni5  1  0.43985200  0.48672300  0.37605100  1
  Ni  Ni6  1  0.04687200  0.48672300  0.87605100  1
  Ni  Ni7  1  0.56014800  0.51327700  0.62394900  1
  Ni  Ni8  1  0.00000000  0.00000000  0.00000000  1
  Ni  Ni9  1  0.00000000  0.00000000  0.50000000  1
  H  H10  1  0.68038400  0.04613300  0.92433300  1
  H  H11  1  0.63425100  0.95386700  0.57566700  1
  H  H12  1  0.31961600  0.95386700  0.07566700  1
  H  H13  1  0.36574900  0.04613300  0.42433300  1
  Se  Se14  1  0.74134100  0.36147400  0.28921900  1
  Se  Se15  1  0.37986600  0.63852600  0.21078100  1
  Se  Se16  1  0.25865900  0.63852600  0.71078100  1
  Se  Se17  1  0.62013400  0.36147400  0.78921900  1
  Se  Se18  1  0.60051100  0.76772900  0.90014500  1
  Se  Se19  1  0.83278200  0.23227100  0.59985500  1
  Se  Se20  1  0.39948900  0.23227100  0.09985500  1
  Se  Se21  1  0.16721800  0.76772900  0.40014500  1
  Se  Se22  1  0.91051800  0.19751100  0.90026700  1
  Se  Se23  1  0.71300700  0.80248900  0.59973300  1
  Se  Se24  1  0.08948200  0.80248900  0.09973300  1
  Se  Se25  1  0.28699300  0.19751100  0.40026700  1
  Cl  Cl26  1  0.95038600  0.11923100  0.19742000  1
  Cl  Cl27  1  0.83115500  0.88076900  0.30258000  1
  Cl  Cl28  1  0.04961400  0.88076900  0.80258000  1
  Cl  Cl29  1  0.16884500  0.11923100  0.69742000  1
  Cl  Cl30  1  0.16091800  0.47738900  0.40315700  1
  Cl  Cl31  1  0.68353000  0.52261100  0.09684300  1
  Cl  Cl32  1  0.83908200  0.52261100  0.59684300  1
  Cl  Cl33  1  0.31647000  0.47738900  0.90315700  1
  O  O34  1  0.86492700  0.37315000  0.18816100  1
  O  O35  1  0.49177700  0.62685000  0.31183900  1
  O  O36  1  0.13507300  0.62685000  0.81183900  1
  O  O37  1  0.50822300  0.37315000  0.68816100  1
  O  O38  1  0.74348200  0.93030000  0.94709800  1
  O  O39  1  0.81318200  0.06970000  0.55290200  1
  O  O40  1  0.25651800  0.06970000  0.05290200  1
  O  O41  1  0.18681800  0.93030000  0.44709800  1
  O  O42  1  0.02661000  0.19688100  0.00830000  1
  O  O43  1  0.82972900  0.80311900  0.49170000  1
  O  O44  1  0.97339000  0.80311900  0.99170000  1
  O  O45  1  0.17027100  0.19688100  0.50830000  1
  O  O46  1  0.67837200  0.49416000  0.33020600  1
  O  O47  1  0.18421200  0.50584000  0.16979400  1
  O  O48  1  0.32162800  0.50584000  0.66979400  1
  O  O49  1  0.81578800  0.49416000  0.83020600  1
  O  O50  1  0.31775500  0.32993100  0.20853700  1
  O  O51  1  0.98782300  0.67006900  0.29146300  1
  O  O52  1  0.68224500  0.67006900  0.79146300  1
  O  O53  1  0.01217700  0.32993100  0.70853700  1
  O  O54  1  0.54366100  0.21674000  0.19356700  1
  O  O55  1  0.32692100  0.78326000  0.30643300  1
  O  O56  1  0.45633900  0.78326000  0.80643300  1
  O  O57  1  0.67307900  0.21674000  0.69356700  1
  O  O58  1  0.07115400  0.63582600  0.04649700  1
  O  O59  1  0.43532800  0.36417400  0.45350300  1
  O  O60  1  0.92884600  0.36417400  0.95350300  1
  O  O61  1  0.56467200  0.63582600  0.54649700  1
  O  O62  1  0.69555300  0.13209700  0.92168300  1
  O  O63  1  0.56345600  0.86790300  0.57831700  1
  O  O64  1  0.30444700  0.86790300  0.07831700  1
  O  O65  1  0.43654400  0.13209700  0.42168300  1
