# generated using pymatgen
data_K15Mo7N19
_symmetry_space_group_name_H-M   'P 1'
_cell_length_a   6.82486600
_cell_length_b   12.60964007
_cell_length_c   19.69144353
_cell_angle_alpha   90.66400010
_cell_angle_beta   94.22411998
_cell_angle_gamma   99.86232239
_symmetry_Int_Tables_number   1
_chemical_formula_structural   K15Mo7N19
_chemical_formula_sum   'K30 Mo14 N38'
_cell_volume   1664.54441243
_cell_formula_units_Z   2
loop_
 _symmetry_equiv_pos_site_id
 _symmetry_equiv_pos_as_xyz
  1  'x, y, z'
loop_
 _atom_site_type_symbol
 _atom_site_label
 _atom_site_symmetry_multiplicity
 _atom_site_fract_x
 _atom_site_fract_y
 _atom_site_fract_z
 _atom_site_occupancy
  K  K0  1  0.52299500  0.62373300  0.44025400  1
  K  K1  1  0.47700500  0.37626700  0.55974600  1
  K  K2  1  0.61516600  0.13372500  0.65091900  1
  K  K3  1  0.38483400  0.86627500  0.34908100  1
  K  K4  1  0.72327600  0.02209000  0.19460600  1
  K  K5  1  0.27672400  0.97791000  0.80539400  1
  K  K6  1  0.93573000  0.03614600  0.38637800  1
  K  K7  1  0.06427000  0.96385400  0.61362200  1
  K  K8  1  0.78340100  0.75918400  0.28197700  1
  K  K9  1  0.21659900  0.24081600  0.71802300  1
  K  K10  1  0.85378500  0.16852800  0.83630700  1
  K  K11  1  0.14621500  0.83147200  0.16369300  1
  K  K12  1  0.86866800  0.90245700  0.89833000  1
  K  K13  1  0.13133200  0.09754300  0.10167000  1
  K  K14  1  0.71985900  0.08223700  0.00600100  1
  K  K15  1  0.28014100  0.91776300  0.99399900  1
  K  K16  1  0.61095900  0.89646100  0.52822000  1
  K  K17  1  0.38904100  0.10353900  0.47178000  1
  K  K18  1  0.61028400  0.46193900  0.28643600  1
  K  K19  1  0.38971600  0.53806100  0.71356400  1
  K  K20  1  0.97299900  0.34348500  0.01384000  1
  K  K21  1  0.02700100  0.65651500  0.98616000  1
  K  K22  1  0.90947200  0.66839800  0.78987600  1
  K  K23  1  0.09052800  0.33160200  0.21012400  1
  K  K24  1  0.74535300  0.25720400  0.38569500  1
  K  K25  1  0.25464700  0.74279600  0.61430500  1
  K  K26  1  0.60243800  0.37960600  0.84138000  1
  K  K27  1  0.39756200  0.62039400  0.15862000  1
  K  K28  1  0.00000000  0.50000000  0.50000000  1
  K  K29  1  0.50000000  0.50000000  0.00000000  1
  Mo  Mo30  1  0.58129400  0.27090600  0.12485000  1
  Mo  Mo31  1  0.41870600  0.72909400  0.87515000  1
  Mo  Mo32  1  0.85647500  0.40940300  0.68652400  1
  Mo  Mo33  1  0.14352500  0.59059700  0.31347600  1
  Mo  Mo34  1  0.74866300  0.66089300  0.60728400  1
  Mo  Mo35  1  0.25133700  0.33910700  0.39271600  1
  Mo  Mo36  1  0.99169500  0.77692400  0.45012900  1
  Mo  Mo37  1  0.00830500  0.22307600  0.54987100  1
  Mo  Mo38  1  0.86661100  0.55027500  0.14068100  1
  Mo  Mo39  1  0.13338900  0.44972500  0.85931900  1
  Mo  Mo40  1  0.65827100  0.88047300  0.72603700  1
  Mo  Mo41  1  0.34172900  0.11952700  0.27396300  1
  Mo  Mo42  1  0.68339400  0.79300800  0.05473200  1
  Mo  Mo43  1  0.31660600  0.20699200  0.94526800  1
  N  N44  1  0.79772900  0.20982400  0.12110200  1
  N  N45  1  0.20227100  0.79017600  0.87889800  1
  N  N46  1  0.93507800  0.32221800  0.61865100  1
  N  N47  1  0.06492200  0.67778200  0.38134900  1
  N  N48  1  0.55132200  0.07181400  0.31682600  1
  N  N49  1  0.44867800  0.92818600  0.68317400  1
  N  N50  1  0.57514200  0.79641100  0.80652500  1
  N  N51  1  0.42485800  0.20358900  0.19347500  1
  N  N52  1  0.65863700  0.42522200  0.14285400  1
  N  N53  1  0.34136300  0.57477800  0.85714600  1
  N  N54  1  0.50511400  0.39476300  0.41963100  1
  N  N55  1  0.49488600  0.60523700  0.58036900  1
  N  N56  1  0.80003500  0.11602100  0.52518500  1
  N  N57  1  0.19996500  0.88397900  0.47481500  1
  N  N58  1  0.89320600  0.69873200  0.52984200  1
  N  N59  1  0.10679400  0.30126800  0.47015800  1
  N  N60  1  0.90595000  0.89350500  0.05256200  1
  N  N61  1  0.09405000  0.10649500  0.94743800  1
  N  N62  1  0.78554500  0.83192500  0.41106800  1
  N  N63  1  0.21445500  0.16807500  0.58893200  1
  N  N64  1  0.76425000  0.78444000  0.66275100  1
  N  N65  1  0.23575000  0.21556000  0.33724900  1
  N  N66  1  0.93525700  0.48021600  0.90557600  1
  N  N67  1  0.06474300  0.51978400  0.09442400  1
  N  N68  1  0.56990900  0.75731600  0.96090700  1
  N  N69  1  0.43009100  0.24268400  0.03909300  1
  N  N70  1  0.75774700  0.66200000  0.09666200  1
  N  N71  1  0.24225300  0.33800000  0.90333800  1
  N  N72  1  0.85282700  0.99448600  0.75009600  1
  N  N73  1  0.14717300  0.00551400  0.24990400  1
  N  N74  1  0.96751600  0.59499400  0.23190300  1
  N  N75  1  0.03248400  0.40500600  0.76809700  1
  N  N76  1  0.87261200  0.55443600  0.65762600  1
  N  N77  1  0.12738800  0.44556400  0.34237400  1
  N  N78  1  0.60680500  0.35624200  0.70525900  1
  N  N79  1  0.39319500  0.64375800  0.29474100  1
  N  N80  1  0.50451200  0.84465900  0.10422500  1
  N  N81  1  0.49548800  0.15534100  0.89577500  1
