# generated using pymatgen
data_KEr(SeO4)2
_symmetry_space_group_name_H-M   'P 1'
_cell_length_a   5.69218400
_cell_length_b   9.06367300
_cell_length_c   27.75380600
_cell_angle_alpha   90.00000000
_cell_angle_beta   90.00000000
_cell_angle_gamma   90.00000000
_symmetry_Int_Tables_number   1
_chemical_formula_structural   KEr(SeO4)2
_chemical_formula_sum   'K8 Er8 Se16 O64'
_cell_volume   1431.87697999
_cell_formula_units_Z   8
loop_
 _symmetry_equiv_pos_site_id
 _symmetry_equiv_pos_as_xyz
  1  'x, y, z'
loop_
 _atom_site_type_symbol
 _atom_site_label
 _atom_site_symmetry_multiplicity
 _atom_site_fract_x
 _atom_site_fract_y
 _atom_site_fract_z
 _atom_site_occupancy
  K  K0  1  0.75517800  0.33985800  0.08135800  1
  K  K1  1  0.24482200  0.83985800  0.91864200  1
  K  K2  1  0.74482200  0.33985800  0.58135800  1
  K  K3  1  0.25517800  0.83985800  0.41864200  1
  K  K4  1  0.28690600  0.00100800  0.16762700  1
  K  K5  1  0.71309400  0.50100800  0.83237300  1
  K  K6  1  0.21309400  0.00100800  0.66762700  1
  K  K7  1  0.78690600  0.50100800  0.33237300  1
  Er  Er8  1  0.27606200  0.36819300  0.44721600  1
  Er  Er9  1  0.72393800  0.86819300  0.55278400  1
  Er  Er10  1  0.22393800  0.36819300  0.94721600  1
  Er  Er11  1  0.77606200  0.86819300  0.05278400  1
  Er  Er12  1  0.32324300  0.46321100  0.19896900  1
  Er  Er13  1  0.67675700  0.96321100  0.80103100  1
  Er  Er14  1  0.17675700  0.46321100  0.69896900  1
  Er  Er15  1  0.82324300  0.96321100  0.30103100  1
  Se  Se16  1  0.79071200  0.26438300  0.20747200  1
  Se  Se17  1  0.20928800  0.76438300  0.79252800  1
  Se  Se18  1  0.70928800  0.26438300  0.70747200  1
  Se  Se19  1  0.29071200  0.76438300  0.29252800  1
  Se  Se20  1  0.26559100  0.59779600  0.06658000  1
  Se  Se21  1  0.73440900  0.09779600  0.93342000  1
  Se  Se22  1  0.23440900  0.59779600  0.56658000  1
  Se  Se23  1  0.76559100  0.09779600  0.43342000  1
  Se  Se24  1  0.30959700  0.22946800  0.31721500  1
  Se  Se25  1  0.69040300  0.72946800  0.68278500  1
  Se  Se26  1  0.19040300  0.22946800  0.81721500  1
  Se  Se27  1  0.80959700  0.72946800  0.18278500  1
  Se  Se28  1  0.23661200  0.06947000  0.04396100  1
  Se  Se29  1  0.76338800  0.56947000  0.95603900  1
  Se  Se30  1  0.26338800  0.06947000  0.54396100  1
  Se  Se31  1  0.73661200  0.56947000  0.45603900  1
  O  O32  1  0.57837900  0.15574300  0.31758900  1
  O  O33  1  0.42162100  0.65574300  0.68241100  1
  O  O34  1  0.92162100  0.15574300  0.81758900  1
  O  O35  1  0.07837900  0.65574300  0.18241100  1
  O  O36  1  0.45985400  0.73213600  0.07647000  1
  O  O37  1  0.54014600  0.23213600  0.92353000  1
  O  O38  1  0.04014600  0.73213600  0.57647000  1
  O  O39  1  0.95985400  0.23213600  0.42353000  1
  O  O40  1  0.30937800  0.53386900  0.01083300  1
  O  O41  1  0.69062200  0.03386900  0.98916700  1
  O  O42  1  0.19062200  0.53386900  0.51083300  1
  O  O43  1  0.80937800  0.03386900  0.48916700  1
  O  O44  1  0.11286500  0.10023400  0.33115800  1
  O  O45  1  0.88713500  0.60023400  0.66884200  1
  O  O46  1  0.38713500  0.10023400  0.83115800  1
  O  O47  1  0.61286500  0.60023400  0.16884200  1
  O  O48  1  0.72892300  0.40060700  0.24544300  1
  O  O49  1  0.27107700  0.90060700  0.75455700  1
  O  O50  1  0.77107700  0.40060700  0.74544300  1
  O  O51  1  0.22892300  0.90060700  0.25455700  1
  O  O52  1  0.25249900  0.23242300  0.01676000  1
  O  O53  1  0.74750100  0.73242300  0.98324000  1
  O  O54  1  0.24750100  0.23242300  0.51676000  1
  O  O55  1  0.75249900  0.73242300  0.48324000  1
  O  O56  1  0.33018200  0.59622400  0.26976100  1
  O  O57  1  0.66981800  0.09622400  0.73023900  1
  O  O58  1  0.16981800  0.59622400  0.76976100  1
  O  O59  1  0.83018200  0.09622400  0.23023900  1
  O  O60  1  0.24620800  0.29529900  0.26245800  1
  O  O61  1  0.75379200  0.79529900  0.73754200  1
  O  O62  1  0.25379200  0.29529900  0.76245800  1
  O  O63  1  0.74620800  0.79529900  0.23754200  1
  O  O64  1  0.29649500  0.46213800  0.10681500  1
  O  O65  1  0.70350500  0.96213800  0.89318500  1
  O  O66  1  0.20350500  0.46213800  0.60681500  1
  O  O67  1  0.79649500  0.96213800  0.39318500  1
  O  O68  1  0.29615000  0.36423300  0.35812000  1
  O  O69  1  0.70385000  0.86423300  0.64188000  1
  O  O70  1  0.20385000  0.36423300  0.85812000  1
  O  O71  1  0.79615000  0.86423300  0.14188000  1
  O  O72  1  0.55300500  0.26118000  0.17094100  1
  O  O73  1  0.44699500  0.76118000  0.82905900  1
  O  O74  1  0.94699500  0.26118000  0.67094100  1
  O  O75  1  0.05300500  0.76118000  0.32905900  1
  O  O76  1  0.48389000  0.04600600  0.07606600  1
  O  O77  1  0.51611000  0.54600600  0.92393400  1
  O  O78  1  0.01611000  0.04600600  0.57606600  1
  O  O79  1  0.98389000  0.54600600  0.42393400  1
  O  O80  1  0.49259800  0.16490500  0.42803800  1
  O  O81  1  0.50740200  0.66490500  0.57196200  1
  O  O82  1  0.00740200  0.16490500  0.92803800  1
  O  O83  1  0.99259800  0.66490500  0.07196200  1
  O  O84  1  0.00818400  0.07009700  0.08290300  1
  O  O85  1  0.99181600  0.57009700  0.91709700  1
  O  O86  1  0.49181600  0.07009700  0.58290300  1
  O  O87  1  0.50818400  0.57009700  0.41709700  1
  O  O88  1  0.66765100  0.42375800  0.49021700  1
  O  O89  1  0.33234900  0.92375800  0.50978300  1
  O  O90  1  0.83234900  0.42375800  0.99021700  1
  O  O91  1  0.16765100  0.92375800  0.00978300  1
  O  O92  1  0.02446200  0.30646000  0.17318800  1
  O  O93  1  0.97553800  0.80646000  0.82681200  1
  O  O94  1  0.47553800  0.30646000  0.67318800  1
  O  O95  1  0.52446200  0.80646000  0.32681200  1
