# generated using pymatgen
data_Sc2AlSi2
_symmetry_space_group_name_H-M   'P 1'
_cell_length_a   6.60495500
_cell_length_b   6.60495500
_cell_length_c   4.00449500
_cell_angle_alpha   90.00000000
_cell_angle_beta   90.00000000
_cell_angle_gamma   90.00000000
_symmetry_Int_Tables_number   1
_chemical_formula_structural   Sc2AlSi2
_chemical_formula_sum   'Sc4 Al2 Si4'
_cell_volume   174.69781852
_cell_formula_units_Z   2
loop_
 _symmetry_equiv_pos_site_id
 _symmetry_equiv_pos_as_xyz
  1  'x, y, z'
loop_
 _atom_site_type_symbol
 _atom_site_label
 _atom_site_symmetry_multiplicity
 _atom_site_fract_x
 _atom_site_fract_y
 _atom_site_fract_z
 _atom_site_occupancy
  Sc  Sc0  1  0.82451400  0.67548600  0.50000000  1
  Sc  Sc1  1  0.17548600  0.32451400  0.50000000  1
  Sc  Sc2  1  0.67548600  0.17548600  0.50000000  1
  Sc  Sc3  1  0.32451400  0.82451400  0.50000000  1
  Al  Al4  1  0.00000000  0.00000000  0.00000000  1
  Al  Al5  1  0.50000000  0.50000000  0.00000000  1
  Si  Si6  1  0.62623000  0.87377000  0.00000000  1
  Si  Si7  1  0.37377000  0.12623000  0.00000000  1
  Si  Si8  1  0.87377000  0.37377000  0.00000000  1
  Si  Si9  1  0.12623000  0.62623000  0.00000000  1
