# generated using pymatgen
data_Hg6P4PbCl6
_symmetry_space_group_name_H-M   'P 1'
_cell_length_a   12.13087300
_cell_length_b   12.13087300
_cell_length_c   12.13087300
_cell_angle_alpha   90.00000000
_cell_angle_beta   90.00000000
_cell_angle_gamma   90.00000000
_symmetry_Int_Tables_number   1
_chemical_formula_structural   Hg6P4PbCl6
_chemical_formula_sum   'Hg24 P16 Pb4 Cl24'
_cell_volume   1785.15597628
_cell_formula_units_Z   4
loop_
 _symmetry_equiv_pos_site_id
 _symmetry_equiv_pos_as_xyz
  1  'x, y, z'
loop_
 _atom_site_type_symbol
 _atom_site_label
 _atom_site_symmetry_multiplicity
 _atom_site_fract_x
 _atom_site_fract_y
 _atom_site_fract_z
 _atom_site_occupancy
  Hg  Hg0  1  0.28474000  0.98445700  0.77640800  1
  Hg  Hg1  1  0.22359200  0.78474000  0.51554300  1
  Hg  Hg2  1  0.48445700  0.72359200  0.71526000  1
  Hg  Hg3  1  0.78474000  0.51554300  0.22359200  1
  Hg  Hg4  1  0.72359200  0.71526000  0.48445700  1
  Hg  Hg5  1  0.98445700  0.77640800  0.28474000  1
  Hg  Hg6  1  0.71526000  0.48445700  0.72359200  1
  Hg  Hg7  1  0.77640800  0.28474000  0.98445700  1
  Hg  Hg8  1  0.51554300  0.22359200  0.78474000  1
  Hg  Hg9  1  0.21526000  0.01554300  0.27640800  1
  Hg  Hg10  1  0.27640800  0.21526000  0.01554300  1
  Hg  Hg11  1  0.01554300  0.27640800  0.21526000  1
  Hg  Hg12  1  0.98601400  0.72984800  0.78346100  1
  Hg  Hg13  1  0.21653900  0.48601400  0.77015200  1
  Hg  Hg14  1  0.22984800  0.71653900  0.01398600  1
  Hg  Hg15  1  0.48601400  0.77015200  0.21653900  1
  Hg  Hg16  1  0.71653900  0.01398600  0.22984800  1
  Hg  Hg17  1  0.72984800  0.78346100  0.98601400  1
  Hg  Hg18  1  0.01398600  0.22984800  0.71653900  1
  Hg  Hg19  1  0.78346100  0.98601400  0.72984800  1
  Hg  Hg20  1  0.77015200  0.21653900  0.48601400  1
  Hg  Hg21  1  0.51398600  0.27015200  0.28346100  1
  Hg  Hg22  1  0.28346100  0.51398600  0.27015200  1
  Hg  Hg23  1  0.27015200  0.28346100  0.51398600  1
  P  P24  1  0.28854900  0.78854900  0.71145100  1
  P  P25  1  0.78854900  0.71145100  0.28854900  1
  P  P26  1  0.71145100  0.28854900  0.78854900  1
  P  P27  1  0.21145100  0.21145100  0.21145100  1
  P  P28  1  0.18334400  0.68334400  0.81665600  1
  P  P29  1  0.68334400  0.81665600  0.18334400  1
  P  P30  1  0.81665600  0.18334400  0.68334400  1
  P  P31  1  0.31665600  0.31665600  0.31665600  1
  P  P32  1  0.81528700  0.31528700  0.18471300  1
  P  P33  1  0.31528700  0.18471300  0.81528700  1
  P  P34  1  0.18471300  0.81528700  0.31528700  1
  P  P35  1  0.68471300  0.68471300  0.68471300  1
  P  P36  1  0.71041400  0.21041400  0.28958600  1
  P  P37  1  0.21041400  0.28958600  0.71041400  1
  P  P38  1  0.28958600  0.71041400  0.21041400  1
  P  P39  1  0.78958600  0.78958600  0.78958600  1
  Pb  Pb40  1  0.47786500  0.97786500  0.52213500  1
  Pb  Pb41  1  0.97786500  0.52213500  0.47786500  1
  Pb  Pb42  1  0.52213500  0.47786500  0.97786500  1
  Pb  Pb43  1  0.02213500  0.02213500  0.02213500  1
  Cl  Cl44  1  0.04206900  0.98572900  0.79567400  1
  Cl  Cl45  1  0.20432600  0.54206900  0.51427100  1
  Cl  Cl46  1  0.48572900  0.70432600  0.95793100  1
  Cl  Cl47  1  0.54206900  0.51427100  0.20432600  1
  Cl  Cl48  1  0.70432600  0.95793100  0.48572900  1
  Cl  Cl49  1  0.98572900  0.79567400  0.04206900  1
  Cl  Cl50  1  0.95793100  0.48572900  0.70432600  1
  Cl  Cl51  1  0.79567400  0.04206900  0.98572900  1
  Cl  Cl52  1  0.51427100  0.20432600  0.54206900  1
  Cl  Cl53  1  0.45793100  0.01427100  0.29567400  1
  Cl  Cl54  1  0.29567400  0.45793100  0.01427100  1
  Cl  Cl55  1  0.01427100  0.29567400  0.45793100  1
  Cl  Cl56  1  0.26860400  0.95358300  0.01995900  1
  Cl  Cl57  1  0.98004100  0.76860400  0.54641700  1
  Cl  Cl58  1  0.45358300  0.48004100  0.73139600  1
  Cl  Cl59  1  0.76860400  0.54641700  0.98004100  1
  Cl  Cl60  1  0.48004100  0.73139600  0.45358300  1
  Cl  Cl61  1  0.95358300  0.01995900  0.26860400  1
  Cl  Cl62  1  0.73139600  0.45358300  0.48004100  1
  Cl  Cl63  1  0.01995900  0.26860400  0.95358300  1
  Cl  Cl64  1  0.54641700  0.98004100  0.76860400  1
  Cl  Cl65  1  0.23139600  0.04641700  0.51995900  1
  Cl  Cl66  1  0.51995900  0.23139600  0.04641700  1
  Cl  Cl67  1  0.04641700  0.51995900  0.23139600  1
