# generated using pymatgen
data_Na5SnP3
_symmetry_space_group_name_H-M   'P 1'
_cell_length_a   7.49300000
_cell_length_b   8.35073600
_cell_length_c   15.74370964
_cell_angle_alpha   58.32981357
_cell_angle_beta   90.00000000
_cell_angle_gamma   90.00000000
_symmetry_Int_Tables_number   1
_chemical_formula_structural   Na5SnP3
_chemical_formula_sum   'Na20 Sn4 P12'
_cell_volume   838.41723819
_cell_formula_units_Z   4
loop_
 _symmetry_equiv_pos_site_id
 _symmetry_equiv_pos_as_xyz
  1  'x, y, z'
loop_
 _atom_site_type_symbol
 _atom_site_label
 _atom_site_symmetry_multiplicity
 _atom_site_fract_x
 _atom_site_fract_y
 _atom_site_fract_z
 _atom_site_occupancy
  Na  Na0  1  0.49625200  0.09283400  0.24004500  1
  Na  Na1  1  0.99625200  0.90716600  0.25995500  1
  Na  Na2  1  0.50374800  0.90716600  0.75995500  1
  Na  Na3  1  0.00374800  0.09283400  0.74004500  1
  Na  Na4  1  0.04008300  0.41172900  0.41107200  1
  Na  Na5  1  0.54008300  0.58827100  0.08892800  1
  Na  Na6  1  0.95991700  0.58827100  0.58892800  1
  Na  Na7  1  0.45991700  0.41172900  0.91107200  1
  Na  Na8  1  0.52197000  0.25256400  0.41202300  1
  Na  Na9  1  0.02197000  0.74743600  0.08797700  1
  Na  Na10  1  0.47803000  0.74743600  0.58797700  1
  Na  Na11  1  0.97803000  0.25256400  0.91202300  1
  Na  Na12  1  0.66045700  0.99533400  0.08215400  1
  Na  Na13  1  0.16045700  0.00466600  0.41784600  1
  Na  Na14  1  0.33954300  0.00466600  0.91784600  1
  Na  Na15  1  0.83954300  0.99533400  0.58215400  1
  Na  Na16  1  0.85772900  0.31509000  0.25758500  1
  Na  Na17  1  0.35772900  0.68491000  0.24241500  1
  Na  Na18  1  0.14227100  0.68491000  0.74241500  1
  Na  Na19  1  0.64227100  0.31509000  0.75758500  1
  Sn  Sn20  1  0.64716400  0.66118200  0.41095200  1
  Sn  Sn21  1  0.14716400  0.33881800  0.08904800  1
  Sn  Sn22  1  0.35283600  0.33881800  0.58904800  1
  Sn  Sn23  1  0.85283600  0.66118200  0.91095200  1
  P  P24  1  0.70197500  0.33468700  0.57105100  1
  P  P25  1  0.20197500  0.66531300  0.92894900  1
  P  P26  1  0.29802500  0.66531300  0.42894900  1
  P  P27  1  0.79802500  0.33468700  0.07105100  1
  P  P28  1  0.76751600  0.93830800  0.41784000  1
  P  P29  1  0.26751600  0.06169200  0.08216000  1
  P  P30  1  0.23248400  0.06169200  0.58216000  1
  P  P31  1  0.73248400  0.93830800  0.91784000  1
  P  P32  1  0.74515800  0.63860900  0.26372600  1
  P  P33  1  0.24515800  0.36139100  0.23627400  1
  P  P34  1  0.25484200  0.36139100  0.73627400  1
  P  P35  1  0.75484200  0.63860900  0.76372600  1
