# generated using pymatgen
data_SbPtSe
_symmetry_space_group_name_H-M   'P 1'
_cell_length_a   6.43156500
_cell_length_b   6.43156500
_cell_length_c   6.43156500
_cell_angle_alpha   90.00000000
_cell_angle_beta   90.00000000
_cell_angle_gamma   90.00000000
_symmetry_Int_Tables_number   1
_chemical_formula_structural   SbPtSe
_chemical_formula_sum   'Sb4 Pt4 Se4'
_cell_volume   266.04186855
_cell_formula_units_Z   4
loop_
 _symmetry_equiv_pos_site_id
 _symmetry_equiv_pos_as_xyz
  1  'x, y, z'
loop_
 _atom_site_type_symbol
 _atom_site_label
 _atom_site_symmetry_multiplicity
 _atom_site_fract_x
 _atom_site_fract_y
 _atom_site_fract_z
 _atom_site_occupancy
  Sb  Sb0  1  0.88025800  0.38025800  0.11974200  1
  Sb  Sb1  1  0.38025800  0.11974200  0.88025800  1
  Sb  Sb2  1  0.11974200  0.88025800  0.38025800  1
  Sb  Sb3  1  0.61974200  0.61974200  0.61974200  1
  Pt  Pt4  1  0.49812300  0.99812300  0.50187700  1
  Pt  Pt5  1  0.99812300  0.50187700  0.49812300  1
  Pt  Pt6  1  0.50187700  0.49812300  0.99812300  1
  Pt  Pt7  1  0.00187700  0.00187700  0.00187700  1
  Se  Se8  1  0.12261000  0.62261000  0.87739000  1
  Se  Se9  1  0.62261000  0.87739000  0.12261000  1
  Se  Se10  1  0.87739000  0.12261000  0.62261000  1
  Se  Se11  1  0.37739000  0.37739000  0.37739000  1
