# generated using pymatgen
data_ThAlNi
_symmetry_space_group_name_H-M   'P 1'
_cell_length_a   7.05152767
_cell_length_b   7.05152767
_cell_length_c   4.06589900
_cell_angle_alpha   90.00000000
_cell_angle_beta   90.00000000
_cell_angle_gamma   119.99999688
_symmetry_Int_Tables_number   1
_chemical_formula_structural   ThAlNi
_chemical_formula_sum   'Th3 Al3 Ni3'
_cell_volume   175.08690271
_cell_formula_units_Z   3
loop_
 _symmetry_equiv_pos_site_id
 _symmetry_equiv_pos_as_xyz
  1  'x, y, z'
loop_
 _atom_site_type_symbol
 _atom_site_label
 _atom_site_symmetry_multiplicity
 _atom_site_fract_x
 _atom_site_fract_y
 _atom_site_fract_z
 _atom_site_occupancy
  Th  Th0  1  0.00000000  0.42330800  0.50000000  1
  Th  Th1  1  0.57669200  0.57669200  0.50000000  1
  Th  Th2  1  0.42330800  0.00000000  0.50000000  1
  Al  Al3  1  0.00000000  0.77074300  0.00000000  1
  Al  Al4  1  0.22925700  0.22925700  0.00000000  1
  Al  Al5  1  0.77074300  0.00000000  0.00000000  1
  Ni  Ni6  1  0.33333300  0.66666700  0.00000000  1
  Ni  Ni7  1  0.66666700  0.33333300  0.00000000  1
  Ni  Ni8  1  0.00000000  0.00000000  0.50000000  1
