# generated using pymatgen
data_Al2(Zn13Pd3)3
_symmetry_space_group_name_H-M   'P 1'
_cell_length_a   12.87168536
_cell_length_b   12.87168536
_cell_length_c   12.87168536
_cell_angle_alpha   60.00000000
_cell_angle_beta   60.00000000
_cell_angle_gamma   60.00000000
_symmetry_Int_Tables_number   1
_chemical_formula_structural   Al2(Zn13Pd3)3
_chemical_formula_sum   'Al4 Zn78 Pd18'
_cell_volume   1507.96494990
_cell_formula_units_Z   2
loop_
 _symmetry_equiv_pos_site_id
 _symmetry_equiv_pos_as_xyz
  1  'x, y, z'
loop_
 _atom_site_type_symbol
 _atom_site_label
 _atom_site_symmetry_multiplicity
 _atom_site_fract_x
 _atom_site_fract_y
 _atom_site_fract_z
 _atom_site_occupancy
  Al  Al0  1  0.94482200  0.94482200  0.94482200  1
  Al  Al1  1  0.94482200  0.94482200  0.16553300  1
  Al  Al2  1  0.94482200  0.16553300  0.94482200  1
  Al  Al3  1  0.16553300  0.94482200  0.94482200  1
  Zn  Zn4  1  0.30819900  0.30819900  0.30819900  1
  Zn  Zn5  1  0.30819900  0.30819900  0.07540400  1
  Zn  Zn6  1  0.30819900  0.07540400  0.30819900  1
  Zn  Zn7  1  0.07540400  0.30819900  0.30819900  1
  Zn  Zn8  1  0.77802800  0.77802800  0.03052600  1
  Zn  Zn9  1  0.77802800  0.77802800  0.41341900  1
  Zn  Zn10  1  0.03052600  0.41341900  0.77802800  1
  Zn  Zn11  1  0.03052600  0.77802800  0.77802800  1
  Zn  Zn12  1  0.41341900  0.03052600  0.77802800  1
  Zn  Zn13  1  0.41341900  0.77802800  0.77802800  1
  Zn  Zn14  1  0.77802800  0.03052600  0.41341900  1
  Zn  Zn15  1  0.77802800  0.41341900  0.03052600  1
  Zn  Zn16  1  0.77802800  0.03052600  0.77802800  1
  Zn  Zn17  1  0.41341900  0.77802800  0.03052600  1
  Zn  Zn18  1  0.03052600  0.77802800  0.41341900  1
  Zn  Zn19  1  0.77802800  0.41341900  0.77802800  1
  Zn  Zn20  1  0.06940300  0.43059700  0.43059700  1
  Zn  Zn21  1  0.43059700  0.06940300  0.06940300  1
  Zn  Zn22  1  0.43059700  0.06940300  0.43059700  1
  Zn  Zn23  1  0.06940300  0.43059700  0.06940300  1
  Zn  Zn24  1  0.43059700  0.43059700  0.06940300  1
  Zn  Zn25  1  0.06940300  0.06940300  0.43059700  1
  Zn  Zn26  1  0.51986100  0.51986100  0.16877400  1
  Zn  Zn27  1  0.51986100  0.51986100  0.79150400  1
  Zn  Zn28  1  0.16877400  0.79150400  0.51986100  1
  Zn  Zn29  1  0.16877400  0.51986100  0.51986100  1
  Zn  Zn30  1  0.79150400  0.16877400  0.51986100  1
  Zn  Zn31  1  0.79150400  0.51986100  0.51986100  1
  Zn  Zn32  1  0.51986100  0.16877400  0.79150400  1
  Zn  Zn33  1  0.51986100  0.79150400  0.16877400  1
  Zn  Zn34  1  0.51986100  0.16877400  0.51986100  1
  Zn  Zn35  1  0.79150400  0.51986100  0.16877400  1
  Zn  Zn36  1  0.16877400  0.51986100  0.79150400  1
  Zn  Zn37  1  0.51986100  0.79150400  0.51986100  1
  Zn  Zn38  1  0.55411600  0.55411600  0.55411600  1
  Zn  Zn39  1  0.55411600  0.55411600  0.33765200  1
  Zn  Zn40  1  0.55411600  0.33765200  0.55411600  1
  Zn  Zn41  1  0.33765200  0.55411600  0.55411600  1
  Zn  Zn42  1  0.02426600  0.02426600  0.68791600  1
  Zn  Zn43  1  0.02426600  0.02426600  0.26355100  1
  Zn  Zn44  1  0.68791600  0.26355100  0.02426600  1
  Zn  Zn45  1  0.68791600  0.02426600  0.02426600  1
  Zn  Zn46  1  0.26355100  0.68791600  0.02426600  1
  Zn  Zn47  1  0.26355100  0.02426600  0.02426600  1
  Zn  Zn48  1  0.02426600  0.68791600  0.26355100  1
  Zn  Zn49  1  0.02426600  0.26355100  0.68791600  1
  Zn  Zn50  1  0.02426600  0.68791600  0.02426600  1
  Zn  Zn51  1  0.26355100  0.02426600  0.68791600  1
  Zn  Zn52  1  0.68791600  0.02426600  0.26355100  1
  Zn  Zn53  1  0.02426600  0.26355100  0.02426600  1
  Zn  Zn54  1  0.67822900  0.32177100  0.32177100  1
  Zn  Zn55  1  0.32177100  0.67822900  0.67822900  1
  Zn  Zn56  1  0.32177100  0.67822900  0.32177100  1
  Zn  Zn57  1  0.67822900  0.32177100  0.67822900  1
  Zn  Zn58  1  0.32177100  0.32177100  0.67822900  1
  Zn  Zn59  1  0.67822900  0.67822900  0.32177100  1
  Zn  Zn60  1  0.26439200  0.26439200  0.55305200  1
  Zn  Zn61  1  0.26439200  0.26439200  0.91816400  1
  Zn  Zn62  1  0.55305200  0.91816400  0.26439200  1
  Zn  Zn63  1  0.55305200  0.26439200  0.26439200  1
  Zn  Zn64  1  0.91816400  0.55305200  0.26439200  1
  Zn  Zn65  1  0.91816400  0.26439200  0.26439200  1
  Zn  Zn66  1  0.26439200  0.55305200  0.91816400  1
  Zn  Zn67  1  0.26439200  0.91816400  0.55305200  1
  Zn  Zn68  1  0.26439200  0.55305200  0.26439200  1
  Zn  Zn69  1  0.91816400  0.26439200  0.55305200  1
  Zn  Zn70  1  0.55305200  0.26439200  0.91816400  1
  Zn  Zn71  1  0.26439200  0.91816400  0.26439200  1
  Zn  Zn72  1  0.80330200  0.80330200  0.80330200  1
  Zn  Zn73  1  0.80330200  0.80330200  0.59009300  1
  Zn  Zn74  1  0.80330200  0.59009300  0.80330200  1
  Zn  Zn75  1  0.59009300  0.80330200  0.80330200  1
  Zn  Zn76  1  0.92924500  0.57075500  0.57075500  1
  Zn  Zn77  1  0.57075500  0.92924500  0.92924500  1
  Zn  Zn78  1  0.57075500  0.92924500  0.57075500  1
  Zn  Zn79  1  0.92924500  0.57075500  0.92924500  1
  Zn  Zn80  1  0.57075500  0.57075500  0.92924500  1
  Zn  Zn81  1  0.92924500  0.92924500  0.57075500  1
  Pd  Pd82  1  0.41123900  0.41123900  0.41123900  1
  Pd  Pd83  1  0.41123900  0.41123900  0.76628400  1
  Pd  Pd84  1  0.41123900  0.76628400  0.41123900  1
  Pd  Pd85  1  0.76628400  0.41123900  0.41123900  1
  Pd  Pd86  1  0.16643500  0.16643500  0.16643500  1
  Pd  Pd87  1  0.16643500  0.16643500  0.50069600  1
  Pd  Pd88  1  0.16643500  0.50069600  0.16643500  1
  Pd  Pd89  1  0.50069600  0.16643500  0.16643500  1
  Pd  Pd90  1  0.17627200  0.82372800  0.82372800  1
  Pd  Pd91  1  0.82372800  0.17627200  0.17627200  1
  Pd  Pd92  1  0.82372800  0.17627200  0.82372800  1
  Pd  Pd93  1  0.17627200  0.82372800  0.17627200  1
  Pd  Pd94  1  0.82372800  0.82372800  0.17627200  1
  Pd  Pd95  1  0.17627200  0.17627200  0.82372800  1
  Pd  Pd96  1  0.66250600  0.66250600  0.66250600  1
  Pd  Pd97  1  0.66250600  0.66250600  0.01248200  1
  Pd  Pd98  1  0.66250600  0.01248200  0.66250600  1
  Pd  Pd99  1  0.01248200  0.66250600  0.66250600  1
