# generated using pymatgen
data_TmGa
_symmetry_space_group_name_H-M   'P 1'
_cell_length_a   5.76939435
_cell_length_b   5.76939435
_cell_length_c   3.99975500
_cell_angle_alpha   90.00000000
_cell_angle_beta   90.00000000
_cell_angle_gamma   136.14809680
_symmetry_Int_Tables_number   1
_chemical_formula_structural   TmGa
_chemical_formula_sum   'Tm2 Ga2'
_cell_volume   92.23583032
_cell_formula_units_Z   2
loop_
 _symmetry_equiv_pos_site_id
 _symmetry_equiv_pos_as_xyz
  1  'x, y, z'
loop_
 _atom_site_type_symbol
 _atom_site_label
 _atom_site_symmetry_multiplicity
 _atom_site_fract_x
 _atom_site_fract_y
 _atom_site_fract_z
 _atom_site_occupancy
  Tm  Tm0  1  0.86093600  0.13906400  0.75000000  1
  Tm  Tm1  1  0.13906400  0.86093600  0.25000000  1
  Ga  Ga2  1  0.57860600  0.42139400  0.75000000  1
  Ga  Ga3  1  0.42139400  0.57860600  0.25000000  1
