# generated using pymatgen
data_Tm2Au
_symmetry_space_group_name_H-M   'P 1'
_cell_length_a   4.87363500
_cell_length_b   7.02456300
_cell_length_c   8.82559700
_cell_angle_alpha   90.00000000
_cell_angle_beta   90.00000000
_cell_angle_gamma   90.00000000
_symmetry_Int_Tables_number   1
_chemical_formula_structural   Tm2Au
_chemical_formula_sum   'Tm8 Au4'
_cell_volume   302.14569094
_cell_formula_units_Z   4
loop_
 _symmetry_equiv_pos_site_id
 _symmetry_equiv_pos_as_xyz
  1  'x, y, z'
loop_
 _atom_site_type_symbol
 _atom_site_label
 _atom_site_symmetry_multiplicity
 _atom_site_fract_x
 _atom_site_fract_y
 _atom_site_fract_z
 _atom_site_occupancy
  Tm  Tm0  1  0.25000000  0.84961700  0.92372200  1
  Tm  Tm1  1  0.25000000  0.34961700  0.57627800  1
  Tm  Tm2  1  0.75000000  0.15038300  0.07627800  1
  Tm  Tm3  1  0.75000000  0.65038300  0.42372200  1
  Tm  Tm4  1  0.25000000  0.48144100  0.17887900  1
  Tm  Tm5  1  0.25000000  0.98144100  0.32112100  1
  Tm  Tm6  1  0.75000000  0.51855900  0.82112100  1
  Tm  Tm7  1  0.75000000  0.01855900  0.67887900  1
  Au  Au8  1  0.25000000  0.25630300  0.89770000  1
  Au  Au9  1  0.25000000  0.75630300  0.60230000  1
  Au  Au10  1  0.75000000  0.74369700  0.10230000  1
  Au  Au11  1  0.75000000  0.24369700  0.39770000  1
