# generated using pymatgen
data_PrH18(BrO6)3
_symmetry_space_group_name_H-M   'P 1'
_cell_length_a   12.03973803
_cell_length_b   12.03973803
_cell_length_c   6.85573100
_cell_angle_alpha   90.00000000
_cell_angle_beta   90.00000000
_cell_angle_gamma   120.00000018
_symmetry_Int_Tables_number   1
_chemical_formula_structural   PrH18(BrO6)3
_chemical_formula_sum   'Pr2 H36 Br6 O36'
_cell_volume   860.63395086
_cell_formula_units_Z   2
loop_
 _symmetry_equiv_pos_site_id
 _symmetry_equiv_pos_as_xyz
  1  'x, y, z'
loop_
 _atom_site_type_symbol
 _atom_site_label
 _atom_site_symmetry_multiplicity
 _atom_site_fract_x
 _atom_site_fract_y
 _atom_site_fract_z
 _atom_site_occupancy
  Pr  Pr0  1  0.66666700  0.33333300  0.74934200  1
  Pr  Pr1  1  0.33333300  0.66666700  0.24934200  1
  H  H2  1  0.62896200  0.12639600  0.42991900  1
  H  H3  1  0.49743400  0.37103800  0.42991900  1
  H  H4  1  0.87360400  0.50256600  0.42991900  1
  H  H5  1  0.49743400  0.12639600  0.42991900  1
  H  H6  1  0.87360400  0.37103800  0.42991900  1
  H  H7  1  0.62896200  0.50256600  0.42991900  1
  H  H8  1  0.37096200  0.87344800  0.57019100  1
  H  H9  1  0.50248500  0.62903800  0.57019100  1
  H  H10  1  0.12655200  0.49751500  0.57019100  1
  H  H11  1  0.50248500  0.87344800  0.57019100  1
  H  H12  1  0.12655200  0.62903800  0.57019100  1
  H  H13  1  0.37096200  0.49751500  0.57019100  1
  H  H14  1  0.37103800  0.87360400  0.92991900  1
  H  H15  1  0.50256600  0.62896200  0.92991900  1
  H  H16  1  0.12639600  0.49743400  0.92991900  1
  H  H17  1  0.50256600  0.87360400  0.92991900  1
  H  H18  1  0.12639600  0.62896200  0.92991900  1
  H  H19  1  0.37103800  0.49743400  0.92991900  1
  H  H20  1  0.62903800  0.12655200  0.07019100  1
  H  H21  1  0.49751500  0.37096200  0.07019100  1
  H  H22  1  0.87344800  0.50248500  0.07019100  1
  H  H23  1  0.49751500  0.12655200  0.07019100  1
  H  H24  1  0.87344800  0.37096200  0.07019100  1
  H  H25  1  0.62903800  0.50248500  0.07019100  1
  H  H26  1  0.88360300  0.63316500  0.75416500  1
  H  H27  1  0.74956300  0.11639700  0.75416500  1
  H  H28  1  0.36683500  0.25043700  0.75416500  1
  H  H29  1  0.74956300  0.63316500  0.75416500  1
  H  H30  1  0.36683500  0.11639700  0.75416500  1
  H  H31  1  0.88360300  0.25043700  0.75416500  1
  H  H32  1  0.11639700  0.36683500  0.25416500  1
  H  H33  1  0.25043700  0.88360300  0.25416500  1
  H  H34  1  0.63316500  0.74956300  0.25416500  1
  H  H35  1  0.25043700  0.36683500  0.25416500  1
  H  H36  1  0.63316500  0.88360300  0.25416500  1
  H  H37  1  0.11639700  0.74956300  0.25416500  1
  Br  Br38  1  0.13122100  0.26244100  0.75802300  1
  Br  Br39  1  0.13122100  0.86877900  0.75802300  1
  Br  Br40  1  0.73755900  0.86877900  0.75802300  1
  Br  Br41  1  0.86877900  0.73755900  0.25802300  1
  Br  Br42  1  0.86877900  0.13122100  0.25802300  1
  Br  Br43  1  0.26244100  0.13122100  0.25802300  1
  O  O44  1  0.78973500  0.57946900  0.74253200  1
  O  O45  1  0.78973500  0.21026500  0.74253200  1
  O  O46  1  0.42053100  0.21026500  0.74253200  1
  O  O47  1  0.21026500  0.42053100  0.24253200  1
  O  O48  1  0.21026500  0.78973500  0.24253200  1
  O  O49  1  0.57946900  0.78973500  0.24253200  1
  O  O50  1  0.06898700  0.36293500  0.75015500  1
  O  O51  1  0.29394900  0.93101300  0.75015500  1
  O  O52  1  0.63706500  0.70605100  0.75015500  1
  O  O53  1  0.29394900  0.36293500  0.75015500  1
  O  O54  1  0.63706500  0.93101300  0.75015500  1
  O  O55  1  0.06898700  0.70605100  0.75015500  1
  O  O56  1  0.93101300  0.63706500  0.25015500  1
  O  O57  1  0.70605100  0.06898700  0.25015500  1
  O  O58  1  0.36293500  0.29394900  0.25015500  1
  O  O59  1  0.70605100  0.63706500  0.25015500  1
  O  O60  1  0.36293500  0.06898700  0.25015500  1
  O  O61  1  0.93101300  0.29394900  0.25015500  1
  O  O62  1  0.57786900  0.15573700  0.50366400  1
  O  O63  1  0.57786900  0.42213100  0.50366400  1
  O  O64  1  0.84426300  0.42213100  0.50366400  1
  O  O65  1  0.42217700  0.84435400  0.49601700  1
  O  O66  1  0.42217700  0.57782300  0.49601700  1
  O  O67  1  0.15564600  0.57782300  0.49601700  1
  O  O68  1  0.42213100  0.84426300  0.00366400  1
  O  O69  1  0.42213100  0.57786900  0.00366400  1
  O  O70  1  0.15573700  0.57786900  0.00366400  1
  O  O71  1  0.57782300  0.15564600  0.99601700  1
  O  O72  1  0.57782300  0.42217700  0.99601700  1
  O  O73  1  0.84435400  0.42217700  0.99601700  1
  O  O74  1  0.09348200  0.18696400  0.54572700  1
  O  O75  1  0.09348200  0.90651800  0.54572700  1
  O  O76  1  0.81303600  0.90651800  0.54572700  1
  O  O77  1  0.90651800  0.81303600  0.04572700  1
  O  O78  1  0.90651800  0.09348200  0.04572700  1
  O  O79  1  0.18696400  0.09348200  0.04572700  1
