# generated using pymatgen
data_ThSiNi
_symmetry_space_group_name_H-M   'P 1'
_cell_length_a   7.56719343
_cell_length_b   7.56719343
_cell_length_c   7.56719343
_cell_angle_alpha   148.75371543
_cell_angle_beta   148.75371543
_cell_angle_gamma   44.77395098
_symmetry_Int_Tables_number   1
_chemical_formula_structural   ThSiNi
_chemical_formula_sum   'Th2 Si2 Ni2'
_cell_volume   116.23445877
_cell_formula_units_Z   2
loop_
 _symmetry_equiv_pos_site_id
 _symmetry_equiv_pos_as_xyz
  1  'x, y, z'
loop_
 _atom_site_type_symbol
 _atom_site_label
 _atom_site_symmetry_multiplicity
 _atom_site_fract_x
 _atom_site_fract_y
 _atom_site_fract_z
 _atom_site_occupancy
  Th  Th0  1  0.74920500  0.24920500  0.50000000  1
  Th  Th1  1  0.99920500  0.99920500  0.00000000  1
  Si  Si2  1  0.16831300  0.66831300  0.50000000  1
  Si  Si3  1  0.41831300  0.41831300  0.00000000  1
  Ni  Ni4  1  0.33648200  0.83648200  0.50000000  1
  Ni  Ni5  1  0.58648200  0.58648200  0.00000000  1
