# generated using pymatgen
data_CdNi(PO3)4
_symmetry_space_group_name_H-M   'P 1'
_cell_length_a   7.45187932
_cell_length_b   7.45187932
_cell_length_c   10.07589475
_cell_angle_alpha   67.63855062
_cell_angle_beta   67.63855062
_cell_angle_gamma   71.11948970
_symmetry_Int_Tables_number   1
_chemical_formula_structural   CdNi(PO3)4
_chemical_formula_sum   'Cd2 Ni2 P8 O24'
_cell_volume   467.95344659
_cell_formula_units_Z   2
loop_
 _symmetry_equiv_pos_site_id
 _symmetry_equiv_pos_as_xyz
  1  'x, y, z'
loop_
 _atom_site_type_symbol
 _atom_site_label
 _atom_site_symmetry_multiplicity
 _atom_site_fract_x
 _atom_site_fract_y
 _atom_site_fract_z
 _atom_site_occupancy
  Cd  Cd0  1  0.45013200  0.54986800  0.25000000  1
  Cd  Cd1  1  0.54986800  0.45013200  0.75000000  1
  Ni  Ni2  1  0.50000000  0.00000000  0.00000000  1
  Ni  Ni3  1  0.00000000  0.50000000  0.50000000  1
  P  P4  1  0.76756200  0.21938700  0.47503400  1
  P  P5  1  0.23243800  0.78061300  0.52496600  1
  P  P6  1  0.78061300  0.23243800  0.02496600  1
  P  P7  1  0.21938700  0.76756200  0.97503400  1
  P  P8  1  0.81281300  0.80515600  0.19607300  1
  P  P9  1  0.18718700  0.19484400  0.80392700  1
  P  P10  1  0.19484400  0.18718700  0.30392700  1
  P  P11  1  0.80515600  0.81281300  0.69607300  1
  O  O12  1  0.59312400  0.32440100  0.41875700  1
  O  O13  1  0.40687600  0.67559900  0.58124300  1
  O  O14  1  0.67559900  0.40687600  0.08124300  1
  O  O15  1  0.32440100  0.59312400  0.91875700  1
  O  O16  1  0.30936000  0.15353400  0.15565900  1
  O  O17  1  0.69064000  0.84646600  0.84434100  1
  O  O18  1  0.84646600  0.69064000  0.34434100  1
  O  O19  1  0.15353400  0.30936000  0.65565900  1
  O  O20  1  0.62745100  0.79931100  0.16914600  1
  O  O21  1  0.37254900  0.20068900  0.83085400  1
  O  O22  1  0.20068900  0.37254900  0.33085400  1
  O  O23  1  0.79931100  0.62745100  0.66914600  1
  O  O24  1  0.30226600  0.81305100  0.07307100  1
  O  O25  1  0.69773400  0.18694900  0.92692900  1
  O  O26  1  0.18694900  0.69773400  0.42692900  1
  O  O27  1  0.81305100  0.30226600  0.57307100  1
  O  O28  1  0.81120800  0.03522000  0.16276200  1
  O  O29  1  0.18879200  0.96478000  0.83723800  1
  O  O30  1  0.96478000  0.18879200  0.33723800  1
  O  O31  1  0.03522000  0.81120800  0.66276200  1
  O  O32  1  0.73818800  0.99587300  0.56283200  1
  O  O33  1  0.26181200  0.00412700  0.43716800  1
  O  O34  1  0.00412700  0.26181200  0.93716800  1
  O  O35  1  0.99587300  0.73818800  0.06283200  1
