# generated using pymatgen
data_PAuO4
_symmetry_space_group_name_H-M   'P 1'
_cell_length_a   4.93159856
_cell_length_b   4.93159856
_cell_length_c   7.91944686
_cell_angle_alpha   84.36394654
_cell_angle_beta   84.36394654
_cell_angle_gamma   71.09893124
_symmetry_Int_Tables_number   1
_chemical_formula_structural   PAuO4
_chemical_formula_sum   'P2 Au2 O8'
_cell_volume   180.88837853
_cell_formula_units_Z   2
loop_
 _symmetry_equiv_pos_site_id
 _symmetry_equiv_pos_as_xyz
  1  'x, y, z'
loop_
 _atom_site_type_symbol
 _atom_site_label
 _atom_site_symmetry_multiplicity
 _atom_site_fract_x
 _atom_site_fract_y
 _atom_site_fract_z
 _atom_site_occupancy
  P  P0  1  0.07421900  0.92578100  0.75000000  1
  P  P1  1  0.92578100  0.07421900  0.25000000  1
  Au  Au2  1  0.00000000  0.50000000  0.50000000  1
  Au  Au3  1  0.50000000  0.00000000  0.00000000  1
  O  O4  1  0.25665500  0.79807100  0.90608100  1
  O  O5  1  0.20192900  0.74334500  0.59391900  1
  O  O6  1  0.74334500  0.20192900  0.09391900  1
  O  O7  1  0.79807100  0.25665500  0.40608100  1
  O  O8  1  0.76494200  0.90698800  0.78835900  1
  O  O9  1  0.09301200  0.23505800  0.71164100  1
  O  O10  1  0.23505800  0.09301200  0.21164100  1
  O  O11  1  0.90698800  0.76494200  0.28835900  1
