# generated using pymatgen
data_Ni2Te3O8
_symmetry_space_group_name_H-M   'P 1'
_cell_length_a   6.78528079
_cell_length_b   6.78528079
_cell_length_c   11.53781353
_cell_angle_alpha   82.06522877
_cell_angle_beta   82.06522877
_cell_angle_gamma   45.59094901
_symmetry_Int_Tables_number   1
_chemical_formula_structural   Ni2Te3O8
_chemical_formula_sum   'Ni4 Te6 O16'
_cell_volume   375.19168206
_cell_formula_units_Z   2
loop_
 _symmetry_equiv_pos_site_id
 _symmetry_equiv_pos_as_xyz
  1  'x, y, z'
loop_
 _atom_site_type_symbol
 _atom_site_label
 _atom_site_symmetry_multiplicity
 _atom_site_fract_x
 _atom_site_fract_y
 _atom_site_fract_z
 _atom_site_occupancy
  Ni  Ni0  1  0.06000900  0.41297300  0.14519900  1
  Ni  Ni1  1  0.58702700  0.93999100  0.35480100  1
  Ni  Ni2  1  0.93999100  0.58702700  0.85480100  1
  Ni  Ni3  1  0.41297300  0.06000900  0.64519900  1
  Te  Te4  1  0.81623600  0.18376400  0.75000000  1
  Te  Te5  1  0.18376400  0.81623600  0.25000000  1
  Te  Te6  1  0.95080800  0.31814600  0.44449500  1
  Te  Te7  1  0.68185300  0.04919200  0.05550500  1
  Te  Te8  1  0.04919200  0.68185400  0.55550500  1
  Te  Te9  1  0.31814700  0.95080800  0.94449500  1
  O  O10  1  0.27574400  0.25933000  0.97341300  1
  O  O11  1  0.74067000  0.72425600  0.52658700  1
  O  O12  1  0.72425600  0.74067000  0.02658700  1
  O  O13  1  0.25933000  0.27574400  0.47341300  1
  O  O14  1  0.54570500  0.85135700  0.80131700  1
  O  O15  1  0.14864300  0.45429500  0.69868300  1
  O  O16  1  0.45429500  0.14864300  0.19868300  1
  O  O17  1  0.85135700  0.54570500  0.30131700  1
  O  O18  1  0.96072100  0.26440600  0.86961000  1
  O  O19  1  0.73559400  0.03927900  0.63039000  1
  O  O20  1  0.03860000  0.12912300  0.14361200  1
  O  O21  1  0.87087700  0.96140000  0.35638800  1
  O  O22  1  0.96140000  0.87087700  0.85638800  1
  O  O23  1  0.12912300  0.03860000  0.64361200  1
  O  O24  1  0.26440600  0.96072100  0.36961000  1
  O  O25  1  0.03927900  0.73559400  0.13039000  1
