# generated using pymatgen
data_KPrF4
_symmetry_space_group_name_H-M   'P 1'
_cell_length_a   3.81299000
_cell_length_b   6.32760700
_cell_length_c   15.85253800
_cell_angle_alpha   90.00000000
_cell_angle_beta   90.00000000
_cell_angle_gamma   90.00000000
_symmetry_Int_Tables_number   1
_chemical_formula_structural   KPrF4
_chemical_formula_sum   'K4 Pr4 F16'
_cell_volume   382.47580469
_cell_formula_units_Z   4
loop_
 _symmetry_equiv_pos_site_id
 _symmetry_equiv_pos_as_xyz
  1  'x, y, z'
loop_
 _atom_site_type_symbol
 _atom_site_label
 _atom_site_symmetry_multiplicity
 _atom_site_fract_x
 _atom_site_fract_y
 _atom_site_fract_z
 _atom_site_occupancy
  K  K0  1  0.25000000  0.22129800  0.29733800  1
  K  K1  1  0.75000000  0.77870200  0.70266200  1
  K  K2  1  0.25000000  0.72129800  0.20266200  1
  K  K3  1  0.75000000  0.27870200  0.79733800  1
  Pr  Pr4  1  0.75000000  0.24838600  0.06106500  1
  Pr  Pr5  1  0.25000000  0.75161400  0.93893500  1
  Pr  Pr6  1  0.75000000  0.74838600  0.43893500  1
  Pr  Pr7  1  0.25000000  0.25161400  0.56106500  1
  F  F8  1  0.25000000  0.08949200  0.69337300  1
  F  F9  1  0.75000000  0.91050800  0.30662700  1
  F  F10  1  0.25000000  0.58949200  0.80662700  1
  F  F11  1  0.75000000  0.41050800  0.19337300  1
  F  F12  1  0.75000000  0.39654100  0.63465900  1
  F  F13  1  0.25000000  0.60345900  0.36534100  1
  F  F14  1  0.75000000  0.89654100  0.86534100  1
  F  F15  1  0.25000000  0.10345900  0.13465900  1
  F  F16  1  0.75000000  0.36511200  0.46429900  1
  F  F17  1  0.25000000  0.63488800  0.53570100  1
  F  F18  1  0.75000000  0.86511200  0.03570100  1
  F  F19  1  0.25000000  0.13488800  0.96429900  1
  F  F20  1  0.25000000  0.50554500  0.05833900  1
  F  F21  1  0.75000000  0.49445500  0.94166100  1
  F  F22  1  0.25000000  0.00554500  0.44166100  1
  F  F23  1  0.75000000  0.99445500  0.55833900  1
