# generated using pymatgen
data_SmGa3Au
_symmetry_space_group_name_H-M   'P 1'
_cell_length_a   4.23879700
_cell_length_b   4.23879700
_cell_length_c   6.36492930
_cell_angle_alpha   70.55021383
_cell_angle_beta   70.55021383
_cell_angle_gamma   90.00000000
_symmetry_Int_Tables_number   1
_chemical_formula_structural   SmGa3Au
_chemical_formula_sum   'Sm1 Ga3 Au1'
_cell_volume   100.88759787
_cell_formula_units_Z   1
loop_
 _symmetry_equiv_pos_site_id
 _symmetry_equiv_pos_as_xyz
  1  'x, y, z'
loop_
 _atom_site_type_symbol
 _atom_site_label
 _atom_site_symmetry_multiplicity
 _atom_site_fract_x
 _atom_site_fract_y
 _atom_site_fract_z
 _atom_site_occupancy
  Sm  Sm0  1  0.99107000  0.99107000  0.01785900  1
  Ga  Ga1  1  0.75072200  0.25072200  0.49855600  1
  Ga  Ga2  1  0.25072200  0.75072200  0.49855600  1
  Ga  Ga3  1  0.39276700  0.39276700  0.21446600  1
  Au  Au4  1  0.61471800  0.61471800  0.77056400  1
