# generated using pymatgen
data_Pr2CoSn4
_symmetry_space_group_name_H-M   'P 1'
_cell_length_a   4.57776200
_cell_length_b   4.59869300
_cell_length_c   8.82893194
_cell_angle_alpha   74.90423175
_cell_angle_beta   90.00000000
_cell_angle_gamma   90.00000000
_symmetry_Int_Tables_number   1
_chemical_formula_structural   Pr2CoSn4
_chemical_formula_sum   'Pr2 Co1 Sn4'
_cell_volume   179.45039443
_cell_formula_units_Z   1
loop_
 _symmetry_equiv_pos_site_id
 _symmetry_equiv_pos_as_xyz
  1  'x, y, z'
loop_
 _atom_site_type_symbol
 _atom_site_label
 _atom_site_symmetry_multiplicity
 _atom_site_fract_x
 _atom_site_fract_y
 _atom_site_fract_z
 _atom_site_occupancy
  Pr  Pr0  1  0.25000000  0.90161400  0.19677200  1
  Pr  Pr1  1  0.75000000  0.10434200  0.79131600  1
  Co  Co2  1  0.25000000  0.69999400  0.60001300  1
  Sn  Sn3  1  0.25000000  0.55437100  0.89125800  1
  Sn  Sn4  1  0.75000000  0.43795800  0.12408500  1
  Sn  Sn5  1  0.25000000  0.26137900  0.47724300  1
  Sn  Sn6  1  0.75000000  0.75834300  0.48331400  1
