# generated using pymatgen
data_Er(BIr)4
_symmetry_space_group_name_H-M   'P 1'
_cell_length_a   5.40279000
_cell_length_b   5.40279000
_cell_length_c   7.46239300
_cell_angle_alpha   90.00000000
_cell_angle_beta   90.00000000
_cell_angle_gamma   90.00000000
_symmetry_Int_Tables_number   1
_chemical_formula_structural   Er(BIr)4
_chemical_formula_sum   'Er2 B8 Ir8'
_cell_volume   217.82829479
_cell_formula_units_Z   2
loop_
 _symmetry_equiv_pos_site_id
 _symmetry_equiv_pos_as_xyz
  1  'x, y, z'
loop_
 _atom_site_type_symbol
 _atom_site_label
 _atom_site_symmetry_multiplicity
 _atom_site_fract_x
 _atom_site_fract_y
 _atom_site_fract_z
 _atom_site_occupancy
  Er  Er0  1  0.00000000  0.00000000  0.00000000  1
  Er  Er1  1  0.50000000  0.50000000  0.50000000  1
  B  B2  1  0.82738100  0.50000000  0.15349800  1
  B  B3  1  0.17261900  0.50000000  0.15349800  1
  B  B4  1  0.00000000  0.32738100  0.65349800  1
  B  B5  1  0.00000000  0.67261900  0.65349800  1
  B  B6  1  0.67261900  0.00000000  0.34650200  1
  B  B7  1  0.32738100  0.00000000  0.34650200  1
  B  B8  1  0.50000000  0.17261900  0.84650200  1
  B  B9  1  0.50000000  0.82738100  0.84650200  1
  Ir  Ir10  1  0.25107700  0.50000000  0.85525100  1
  Ir  Ir11  1  0.74892300  0.50000000  0.85525100  1
  Ir  Ir12  1  0.00000000  0.75107700  0.35525100  1
  Ir  Ir13  1  0.00000000  0.24892300  0.35525100  1
  Ir  Ir14  1  0.24892300  0.00000000  0.64474900  1
  Ir  Ir15  1  0.75107700  0.00000000  0.64474900  1
  Ir  Ir16  1  0.50000000  0.74892300  0.14474900  1
  Ir  Ir17  1  0.50000000  0.25107700  0.14474900  1
