# generated using pymatgen
data_BaLi2MnV2O8
_symmetry_space_group_name_H-M   'P 1'
_cell_length_a   5.35145904
_cell_length_b   9.13787040
_cell_length_c   9.12853731
_cell_angle_alpha   61.04528758
_cell_angle_beta   72.95561526
_cell_angle_gamma   73.00019056
_symmetry_Int_Tables_number   1
_chemical_formula_structural   BaLi2MnV2O8
_chemical_formula_sum   'Ba2 Li4 Mn2 V4 O16'
_cell_volume   367.35007136
_cell_formula_units_Z   2
loop_
 _symmetry_equiv_pos_site_id
 _symmetry_equiv_pos_as_xyz
  1  'x, y, z'
loop_
 _atom_site_type_symbol
 _atom_site_label
 _atom_site_symmetry_multiplicity
 _atom_site_fract_x
 _atom_site_fract_y
 _atom_site_fract_z
 _atom_site_occupancy
  Ba  Ba0  1  0.75018600  0.25008600  0.24979100  1
  Ba  Ba1  1  0.24995600  0.75011300  0.74988900  1
  Li  Li2  1  0.61860900  0.71440500  0.04812400  1
  Li  Li3  1  0.11874200  0.21440600  0.54807500  1
  Li  Li4  1  0.38122900  0.28561500  0.95193100  1
  Li  Li5  1  0.88131300  0.78561400  0.45188100  1
  Mn  Mn6  1  0.50092000  0.49971300  0.50018200  1
  Mn  Mn7  1  0.99956000  0.00002600  0.99982300  1
  V  V8  1  0.12666500  0.53970200  0.20704900  1
  V  V9  1  0.62659100  0.03968800  0.70702700  1
  V  V10  1  0.87338800  0.46033800  0.79300400  1
  V  V11  1  0.37328400  0.96028100  0.29299900  1
  O  O12  1  0.24379800  0.42329500  0.09018800  1
  O  O13  1  0.74376800  0.92328900  0.59021100  1
  O  O14  1  0.75621100  0.57671900  0.90980100  1
  O  O15  1  0.25616900  0.07672200  0.40985300  1
  O  O16  1  0.77453900  0.26211700  0.92245200  1
  O  O17  1  0.27462000  0.76208200  0.42248100  1
  O  O18  1  0.22051800  0.44163800  0.74284200  1
  O  O19  1  0.72041200  0.94162600  0.24289700  1
  O  O20  1  0.72858800  0.57474500  0.60987600  1
  O  O21  1  0.22849500  0.07468300  0.10993000  1
  O  O22  1  0.22520200  0.73792700  0.07749900  1
  O  O23  1  0.72546600  0.23784200  0.57758800  1
  O  O24  1  0.77945600  0.55836500  0.25717200  1
  O  O25  1  0.27942400  0.05837200  0.75718100  1
  O  O26  1  0.27149800  0.42532400  0.39011500  1
  O  O27  1  0.77139100  0.92526700  0.89013800  1
