# generated using pymatgen
data_Rb8Nb6H28O33
_symmetry_space_group_name_H-M   'P 1'
_cell_length_a   10.36453700
_cell_length_b   15.98243300
_cell_length_c   14.22017406
_cell_angle_alpha   90.00000000
_cell_angle_beta   126.07176671
_cell_angle_gamma   90.00000000
_symmetry_Int_Tables_number   1
_chemical_formula_structural   Rb8Nb6H28O33
_chemical_formula_sum   'Rb16 Nb12 H56 O66'
_cell_volume   1903.96784048
_cell_formula_units_Z   2
loop_
 _symmetry_equiv_pos_site_id
 _symmetry_equiv_pos_as_xyz
  1  'x, y, z'
loop_
 _atom_site_type_symbol
 _atom_site_label
 _atom_site_symmetry_multiplicity
 _atom_site_fract_x
 _atom_site_fract_y
 _atom_site_fract_z
 _atom_site_occupancy
  Rb  Rb0  1  0.51739800  0.64013300  0.89666700  1
  Rb  Rb1  1  0.51739800  0.85986700  0.39666700  1
  Rb  Rb2  1  0.48260200  0.35986700  0.10333300  1
  Rb  Rb3  1  0.48260200  0.14013300  0.60333300  1
  Rb  Rb4  1  0.46762800  0.88939200  0.85093200  1
  Rb  Rb5  1  0.46762800  0.61060800  0.35093200  1
  Rb  Rb6  1  0.53237200  0.11060800  0.14906800  1
  Rb  Rb7  1  0.53237200  0.38939200  0.64906800  1
  Rb  Rb8  1  0.90645400  0.79628400  0.87732300  1
  Rb  Rb9  1  0.90645400  0.70371600  0.37732300  1
  Rb  Rb10  1  0.09354600  0.20371600  0.12267700  1
  Rb  Rb11  1  0.09354600  0.29628400  0.62267700  1
  Rb  Rb12  1  0.99587600  0.92889400  0.16596300  1
  Rb  Rb13  1  0.99587600  0.57110600  0.66596300  1
  Rb  Rb14  1  0.00412400  0.07110600  0.83403700  1
  Rb  Rb15  1  0.00412400  0.42889400  0.33403700  1
  Nb  Nb16  1  0.98731400  0.60688000  0.11588800  1
  Nb  Nb17  1  0.98731400  0.89312000  0.61588800  1
  Nb  Nb18  1  0.01268600  0.39312000  0.88411200  1
  Nb  Nb19  1  0.01268600  0.10688000  0.38411200  1
  Nb  Nb20  1  0.80762100  0.57169300  0.82921800  1
  Nb  Nb21  1  0.80762100  0.92830700  0.32921800  1
  Nb  Nb22  1  0.19237900  0.42830700  0.17078200  1
  Nb  Nb23  1  0.19237900  0.07169300  0.67078200  1
  Nb  Nb24  1  0.20842400  0.57779500  0.01221400  1
  Nb  Nb25  1  0.20842400  0.92220500  0.51221400  1
  Nb  Nb26  1  0.79157600  0.42220500  0.98778600  1
  Nb  Nb27  1  0.79157600  0.07779500  0.48778600  1
  H  H28  1  0.69758700  0.81978200  0.10877600  1
  H  H29  1  0.69758700  0.68021800  0.60877600  1
  H  H30  1  0.30241300  0.18021800  0.89122400  1
  H  H31  1  0.30241300  0.31978200  0.39122400  1
  H  H32  1  0.81217800  0.75788900  0.10366300  1
  H  H33  1  0.81217800  0.74211100  0.60366300  1
  H  H34  1  0.18782200  0.24211100  0.89633700  1
  H  H35  1  0.18782200  0.25788900  0.39633700  1
  H  H36  1  0.46719300  0.89891300  0.10943200  1
  H  H37  1  0.46719300  0.60108700  0.60943200  1
  H  H38  1  0.53280700  0.10108700  0.89056800  1
  H  H39  1  0.53280700  0.39891300  0.39056800  1
  H  H40  1  0.31274400  0.86896800  0.98929700  1
  H  H41  1  0.31274400  0.63103200  0.48929700  1
  H  H42  1  0.68725600  0.13103200  0.01070300  1
  H  H43  1  0.68725600  0.36896800  0.51070300  1
  H  H44  1  0.19379900  0.75790400  0.13081100  1
  H  H45  1  0.19379900  0.74209600  0.63081100  1
  H  H46  1  0.80620100  0.24209600  0.86918900  1
  H  H47  1  0.80620100  0.25790400  0.36918900  1
  H  H48  1  0.25699600  0.84288800  0.11223700  1
  H  H49  1  0.25699600  0.65711200  0.61223700  1
  H  H50  1  0.74300400  0.15711200  0.88776300  1
  H  H51  1  0.74300400  0.34288800  0.38776300  1
  H  H52  1  0.75166200  0.01038300  0.92322700  1
  H  H53  1  0.75166200  0.48961700  0.42322700  1
  H  H54  1  0.24833800  0.98961700  0.07677300  1
  H  H55  1  0.24833800  0.51038300  0.57677300  1
  H  H56  1  0.74099900  0.96548300  0.82029500  1
  H  H57  1  0.74099900  0.53451700  0.32029500  1
  H  H58  1  0.25900100  0.03451700  0.17970500  1
  H  H59  1  0.25900100  0.46548300  0.67970500  1
  H  H60  1  0.58293200  0.72011400  0.71898500  1
  H  H61  1  0.58293200  0.77988600  0.21898500  1
  H  H62  1  0.41706800  0.27988600  0.28101500  1
  H  H63  1  0.41706800  0.22011400  0.78101500  1
  H  H64  1  0.48366200  0.80244100  0.66000400  1
  H  H65  1  0.48366200  0.69755900  0.16000400  1
  H  H66  1  0.51633800  0.19755900  0.33999600  1
  H  H67  1  0.51633800  0.30244100  0.83999600  1
  H  H68  1  0.16580400  0.78580300  0.82665000  1
  H  H69  1  0.16580400  0.71419700  0.32665000  1
  H  H70  1  0.83419600  0.21419700  0.17335000  1
  H  H71  1  0.83419600  0.28580300  0.67335000  1
  H  H72  1  0.29674900  0.73093100  0.94076000  1
  H  H73  1  0.29674900  0.76906900  0.44076000  1
  H  H74  1  0.70325100  0.26906900  0.05924000  1
  H  H75  1  0.70325100  0.23093100  0.55924000  1
  H  H76  1  0.56057900  0.93420200  0.62669800  1
  H  H77  1  0.56057900  0.56579800  0.12669800  1
  H  H78  1  0.43942100  0.06579800  0.37330200  1
  H  H79  1  0.43942100  0.43420200  0.87330200  1
  H  H80  1  0.71511300  0.96825200  0.63656600  1
  H  H81  1  0.71511300  0.53174800  0.13656600  1
  H  H82  1  0.28488700  0.03174800  0.36343400  1
  H  H83  1  0.28488700  0.46825200  0.86343400  1
  O  O84  1  0.00000000  0.50000000  0.00000000  1
  O  O85  1  0.00000000  0.00000000  0.50000000  1
  O  O86  1  0.14923500  0.52546100  0.23683300  1
  O  O87  1  0.14923500  0.97453900  0.73683300  1
  O  O88  1  0.85076500  0.47453900  0.76316700  1
  O  O89  1  0.85076500  0.02546100  0.26316700  1
  O  O90  1  0.83284600  0.64708700  0.95314000  1
  O  O91  1  0.83284600  0.85291300  0.45314000  1
  O  O92  1  0.16715400  0.35291300  0.04686000  1
  O  O93  1  0.16715400  0.14708700  0.54686000  1
  O  O94  1  0.65540700  0.63236400  0.69699700  1
  O  O95  1  0.65540700  0.86763600  0.19699700  1
  O  O96  1  0.34459300  0.36763600  0.30300300  1
  O  O97  1  0.34459300  0.13236400  0.80300300  1
  O  O98  1  0.37348600  0.63628100  0.02694500  1
  O  O99  1  0.37348600  0.86371900  0.52694500  1
  O  O100  1  0.62651400  0.36371900  0.97305500  1
  O  O101  1  0.62651400  0.13628100  0.47305500  1
  O  O102  1  0.16450400  0.64978000  0.10710500  1
  O  O103  1  0.16450400  0.85022000  0.60710500  1
  O  O104  1  0.83549600  0.35022000  0.89289500  1
  O  O105  1  0.83549600  0.14978000  0.39289500  1
  O  O106  1  0.81671100  0.52390900  0.08475000  1
  O  O107  1  0.81671100  0.97609100  0.58475000  1
  O  O108  1  0.18328900  0.47609100  0.91525000  1
  O  O109  1  0.18328900  0.02390900  0.41525000  1
  O  O110  1  0.97763400  0.68875900  0.20209700  1
  O  O111  1  0.97763400  0.81124100  0.70209700  1
  O  O112  1  0.02236600  0.31124100  0.79790300  1
  O  O113  1  0.02236600  0.18875900  0.29790300  1
  O  O114  1  0.01236200  0.62421500  0.86867500  1
  O  O115  1  0.01236200  0.87578500  0.36867500  1
  O  O116  1  0.98763800  0.37578500  0.13132500  1
  O  O117  1  0.98763800  0.12421500  0.63132500  1
  O  O118  1  0.66900400  0.49879300  0.84878400  1
  O  O119  1  0.66900400  0.00120700  0.34878400  1
  O  O120  1  0.33099600  0.50120700  0.15121600  1
  O  O121  1  0.33099600  0.99879300  0.65121600  1
  O  O122  1  0.72330800  0.79801900  0.05590200  1
  O  O123  1  0.72330800  0.70198100  0.55590200  1
  O  O124  1  0.27669200  0.20198100  0.94409800  1
  O  O125  1  0.27669200  0.29801900  0.44409800  1
  O  O126  1  0.34975500  0.91094800  0.05258400  1
  O  O127  1  0.34975500  0.58905200  0.55258400  1
  O  O128  1  0.65024500  0.08905200  0.94741600  1
  O  O129  1  0.65024500  0.41094800  0.44741600  1
  O  O130  1  0.19113800  0.82023100  0.13515300  1
  O  O131  1  0.19113800  0.67976900  0.63515300  1
  O  O132  1  0.80886200  0.17976900  0.86484700  1
  O  O133  1  0.80886200  0.32023100  0.36484700  1
  O  O134  1  0.79693000  0.96346500  0.90604700  1
  O  O135  1  0.79693000  0.53653500  0.40604700  1
  O  O136  1  0.20307000  0.03653500  0.09395300  1
  O  O137  1  0.20307000  0.46346500  0.59395300  1
  O  O138  1  0.54902100  0.77307300  0.73595400  1
  O  O139  1  0.54902100  0.72692700  0.23595400  1
  O  O140  1  0.45097900  0.22692700  0.26404600  1
  O  O141  1  0.45097900  0.27307300  0.76404600  1
  O  O142  1  0.27649200  0.78529100  0.90029800  1
  O  O143  1  0.27649200  0.71470900  0.40029800  1
  O  O144  1  0.72350800  0.21470900  0.09970200  1
  O  O145  1  0.72350800  0.28529100  0.59970200  1
  O  O146  1  0.65614800  0.96996400  0.67345900  1
  O  O147  1  0.65614800  0.53003600  0.17345900  1
  O  O148  1  0.34385200  0.03003600  0.32654100  1
  O  O149  1  0.34385200  0.46996400  0.82654100  1
