# generated using pymatgen
data_ZrSnS3
_symmetry_space_group_name_H-M   'P 1'
_cell_length_a   3.75387100
_cell_length_b   9.57251300
_cell_length_c   14.15166500
_cell_angle_alpha   90.00000000
_cell_angle_beta   90.00000000
_cell_angle_gamma   90.00000000
_symmetry_Int_Tables_number   1
_chemical_formula_structural   ZrSnS3
_chemical_formula_sum   'Zr4 Sn4 S12'
_cell_volume   508.52563219
_cell_formula_units_Z   4
loop_
 _symmetry_equiv_pos_site_id
 _symmetry_equiv_pos_as_xyz
  1  'x, y, z'
loop_
 _atom_site_type_symbol
 _atom_site_label
 _atom_site_symmetry_multiplicity
 _atom_site_fract_x
 _atom_site_fract_y
 _atom_site_fract_z
 _atom_site_occupancy
  Zr  Zr0  1  0.25000000  0.15758700  0.95258400  1
  Zr  Zr1  1  0.75000000  0.84241300  0.04741600  1
  Zr  Zr2  1  0.25000000  0.65758700  0.54741600  1
  Zr  Zr3  1  0.75000000  0.34241300  0.45258400  1
  Sn  Sn4  1  0.75000000  0.44446800  0.83404200  1
  Sn  Sn5  1  0.25000000  0.55553200  0.16595800  1
  Sn  Sn6  1  0.75000000  0.94446800  0.66595800  1
  Sn  Sn7  1  0.25000000  0.05553200  0.33404200  1
  S  S8  1  0.25000000  0.01063500  0.10656900  1
  S  S9  1  0.75000000  0.98936500  0.89343100  1
  S  S10  1  0.25000000  0.51063500  0.39343100  1
  S  S11  1  0.75000000  0.48936500  0.60656900  1
  S  S12  1  0.75000000  0.32326400  0.00792900  1
  S  S13  1  0.25000000  0.67673600  0.99207100  1
  S  S14  1  0.75000000  0.82326400  0.49207100  1
  S  S15  1  0.25000000  0.17673600  0.50792900  1
  S  S16  1  0.75000000  0.23360600  0.28731200  1
  S  S17  1  0.25000000  0.76639400  0.71268800  1
  S  S18  1  0.75000000  0.73360600  0.21268800  1
  S  S19  1  0.25000000  0.26639400  0.78731200  1
