# generated using pymatgen
data_Pr4Ga2O9
_symmetry_space_group_name_H-M   'P 1'
_cell_length_a   11.16423000
_cell_length_b   7.90760800
_cell_length_c   11.69701900
_cell_angle_alpha   70.84475845
_cell_angle_beta   90.00000000
_cell_angle_gamma   90.00000000
_symmetry_Int_Tables_number   1
_chemical_formula_structural   Pr4Ga2O9
_chemical_formula_sum   'Pr16 Ga8 O36'
_cell_volume   975.46616457
_cell_formula_units_Z   4
loop_
 _symmetry_equiv_pos_site_id
 _symmetry_equiv_pos_as_xyz
  1  'x, y, z'
loop_
 _atom_site_type_symbol
 _atom_site_label
 _atom_site_symmetry_multiplicity
 _atom_site_fract_x
 _atom_site_fract_y
 _atom_site_fract_z
 _atom_site_occupancy
  Pr  Pr0  1  0.62216000  0.16527000  0.91181100  1
  Pr  Pr1  1  0.12216000  0.83473000  0.58818900  1
  Pr  Pr2  1  0.37784000  0.83473000  0.08818900  1
  Pr  Pr3  1  0.87784000  0.16527000  0.41181100  1
  Pr  Pr4  1  0.62193300  0.66625100  0.92826200  1
  Pr  Pr5  1  0.12193300  0.33374900  0.57173800  1
  Pr  Pr6  1  0.37806700  0.33374900  0.07173800  1
  Pr  Pr7  1  0.87806700  0.66625100  0.42826200  1
  Pr  Pr8  1  0.58864100  0.97643100  0.30576900  1
  Pr  Pr9  1  0.08864100  0.02356900  0.19423100  1
  Pr  Pr10  1  0.41135900  0.02356900  0.69423100  1
  Pr  Pr11  1  0.91135900  0.97643100  0.80576900  1
  Pr  Pr12  1  0.60369500  0.47912800  0.28241500  1
  Pr  Pr13  1  0.10369500  0.52087200  0.21758500  1
  Pr  Pr14  1  0.39630500  0.52087200  0.71758500  1
  Pr  Pr15  1  0.89630500  0.47912800  0.78241500  1
  Ga  Ga16  1  0.68479000  0.34550100  0.61509100  1
  Ga  Ga17  1  0.18479000  0.65449900  0.88490900  1
  Ga  Ga18  1  0.31521000  0.65449900  0.38490900  1
  Ga  Ga19  1  0.81521000  0.34550100  0.11509100  1
  Ga  Ga20  1  0.68778200  0.78230300  0.62719900  1
  Ga  Ga21  1  0.18778200  0.21769700  0.87280100  1
  Ga  Ga22  1  0.31221800  0.21769700  0.37280100  1
  Ga  Ga23  1  0.81221800  0.78230300  0.12719900  1
  O  O24  1  0.51076000  0.43078700  0.89848800  1
  O  O25  1  0.01076000  0.56921300  0.60151200  1
  O  O26  1  0.48924000  0.56921300  0.10151200  1
  O  O27  1  0.98924000  0.43078700  0.39848800  1
  O  O28  1  0.49559600  0.92344400  0.89541600  1
  O  O29  1  0.99559600  0.07655600  0.60458400  1
  O  O30  1  0.50440400  0.07655600  0.10458400  1
  O  O31  1  0.00440400  0.92344400  0.39541600  1
  O  O32  1  0.53132800  0.29606500  0.67846700  1
  O  O33  1  0.03132800  0.70393500  0.82153300  1
  O  O34  1  0.46867200  0.70393500  0.32153300  1
  O  O35  1  0.96867200  0.29606500  0.17846700  1
  O  O36  1  0.72642100  0.36012600  0.46043800  1
  O  O37  1  0.22642100  0.63987400  0.03956200  1
  O  O38  1  0.52971500  0.77857200  0.67240600  1
  O  O39  1  0.27357900  0.63987400  0.53956200  1
  O  O40  1  0.74973300  0.56816800  0.61239100  1
  O  O41  1  0.24973300  0.43183200  0.88760900  1
  O  O42  1  0.25026700  0.43183200  0.38760900  1
  O  O43  1  0.75026700  0.56816800  0.11239100  1
  O  O44  1  0.73169900  0.92750900  0.47581600  1
  O  O45  1  0.23169900  0.07249100  0.02418400  1
  O  O46  1  0.26830100  0.07249100  0.52418400  1
  O  O47  1  0.76830100  0.92750900  0.97581600  1
  O  O48  1  0.77641400  0.21562100  0.74809900  1
  O  O49  1  0.27641400  0.78437900  0.75190100  1
  O  O50  1  0.22358600  0.78437900  0.25190100  1
  O  O51  1  0.72358600  0.21562100  0.24809900  1
  O  O52  1  0.77511200  0.76603200  0.76728400  1
  O  O53  1  0.27511200  0.23396800  0.73271600  1
  O  O54  1  0.22488800  0.23396800  0.23271600  1
  O  O55  1  0.72488800  0.76603200  0.26728400  1
  O  O56  1  0.97028500  0.77857200  0.17240600  1
  O  O57  1  0.47028500  0.22142800  0.32759400  1
  O  O58  1  0.02971500  0.22142800  0.82759400  1
  O  O59  1  0.77357900  0.36012600  0.96043800  1
