# generated using pymatgen
data_ScGaPd
_symmetry_space_group_name_H-M   'P 1'
_cell_length_a   4.29780800
_cell_length_b   6.46765500
_cell_length_c   7.66184700
_cell_angle_alpha   90.00000000
_cell_angle_beta   90.00000000
_cell_angle_gamma   90.00000000
_symmetry_Int_Tables_number   1
_chemical_formula_structural   ScGaPd
_chemical_formula_sum   'Sc4 Ga4 Pd4'
_cell_volume   212.97436438
_cell_formula_units_Z   4
loop_
 _symmetry_equiv_pos_site_id
 _symmetry_equiv_pos_as_xyz
  1  'x, y, z'
loop_
 _atom_site_type_symbol
 _atom_site_label
 _atom_site_symmetry_multiplicity
 _atom_site_fract_x
 _atom_site_fract_y
 _atom_site_fract_z
 _atom_site_occupancy
  Sc  Sc0  1  0.25000000  0.01761000  0.29896200  1
  Sc  Sc1  1  0.25000000  0.51761000  0.20103800  1
  Sc  Sc2  1  0.75000000  0.98239000  0.70103800  1
  Sc  Sc3  1  0.75000000  0.48239000  0.79896200  1
  Ga  Ga4  1  0.25000000  0.27472000  0.60906000  1
  Ga  Ga5  1  0.25000000  0.77472000  0.89094000  1
  Ga  Ga6  1  0.75000000  0.72528000  0.39094000  1
  Ga  Ga7  1  0.75000000  0.22528000  0.10906000  1
  Pd  Pd8  1  0.25000000  0.17472300  0.93365600  1
  Pd  Pd9  1  0.25000000  0.67472300  0.56634400  1
  Pd  Pd10  1  0.75000000  0.82527700  0.06634400  1
  Pd  Pd11  1  0.75000000  0.32527700  0.43365600  1
