# generated using pymatgen
data_AsOsSe
_symmetry_space_group_name_H-M   'P 1'
_cell_length_a   6.13950400
_cell_length_b   6.17321061
_cell_length_c   6.25491331
_cell_angle_alpha   112.60538922
_cell_angle_beta   90.00000000
_cell_angle_gamma   90.00000000
_symmetry_Int_Tables_number   1
_chemical_formula_structural   AsOsSe
_chemical_formula_sum   'As4 Os4 Se4'
_cell_volume   218.85137090
_cell_formula_units_Z   4
loop_
 _symmetry_equiv_pos_site_id
 _symmetry_equiv_pos_as_xyz
  1  'x, y, z'
loop_
 _atom_site_type_symbol
 _atom_site_label
 _atom_site_symmetry_multiplicity
 _atom_site_fract_x
 _atom_site_fract_y
 _atom_site_fract_z
 _atom_site_occupancy
  As  As0  1  0.36662900  0.64313900  0.88256200  1
  As  As1  1  0.63337100  0.35686100  0.11743800  1
  As  As2  1  0.86662900  0.35686100  0.61743800  1
  As  As3  1  0.13337100  0.64313900  0.38256200  1
  Os  Os4  1  0.00311900  0.77409100  0.79441800  1
  Os  Os5  1  0.99688100  0.22590900  0.20558200  1
  Os  Os6  1  0.50311900  0.22590900  0.70558200  1
  Os  Os7  1  0.49688100  0.77409100  0.29441800  1
  Se  Se8  1  0.62886300  0.84134500  0.68832700  1
  Se  Se9  1  0.37113700  0.15865500  0.31167300  1
  Se  Se10  1  0.12886300  0.15865500  0.81167300  1
  Se  Se11  1  0.87113700  0.84134500  0.18832700  1
