# generated using pymatgen
data_ZrP2
_symmetry_space_group_name_H-M   'P 1'
_cell_length_a   3.52656500
_cell_length_b   6.51519400
_cell_length_c   8.82210100
_cell_angle_alpha   90.00000000
_cell_angle_beta   90.00000000
_cell_angle_gamma   90.00000000
_symmetry_Int_Tables_number   1
_chemical_formula_structural   ZrP2
_chemical_formula_sum   'Zr4 P8'
_cell_volume   202.69884335
_cell_formula_units_Z   4
loop_
 _symmetry_equiv_pos_site_id
 _symmetry_equiv_pos_as_xyz
  1  'x, y, z'
loop_
 _atom_site_type_symbol
 _atom_site_label
 _atom_site_symmetry_multiplicity
 _atom_site_fract_x
 _atom_site_fract_y
 _atom_site_fract_z
 _atom_site_occupancy
  Zr  Zr0  1  0.25000000  0.27963300  0.83690400  1
  Zr  Zr1  1  0.75000000  0.72036700  0.16309600  1
  Zr  Zr2  1  0.25000000  0.77963300  0.66309600  1
  Zr  Zr3  1  0.75000000  0.22036700  0.33690400  1
  P  P4  1  0.25000000  0.90348000  0.35645900  1
  P  P5  1  0.75000000  0.09652000  0.64354100  1
  P  P6  1  0.25000000  0.40348000  0.14354100  1
  P  P7  1  0.75000000  0.59652000  0.85645900  1
  P  P8  1  0.75000000  0.61026800  0.46084000  1
  P  P9  1  0.25000000  0.38973200  0.53916000  1
  P  P10  1  0.75000000  0.11026800  0.03916000  1
  P  P11  1  0.25000000  0.88973200  0.96084000  1
