# generated using pymatgen
data_Cs4Mn3O6
_symmetry_space_group_name_H-M   'P 1'
_cell_length_a   8.56908700
_cell_length_b   12.52110900
_cell_length_c   12.54615270
_cell_angle_alpha   62.57397811
_cell_angle_beta   90.00000000
_cell_angle_gamma   90.00000000
_symmetry_Int_Tables_number   1
_chemical_formula_structural   Cs4Mn3O6
_chemical_formula_sum   'Cs16 Mn12 O24'
_cell_volume   1194.83596513
_cell_formula_units_Z   4
loop_
 _symmetry_equiv_pos_site_id
 _symmetry_equiv_pos_as_xyz
  1  'x, y, z'
loop_
 _atom_site_type_symbol
 _atom_site_label
 _atom_site_symmetry_multiplicity
 _atom_site_fract_x
 _atom_site_fract_y
 _atom_site_fract_z
 _atom_site_occupancy
  Cs  Cs0  1  0.00024000  0.34152800  0.84217200  1
  Cs  Cs1  1  0.00024000  0.65847200  0.15782800  1
  Cs  Cs2  1  0.60516700  0.17724300  0.16675000  1
  Cs  Cs3  1  0.60516700  0.82275700  0.83325000  1
  Cs  Cs4  1  0.39659200  0.33326000  0.32250800  1
  Cs  Cs5  1  0.39659200  0.66674000  0.67749200  1
  Cs  Cs6  1  0.49985900  0.32526900  0.82566900  1
  Cs  Cs7  1  0.49985900  0.67473100  0.17433100  1
  Cs  Cs8  1  0.11810000  0.15664400  0.16545100  1
  Cs  Cs9  1  0.11810000  0.84335600  0.83454900  1
  Cs  Cs10  1  0.87942600  0.33334900  0.34087400  1
  Cs  Cs11  1  0.87942600  0.66665100  0.65912600  1
  Cs  Cs12  1  0.25482400  0.17548700  0.66436400  1
  Cs  Cs13  1  0.25482400  0.82451300  0.33563600  1
  Cs  Cs14  1  0.74599100  0.83805300  0.32316900  1
  Cs  Cs15  1  0.74599100  0.16194700  0.67683100  1
  Mn  Mn16  1  0.64829100  0.00000000  0.00000000  1
  Mn  Mn17  1  0.35146200  0.50000000  0.50000000  1
  Mn  Mn18  1  0.31502200  0.00000000  0.00000000  1
  Mn  Mn19  1  0.68501900  0.50000000  0.50000000  1
  Mn  Mn20  1  0.16581100  0.00000000  0.50000000  1
  Mn  Mn21  1  0.83324500  0.00000000  0.50000000  1
  Mn  Mn22  1  0.50046500  0.50000000  0.00000000  1
  Mn  Mn23  1  0.83201000  0.50000000  0.00000000  1
  Mn  Mn24  1  0.16885700  0.50000000  0.00000000  1
  Mn  Mn25  1  0.49828700  0.00000000  0.50000000  1
  Mn  Mn26  1  0.97899300  0.00000000  0.00000000  1
  Mn  Mn27  1  0.02089400  0.50000000  0.50000000  1
  O  O28  1  0.99994100  0.40009200  0.10094500  1
  O  O29  1  0.99994100  0.59990800  0.89905500  1
  O  O30  1  0.14798900  0.10897700  0.91064700  1
  O  O31  1  0.14798900  0.89102300  0.08935300  1
  O  O32  1  0.85217900  0.58961500  0.39092800  1
  O  O33  1  0.85217900  0.41038500  0.60907200  1
  O  O34  1  0.46923800  0.05480100  0.87447900  1
  O  O35  1  0.46923800  0.94519900  0.12552100  1
  O  O36  1  0.53109500  0.62548600  0.44519500  1
  O  O37  1  0.53109500  0.37451400  0.55480500  1
  O  O38  1  0.82576700  0.11124600  0.00149400  1
  O  O39  1  0.82576700  0.88875400  0.99850600  1
  O  O40  1  0.17368200  0.49701400  0.38947500  1
  O  O41  1  0.17368200  0.50298600  0.61052500  1
  O  O42  1  0.67837000  0.52649100  0.87796700  1
  O  O43  1  0.67837000  0.47350900  0.12203300  1
  O  O44  1  0.32275800  0.62154700  0.97396200  1
  O  O45  1  0.32275800  0.37845300  0.02603800  1
  O  O46  1  0.33296500  0.93146900  0.61807500  1
  O  O47  1  0.33296500  0.06853100  0.38192500  1
  O  O48  1  0.65205000  0.87591000  0.57447400  1
  O  O49  1  0.65205000  0.12409000  0.42552600  1
  O  O50  1  0.01259700  0.03592600  0.59010400  1
  O  O51  1  0.01259700  0.96407400  0.40989600  1
