# generated using pymatgen
data_CsSrI3
_symmetry_space_group_name_H-M   'P 1'
_cell_length_a   8.58354488
_cell_length_b   8.58354488
_cell_length_c   12.39376700
_cell_angle_alpha   90.00000000
_cell_angle_beta   90.00000000
_cell_angle_gamma   146.82501772
_symmetry_Int_Tables_number   1
_chemical_formula_structural   CsSrI3
_chemical_formula_sum   'Cs2 Sr2 I6'
_cell_volume   499.66742621
_cell_formula_units_Z   2
loop_
 _symmetry_equiv_pos_site_id
 _symmetry_equiv_pos_as_xyz
  1  'x, y, z'
loop_
 _atom_site_type_symbol
 _atom_site_label
 _atom_site_symmetry_multiplicity
 _atom_site_fract_x
 _atom_site_fract_y
 _atom_site_fract_z
 _atom_site_occupancy
  Cs  Cs0  1  0.24992800  0.75007200  0.75000000  1
  Cs  Cs1  1  0.75007200  0.24992800  0.25000000  1
  Sr  Sr2  1  0.50000000  0.50000000  0.50000000  1
  Sr  Sr3  1  0.50000000  0.50000000  0.00000000  1
  I  I4  1  0.13152000  0.86848000  0.44894800  1
  I  I5  1  0.86848000  0.13152000  0.94894800  1
  I  I6  1  0.13152000  0.86848000  0.05105200  1
  I  I7  1  0.86848000  0.13152000  0.55105200  1
  I  I8  1  0.56768900  0.43231100  0.75000000  1
  I  I9  1  0.43231100  0.56768900  0.25000000  1
