# generated using pymatgen
data_DyAlPt
_symmetry_space_group_name_H-M   'P 1'
_cell_length_a   4.43667200
_cell_length_b   6.89088800
_cell_length_c   7.74176000
_cell_angle_alpha   90.00000000
_cell_angle_beta   90.00000000
_cell_angle_gamma   90.00000000
_symmetry_Int_Tables_number   1
_chemical_formula_structural   DyAlPt
_chemical_formula_sum   'Dy4 Al4 Pt4'
_cell_volume   236.68580799
_cell_formula_units_Z   4
loop_
 _symmetry_equiv_pos_site_id
 _symmetry_equiv_pos_as_xyz
  1  'x, y, z'
loop_
 _atom_site_type_symbol
 _atom_site_label
 _atom_site_symmetry_multiplicity
 _atom_site_fract_x
 _atom_site_fract_y
 _atom_site_fract_z
 _atom_site_occupancy
  Dy  Dy0  1  0.25000000  0.46858400  0.18102800  1
  Dy  Dy1  1  0.75000000  0.53141600  0.81897200  1
  Dy  Dy2  1  0.75000000  0.03141600  0.68102800  1
  Dy  Dy3  1  0.25000000  0.96858400  0.31897200  1
  Al  Al4  1  0.25000000  0.85198400  0.93684400  1
  Al  Al5  1  0.75000000  0.14801600  0.06315600  1
  Al  Al6  1  0.75000000  0.64801600  0.43684400  1
  Al  Al7  1  0.25000000  0.35198400  0.56315600  1
  Pt  Pt8  1  0.25000000  0.72374500  0.61696400  1
  Pt  Pt9  1  0.75000000  0.27625500  0.38303600  1
  Pt  Pt10  1  0.75000000  0.77625500  0.11696400  1
  Pt  Pt11  1  0.25000000  0.22374500  0.88303600  1
