# generated using pymatgen
data_La2Ta3(SeO4)2
_symmetry_space_group_name_H-M   'P 1'
_cell_length_a   7.72412300
_cell_length_b   10.02764700
_cell_length_c   12.08996200
_cell_angle_alpha   90.00000000
_cell_angle_beta   90.00000000
_cell_angle_gamma   90.00000000
_symmetry_Int_Tables_number   1
_chemical_formula_structural   La2Ta3(SeO4)2
_chemical_formula_sum   'La8 Ta12 Se8 O32'
_cell_volume   936.42533276
_cell_formula_units_Z   4
loop_
 _symmetry_equiv_pos_site_id
 _symmetry_equiv_pos_as_xyz
  1  'x, y, z'
loop_
 _atom_site_type_symbol
 _atom_site_label
 _atom_site_symmetry_multiplicity
 _atom_site_fract_x
 _atom_site_fract_y
 _atom_site_fract_z
 _atom_site_occupancy
  La  La0  1  0.00000000  0.22813900  0.34873100  1
  La  La1  1  0.00000000  0.77186100  0.65126900  1
  La  La2  1  0.50000000  0.27186100  0.84873100  1
  La  La3  1  0.50000000  0.72813900  0.15126900  1
  La  La4  1  0.00000000  0.70776500  0.15646400  1
  La  La5  1  0.00000000  0.29223500  0.84353600  1
  La  La6  1  0.50000000  0.79223500  0.65646400  1
  La  La7  1  0.50000000  0.20776500  0.34353600  1
  Ta  Ta8  1  0.25015200  0.36403800  0.08286400  1
  Ta  Ta9  1  0.74984800  0.63596200  0.91713600  1
  Ta  Ta10  1  0.25015200  0.63596200  0.91713600  1
  Ta  Ta11  1  0.24984800  0.13596200  0.58286400  1
  Ta  Ta12  1  0.74984800  0.36403800  0.08286400  1
  Ta  Ta13  1  0.75015200  0.86403800  0.41713600  1
  Ta  Ta14  1  0.24984800  0.86403800  0.41713600  1
  Ta  Ta15  1  0.75015200  0.13596200  0.58286400  1
  Ta  Ta16  1  0.21530500  0.00000000  0.00000000  1
  Ta  Ta17  1  0.78469500  0.00000000  0.00000000  1
  Ta  Ta18  1  0.28469500  0.50000000  0.50000000  1
  Ta  Ta19  1  0.71530500  0.50000000  0.50000000  1
  Se  Se20  1  0.00000000  0.01802700  0.16138000  1
  Se  Se21  1  0.00000000  0.98197300  0.83862000  1
  Se  Se22  1  0.50000000  0.48197300  0.66138000  1
  Se  Se23  1  0.50000000  0.51802700  0.33862000  1
  Se  Se24  1  0.00000000  0.52400000  0.36336600  1
  Se  Se25  1  0.00000000  0.47600000  0.63663400  1
  Se  Se26  1  0.50000000  0.97600000  0.86336600  1
  Se  Se27  1  0.50000000  0.02400000  0.13663400  1
  O  O28  1  0.00000000  0.36661100  0.05218400  1
  O  O29  1  0.00000000  0.63338900  0.94781600  1
  O  O30  1  0.50000000  0.13338900  0.55218400  1
  O  O31  1  0.50000000  0.86661100  0.44781600  1
  O  O32  1  0.24783400  0.28821800  0.22275300  1
  O  O33  1  0.75216600  0.71178200  0.77724700  1
  O  O34  1  0.24783400  0.71178200  0.77724700  1
  O  O35  1  0.25216600  0.21178200  0.72275300  1
  O  O36  1  0.75216600  0.28821800  0.22275300  1
  O  O37  1  0.74783400  0.78821800  0.27724700  1
  O  O38  1  0.25216600  0.78821800  0.27724700  1
  O  O39  1  0.74783400  0.21178200  0.72275300  1
  O  O40  1  0.00000000  0.14779100  0.55176200  1
  O  O41  1  0.00000000  0.85220900  0.44823800  1
  O  O42  1  0.50000000  0.35220900  0.05176200  1
  O  O43  1  0.50000000  0.64779100  0.94823800  1
  O  O44  1  0.26351000  0.30274600  0.47684800  1
  O  O45  1  0.73649000  0.69725400  0.52315200  1
  O  O46  1  0.26351000  0.69725400  0.52315200  1
  O  O47  1  0.23649000  0.19725400  0.97684800  1
  O  O48  1  0.73649000  0.30274600  0.47684800  1
  O  O49  1  0.76351000  0.80274600  0.02315200  1
  O  O50  1  0.23649000  0.80274600  0.02315200  1
  O  O51  1  0.76351000  0.19725400  0.97684800  1
  O  O52  1  0.24484600  0.05636700  0.39813500  1
  O  O53  1  0.75515400  0.94363300  0.60186500  1
  O  O54  1  0.24484600  0.94363300  0.60186500  1
  O  O55  1  0.25515400  0.44363300  0.89813500  1
  O  O56  1  0.75515400  0.05636700  0.39813500  1
  O  O57  1  0.74484600  0.55636700  0.10186500  1
  O  O58  1  0.25515400  0.55636700  0.10186500  1
  O  O59  1  0.74484600  0.44363300  0.89813500  1
