# generated using pymatgen
data_Rb3Zn(BO2)5
_symmetry_space_group_name_H-M   'P 1'
_cell_length_a   9.54307000
_cell_length_b   10.65567600
_cell_length_c   13.65737228
_cell_angle_alpha   56.73215829
_cell_angle_beta   90.00000000
_cell_angle_gamma   90.00000000
_symmetry_Int_Tables_number   1
_chemical_formula_structural   Rb3Zn(BO2)5
_chemical_formula_sum   'Rb12 Zn4 B20 O40'
_cell_volume   1161.18783039
_cell_formula_units_Z   4
loop_
 _symmetry_equiv_pos_site_id
 _symmetry_equiv_pos_as_xyz
  1  'x, y, z'
loop_
 _atom_site_type_symbol
 _atom_site_label
 _atom_site_symmetry_multiplicity
 _atom_site_fract_x
 _atom_site_fract_y
 _atom_site_fract_z
 _atom_site_occupancy
  Rb  Rb0  1  0.56760900  0.30288300  0.20519000  1
  Rb  Rb1  1  0.93239100  0.30288300  0.70519000  1
  Rb  Rb2  1  0.43239100  0.69711700  0.79481000  1
  Rb  Rb3  1  0.06760900  0.69711700  0.29481000  1
  Rb  Rb4  1  0.66790800  0.55322600  0.39162300  1
  Rb  Rb5  1  0.83209200  0.55322600  0.89162300  1
  Rb  Rb6  1  0.33209200  0.44677400  0.60837700  1
  Rb  Rb7  1  0.16790800  0.44677400  0.10837700  1
  Rb  Rb8  1  0.40774300  0.00168600  0.15768600  1
  Rb  Rb9  1  0.09225700  0.00168600  0.65768600  1
  Rb  Rb10  1  0.59225700  0.99831400  0.84231400  1
  Rb  Rb11  1  0.90774300  0.99831400  0.34231400  1
  Zn  Zn12  1  0.30503600  0.32135900  0.43218500  1
  Zn  Zn13  1  0.19496400  0.32135900  0.93218500  1
  Zn  Zn14  1  0.69496400  0.67864100  0.56781500  1
  Zn  Zn15  1  0.80503600  0.67864100  0.06781500  1
  B  B16  1  0.88319100  0.38096500  0.26993900  1
  B  B17  1  0.61680900  0.38096500  0.76993900  1
  B  B18  1  0.11680900  0.61903500  0.73006100  1
  B  B19  1  0.38319100  0.61903500  0.23006100  1
  B  B20  1  0.30708400  0.07985300  0.39269000  1
  B  B21  1  0.19291600  0.07985300  0.89269000  1
  B  B22  1  0.69291600  0.92014700  0.60731000  1
  B  B23  1  0.80708400  0.92014700  0.10731000  1
  B  B24  1  0.00253700  0.32781700  0.44889400  1
  B  B25  1  0.49746300  0.32781700  0.94889400  1
  B  B26  1  0.99746300  0.67218300  0.55110600  1
  B  B27  1  0.50253700  0.67218300  0.05110600  1
  B  B28  1  0.54136400  0.13689900  0.56060300  1
  B  B29  1  0.95863600  0.13689900  0.06060300  1
  B  B30  1  0.45863600  0.86310100  0.43939700  1
  B  B31  1  0.04136400  0.86310100  0.93939700  1
  B  B32  1  0.78145800  0.18429800  0.46865300  1
  B  B33  1  0.71854200  0.18429800  0.96865300  1
  B  B34  1  0.21854200  0.81570200  0.53134700  1
  B  B35  1  0.28145800  0.81570200  0.03134700  1
  O  O36  1  0.41631800  0.18384200  0.57508200  1
  O  O37  1  0.08368200  0.18384200  0.07508200  1
  O  O38  1  0.58368200  0.81615800  0.42491800  1
  O  O39  1  0.91631800  0.81615800  0.92491800  1
  O  O40  1  0.29859700  0.23055300  0.33950600  1
  O  O41  1  0.20140300  0.23055300  0.83950600  1
  O  O42  1  0.70140300  0.76944700  0.66049400  1
  O  O43  1  0.79859700  0.76944700  0.16049400  1
  O  O44  1  0.60930400  0.23822200  0.01572800  1
  O  O45  1  0.89069600  0.23822200  0.51572800  1
  O  O46  1  0.39069600  0.76177800  0.98427200  1
  O  O47  1  0.10930400  0.76177800  0.48427200  1
  O  O48  1  0.80605300  0.25112200  0.34134800  1
  O  O49  1  0.69394700  0.25112200  0.84134800  1
  O  O50  1  0.19394700  0.74887800  0.65865200  1
  O  O51  1  0.30605300  0.74887800  0.15865200  1
  O  O52  1  0.42383800  0.01892600  0.36718500  1
  O  O53  1  0.07616200  0.01892600  0.86718500  1
  O  O54  1  0.57616200  0.98107400  0.63281500  1
  O  O55  1  0.92383800  0.98107400  0.13281500  1
  O  O56  1  0.12120800  0.33415800  0.49971800  1
  O  O57  1  0.37879200  0.33415800  0.99971800  1
  O  O58  1  0.87879200  0.66584200  0.50028200  1
  O  O59  1  0.62120800  0.66584200  0.00028200  1
  O  O60  1  0.29352700  0.98063900  0.96945400  1
  O  O61  1  0.20647300  0.98063900  0.46945400  1
  O  O62  1  0.70647300  0.01936100  0.03054600  1
  O  O63  1  0.79352700  0.01936100  0.53054600  1
  O  O64  1  0.48670300  0.58322100  0.17468300  1
  O  O65  1  0.01329700  0.58322100  0.67468300  1
  O  O66  1  0.51329700  0.41677900  0.82531700  1
  O  O67  1  0.98670300  0.41677900  0.32531700  1
  O  O68  1  0.36659700  0.53389300  0.34713000  1
  O  O69  1  0.13340300  0.53389300  0.84713000  1
  O  O70  1  0.63340300  0.46610700  0.65287000  1
  O  O71  1  0.86659700  0.46610700  0.15287000  1
  O  O72  1  0.64196000  0.23247800  0.48157500  1
  O  O73  1  0.85804000  0.23247800  0.98157500  1
  O  O74  1  0.35804000  0.76752200  0.51842500  1
  O  O75  1  0.14196000  0.76752200  0.01842500  1
