# generated using pymatgen
data_Na2Sm2B2O7
_symmetry_space_group_name_H-M   'P 1'
_cell_length_a   6.41507700
_cell_length_b   10.46440400
_cell_length_c   10.83196299
_cell_angle_alpha   62.21361982
_cell_angle_beta   90.00000000
_cell_angle_gamma   90.00000000
_symmetry_Int_Tables_number   1
_chemical_formula_structural   Na2Sm2B2O7
_chemical_formula_sum   'Na8 Sm8 B8 O28'
_cell_volume   643.30295832
_cell_formula_units_Z   4
loop_
 _symmetry_equiv_pos_site_id
 _symmetry_equiv_pos_as_xyz
  1  'x, y, z'
loop_
 _atom_site_type_symbol
 _atom_site_label
 _atom_site_symmetry_multiplicity
 _atom_site_fract_x
 _atom_site_fract_y
 _atom_site_fract_z
 _atom_site_occupancy
  Na  Na0  1  0.26242500  0.95321000  0.10943400  1
  Na  Na1  1  0.73757500  0.04679000  0.89056600  1
  Na  Na2  1  0.76242500  0.54679000  0.89056600  1
  Na  Na3  1  0.23757500  0.45321000  0.10943400  1
  Na  Na4  1  0.94263100  0.73752900  0.02293300  1
  Na  Na5  1  0.05736900  0.26247100  0.97706700  1
  Na  Na6  1  0.44263100  0.76247100  0.97706700  1
  Na  Na7  1  0.55736900  0.23752900  0.02293300  1
  Sm  Sm8  1  0.95966600  0.68088000  0.51755700  1
  Sm  Sm9  1  0.04033400  0.31912000  0.48244300  1
  Sm  Sm10  1  0.45966600  0.81912000  0.48244300  1
  Sm  Sm11  1  0.54033400  0.18088000  0.51755700  1
  Sm  Sm12  1  0.58223700  0.58931100  0.31466200  1
  Sm  Sm13  1  0.41776300  0.41068900  0.68533800  1
  Sm  Sm14  1  0.08223700  0.91068900  0.68533800  1
  Sm  Sm15  1  0.91776300  0.08931100  0.31466200  1
  B  B16  1  0.74905300  0.92022500  0.18181300  1
  B  B17  1  0.25094700  0.07977500  0.81818700  1
  B  B18  1  0.24905300  0.57977500  0.81818700  1
  B  B19  1  0.75094700  0.42022500  0.18181300  1
  B  B20  1  0.65291400  0.85034100  0.70951800  1
  B  B21  1  0.34708600  0.14965900  0.29048200  1
  B  B22  1  0.15291400  0.64965900  0.29048200  1
  B  B23  1  0.84708600  0.35034100  0.70951800  1
  O  O24  1  0.75711800  0.77208300  0.65208500  1
  O  O25  1  0.24288200  0.22791700  0.34791500  1
  O  O26  1  0.25711800  0.72791700  0.34791500  1
  O  O27  1  0.74288200  0.27208300  0.65208500  1
  O  O28  1  0.96127500  0.58805900  0.34880400  1
  O  O29  1  0.03872500  0.41194100  0.65119600  1
  O  O30  1  0.46127500  0.91194100  0.65119600  1
  O  O31  1  0.53872500  0.08805900  0.34880400  1
  O  O32  1  0.64937200  0.84083200  0.12718400  1
  O  O33  1  0.35062800  0.15916800  0.87281600  1
  O  O34  1  0.14937200  0.65916800  0.87281600  1
  O  O35  1  0.85062800  0.34083200  0.12718400  1
  O  O36  1  0.62352700  0.59621900  0.52727000  1
  O  O37  1  0.37647300  0.40378100  0.47273000  1
  O  O38  1  0.12352700  0.90378100  0.47273000  1
  O  O39  1  0.87647300  0.09621900  0.52727000  1
  O  O40  1  0.76204300  0.86538100  0.32892600  1
  O  O41  1  0.23795700  0.13461900  0.67107400  1
  O  O42  1  0.26204300  0.63461900  0.67107400  1
  O  O43  1  0.73795700  0.36538100  0.32892600  1
  O  O44  1  0.24324100  0.63596300  0.18279600  1
  O  O45  1  0.75675900  0.36403700  0.81720400  1
  O  O46  1  0.74324100  0.86403700  0.81720400  1
  O  O47  1  0.25675900  0.13596300  0.18279600  1
  O  O48  1  0.66292800  0.55460700  0.10208100  1
  O  O49  1  0.33707200  0.44539300  0.89791900  1
  O  O50  1  0.16292800  0.94539300  0.89791900  1
  O  O51  1  0.83707200  0.05460700  0.10208100  1
