# generated using pymatgen
data_YB4W
_symmetry_space_group_name_H-M   'P 1'
_cell_length_a   6.04683500
_cell_length_b   11.68557300
_cell_length_c   3.63058700
_cell_angle_alpha   90.00000000
_cell_angle_beta   90.00000000
_cell_angle_gamma   90.00000000
_symmetry_Int_Tables_number   1
_chemical_formula_structural   YB4W
_chemical_formula_sum   'Y4 B16 W4'
_cell_volume   256.53993433
_cell_formula_units_Z   4
loop_
 _symmetry_equiv_pos_site_id
 _symmetry_equiv_pos_as_xyz
  1  'x, y, z'
loop_
 _atom_site_type_symbol
 _atom_site_label
 _atom_site_symmetry_multiplicity
 _atom_site_fract_x
 _atom_site_fract_y
 _atom_site_fract_z
 _atom_site_occupancy
  Y  Y0  1  0.62688600  0.35019800  0.00000000  1
  Y  Y1  1  0.37311400  0.64980200  0.00000000  1
  Y  Y2  1  0.12688600  0.14980200  0.00000000  1
  Y  Y3  1  0.87311400  0.85019800  0.00000000  1
  B  B4  1  0.78654200  0.18644400  0.50000000  1
  B  B5  1  0.21345800  0.81355600  0.50000000  1
  B  B6  1  0.28654200  0.31355600  0.50000000  1
  B  B7  1  0.71345800  0.68644400  0.50000000  1
  B  B8  1  0.86642900  0.03217500  0.50000000  1
  B  B9  1  0.13357100  0.96782500  0.50000000  1
  B  B10  1  0.36642900  0.46782500  0.50000000  1
  B  B11  1  0.63357100  0.53217500  0.50000000  1
  B  B12  1  0.88604400  0.45281900  0.50000000  1
  B  B13  1  0.11395600  0.54718100  0.50000000  1
  B  B14  1  0.38604400  0.04718100  0.50000000  1
  B  B15  1  0.61395600  0.95281900  0.50000000  1
  B  B16  1  0.97585600  0.30693100  0.50000000  1
  B  B17  1  0.02414400  0.69306900  0.50000000  1
  B  B18  1  0.47585600  0.19306900  0.50000000  1
  B  B19  1  0.52414400  0.80693100  0.50000000  1
  W  W20  1  0.63047700  0.08422600  0.00000000  1
  W  W21  1  0.36952300  0.91577400  0.00000000  1
  W  W22  1  0.13047700  0.41577400  0.00000000  1
  W  W23  1  0.86952300  0.58422600  0.00000000  1
