# generated using pymatgen
data_KNd2CuS4
_symmetry_space_group_name_H-M   'P 1'
_cell_length_a   7.25824558
_cell_length_b   7.25824558
_cell_length_c   14.03878100
_cell_angle_alpha   90.00000000
_cell_angle_beta   90.00000000
_cell_angle_gamma   147.40902869
_symmetry_Int_Tables_number   1
_chemical_formula_structural   KNd2CuS4
_chemical_formula_sum   'K2 Nd4 Cu2 S8'
_cell_volume   398.37284202
_cell_formula_units_Z   2
loop_
 _symmetry_equiv_pos_site_id
 _symmetry_equiv_pos_as_xyz
  1  'x, y, z'
loop_
 _atom_site_type_symbol
 _atom_site_label
 _atom_site_symmetry_multiplicity
 _atom_site_fract_x
 _atom_site_fract_y
 _atom_site_fract_z
 _atom_site_occupancy
  K  K0  1  0.10763200  0.89236800  0.25000000  1
  K  K1  1  0.89236800  0.10763200  0.75000000  1
  Nd  Nd2  1  0.63461000  0.36539000  0.93747500  1
  Nd  Nd3  1  0.36539000  0.63461000  0.43747500  1
  Nd  Nd4  1  0.63461000  0.36539000  0.56252500  1
  Nd  Nd5  1  0.36539000  0.63461000  0.06252500  1
  Cu  Cu6  1  0.16239800  0.83760200  0.75000000  1
  Cu  Cu7  1  0.83760200  0.16239800  0.25000000  1
  S  S8  1  0.00000000  0.00000000  0.50000000  1
  S  S9  1  0.00000000  0.00000000  0.00000000  1
  S  S10  1  0.73723700  0.26276300  0.11510500  1
  S  S11  1  0.26276300  0.73723700  0.88489500  1
  S  S12  1  0.57008200  0.42991800  0.75000000  1
  S  S13  1  0.73723700  0.26276300  0.38489500  1
  S  S14  1  0.42991800  0.57008200  0.25000000  1
  S  S15  1  0.26276300  0.73723700  0.61510500  1
