# generated using pymatgen
data_La3In4Ge
_symmetry_space_group_name_H-M   'P 1'
_cell_length_a   8.64872269
_cell_length_b   8.64872269
_cell_length_c   8.64872269
_cell_angle_alpha   119.52357966
_cell_angle_beta   119.52357966
_cell_angle_gamma   90.82718418
_symmetry_Int_Tables_number   1
_chemical_formula_structural   La3In4Ge
_chemical_formula_sum   'La6 In8 Ge2'
_cell_volume   460.68928281
_cell_formula_units_Z   2
loop_
 _symmetry_equiv_pos_site_id
 _symmetry_equiv_pos_as_xyz
  1  'x, y, z'
loop_
 _atom_site_type_symbol
 _atom_site_label
 _atom_site_symmetry_multiplicity
 _atom_site_fract_x
 _atom_site_fract_y
 _atom_site_fract_z
 _atom_site_occupancy
  La  La0  1  0.75000000  0.75000000  0.00000000  1
  La  La1  1  0.25000000  0.25000000  0.00000000  1
  La  La2  1  0.33699600  0.83699600  0.17399100  1
  La  La3  1  0.66300400  0.16300400  0.82600900  1
  La  La4  1  0.83699600  0.66300400  0.50000000  1
  La  La5  1  0.16300400  0.33699600  0.50000000  1
  In  In6  1  0.95873400  0.45873400  0.78674800  1
  In  In7  1  0.67198600  0.17198600  0.21325200  1
  In  In8  1  0.45873400  0.67198600  0.50000000  1
  In  In9  1  0.17198600  0.95873400  0.50000000  1
  In  In10  1  0.04126600  0.54126600  0.21325200  1
  In  In11  1  0.32801400  0.82801400  0.78674800  1
  In  In12  1  0.54126600  0.32801400  0.50000000  1
  In  In13  1  0.82801400  0.04126600  0.50000000  1
  Ge  Ge14  1  0.00000000  0.00000000  0.00000000  1
  Ge  Ge15  1  0.50000000  0.50000000  0.00000000  1
