# generated using pymatgen
data_Gd2Se3
_symmetry_space_group_name_H-M   'P 1'
_cell_length_a   4.09112400
_cell_length_b   11.08752500
_cell_length_c   11.25749600
_cell_angle_alpha   90.00000000
_cell_angle_beta   90.00000000
_cell_angle_gamma   90.00000000
_symmetry_Int_Tables_number   1
_chemical_formula_structural   Gd2Se3
_chemical_formula_sum   'Gd8 Se12'
_cell_volume   510.64496767
_cell_formula_units_Z   4
loop_
 _symmetry_equiv_pos_site_id
 _symmetry_equiv_pos_as_xyz
  1  'x, y, z'
loop_
 _atom_site_type_symbol
 _atom_site_label
 _atom_site_symmetry_multiplicity
 _atom_site_fract_x
 _atom_site_fract_y
 _atom_site_fract_z
 _atom_site_occupancy
  Gd  Gd0  1  0.25000000  0.18690000  0.48968600  1
  Gd  Gd1  1  0.25000000  0.31310000  0.98968600  1
  Gd  Gd2  1  0.75000000  0.81310000  0.51031400  1
  Gd  Gd3  1  0.75000000  0.68690000  0.01031400  1
  Gd  Gd4  1  0.75000000  0.49560500  0.69234300  1
  Gd  Gd5  1  0.75000000  0.00439500  0.19234300  1
  Gd  Gd6  1  0.25000000  0.50439500  0.30765700  1
  Gd  Gd7  1  0.25000000  0.99560500  0.80765700  1
  Se  Se8  1  0.25000000  0.62621900  0.54491700  1
  Se  Se9  1  0.25000000  0.87378100  0.04491700  1
  Se  Se10  1  0.75000000  0.37378100  0.45508300  1
  Se  Se11  1  0.75000000  0.12621900  0.95508300  1
  Se  Se12  1  0.75000000  0.05538700  0.62007500  1
  Se  Se13  1  0.75000000  0.44461300  0.12007500  1
  Se  Se14  1  0.25000000  0.94461300  0.37992500  1
  Se  Se15  1  0.25000000  0.55538700  0.87992500  1
  Se  Se16  1  0.25000000  0.30187700  0.72845100  1
  Se  Se17  1  0.25000000  0.19812300  0.22845100  1
  Se  Se18  1  0.75000000  0.69812300  0.27154900  1
  Se  Se19  1  0.75000000  0.80187700  0.77154900  1
