# generated using pymatgen
data_Ba8Eu(BN2)6
_symmetry_space_group_name_H-M   'P 1'
_cell_length_a   8.03076400
_cell_length_b   8.03076400
_cell_length_c   8.03076400
_cell_angle_alpha   90.00000000
_cell_angle_beta   90.00000000
_cell_angle_gamma   90.00000000
_symmetry_Int_Tables_number   1
_chemical_formula_structural   Ba8Eu(BN2)6
_chemical_formula_sum   'Ba8 Eu1 B6 N12'
_cell_volume   517.92943128
_cell_formula_units_Z   1
loop_
 _symmetry_equiv_pos_site_id
 _symmetry_equiv_pos_as_xyz
  1  'x, y, z'
loop_
 _atom_site_type_symbol
 _atom_site_label
 _atom_site_symmetry_multiplicity
 _atom_site_fract_x
 _atom_site_fract_y
 _atom_site_fract_z
 _atom_site_occupancy
  Ba  Ba0  1  0.73820700  0.73820700  0.26179300  1
  Ba  Ba1  1  0.26179300  0.26179300  0.73820700  1
  Ba  Ba2  1  0.26179300  0.73820700  0.26179300  1
  Ba  Ba3  1  0.73820700  0.26179300  0.73820700  1
  Ba  Ba4  1  0.26179300  0.73820700  0.73820700  1
  Ba  Ba5  1  0.73820700  0.26179300  0.26179300  1
  Ba  Ba6  1  0.73820700  0.73820700  0.73820700  1
  Ba  Ba7  1  0.26179300  0.26179300  0.26179300  1
  Eu  Eu8  1  0.00000000  0.00000000  0.00000000  1
  B  B9  1  0.50000000  0.00000000  0.00000000  1
  B  B10  1  0.00000000  0.50000000  0.50000000  1
  B  B11  1  0.00000000  0.00000000  0.50000000  1
  B  B12  1  0.50000000  0.50000000  0.00000000  1
  B  B13  1  0.50000000  0.00000000  0.50000000  1
  B  B14  1  0.00000000  0.50000000  0.00000000  1
  N  N15  1  0.50000000  0.50000000  0.16780200  1
  N  N16  1  0.00000000  0.00000000  0.66982000  1
  N  N17  1  0.00000000  0.33018000  0.00000000  1
  N  N18  1  0.50000000  0.83219800  0.50000000  1
  N  N19  1  0.83219800  0.50000000  0.50000000  1
  N  N20  1  0.33018000  0.00000000  0.00000000  1
  N  N21  1  0.50000000  0.50000000  0.83219800  1
  N  N22  1  0.00000000  0.00000000  0.33018000  1
  N  N23  1  0.00000000  0.66982000  0.00000000  1
  N  N24  1  0.50000000  0.16780200  0.50000000  1
  N  N25  1  0.66982000  0.00000000  0.00000000  1
  N  N26  1  0.16780200  0.50000000  0.50000000  1
