# generated using pymatgen
data_Tm12(MnC3)5
_symmetry_space_group_name_H-M   'P 1'
_cell_length_a   4.96118600
_cell_length_b   10.33968089
_cell_length_c   10.33968089
_cell_angle_alpha   119.99999291
_cell_angle_beta   90.00000000
_cell_angle_gamma   90.00000000
_symmetry_Int_Tables_number   1
_chemical_formula_structural   Tm12(MnC3)5
_chemical_formula_sum   'Tm12 Mn5 C15'
_cell_volume   459.33595687
_cell_formula_units_Z   1
loop_
 _symmetry_equiv_pos_site_id
 _symmetry_equiv_pos_as_xyz
  1  'x, y, z'
loop_
 _atom_site_type_symbol
 _atom_site_label
 _atom_site_symmetry_multiplicity
 _atom_site_fract_x
 _atom_site_fract_y
 _atom_site_fract_z
 _atom_site_occupancy
  Tm  Tm0  1  0.50000000  0.20606400  0.20606400  1
  Tm  Tm1  1  0.50000000  0.00000000  0.79393600  1
  Tm  Tm2  1  0.50000000  0.79393600  0.00000000  1
  Tm  Tm3  1  0.00000000  0.73081600  0.18596700  1
  Tm  Tm4  1  0.00000000  0.45515200  0.26918400  1
  Tm  Tm5  1  0.00000000  0.54484800  0.81403300  1
  Tm  Tm6  1  0.00000000  0.81403300  0.54484800  1
  Tm  Tm7  1  0.00000000  0.18596700  0.73081600  1
  Tm  Tm8  1  0.00000000  0.26918400  0.45515200  1
  Tm  Tm9  1  0.50000000  0.56883200  0.56883200  1
  Tm  Tm10  1  0.50000000  0.00000000  0.43116800  1
  Tm  Tm11  1  0.50000000  0.43116800  0.00000000  1
  Mn  Mn12  1  0.00000000  0.84687700  0.84687700  1
  Mn  Mn13  1  0.00000000  0.00000000  0.15312300  1
  Mn  Mn14  1  0.00000000  0.15312300  0.00000000  1
  Mn  Mn15  1  0.50000000  0.66666700  0.33333300  1
  Mn  Mn16  1  0.50000000  0.33333300  0.66666700  1
  C  C17  1  0.00000000  0.67374700  0.67374700  1
  C  C18  1  0.00000000  0.00000000  0.32625300  1
  C  C19  1  0.00000000  0.32625300  0.00000000  1
  C  C20  1  0.00000000  0.20448200  0.20448200  1
  C  C21  1  0.00000000  0.00000000  0.79551800  1
  C  C22  1  0.00000000  0.79551800  0.00000000  1
  C  C23  1  0.00000000  0.54303500  0.54303500  1
  C  C24  1  0.00000000  0.00000000  0.45696500  1
  C  C25  1  0.00000000  0.45696500  0.00000000  1
  C  C26  1  0.50000000  0.71727200  0.19173800  1
  C  C27  1  0.50000000  0.47446500  0.28272800  1
  C  C28  1  0.50000000  0.52553500  0.80826200  1
  C  C29  1  0.50000000  0.80826200  0.52553500  1
  C  C30  1  0.50000000  0.19173800  0.71727200  1
  C  C31  1  0.50000000  0.28272800  0.47446500  1
