# generated using pymatgen
data_K2GdCl5
_symmetry_space_group_name_H-M   'P 1'
_cell_length_a   8.12346100
_cell_length_b   8.68653600
_cell_length_c   13.07364400
_cell_angle_alpha   90.00000000
_cell_angle_beta   90.00000000
_cell_angle_gamma   90.00000000
_symmetry_Int_Tables_number   1
_chemical_formula_structural   K2GdCl5
_chemical_formula_sum   'K8 Gd4 Cl20'
_cell_volume   922.53824292
_cell_formula_units_Z   4
loop_
 _symmetry_equiv_pos_site_id
 _symmetry_equiv_pos_as_xyz
  1  'x, y, z'
loop_
 _atom_site_type_symbol
 _atom_site_label
 _atom_site_symmetry_multiplicity
 _atom_site_fract_x
 _atom_site_fract_y
 _atom_site_fract_z
 _atom_site_occupancy
  K  K0  1  0.94870700  0.00475300  0.82776300  1
  K  K1  1  0.05129300  0.99524700  0.17223700  1
  K  K2  1  0.44870700  0.99524700  0.67223700  1
  K  K3  1  0.05129300  0.50475300  0.17223700  1
  K  K4  1  0.55129300  0.00475300  0.32776300  1
  K  K5  1  0.94870700  0.49524700  0.82776300  1
  K  K6  1  0.55129300  0.49524700  0.32776300  1
  K  K7  1  0.44870700  0.50475300  0.67223700  1
  Gd  Gd8  1  0.92685900  0.75000000  0.50378200  1
  Gd  Gd9  1  0.07314100  0.25000000  0.49621800  1
  Gd  Gd10  1  0.42685900  0.25000000  0.99621800  1
  Gd  Gd11  1  0.57314100  0.75000000  0.00378200  1
  Cl  Cl12  1  0.11929500  0.75000000  0.67308400  1
  Cl  Cl13  1  0.88070500  0.25000000  0.32691600  1
  Cl  Cl14  1  0.61929500  0.25000000  0.82691600  1
  Cl  Cl15  1  0.38070500  0.75000000  0.17308400  1
  Cl  Cl16  1  0.84063600  0.04129700  0.57402000  1
  Cl  Cl17  1  0.15936400  0.95870300  0.42598000  1
  Cl  Cl18  1  0.34063600  0.95870300  0.92598000  1
  Cl  Cl19  1  0.15936400  0.54129700  0.42598000  1
  Cl  Cl20  1  0.65936400  0.04129700  0.07402000  1
  Cl  Cl21  1  0.84063600  0.45870300  0.57402000  1
  Cl  Cl22  1  0.65936400  0.45870300  0.07402000  1
  Cl  Cl23  1  0.34063600  0.54129700  0.92598000  1
  Cl  Cl24  1  0.58867900  0.75000000  0.51000900  1
  Cl  Cl25  1  0.41132100  0.25000000  0.48999100  1
  Cl  Cl26  1  0.08867900  0.25000000  0.98999100  1
  Cl  Cl27  1  0.91132100  0.75000000  0.01000900  1
  Cl  Cl28  1  0.65854100  0.75000000  0.80284700  1
  Cl  Cl29  1  0.34145900  0.25000000  0.19715300  1
  Cl  Cl30  1  0.15854100  0.25000000  0.69715300  1
  Cl  Cl31  1  0.84145900  0.75000000  0.30284700  1
