# generated using pymatgen
data_MgSb3XeF23
_symmetry_space_group_name_H-M   'P 1'
_cell_length_a   10.82492600
_cell_length_b   11.04587300
_cell_length_c   19.12482826
_cell_angle_alpha   54.93339115
_cell_angle_beta   90.00000000
_cell_angle_gamma   90.00000000
_symmetry_Int_Tables_number   1
_chemical_formula_structural   MgSb3XeF23
_chemical_formula_sum   'Mg4 Sb12 Xe4 F92'
_cell_volume   1871.68638964
_cell_formula_units_Z   4
loop_
 _symmetry_equiv_pos_site_id
 _symmetry_equiv_pos_as_xyz
  1  'x, y, z'
loop_
 _atom_site_type_symbol
 _atom_site_label
 _atom_site_symmetry_multiplicity
 _atom_site_fract_x
 _atom_site_fract_y
 _atom_site_fract_z
 _atom_site_occupancy
  Mg  Mg0  1  0.50000000  0.50000000  0.50000000  1
  Mg  Mg1  1  0.00000000  0.50000000  0.00000000  1
  Mg  Mg2  1  0.00000000  0.00000000  0.50000000  1
  Mg  Mg3  1  0.50000000  0.00000000  0.00000000  1
  Sb  Sb4  1  0.70864400  0.21512700  0.49335600  1
  Sb  Sb5  1  0.79135600  0.21512700  0.99335600  1
  Sb  Sb6  1  0.29135600  0.78487300  0.50664400  1
  Sb  Sb7  1  0.20864400  0.78487300  0.00664400  1
  Sb  Sb8  1  0.79413600  0.69324300  0.51259800  1
  Sb  Sb9  1  0.70586400  0.69324300  0.01259800  1
  Sb  Sb10  1  0.20586400  0.30675700  0.48740200  1
  Sb  Sb11  1  0.29413600  0.30675700  0.98740200  1
  Sb  Sb12  1  0.99404400  0.22725000  0.24710500  1
  Sb  Sb13  1  0.50595600  0.22725000  0.74710500  1
  Sb  Sb14  1  0.00595600  0.77275000  0.75289500  1
  Sb  Sb15  1  0.49404400  0.77275000  0.25289500  1
  Xe  Xe16  1  0.94718900  0.79804800  0.24642900  1
  Xe  Xe17  1  0.55281100  0.79804800  0.74642900  1
  Xe  Xe18  1  0.05281100  0.20195200  0.75357100  1
  Xe  Xe19  1  0.44718900  0.20195200  0.25357100  1
  F  F20  1  0.06306200  0.66534300  0.24340900  1
  F  F21  1  0.43693800  0.66534300  0.74340900  1
  F  F22  1  0.93693800  0.33465700  0.75659100  1
  F  F23  1  0.56306200  0.33465700  0.25659100  1
  F  F24  1  0.05392800  0.75475900  0.34074500  1
  F  F25  1  0.44607200  0.75475900  0.84074500  1
  F  F26  1  0.94607200  0.24524100  0.65925500  1
  F  F27  1  0.55392800  0.24524100  0.15925500  1
  F  F28  1  0.87438400  0.80306800  0.15102700  1
  F  F29  1  0.62561600  0.80306800  0.65102700  1
  F  F30  1  0.12561600  0.19693200  0.84897300  1
  F  F31  1  0.37438400  0.19693200  0.34897300  1
  F  F32  1  0.06919000  0.94575300  0.16783800  1
  F  F33  1  0.43081000  0.94575300  0.66783800  1
  F  F34  1  0.93081000  0.05424700  0.83216200  1
  F  F35  1  0.56919000  0.05424700  0.33216200  1
  F  F36  1  0.86046900  0.61073700  0.32432000  1
  F  F37  1  0.63953100  0.61073700  0.82432000  1
  F  F38  1  0.13953100  0.38926300  0.67568000  1
  F  F39  1  0.36046900  0.38926300  0.17568000  1
  F  F40  1  0.58827100  0.36563000  0.47494100  1
  F  F41  1  0.91172900  0.36563000  0.97494100  1
  F  F42  1  0.41172900  0.63437000  0.52505900  1
  F  F43  1  0.08827100  0.63437000  0.02505900  1
  F  F44  1  0.66117500  0.09003400  0.61188400  1
  F  F45  1  0.83882500  0.09003400  0.11188400  1
  F  F46  1  0.33882500  0.90996600  0.38811600  1
  F  F47  1  0.16117500  0.90996600  0.88811600  1
  F  F48  1  0.58749600  0.12378700  0.46778500  1
  F  F49  1  0.91250400  0.12378700  0.96778500  1
  F  F50  1  0.41250400  0.87621300  0.53221500  1
  F  F51  1  0.08749600  0.87621300  0.03221500  1
  F  F52  1  0.83287300  0.06517300  0.51537500  1
  F  F53  1  0.66712700  0.06517300  0.01537500  1
  F  F54  1  0.16712700  0.93482700  0.48462500  1
  F  F55  1  0.33287300  0.93482700  0.98462500  1
  F  F56  1  0.75876300  0.33468000  0.37723000  1
  F  F57  1  0.74123700  0.33468000  0.87723000  1
  F  F58  1  0.24123700  0.66532000  0.62277000  1
  F  F59  1  0.25876300  0.66532000  0.12277000  1
  F  F60  1  0.82800600  0.30485800  0.52208400  1
  F  F61  1  0.67199400  0.30485800  0.02208400  1
  F  F62  1  0.17199400  0.69514200  0.47791600  1
  F  F63  1  0.32800600  0.69514200  0.97791600  1
  F  F64  1  0.66511600  0.55664600  0.52314300  1
  F  F65  1  0.83488400  0.55664600  0.02314300  1
  F  F66  1  0.33488400  0.44335400  0.47685700  1
  F  F67  1  0.16511600  0.44335400  0.97685700  1
  F  F68  1  0.91904400  0.55499500  0.53819600  1
  F  F69  1  0.58095600  0.55499500  0.03819600  1
  F  F70  1  0.08095600  0.44500500  0.46180400  1
  F  F71  1  0.41904400  0.44500500  0.96180400  1
  F  F72  1  0.81053900  0.77302400  0.39338900  1
  F  F73  1  0.68946100  0.77302400  0.89338900  1
  F  F74  1  0.18946100  0.22697600  0.60661100  1
  F  F75  1  0.31053900  0.22697600  0.10661100  1
  F  F76  1  0.91881700  0.83611400  0.49940200  1
  F  F77  1  0.58118300  0.83611400  0.99940200  1
  F  F78  1  0.08118300  0.16388600  0.50059800  1
  F  F79  1  0.41881700  0.16388600  0.00059800  1
  F  F80  1  0.66922900  0.83502200  0.48325000  1
  F  F81  1  0.83077100  0.83502200  0.98325000  1
  F  F82  1  0.33077100  0.16497800  0.51675000  1
  F  F83  1  0.16922900  0.16497800  0.01675000  1
  F  F84  1  0.77817200  0.61631100  0.62988600  1
  F  F85  1  0.72182800  0.61631100  0.12988600  1
  F  F86  1  0.22182800  0.38368900  0.37011400  1
  F  F87  1  0.27817200  0.38368900  0.87011400  1
  F  F88  1  0.97940400  0.13249000  0.37055300  1
  F  F89  1  0.52059600  0.13249000  0.87055300  1
  F  F90  1  0.02059600  0.86751000  0.62944700  1
  F  F91  1  0.47940400  0.86751000  0.12944700  1
  F  F92  1  0.96413300  0.03915300  0.26553300  1
  F  F93  1  0.53586700  0.03915300  0.76553300  1
  F  F94  1  0.03586700  0.96084700  0.73446700  1
  F  F95  1  0.46413300  0.96084700  0.23446700  1
  F  F96  1  0.16591500  0.17790600  0.26297300  1
  F  F97  1  0.33408500  0.17790600  0.76297300  1
  F  F98  1  0.83408500  0.82209400  0.73702700  1
  F  F99  1  0.66591500  0.82209400  0.23702700  1
  F  F100  1  0.01404700  0.32173600  0.12377500  1
  F  F101  1  0.48595300  0.32173600  0.62377500  1
  F  F102  1  0.98595300  0.67826400  0.87622500  1
  F  F103  1  0.51404700  0.67826400  0.37622500  1
  F  F104  1  0.02707400  0.41117600  0.22870500  1
  F  F105  1  0.47292600  0.41117600  0.72870500  1
  F  F106  1  0.97292600  0.58882400  0.77129500  1
  F  F107  1  0.52707400  0.58882400  0.27129500  1
  F  F108  1  0.82206400  0.26326800  0.23200800  1
  F  F109  1  0.67793600  0.26326800  0.73200800  1
  F  F110  1  0.17793600  0.73673200  0.76799200  1
  F  F111  1  0.32206400  0.73673200  0.26799200  1
