# generated using pymatgen
data_Sr(AuF6)2
_symmetry_space_group_name_H-M   'P 1'
_cell_length_a   10.37016600
_cell_length_b   10.37016600
_cell_length_c   10.37016600
_cell_angle_alpha   90.00000000
_cell_angle_beta   90.00000000
_cell_angle_gamma   90.00000000
_symmetry_Int_Tables_number   1
_chemical_formula_structural   Sr(AuF6)2
_chemical_formula_sum   'Sr4 Au8 F48'
_cell_volume   1115.21120723
_cell_formula_units_Z   4
loop_
 _symmetry_equiv_pos_site_id
 _symmetry_equiv_pos_as_xyz
  1  'x, y, z'
loop_
 _atom_site_type_symbol
 _atom_site_label
 _atom_site_symmetry_multiplicity
 _atom_site_fract_x
 _atom_site_fract_y
 _atom_site_fract_z
 _atom_site_occupancy
  Sr  Sr0  1  0.50000000  0.00000000  0.00000000  1
  Sr  Sr1  1  0.00000000  0.50000000  0.00000000  1
  Sr  Sr2  1  0.00000000  0.00000000  0.50000000  1
  Sr  Sr3  1  0.00000000  0.00000000  0.00000000  1
  Au  Au4  1  0.25051500  0.25051500  0.25051500  1
  Au  Au5  1  0.74948500  0.74948500  0.25051500  1
  Au  Au6  1  0.74948500  0.25051500  0.74948500  1
  Au  Au7  1  0.25051500  0.74948500  0.74948500  1
  Au  Au8  1  0.74948500  0.74948500  0.74948500  1
  Au  Au9  1  0.25051500  0.25051500  0.74948500  1
  Au  Au10  1  0.25051500  0.74948500  0.25051500  1
  Au  Au11  1  0.74948500  0.25051500  0.25051500  1
  F  F12  1  0.12256000  0.12256000  0.31183400  1
  F  F13  1  0.87744000  0.87744000  0.31183400  1
  F  F14  1  0.87744000  0.12256000  0.68816600  1
  F  F15  1  0.31183400  0.12256000  0.12256000  1
  F  F16  1  0.12256000  0.87744000  0.68816600  1
  F  F17  1  0.31183400  0.87744000  0.87744000  1
  F  F18  1  0.68816600  0.87744000  0.12256000  1
  F  F19  1  0.68816600  0.12256000  0.87744000  1
  F  F20  1  0.12256000  0.31183400  0.12256000  1
  F  F21  1  0.12256000  0.68816600  0.87744000  1
  F  F22  1  0.87744000  0.68816600  0.12256000  1
  F  F23  1  0.87744000  0.31183400  0.87744000  1
  F  F24  1  0.37544900  0.37544900  0.81133600  1
  F  F25  1  0.62455100  0.62455100  0.81133600  1
  F  F26  1  0.62455100  0.37544900  0.18866400  1
  F  F27  1  0.81133600  0.37544900  0.37544900  1
  F  F28  1  0.37544900  0.62455100  0.18866400  1
  F  F29  1  0.81133600  0.62455100  0.62455100  1
  F  F30  1  0.18866400  0.62455100  0.37544900  1
  F  F31  1  0.18866400  0.37544900  0.62455100  1
  F  F32  1  0.37544900  0.81133600  0.37544900  1
  F  F33  1  0.37544900  0.18866400  0.62455100  1
  F  F34  1  0.62455100  0.18866400  0.37544900  1
  F  F35  1  0.62455100  0.81133600  0.62455100  1
  F  F36  1  0.12256000  0.12256000  0.68816600  1
  F  F37  1  0.87744000  0.87744000  0.68816600  1
  F  F38  1  0.87744000  0.12256000  0.31183400  1
  F  F39  1  0.68816600  0.12256000  0.12256000  1
  F  F40  1  0.12256000  0.87744000  0.31183400  1
  F  F41  1  0.68816600  0.87744000  0.87744000  1
  F  F42  1  0.31183400  0.87744000  0.12256000  1
  F  F43  1  0.31183400  0.12256000  0.87744000  1
  F  F44  1  0.12256000  0.68816600  0.12256000  1
  F  F45  1  0.12256000  0.31183400  0.87744000  1
  F  F46  1  0.87744000  0.31183400  0.12256000  1
  F  F47  1  0.87744000  0.68816600  0.87744000  1
  F  F48  1  0.37544900  0.37544900  0.18866400  1
  F  F49  1  0.62455100  0.62455100  0.18866400  1
  F  F50  1  0.62455100  0.37544900  0.81133600  1
  F  F51  1  0.18866400  0.37544900  0.37544900  1
  F  F52  1  0.37544900  0.62455100  0.81133600  1
  F  F53  1  0.18866400  0.62455100  0.62455100  1
  F  F54  1  0.81133600  0.62455100  0.37544900  1
  F  F55  1  0.81133600  0.37544900  0.62455100  1
  F  F56  1  0.37544900  0.18866400  0.37544900  1
  F  F57  1  0.37544900  0.81133600  0.62455100  1
  F  F58  1  0.62455100  0.81133600  0.37544900  1
  F  F59  1  0.62455100  0.18866400  0.62455100  1
