# generated using pymatgen
data_BaFe2PbO5
_symmetry_space_group_name_H-M   'P 1'
_cell_length_a   4.02615200
_cell_length_b   5.85742900
_cell_length_c   21.60656400
_cell_angle_alpha   90.00000000
_cell_angle_beta   90.00000000
_cell_angle_gamma   90.00000000
_symmetry_Int_Tables_number   1
_chemical_formula_structural   BaFe2PbO5
_chemical_formula_sum   'Ba4 Fe8 Pb4 O20'
_cell_volume   509.54542699
_cell_formula_units_Z   4
loop_
 _symmetry_equiv_pos_site_id
 _symmetry_equiv_pos_as_xyz
  1  'x, y, z'
loop_
 _atom_site_type_symbol
 _atom_site_label
 _atom_site_symmetry_multiplicity
 _atom_site_fract_x
 _atom_site_fract_y
 _atom_site_fract_z
 _atom_site_occupancy
  Ba  Ba0  1  0.25000000  0.51991100  0.18460400  1
  Ba  Ba1  1  0.75000000  0.48008900  0.81539600  1
  Ba  Ba2  1  0.75000000  0.98008900  0.68460400  1
  Ba  Ba3  1  0.25000000  0.01991100  0.31539600  1
  Fe  Fe4  1  0.25000000  0.97791200  0.81326600  1
  Fe  Fe5  1  0.75000000  0.02208800  0.18673400  1
  Fe  Fe6  1  0.75000000  0.52208800  0.31326600  1
  Fe  Fe7  1  0.25000000  0.47791200  0.68673400  1
  Fe  Fe8  1  0.25000000  0.98057600  0.55319500  1
  Fe  Fe9  1  0.75000000  0.01942400  0.44680500  1
  Fe  Fe10  1  0.75000000  0.51942400  0.05319500  1
  Fe  Fe11  1  0.25000000  0.48057600  0.94680500  1
  Pb  Pb12  1  0.25000000  0.01083300  0.07111300  1
  Pb  Pb13  1  0.75000000  0.98916700  0.92888700  1
  Pb  Pb14  1  0.75000000  0.48916700  0.57111300  1
  Pb  Pb15  1  0.25000000  0.51083300  0.42888700  1
  O  O16  1  0.25000000  0.55939700  0.03738700  1
  O  O17  1  0.75000000  0.44060300  0.96261300  1
  O  O18  1  0.75000000  0.94060300  0.53738700  1
  O  O19  1  0.25000000  0.05939700  0.46261300  1
  O  O20  1  0.25000000  0.71405800  0.60895600  1
  O  O21  1  0.75000000  0.28594200  0.39104400  1
  O  O22  1  0.75000000  0.78594200  0.10895600  1
  O  O23  1  0.25000000  0.21405800  0.89104400  1
  O  O24  1  0.25000000  0.73331900  0.89079200  1
  O  O25  1  0.75000000  0.26668100  0.10920800  1
  O  O26  1  0.75000000  0.76668100  0.39079200  1
  O  O27  1  0.25000000  0.23331900  0.60920800  1
  O  O28  1  0.25000000  0.72838700  0.74994500  1
  O  O29  1  0.75000000  0.27161300  0.25005500  1
  O  O30  1  0.75000000  0.77161300  0.24994500  1
  O  O31  1  0.25000000  0.22838700  0.75005500  1
  O  O32  1  0.25000000  0.52045400  0.32301000  1
  O  O33  1  0.75000000  0.47954600  0.67699000  1
  O  O34  1  0.75000000  0.97954600  0.82301000  1
  O  O35  1  0.25000000  0.02045400  0.17699000  1
