# generated using pymatgen
data_NdGa4Os
_symmetry_space_group_name_H-M   'P 1'
_cell_length_a   7.69679800
_cell_length_b   8.83300000
_cell_length_c   9.75134700
_cell_angle_alpha   90.00000000
_cell_angle_beta   90.00000000
_cell_angle_gamma   90.00000000
_symmetry_Int_Tables_number   1
_chemical_formula_structural   NdGa4Os
_chemical_formula_sum   'Nd6 Ga24 Os6'
_cell_volume   662.95329005
_cell_formula_units_Z   6
loop_
 _symmetry_equiv_pos_site_id
 _symmetry_equiv_pos_as_xyz
  1  'x, y, z'
loop_
 _atom_site_type_symbol
 _atom_site_label
 _atom_site_symmetry_multiplicity
 _atom_site_fract_x
 _atom_site_fract_y
 _atom_site_fract_z
 _atom_site_occupancy
  Nd  Nd0  1  0.32076700  0.50000000  0.75000000  1
  Nd  Nd1  1  0.67923300  0.50000000  0.25000000  1
  Nd  Nd2  1  0.83883800  0.24905500  0.75000000  1
  Nd  Nd3  1  0.16116200  0.75094500  0.25000000  1
  Nd  Nd4  1  0.83883800  0.75094500  0.75000000  1
  Nd  Nd5  1  0.16116200  0.24905500  0.25000000  1
  Ga  Ga6  1  0.17843200  0.23668700  0.57543700  1
  Ga  Ga7  1  0.82156800  0.76331300  0.42456300  1
  Ga  Ga8  1  0.17843200  0.76331300  0.92456300  1
  Ga  Ga9  1  0.82156800  0.23668700  0.42456300  1
  Ga  Ga10  1  0.82156800  0.23668700  0.07543700  1
  Ga  Ga11  1  0.17843200  0.76331300  0.57543700  1
  Ga  Ga12  1  0.82156800  0.76331300  0.07543700  1
  Ga  Ga13  1  0.17843200  0.23668700  0.92456300  1
  Ga  Ga14  1  0.13010900  0.00000000  0.75000000  1
  Ga  Ga15  1  0.86989100  0.00000000  0.25000000  1
  Ga  Ga16  1  0.33810200  0.00000000  0.06126000  1
  Ga  Ga17  1  0.66189800  0.00000000  0.93874000  1
  Ga  Ga18  1  0.33810200  0.00000000  0.43874000  1
  Ga  Ga19  1  0.66189800  0.00000000  0.56126000  1
  Ga  Ga20  1  0.45265700  0.15635900  0.75000000  1
  Ga  Ga21  1  0.54734300  0.84364100  0.25000000  1
  Ga  Ga22  1  0.45265700  0.84364100  0.75000000  1
  Ga  Ga23  1  0.54734300  0.15635900  0.25000000  1
  Ga  Ga24  1  0.65673600  0.50000000  0.58548100  1
  Ga  Ga25  1  0.34326400  0.50000000  0.41451900  1
  Ga  Ga26  1  0.65673600  0.50000000  0.91451900  1
  Ga  Ga27  1  0.34326400  0.50000000  0.08548100  1
  Ga  Ga28  1  0.00000000  0.50000000  0.50000000  1
  Ga  Ga29  1  0.00000000  0.50000000  0.00000000  1
  Os  Os30  1  0.50000000  0.25912700  0.50000000  1
  Os  Os31  1  0.50000000  0.74087300  0.50000000  1
  Os  Os32  1  0.50000000  0.74087300  0.00000000  1
  Os  Os33  1  0.50000000  0.25912700  0.00000000  1
  Os  Os34  1  0.00000000  0.00000000  0.50000000  1
  Os  Os35  1  0.00000000  0.00000000  0.00000000  1
