# generated using pymatgen
data_K3SmGa3B12S12I
_symmetry_space_group_name_H-M   'P 1'
_cell_length_a   12.99926189
_cell_length_b   12.99926189
_cell_length_c   9.37809700
_cell_angle_alpha   90.00000000
_cell_angle_beta   90.00000000
_cell_angle_gamma   119.99999946
_symmetry_Int_Tables_number   1
_chemical_formula_structural   K3SmGa3B12S12I
_chemical_formula_sum   'K6 Sm2 Ga6 B24 S24 I2'
_cell_volume   1372.40642164
_cell_formula_units_Z   2
loop_
 _symmetry_equiv_pos_site_id
 _symmetry_equiv_pos_as_xyz
  1  'x, y, z'
loop_
 _atom_site_type_symbol
 _atom_site_label
 _atom_site_symmetry_multiplicity
 _atom_site_fract_x
 _atom_site_fract_y
 _atom_site_fract_z
 _atom_site_occupancy
  K  K0  1  0.00000000  0.78433800  0.00000000  1
  K  K1  1  0.21566200  0.21566200  0.00000000  1
  K  K2  1  0.78433800  0.00000000  0.00000000  1
  K  K3  1  0.00000000  0.21566200  0.50000000  1
  K  K4  1  0.78433800  0.78433800  0.50000000  1
  K  K5  1  0.21566200  0.00000000  0.50000000  1
  Sm  Sm6  1  0.33333300  0.66666700  0.25000000  1
  Sm  Sm7  1  0.66666700  0.33333300  0.75000000  1
  Ga  Ga8  1  0.00000000  0.46104600  0.00000000  1
  Ga  Ga9  1  0.53895400  0.53895400  0.00000000  1
  Ga  Ga10  1  0.46104600  0.00000000  0.00000000  1
  Ga  Ga11  1  0.00000000  0.53895400  0.50000000  1
  Ga  Ga12  1  0.46104600  0.46104600  0.50000000  1
  Ga  Ga13  1  0.53895400  0.00000000  0.50000000  1
  B  B14  1  0.20449200  0.53639400  0.78417800  1
  B  B15  1  0.46360600  0.66809800  0.78417800  1
  B  B16  1  0.33190200  0.79550800  0.78417800  1
  B  B17  1  0.53639400  0.20449200  0.21582200  1
  B  B18  1  0.66809800  0.46360600  0.21582200  1
  B  B19  1  0.79550800  0.33190200  0.21582200  1
  B  B20  1  0.79550800  0.46360600  0.28417800  1
  B  B21  1  0.53639400  0.33190200  0.28417800  1
  B  B22  1  0.66809800  0.20449200  0.28417800  1
  B  B23  1  0.46360600  0.79550800  0.71582200  1
  B  B24  1  0.33190200  0.53639400  0.71582200  1
  B  B25  1  0.20449200  0.66809800  0.71582200  1
  B  B26  1  0.25285200  0.66390600  0.89317000  1
  B  B27  1  0.33609400  0.58894600  0.89317000  1
  B  B28  1  0.41105400  0.74714800  0.89317000  1
  B  B29  1  0.66390600  0.25285200  0.10683000  1
  B  B30  1  0.58894600  0.33609400  0.10683000  1
  B  B31  1  0.74714800  0.41105400  0.10683000  1
  B  B32  1  0.74714800  0.33609400  0.39317000  1
  B  B33  1  0.66390600  0.41105400  0.39317000  1
  B  B34  1  0.58894600  0.25285200  0.39317000  1
  B  B35  1  0.33609400  0.74714800  0.60683000  1
  B  B36  1  0.41105400  0.66390600  0.60683000  1
  B  B37  1  0.25285200  0.58894600  0.60683000  1
  S  S38  1  0.06649300  0.39428300  0.82002200  1
  S  S39  1  0.60571700  0.67221000  0.82002200  1
  S  S40  1  0.32779000  0.93350700  0.82002200  1
  S  S41  1  0.39428300  0.06649300  0.17997800  1
  S  S42  1  0.67221000  0.60571700  0.17997800  1
  S  S43  1  0.93350700  0.32779000  0.17997800  1
  S  S44  1  0.93350700  0.60571700  0.32002200  1
  S  S45  1  0.39428300  0.32779000  0.32002200  1
  S  S46  1  0.67221000  0.06649300  0.32002200  1
  S  S47  1  0.60571700  0.93350700  0.67997800  1
  S  S48  1  0.32779000  0.39428300  0.67997800  1
  S  S49  1  0.06649300  0.67221000  0.67997800  1
  S  S50  1  0.16021900  0.65283900  0.05240900  1
  S  S51  1  0.34716100  0.50738000  0.05240900  1
  S  S52  1  0.49262000  0.83978100  0.05240900  1
  S  S53  1  0.65283900  0.16021900  0.94759100  1
  S  S54  1  0.50738000  0.34716100  0.94759100  1
  S  S55  1  0.83978100  0.49262000  0.94759100  1
  S  S56  1  0.83978100  0.34716100  0.55240900  1
  S  S57  1  0.65283900  0.49262000  0.55240900  1
  S  S58  1  0.50738000  0.16021900  0.55240900  1
  S  S59  1  0.34716100  0.83978100  0.44759100  1
  S  S60  1  0.49262000  0.65283900  0.44759100  1
  S  S61  1  0.16021900  0.50738000  0.44759100  1
  I  I62  1  0.00000000  0.00000000  0.75000000  1
  I  I63  1  0.00000000  0.00000000  0.25000000  1
