# generated using pymatgen
data_KMnIO6
_symmetry_space_group_name_H-M   'P 1'
_cell_length_a   5.12804591
_cell_length_b   5.12804591
_cell_length_c   12.25657500
_cell_angle_alpha   90.00000000
_cell_angle_beta   90.00000000
_cell_angle_gamma   119.99999880
_symmetry_Int_Tables_number   1
_chemical_formula_structural   KMnIO6
_chemical_formula_sum   'K2 Mn2 I2 O12'
_cell_volume   279.12810861
_cell_formula_units_Z   2
loop_
 _symmetry_equiv_pos_site_id
 _symmetry_equiv_pos_as_xyz
  1  'x, y, z'
loop_
 _atom_site_type_symbol
 _atom_site_label
 _atom_site_symmetry_multiplicity
 _atom_site_fract_x
 _atom_site_fract_y
 _atom_site_fract_z
 _atom_site_occupancy
  K  K0  1  0.66666700  0.33333300  0.25000000  1
  K  K1  1  0.66666700  0.33333300  0.75000000  1
  Mn  Mn2  1  0.33333300  0.66666700  0.50000000  1
  Mn  Mn3  1  0.33333300  0.66666700  0.00000000  1
  I  I4  1  0.00000000  0.00000000  0.00000000  1
  I  I5  1  0.00000000  0.00000000  0.50000000  1
  O  O6  1  0.04615700  0.32878100  0.41177100  1
  O  O7  1  0.04615700  0.32878100  0.91177100  1
  O  O8  1  0.28262400  0.95384300  0.41177100  1
  O  O9  1  0.28262400  0.95384300  0.91177100  1
  O  O10  1  0.28262400  0.32878100  0.08822900  1
  O  O11  1  0.28262400  0.32878100  0.58822900  1
  O  O12  1  0.67121900  0.71737600  0.41177100  1
  O  O13  1  0.67121900  0.71737600  0.91177100  1
  O  O14  1  0.67121900  0.95384300  0.08822900  1
  O  O15  1  0.67121900  0.95384300  0.58822900  1
  O  O16  1  0.04615700  0.71737600  0.08822900  1
  O  O17  1  0.04615700  0.71737600  0.58822900  1
