# generated using pymatgen
data_CsTl3O5
_symmetry_space_group_name_H-M   'P 1'
_cell_length_a   3.55692200
_cell_length_b   10.41957900
_cell_length_c   17.57820900
_cell_angle_alpha   90.00000000
_cell_angle_beta   90.00000000
_cell_angle_gamma   90.00000000
_symmetry_Int_Tables_number   1
_chemical_formula_structural   CsTl3O5
_chemical_formula_sum   'Cs4 Tl12 O20'
_cell_volume   651.47707408
_cell_formula_units_Z   4
loop_
 _symmetry_equiv_pos_site_id
 _symmetry_equiv_pos_as_xyz
  1  'x, y, z'
loop_
 _atom_site_type_symbol
 _atom_site_label
 _atom_site_symmetry_multiplicity
 _atom_site_fract_x
 _atom_site_fract_y
 _atom_site_fract_z
 _atom_site_occupancy
  Cs  Cs0  1  0.75000000  0.50278700  0.38064500  1
  Cs  Cs1  1  0.25000000  0.49721300  0.61935500  1
  Cs  Cs2  1  0.25000000  0.99721300  0.88064500  1
  Cs  Cs3  1  0.75000000  0.00278700  0.11935500  1
  Tl  Tl4  1  0.75000000  0.85059400  0.31064300  1
  Tl  Tl5  1  0.25000000  0.14940600  0.68935700  1
  Tl  Tl6  1  0.25000000  0.64940600  0.81064300  1
  Tl  Tl7  1  0.75000000  0.35059400  0.18935700  1
  Tl  Tl8  1  0.75000000  0.64583000  0.98154400  1
  Tl  Tl9  1  0.25000000  0.35417000  0.01845600  1
  Tl  Tl10  1  0.25000000  0.85417000  0.48154400  1
  Tl  Tl11  1  0.75000000  0.14583000  0.51845600  1
  Tl  Tl12  1  0.75000000  0.85857600  0.65496700  1
  Tl  Tl13  1  0.25000000  0.14142400  0.34503300  1
  Tl  Tl14  1  0.25000000  0.64142400  0.15496700  1
  Tl  Tl15  1  0.75000000  0.35857600  0.84503300  1
  O  O16  1  0.75000000  0.98898600  0.42390700  1
  O  O17  1  0.25000000  0.01101400  0.57609400  1
  O  O18  1  0.25000000  0.51101400  0.92390600  1
  O  O19  1  0.75000000  0.48898600  0.07609300  1
  O  O20  1  0.75000000  0.75864300  0.54256100  1
  O  O21  1  0.25000000  0.24135700  0.45743900  1
  O  O22  1  0.25000000  0.74135700  0.04256100  1
  O  O23  1  0.75000000  0.25864300  0.95743900  1
  O  O24  1  0.75000000  0.74820600  0.19839700  1
  O  O25  1  0.25000000  0.25179400  0.80160300  1
  O  O26  1  0.25000000  0.75179400  0.69839700  1
  O  O27  1  0.75000000  0.24820600  0.30160300  1
  O  O28  1  0.75000000  0.75369100  0.87174300  1
  O  O29  1  0.25000000  0.24630900  0.12825700  1
  O  O30  1  0.25000000  0.74630900  0.37174300  1
  O  O31  1  0.75000000  0.25369100  0.62825700  1
  O  O32  1  0.75000000  0.52379700  0.76852000  1
  O  O33  1  0.25000000  0.47620300  0.23148000  1
  O  O34  1  0.25000000  0.97620300  0.26852000  1
  O  O35  1  0.75000000  0.02379700  0.73148000  1
