# generated using pymatgen
data_Sr2MnTeO6
_symmetry_space_group_name_H-M   'P 1'
_cell_length_a   5.77006200
_cell_length_b   5.76907094
_cell_length_c   8.11836490
_cell_angle_alpha   90.17786256
_cell_angle_beta   90.00017994
_cell_angle_gamma   89.99980155
_symmetry_Int_Tables_number   1
_chemical_formula_structural   Sr2MnTeO6
_chemical_formula_sum   'Sr4 Mn2 Te2 O12'
_cell_volume   270.24199258
_cell_formula_units_Z   2
loop_
 _symmetry_equiv_pos_site_id
 _symmetry_equiv_pos_as_xyz
  1  'x, y, z'
loop_
 _atom_site_type_symbol
 _atom_site_label
 _atom_site_symmetry_multiplicity
 _atom_site_fract_x
 _atom_site_fract_y
 _atom_site_fract_z
 _atom_site_occupancy
  Sr  Sr0  1  0.52421500  0.99520900  0.75033700  1
  Sr  Sr1  1  0.47570000  0.00477800  0.24965000  1
  Sr  Sr2  1  0.02431300  0.50479200  0.74964300  1
  Sr  Sr3  1  0.97581600  0.49523300  0.25033300  1
  Mn  Mn4  1  0.49981200  0.50007600  0.00018500  1
  Mn  Mn5  1  0.00008800  0.00000100  0.50002100  1
  Te  Te6  1  0.99995600  0.99999600  0.99997400  1
  Te  Te7  1  0.50004700  0.49996500  0.50002600  1
  O  O8  1  0.79236700  0.73468400  0.96651600  1
  O  O9  1  0.20774800  0.26531700  0.03343200  1
  O  O10  1  0.29226000  0.76532900  0.53344600  1
  O  O11  1  0.70765200  0.23469700  0.46652000  1
  O  O12  1  0.98789400  0.06373300  0.76296600  1
  O  O13  1  0.01211300  0.93629200  0.23706700  1
  O  O14  1  0.48790800  0.43627400  0.73700000  1
  O  O15  1  0.51210200  0.56369400  0.26290100  1
  O  O16  1  0.26721800  0.79496400  0.96583800  1
  O  O17  1  0.73285000  0.20497300  0.03414900  1
  O  O18  1  0.76715200  0.70500500  0.53415400  1
  O  O19  1  0.23279000  0.29498700  0.46584300  1
