# generated using pymatgen
data_Sn2H22S6N4O3
_symmetry_space_group_name_H-M   'P 1'
_cell_length_a   8.79086300
_cell_length_b   8.79086300
_cell_length_c   23.42808600
_cell_angle_alpha   90.00000000
_cell_angle_beta   90.00000000
_cell_angle_gamma   90.00000000
_symmetry_Int_Tables_number   1
_chemical_formula_structural   Sn2H22S6N4O3
_chemical_formula_sum   'Sn8 H88 S24 N16 O12'
_cell_volume   1810.50543710
_cell_formula_units_Z   4
loop_
 _symmetry_equiv_pos_site_id
 _symmetry_equiv_pos_as_xyz
  1  'x, y, z'
loop_
 _atom_site_type_symbol
 _atom_site_label
 _atom_site_symmetry_multiplicity
 _atom_site_fract_x
 _atom_site_fract_y
 _atom_site_fract_z
 _atom_site_occupancy
  Sn  Sn0  1  0.02480400  0.02295600  0.42753600  1
  Sn  Sn1  1  0.97519600  0.97704400  0.92753600  1
  Sn  Sn2  1  0.52295600  0.47519600  0.17753600  1
  Sn  Sn3  1  0.47704400  0.52480400  0.67753600  1
  Sn  Sn4  1  0.97704400  0.97519600  0.07246400  1
  Sn  Sn5  1  0.02295600  0.02480400  0.57246400  1
  Sn  Sn6  1  0.47519600  0.52295600  0.82246400  1
  Sn  Sn7  1  0.52480400  0.47704400  0.32246400  1
  H  H8  1  0.56092900  0.95551600  0.28782100  1
  H  H9  1  0.43907100  0.04448400  0.78782100  1
  H  H10  1  0.45551600  0.93907100  0.03782100  1
  H  H11  1  0.54448400  0.06092900  0.53782100  1
  H  H12  1  0.04448400  0.43907100  0.21217900  1
  H  H13  1  0.95551600  0.56092900  0.71217900  1
  H  H14  1  0.93907100  0.45551600  0.96217900  1
  H  H15  1  0.06092900  0.54448400  0.46217900  1
  H  H16  1  0.30685200  0.15204000  0.27201600  1
  H  H17  1  0.69314800  0.84796000  0.77201600  1
  H  H18  1  0.65204000  0.19314800  0.02201600  1
  H  H19  1  0.34796000  0.80685200  0.52201600  1
  H  H20  1  0.84796000  0.69314800  0.22798400  1
  H  H21  1  0.15204000  0.30685200  0.72798400  1
  H  H22  1  0.19314800  0.65204000  0.97798400  1
  H  H23  1  0.80685200  0.34796000  0.47798400  1
  H  H24  1  0.59504800  0.84682500  0.34690000  1
  H  H25  1  0.40495200  0.15317500  0.84690000  1
  H  H26  1  0.34682500  0.90495200  0.09690000  1
  H  H27  1  0.65317500  0.09504800  0.59690000  1
  H  H28  1  0.15317500  0.40495200  0.15310000  1
  H  H29  1  0.84682500  0.59504800  0.65310000  1
  H  H30  1  0.90495200  0.34682500  0.90310000  1
  H  H31  1  0.09504800  0.65317500  0.40310000  1
  H  H32  1  0.16059200  0.06881000  0.23679600  1
  H  H33  1  0.83940800  0.93119000  0.73679600  1
  H  H34  1  0.56881000  0.33940800  0.98679600  1
  H  H35  1  0.43119000  0.66059200  0.48679600  1
  H  H36  1  0.93119000  0.83940800  0.26320400  1
  H  H37  1  0.06881000  0.16059200  0.76320400  1
  H  H38  1  0.33940800  0.56881000  0.01320400  1
  H  H39  1  0.66059200  0.43119000  0.51320400  1
  H  H40  1  0.63720700  0.03592000  0.34736300  1
  H  H41  1  0.36279300  0.96408000  0.84736300  1
  H  H42  1  0.53592000  0.86279300  0.09736300  1
  H  H43  1  0.46408000  0.13720700  0.59736300  1
  H  H44  1  0.96408000  0.36279300  0.15263700  1
  H  H45  1  0.03592000  0.63720700  0.65263700  1
  H  H46  1  0.86279300  0.53592000  0.90263700  1
  H  H47  1  0.13720700  0.46408000  0.40263700  1
  H  H48  1  0.97797900  0.36188900  0.30693200  1
  H  H49  1  0.02202100  0.63811100  0.80693200  1
  H  H50  1  0.86188900  0.52202100  0.05693200  1
  H  H51  1  0.13811100  0.47797900  0.55693200  1
  H  H52  1  0.63811100  0.02202100  0.19306800  1
  H  H53  1  0.36188900  0.97797900  0.69306800  1
  H  H54  1  0.52202100  0.86188900  0.94306800  1
  H  H55  1  0.47797900  0.13811100  0.44306800  1
  H  H56  1  0.91843500  0.09542500  0.28400000  1
  H  H57  1  0.08156500  0.90457500  0.78400000  1
  H  H58  1  0.59542500  0.58156500  0.03400000  1
  H  H59  1  0.40457500  0.41843500  0.53400000  1
  H  H60  1  0.90457500  0.08156500  0.21600000  1
  H  H61  1  0.09542500  0.91843500  0.71600000  1
  H  H62  1  0.58156500  0.59542500  0.96600000  1
  H  H63  1  0.41843500  0.40457500  0.46600000  1
  H  H64  1  0.34446300  0.00490700  0.22774900  1
  H  H65  1  0.65553700  0.99509300  0.72774900  1
  H  H66  1  0.50490700  0.15553700  0.97774900  1
  H  H67  1  0.49509300  0.84446300  0.47774900  1
  H  H68  1  0.99509300  0.65553700  0.27225100  1
  H  H69  1  0.00490700  0.34446300  0.77225100  1
  H  H70  1  0.15553700  0.50490700  0.02225100  1
  H  H71  1  0.84446300  0.49509300  0.52225100  1
  H  H72  1  0.29699400  0.17294100  0.19948300  1
  H  H73  1  0.70300600  0.82705900  0.69948300  1
  H  H74  1  0.67294100  0.20300600  0.94948300  1
  H  H75  1  0.32705900  0.79699400  0.44948300  1
  H  H76  1  0.82705900  0.70300600  0.30051700  1
  H  H77  1  0.17294100  0.29699400  0.80051700  1
  H  H78  1  0.20300600  0.67294100  0.05051700  1
  H  H79  1  0.79699400  0.32705900  0.55051700  1
  H  H80  1  0.45158700  0.97653700  0.34800500  1
  H  H81  1  0.54841300  0.02346300  0.84800500  1
  H  H82  1  0.47653700  0.04841300  0.09800500  1
  H  H83  1  0.52346300  0.95158700  0.59800500  1
  H  H84  1  0.02346300  0.54841300  0.15199500  1
  H  H85  1  0.97653700  0.45158700  0.65199500  1
  H  H86  1  0.04841300  0.47653700  0.90199500  1
  H  H87  1  0.95158700  0.52346300  0.40199500  1
  H  H88  1  0.15084200  0.40821900  0.30495400  1
  H  H89  1  0.84915800  0.59178100  0.80495400  1
  H  H90  1  0.90821900  0.34915800  0.05495400  1
  H  H91  1  0.09178100  0.65084200  0.55495400  1
  H  H92  1  0.59178100  0.84915800  0.19504600  1
  H  H93  1  0.40821900  0.15084200  0.69504600  1
  H  H94  1  0.34915800  0.90821900  0.94504600  1
  H  H95  1  0.65084200  0.09178100  0.44504600  1
  S  S96  1  0.16865100  0.16865100  0.50000000  1
  S  S97  1  0.83134900  0.83134900  0.00000000  1
  S  S98  1  0.66865100  0.33134900  0.25000000  1
  S  S99  1  0.33134900  0.66865100  0.75000000  1
  S  S100  1  0.87799300  0.87799300  0.50000000  1
  S  S101  1  0.12200700  0.12200700  0.00000000  1
  S  S102  1  0.37799300  0.62200700  0.25000000  1
  S  S103  1  0.62200700  0.37799300  0.75000000  1
  S  S104  1  0.84919200  0.18468600  0.37853900  1
  S  S105  1  0.15080800  0.81531400  0.87853900  1
  S  S106  1  0.68468600  0.65080800  0.12853900  1
  S  S107  1  0.31531400  0.34919200  0.62853900  1
  S  S108  1  0.81531400  0.15080800  0.12146100  1
  S  S109  1  0.18468600  0.84919200  0.62146100  1
  S  S110  1  0.65080800  0.68468600  0.87146100  1
  S  S111  1  0.34919200  0.31531400  0.37146100  1
  S  S112  1  0.19104200  0.86251600  0.37476900  1
  S  S113  1  0.80895800  0.13748400  0.87476900  1
  S  S114  1  0.36251600  0.30895800  0.12476900  1
  S  S115  1  0.63748400  0.69104200  0.62476900  1
  S  S116  1  0.13748400  0.80895800  0.12523100  1
  S  S117  1  0.86251600  0.19104200  0.62523100  1
  S  S118  1  0.30895800  0.36251600  0.87523100  1
  S  S119  1  0.69104200  0.63748400  0.37523100  1
  N  N120  1  0.55984900  0.95557700  0.33231700  1
  N  N121  1  0.44015100  0.04442300  0.83231700  1
  N  N122  1  0.45557700  0.94015100  0.08231700  1
  N  N123  1  0.54442300  0.05984900  0.58231700  1
  N  N124  1  0.04442300  0.44015100  0.16768300  1
  N  N125  1  0.95557700  0.55984900  0.66768300  1
  N  N126  1  0.94015100  0.45557700  0.91768300  1
  N  N127  1  0.05984900  0.54442300  0.41768300  1
  N  N128  1  0.27562200  0.09865200  0.23440200  1
  N  N129  1  0.72437800  0.90134800  0.73440200  1
  N  N130  1  0.59865200  0.22437800  0.98440200  1
  N  N131  1  0.40134800  0.77562200  0.48440200  1
  N  N132  1  0.90134800  0.72437800  0.26559800  1
  N  N133  1  0.09865200  0.27562200  0.76559800  1
  N  N134  1  0.22437800  0.59865200  0.01559800  1
  N  N135  1  0.77562200  0.40134800  0.51559800  1
  O  O136  1  0.95875200  0.04124800  0.25000000  1
  O  O137  1  0.04124800  0.95875200  0.75000000  1
  O  O138  1  0.54124800  0.54124800  0.00000000  1
  O  O139  1  0.45875200  0.45875200  0.50000000  1
  O  O140  1  0.05051000  0.43089300  0.28787400  1
  O  O141  1  0.94949000  0.56910700  0.78787400  1
  O  O142  1  0.93089300  0.44949000  0.03787400  1
  O  O143  1  0.06910700  0.55051000  0.53787400  1
  O  O144  1  0.56910700  0.94949000  0.21212600  1
  O  O145  1  0.43089300  0.05051000  0.71212600  1
  O  O146  1  0.44949000  0.93089300  0.96212600  1
  O  O147  1  0.55051000  0.06910700  0.46212600  1
