# generated using pymatgen
data_YbAlO3
_symmetry_space_group_name_H-M   'P 1'
_cell_length_a   5.23042900
_cell_length_b   5.26619100
_cell_length_c   7.41470500
_cell_angle_alpha   90.00000000
_cell_angle_beta   90.00000000
_cell_angle_gamma   90.00000000
_symmetry_Int_Tables_number   1
_chemical_formula_structural   YbAlO3
_chemical_formula_sum   'Yb4 Al4 O12'
_cell_volume   204.23388309
_cell_formula_units_Z   4
loop_
 _symmetry_equiv_pos_site_id
 _symmetry_equiv_pos_as_xyz
  1  'x, y, z'
loop_
 _atom_site_type_symbol
 _atom_site_label
 _atom_site_symmetry_multiplicity
 _atom_site_fract_x
 _atom_site_fract_y
 _atom_site_fract_z
 _atom_site_occupancy
  Yb  Yb0  1  0.50556700  0.52505700  0.25000000  1
  Yb  Yb1  1  0.99443300  0.02505700  0.25000000  1
  Yb  Yb2  1  0.49443300  0.47494300  0.75000000  1
  Yb  Yb3  1  0.00556700  0.97494300  0.75000000  1
  Al  Al4  1  0.00000000  0.50000000  0.00000000  1
  Al  Al5  1  0.50000000  0.00000000  0.50000000  1
  Al  Al6  1  0.00000000  0.50000000  0.50000000  1
  Al  Al7  1  0.50000000  0.00000000  0.00000000  1
  O  O8  1  0.45603400  0.99286000  0.25000000  1
  O  O9  1  0.04396600  0.49286000  0.25000000  1
  O  O10  1  0.54396600  0.00714000  0.75000000  1
  O  O11  1  0.95603400  0.50714000  0.75000000  1
  O  O12  1  0.77808900  0.77637200  0.02333400  1
  O  O13  1  0.72191100  0.27637200  0.47666600  1
  O  O14  1  0.22191100  0.22362800  0.52333400  1
  O  O15  1  0.27808900  0.72362800  0.97666600  1
  O  O16  1  0.22191100  0.22362800  0.97666600  1
  O  O17  1  0.27808900  0.72362800  0.52333400  1
  O  O18  1  0.77808900  0.77637200  0.47666600  1
  O  O19  1  0.72191100  0.27637200  0.02333400  1
