# generated using pymatgen
data_Sm3Pd4
_symmetry_space_group_name_H-M   'P 1'
_cell_length_a   8.07974363
_cell_length_b   8.07974363
_cell_length_c   8.07974480
_cell_angle_alpha   114.43755877
_cell_angle_beta   114.43755877
_cell_angle_gamma   114.43756230
_symmetry_Int_Tables_number   1
_chemical_formula_structural   Sm3Pd4
_chemical_formula_sum   'Sm6 Pd8'
_cell_volume   309.79008251
_cell_formula_units_Z   2
loop_
 _symmetry_equiv_pos_site_id
 _symmetry_equiv_pos_as_xyz
  1  'x, y, z'
loop_
 _atom_site_type_symbol
 _atom_site_label
 _atom_site_symmetry_multiplicity
 _atom_site_fract_x
 _atom_site_fract_y
 _atom_site_fract_z
 _atom_site_occupancy
  Sm  Sm0  1  0.97323400  0.59570500  0.72166300  1
  Sm  Sm1  1  0.72166300  0.97323400  0.59570500  1
  Sm  Sm2  1  0.59570500  0.72166300  0.97323400  1
  Sm  Sm3  1  0.02676600  0.40429500  0.27833700  1
  Sm  Sm4  1  0.27833700  0.02676600  0.40429500  1
  Sm  Sm5  1  0.40429500  0.27833700  0.02676600  1
  Pd  Pd6  1  0.00000000  0.00000000  0.00000000  1
  Pd  Pd7  1  0.50000000  0.50000000  0.50000000  1
  Pd  Pd8  1  0.94017200  0.77620200  0.44737600  1
  Pd  Pd9  1  0.44737600  0.94017200  0.77620200  1
  Pd  Pd10  1  0.77620200  0.44737600  0.94017200  1
  Pd  Pd11  1  0.05982800  0.22379800  0.55262400  1
  Pd  Pd12  1  0.55262400  0.05982800  0.22379800  1
  Pd  Pd13  1  0.22379800  0.55262400  0.05982800  1
