# generated using pymatgen
data_Li3La2(BO3)3
_symmetry_space_group_name_H-M   'P 1'
_cell_length_a   14.44610000
_cell_length_b   5.96697900
_cell_length_c   9.54080730
_cell_angle_alpha   66.40515729
_cell_angle_beta   90.00000000
_cell_angle_gamma   90.00000000
_symmetry_Int_Tables_number   1
_chemical_formula_structural   Li3La2(BO3)3
_chemical_formula_sum   'Li12 La8 B12 O36'
_cell_volume   753.65874785
_cell_formula_units_Z   4
loop_
 _symmetry_equiv_pos_site_id
 _symmetry_equiv_pos_as_xyz
  1  'x, y, z'
loop_
 _atom_site_type_symbol
 _atom_site_label
 _atom_site_symmetry_multiplicity
 _atom_site_fract_x
 _atom_site_fract_y
 _atom_site_fract_z
 _atom_site_occupancy
  Li  Li0  1  0.33520600  0.90326400  0.01897800  1
  Li  Li1  1  0.66479400  0.09673600  0.98102200  1
  Li  Li2  1  0.83520600  0.09673600  0.48102200  1
  Li  Li3  1  0.16479400  0.90326400  0.51897800  1
  Li  Li4  1  0.78197600  0.90713400  0.29208000  1
  Li  Li5  1  0.21802400  0.09286600  0.70792000  1
  Li  Li6  1  0.28197600  0.09286600  0.20792000  1
  Li  Li7  1  0.71802400  0.90713400  0.79208000  1
  Li  Li8  1  0.89864000  0.56353800  0.29206000  1
  Li  Li9  1  0.10136000  0.43646200  0.70794000  1
  Li  Li10  1  0.39864000  0.43646200  0.20794000  1
  Li  Li11  1  0.60136000  0.56353800  0.79206000  1
  La  La12  1  0.66591400  0.44471000  0.19120700  1
  La  La13  1  0.33408600  0.55529000  0.80879300  1
  La  La14  1  0.16591400  0.55529000  0.30879300  1
  La  La15  1  0.83408600  0.44471000  0.69120700  1
  La  La16  1  0.50311100  0.84921100  0.33980400  1
  La  La17  1  0.49688900  0.15078900  0.66019600  1
  La  La18  1  0.00311100  0.15078900  0.16019600  1
  La  La19  1  0.99688900  0.84921100  0.83980400  1
  B  B20  1  0.98458800  0.76434400  0.48628300  1
  B  B21  1  0.01541200  0.23565600  0.51371700  1
  B  B22  1  0.48458800  0.23565600  0.01371700  1
  B  B23  1  0.51541200  0.76434400  0.98628300  1
  B  B24  1  0.83586400  0.88730900  0.02815100  1
  B  B25  1  0.16413600  0.11269100  0.97184900  1
  B  B26  1  0.33586400  0.11269100  0.47184900  1
  B  B27  1  0.66413600  0.88730900  0.52815100  1
  B  B28  1  0.82425400  0.38812000  0.02046400  1
  B  B29  1  0.17574600  0.61188000  0.97953600  1
  B  B30  1  0.32425400  0.61188000  0.47953600  1
  B  B31  1  0.67574600  0.38812000  0.52046400  1
  O  O32  1  0.89892600  0.81328000  0.41533500  1
  O  O33  1  0.10107400  0.18672000  0.58466500  1
  O  O34  1  0.39892600  0.18672000  0.08466500  1
  O  O35  1  0.60107400  0.81328000  0.91533500  1
  O  O36  1  0.59484500  0.45479000  0.43390600  1
  O  O37  1  0.40515500  0.54521000  0.56609400  1
  O  O38  1  0.09484500  0.54521000  0.06609400  1
  O  O39  1  0.90515500  0.45479000  0.93390600  1
  O  O40  1  0.75718700  0.82390100  0.11816800  1
  O  O41  1  0.24281300  0.17609900  0.88183200  1
  O  O42  1  0.25718700  0.17609900  0.38183200  1
  O  O43  1  0.74281300  0.82390100  0.61816800  1
  O  O44  1  0.56497000  0.18137700  0.10124200  1
  O  O45  1  0.43503000  0.81862300  0.89875800  1
  O  O46  1  0.06497000  0.81862300  0.39875800  1
  O  O47  1  0.93503000  0.18137700  0.60124200  1
  O  O48  1  0.92382900  0.83911800  0.09330800  1
  O  O49  1  0.07617100  0.16088200  0.90669200  1
  O  O50  1  0.42382900  0.16088200  0.40669200  1
  O  O51  1  0.57617100  0.83911800  0.59330800  1
  O  O52  1  0.83131800  0.28922200  0.17952100  1
  O  O53  1  0.16868200  0.71077800  0.82047900  1
  O  O54  1  0.33131800  0.71077800  0.32047900  1
  O  O55  1  0.66868200  0.28922200  0.67952100  1
  O  O56  1  0.50925800  0.65773000  0.14505700  1
  O  O57  1  0.49074200  0.34227000  0.85494300  1
  O  O58  1  0.00925800  0.34227000  0.35494300  1
  O  O59  1  0.99074200  0.65773000  0.64505700  1
  O  O60  1  0.76062100  0.41418700  0.44803100  1
  O  O61  1  0.23937900  0.58581300  0.55196900  1
  O  O62  1  0.26062100  0.58581300  0.05196900  1
  O  O63  1  0.73937900  0.41418700  0.94803100  1
  O  O64  1  0.66896100  0.99709900  0.36959000  1
  O  O65  1  0.33103900  0.00290100  0.63041000  1
  O  O66  1  0.16896100  0.00290100  0.13041000  1
  O  O67  1  0.83103900  0.99709900  0.86959000  1
