# generated using pymatgen
data_TmCo3P2
_symmetry_space_group_name_H-M   'P 1'
_cell_length_a   3.65530700
_cell_length_b   10.45453400
_cell_length_c   12.08480100
_cell_angle_alpha   90.00000000
_cell_angle_beta   90.00000000
_cell_angle_gamma   90.00000000
_symmetry_Int_Tables_number   1
_chemical_formula_structural   TmCo3P2
_chemical_formula_sum   'Tm6 Co18 P12'
_cell_volume   461.81500621
_cell_formula_units_Z   6
loop_
 _symmetry_equiv_pos_site_id
 _symmetry_equiv_pos_as_xyz
  1  'x, y, z'
loop_
 _atom_site_type_symbol
 _atom_site_label
 _atom_site_symmetry_multiplicity
 _atom_site_fract_x
 _atom_site_fract_y
 _atom_site_fract_z
 _atom_site_occupancy
  Tm  Tm0  1  0.00000000  0.50000000  0.52305600  1
  Tm  Tm1  1  0.50000000  0.00000000  0.47694400  1
  Tm  Tm2  1  0.50000000  0.81726800  0.20578800  1
  Tm  Tm3  1  0.50000000  0.18273200  0.20578800  1
  Tm  Tm4  1  0.00000000  0.68273200  0.79421200  1
  Tm  Tm5  1  0.00000000  0.31726800  0.79421200  1
  Co  Co6  1  0.50000000  0.50000000  0.15964500  1
  Co  Co7  1  0.00000000  0.00000000  0.84035500  1
  Co  Co8  1  0.50000000  0.50000000  0.70276400  1
  Co  Co9  1  0.00000000  0.00000000  0.29723600  1
  Co  Co10  1  0.00000000  0.50000000  0.98553200  1
  Co  Co11  1  0.50000000  0.00000000  0.01446800  1
  Co  Co12  1  0.50000000  0.33360000  0.99411000  1
  Co  Co13  1  0.50000000  0.66640000  0.99411000  1
  Co  Co14  1  0.00000000  0.16640000  0.00589000  1
  Co  Co15  1  0.00000000  0.83360000  0.00589000  1
  Co  Co16  1  0.50000000  0.29732200  0.43099800  1
  Co  Co17  1  0.50000000  0.70267800  0.43099800  1
  Co  Co18  1  0.00000000  0.20267800  0.56900200  1
  Co  Co19  1  0.00000000  0.79732200  0.56900200  1
  Co  Co20  1  0.50000000  0.87882100  0.70905500  1
  Co  Co21  1  0.50000000  0.12117900  0.70905500  1
  Co  Co22  1  0.00000000  0.62117900  0.29094500  1
  Co  Co23  1  0.00000000  0.37882100  0.29094500  1
  P  P24  1  0.50000000  0.50000000  0.88171700  1
  P  P25  1  0.00000000  0.00000000  0.11828300  1
  P  P26  1  0.50000000  0.50000000  0.34551700  1
  P  P27  1  0.00000000  0.00000000  0.65448300  1
  P  P28  1  0.50000000  0.31199100  0.61681900  1
  P  P29  1  0.50000000  0.68800900  0.61681900  1
  P  P30  1  0.00000000  0.18800900  0.38318100  1
  P  P31  1  0.00000000  0.81199100  0.38318100  1
  P  P32  1  0.50000000  0.84754300  0.89241300  1
  P  P33  1  0.50000000  0.15245700  0.89241300  1
  P  P34  1  0.00000000  0.65245700  0.10758700  1
  P  P35  1  0.00000000  0.34754300  0.10758700  1
