# generated using pymatgen
data_La3SiCl3
_symmetry_space_group_name_H-M   'P 1'
_cell_length_a   10.37644792
_cell_length_b   10.37644792
_cell_length_c   10.37644792
_cell_angle_alpha   109.47122063
_cell_angle_beta   109.47122063
_cell_angle_gamma   109.47122063
_symmetry_Int_Tables_number   1
_chemical_formula_structural   La3SiCl3
_chemical_formula_sum   'La12 Si4 Cl12'
_cell_volume   860.05107154
_cell_formula_units_Z   4
loop_
 _symmetry_equiv_pos_site_id
 _symmetry_equiv_pos_as_xyz
  1  'x, y, z'
loop_
 _atom_site_type_symbol
 _atom_site_label
 _atom_site_symmetry_multiplicity
 _atom_site_fract_x
 _atom_site_fract_y
 _atom_site_fract_z
 _atom_site_occupancy
  La  La0  1  0.48960800  0.49480400  0.24480400  1
  La  La1  1  0.75000000  0.24480400  0.25519600  1
  La  La2  1  0.75000000  0.00519600  0.49480400  1
  La  La3  1  0.24480400  0.48960800  0.49480400  1
  La  La4  1  0.25519600  0.75000000  0.24480400  1
  La  La5  1  0.01039200  0.25519600  0.00519600  1
  La  La6  1  0.00519600  0.01039200  0.25519600  1
  La  La7  1  0.49480400  0.75000000  0.00519600  1
  La  La8  1  0.49480400  0.24480400  0.48960800  1
  La  La9  1  0.00519600  0.49480400  0.75000000  1
  La  La10  1  0.25519600  0.00519600  0.01039200  1
  La  La11  1  0.24480400  0.25519600  0.75000000  1
  Si  Si12  1  0.25000000  0.25000000  0.25000000  1
  Si  Si13  1  0.50000000  0.00000000  0.25000000  1
  Si  Si14  1  0.00000000  0.25000000  0.50000000  1
  Si  Si15  1  0.25000000  0.50000000  0.00000000  1
  Cl  Cl16  1  0.25000000  0.75195300  0.74804700  1
  Cl  Cl17  1  0.50390600  0.50195300  0.75195300  1
  Cl  Cl18  1  0.99609400  0.74804700  0.99804700  1
  Cl  Cl19  1  0.74804700  0.25000000  0.75195300  1
  Cl  Cl20  1  0.99804700  0.99609400  0.74804700  1
  Cl  Cl21  1  0.25000000  0.99804700  0.50195300  1
  Cl  Cl22  1  0.75195300  0.50390600  0.50195300  1
  Cl  Cl23  1  0.50195300  0.25000000  0.99804700  1
  Cl  Cl24  1  0.75195300  0.74804700  0.25000000  1
  Cl  Cl25  1  0.74804700  0.99804700  0.99609400  1
  Cl  Cl26  1  0.99804700  0.50195300  0.25000000  1
  Cl  Cl27  1  0.50195300  0.75195300  0.50390600  1
