# generated using pymatgen
data_BaIn2Pd
_symmetry_space_group_name_H-M   'P 1'
_cell_length_a   6.35602222
_cell_length_b   6.35602222
_cell_length_c   8.16263800
_cell_angle_alpha   90.00000000
_cell_angle_beta   90.00000000
_cell_angle_gamma   137.29653117
_symmetry_Int_Tables_number   1
_chemical_formula_structural   BaIn2Pd
_chemical_formula_sum   'Ba2 In4 Pd2'
_cell_volume   223.64634269
_cell_formula_units_Z   2
loop_
 _symmetry_equiv_pos_site_id
 _symmetry_equiv_pos_as_xyz
  1  'x, y, z'
loop_
 _atom_site_type_symbol
 _atom_site_label
 _atom_site_symmetry_multiplicity
 _atom_site_fract_x
 _atom_site_fract_y
 _atom_site_fract_z
 _atom_site_occupancy
  Ba  Ba0  1  0.55113900  0.44886100  0.25000000  1
  Ba  Ba1  1  0.44886100  0.55113900  0.75000000  1
  In  In2  1  0.83454300  0.16545700  0.05698100  1
  In  In3  1  0.16545700  0.83454300  0.94301900  1
  In  In4  1  0.16545700  0.83454300  0.55698100  1
  In  In5  1  0.83454300  0.16545700  0.44301900  1
  Pd  Pd6  1  0.27692700  0.72307300  0.25000000  1
  Pd  Pd7  1  0.72307300  0.27692700  0.75000000  1
