# generated using pymatgen
data_K3TbGe3(HO5)2
_symmetry_space_group_name_H-M   'P 1'
_cell_length_a   6.11396400
_cell_length_b   13.76150600
_cell_length_c   14.08787500
_cell_angle_alpha   90.00000000
_cell_angle_beta   90.00000000
_cell_angle_gamma   90.00000000
_symmetry_Int_Tables_number   1
_chemical_formula_structural   K3TbGe3(HO5)2
_chemical_formula_sum   'K12 Tb4 Ge12 H8 O40'
_cell_volume   1185.31650161
_cell_formula_units_Z   4
loop_
 _symmetry_equiv_pos_site_id
 _symmetry_equiv_pos_as_xyz
  1  'x, y, z'
loop_
 _atom_site_type_symbol
 _atom_site_label
 _atom_site_symmetry_multiplicity
 _atom_site_fract_x
 _atom_site_fract_y
 _atom_site_fract_z
 _atom_site_occupancy
  K  K0  1  0.41952800  0.63127600  0.25000000  1
  K  K1  1  0.08047200  0.13127600  0.25000000  1
  K  K2  1  0.58047200  0.36872400  0.75000000  1
  K  K3  1  0.91952800  0.86872400  0.75000000  1
  K  K4  1  0.08974700  0.63521000  0.01520200  1
  K  K5  1  0.41025300  0.13521000  0.48479800  1
  K  K6  1  0.91025300  0.36479000  0.51520200  1
  K  K7  1  0.58974700  0.86479000  0.98479800  1
  K  K8  1  0.91025300  0.36479000  0.98479800  1
  K  K9  1  0.58974700  0.86479000  0.51520200  1
  K  K10  1  0.08974700  0.63521000  0.48479800  1
  K  K11  1  0.41025300  0.13521000  0.01520200  1
  Tb  Tb12  1  0.58955100  0.95911900  0.25000000  1
  Tb  Tb13  1  0.91044900  0.45911900  0.25000000  1
  Tb  Tb14  1  0.41044900  0.04088100  0.75000000  1
  Tb  Tb15  1  0.08955100  0.54088100  0.75000000  1
  Ge  Ge16  1  0.91269300  0.74451500  0.25000000  1
  Ge  Ge17  1  0.58730700  0.24451500  0.25000000  1
  Ge  Ge18  1  0.08730700  0.25548500  0.75000000  1
  Ge  Ge19  1  0.41269300  0.75548500  0.75000000  1
  Ge  Ge20  1  0.09117600  0.90112800  0.10351200  1
  Ge  Ge21  1  0.40882400  0.40112800  0.39648800  1
  Ge  Ge22  1  0.90882400  0.09887200  0.60351200  1
  Ge  Ge23  1  0.59117600  0.59887200  0.89648800  1
  Ge  Ge24  1  0.90882400  0.09887200  0.89648800  1
  Ge  Ge25  1  0.59117600  0.59887200  0.60351200  1
  Ge  Ge26  1  0.09117600  0.90112800  0.39648800  1
  Ge  Ge27  1  0.40882400  0.40112800  0.10351200  1
  H  H28  1  0.11621300  0.92489000  0.93760400  1
  H  H29  1  0.38378700  0.42489000  0.56239600  1
  H  H30  1  0.88378700  0.07511000  0.43760400  1
  H  H31  1  0.61621300  0.57511000  0.06239600  1
  H  H32  1  0.88378700  0.07511000  0.06239600  1
  H  H33  1  0.61621300  0.57511000  0.43760400  1
  H  H34  1  0.11621300  0.92489000  0.56239600  1
  H  H35  1  0.38378700  0.42489000  0.93760400  1
  O  O36  1  0.65634600  0.79743700  0.25000000  1
  O  O37  1  0.84365400  0.29743700  0.25000000  1
  O  O38  1  0.34365400  0.20256300  0.75000000  1
  O  O39  1  0.15634600  0.70256300  0.75000000  1
  O  O40  1  0.92363000  0.61929200  0.25000000  1
  O  O41  1  0.57637000  0.11929200  0.25000000  1
  O  O42  1  0.07637000  0.38070800  0.75000000  1
  O  O43  1  0.42363000  0.88070800  0.75000000  1
  O  O44  1  0.08681600  0.86618800  0.97877500  1
  O  O45  1  0.41318400  0.36618800  0.52122500  1
  O  O46  1  0.91318400  0.13381200  0.47877500  1
  O  O47  1  0.58681600  0.63381200  0.02122500  1
  O  O48  1  0.91318400  0.13381200  0.02122500  1
  O  O49  1  0.58681600  0.63381200  0.47877500  1
  O  O50  1  0.08681600  0.86618800  0.52122500  1
  O  O51  1  0.41318400  0.36618800  0.97877500  1
  O  O52  1  0.33841200  0.95786200  0.12997100  1
  O  O53  1  0.16158800  0.45786300  0.37002900  1
  O  O54  1  0.66158800  0.04213800  0.62997100  1
  O  O55  1  0.83841200  0.54213800  0.87002900  1
  O  O56  1  0.66158800  0.04213800  0.87002900  1
  O  O57  1  0.83841200  0.54213800  0.62997100  1
  O  O58  1  0.33841200  0.95786200  0.37002900  1
  O  O59  1  0.16158800  0.45786300  0.12997100  1
  O  O60  1  0.07880800  0.77896500  0.14898300  1
  O  O61  1  0.42119200  0.27896500  0.35101700  1
  O  O62  1  0.92119200  0.22103500  0.64898300  1
  O  O63  1  0.57880800  0.72103500  0.85101700  1
  O  O64  1  0.92119200  0.22103500  0.85101700  1
  O  O65  1  0.57880800  0.72103500  0.64898300  1
  O  O66  1  0.07880800  0.77896500  0.35101700  1
  O  O67  1  0.42119200  0.27896500  0.14898300  1
  O  O68  1  0.86025100  0.97125200  0.13157600  1
  O  O69  1  0.63974900  0.47125200  0.36842400  1
  O  O70  1  0.13974900  0.02874800  0.63157600  1
  O  O71  1  0.36025100  0.52874800  0.86842400  1
  O  O72  1  0.13974900  0.02874800  0.86842400  1
  O  O73  1  0.36025100  0.52874800  0.63157600  1
  O  O74  1  0.86025100  0.97125200  0.36842400  1
  O  O75  1  0.63974900  0.47125200  0.13157600  1
