# generated using pymatgen
data_Ba2Nb6Te2O21
_symmetry_space_group_name_H-M   'P 1'
_cell_length_a   8.96369610
_cell_length_b   8.96369610
_cell_length_c   9.83049046
_cell_angle_alpha   83.52663708
_cell_angle_beta   83.52663708
_cell_angle_gamma   37.63930349
_symmetry_Int_Tables_number   1
_chemical_formula_structural   Ba2Nb6Te2O21
_chemical_formula_sum   'Ba2 Nb6 Te2 O21'
_cell_volume   478.92384944
_cell_formula_units_Z   1
loop_
 _symmetry_equiv_pos_site_id
 _symmetry_equiv_pos_as_xyz
  1  'x, y, z'
loop_
 _atom_site_type_symbol
 _atom_site_label
 _atom_site_symmetry_multiplicity
 _atom_site_fract_x
 _atom_site_fract_y
 _atom_site_fract_z
 _atom_site_occupancy
  Ba  Ba0  1  0.14038100  0.14038100  0.47128800  1
  Ba  Ba1  1  0.85961900  0.85961900  0.52871200  1
  Nb  Nb2  1  0.32343000  0.32343000  0.16803400  1
  Nb  Nb3  1  0.67657000  0.67657000  0.83196600  1
  Nb  Nb4  1  0.51886300  0.51886300  0.33759500  1
  Nb  Nb5  1  0.48113700  0.48113700  0.66240500  1
  Nb  Nb6  1  0.90227900  0.90227900  0.91400400  1
  Nb  Nb7  1  0.09772100  0.09772100  0.08599600  1
  Te  Te8  1  0.27383000  0.27383000  0.75069000  1
  Te  Te9  1  0.72617000  0.72617000  0.24931000  1
  O  O10  1  0.41844500  0.41844500  0.27854000  1
  O  O11  1  0.58155500  0.58155500  0.72146000  1
  O  O12  1  0.20919800  0.20919800  0.15061500  1
  O  O13  1  0.79080200  0.79080200  0.84938500  1
  O  O14  1  0.00000000  0.00000000  0.00000000  1
  O  O15  1  0.17574300  0.69416400  0.77924100  1
  O  O16  1  0.30583600  0.82425700  0.22075900  1
  O  O17  1  0.82425700  0.30583600  0.22075900  1
  O  O18  1  0.69416400  0.17574300  0.77924100  1
  O  O19  1  0.89589900  0.39427300  0.94702200  1
  O  O20  1  0.27776100  0.72223900  0.50000000  1
  O  O21  1  0.72223900  0.27776100  0.50000000  1
  O  O22  1  0.64212100  0.64212100  0.39575300  1
  O  O23  1  0.35787900  0.35787900  0.60424700  1
  O  O24  1  0.54163000  0.02242000  0.33125700  1
  O  O25  1  0.97758000  0.45837000  0.66874300  1
  O  O26  1  0.45837000  0.97758000  0.66874300  1
  O  O27  1  0.02242000  0.54163000  0.33125700  1
  O  O28  1  0.39427300  0.89589900  0.94702200  1
  O  O29  1  0.10410100  0.60572700  0.05297800  1
  O  O30  1  0.60572700  0.10410100  0.05297800  1
