# generated using pymatgen
data_Rb9Fe7(PO4)10
_symmetry_space_group_name_H-M   'P 1'
_cell_length_a   10.03552149
_cell_length_b   13.68200401
_cell_length_c   16.77974453
_cell_angle_alpha   90.00015706
_cell_angle_beta   90.00009265
_cell_angle_gamma   110.54256225
_symmetry_Int_Tables_number   1
_chemical_formula_structural   Rb9Fe7(PO4)10
_chemical_formula_sum   'Rb18 Fe14 P20 O80'
_cell_volume   2157.45562159
_cell_formula_units_Z   2
loop_
 _symmetry_equiv_pos_site_id
 _symmetry_equiv_pos_as_xyz
  1  'x, y, z'
loop_
 _atom_site_type_symbol
 _atom_site_label
 _atom_site_symmetry_multiplicity
 _atom_site_fract_x
 _atom_site_fract_y
 _atom_site_fract_z
 _atom_site_occupancy
  Rb  Rb0  1  0.91906858  0.70664067  0.42767448  1
  Rb  Rb1  1  0.58093078  0.29335873  0.92767753  1
  Rb  Rb2  1  0.08093142  0.29335933  0.57232552  1
  Rb  Rb3  1  0.41906922  0.70664127  0.07232247  1
  Rb  Rb4  1  0.96629725  0.35705327  0.78340372  1
  Rb  Rb5  1  0.53370309  0.64294860  0.28339797  1
  Rb  Rb6  1  0.03370275  0.64294673  0.21659628  1
  Rb  Rb7  1  0.46629691  0.35705140  0.71660203  1
  Rb  Rb8  1  0.26167268  0.78027907  0.81693183  1
  Rb  Rb9  1  0.23832099  0.21972001  0.31693158  1
  Rb  Rb10  1  0.73832732  0.21972093  0.18306817  1
  Rb  Rb11  1  0.76167901  0.78027999  0.68306842  1
  Rb  Rb12  1  -0.00000000  0.50000000  0.00000000  1
  Rb  Rb13  1  0.50000000  0.50000000  0.50000000  1
  Rb  Rb14  1  0.34484932  0.95521540  0.40884054  1
  Rb  Rb15  1  0.15515211  0.04478386  0.90883493  1
  Rb  Rb16  1  0.65515068  0.04478460  0.59115946  1
  Rb  Rb17  1  0.84484789  0.95521614  0.09116507  1
  Fe  Fe18  1  -0.00000000  -0.00000000  0.50000000  1
  Fe  Fe19  1  0.50000000  -0.00000000  0.00000000  1
  Fe  Fe20  1  0.98794538  0.58865279  0.63201833  1
  Fe  Fe21  1  0.51205242  0.41135069  0.13202116  1
  Fe  Fe22  1  0.01205462  0.41134721  0.36798167  1
  Fe  Fe23  1  0.48794758  0.58864931  0.86797884  1
  Fe  Fe24  1  0.35947573  0.71987694  0.55690001  1
  Fe  Fe25  1  0.14053459  0.28012426  0.05689823  1
  Fe  Fe26  1  0.64052427  0.28012306  0.44309999  1
  Fe  Fe27  1  0.85946541  0.71987574  0.94310177  1
  Fe  Fe28  1  0.30768438  0.05621816  0.68875028  1
  Fe  Fe29  1  0.19231471  0.94378487  0.18875344  1
  Fe  Fe30  1  0.69231562  0.94378184  0.31124972  1
  Fe  Fe31  1  0.80768529  0.05621513  0.81124656  1
  P  P32  1  0.68170164  0.57228558  0.04306525  1
  P  P33  1  0.81829946  0.42771356  0.54306419  1
  P  P34  1  0.31829836  0.42771442  0.95693475  1
  P  P35  1  0.18170054  0.57228644  0.45693581  1
  P  P36  1  0.65843638  0.81829850  0.47206540  1
  P  P37  1  0.84156568  0.18170133  0.97206524  1
  P  P38  1  0.34156362  0.18170150  0.52793460  1
  P  P39  1  0.15843432  0.81829867  0.02793476  1
  P  P40  1  0.14399886  0.84598213  0.59710795  1
  P  P41  1  0.35600210  0.15401840  0.09710831  1
  P  P42  1  0.85600114  0.15401787  0.40289205  1
  P  P43  1  0.64399790  0.84598160  0.90289169  1
  P  P44  1  0.99898618  0.93376391  0.30119924  1
  P  P45  1  0.50101381  0.06623586  0.80119914  1
  P  P46  1  0.00101382  0.06623609  0.69880076  1
  P  P47  1  0.49898619  0.93376414  0.19880086  1
  P  P48  1  0.27927732  0.56063651  0.70336262  1
  P  P49  1  0.22072262  0.43936440  0.20336225  1
  P  P50  1  0.72072268  0.43936349  0.29663738  1
  P  P51  1  0.77927738  0.56063560  0.79663775  1
  O  O52  1  0.13862243  0.60944669  0.53852700  1
  O  O53  1  0.36137747  0.39055328  0.03852637  1
  O  O54  1  0.86137757  0.39055331  0.46147300  1
  O  O55  1  0.63862253  0.60944672  0.96147363  1
  O  O56  1  0.82562484  0.54276241  0.54274867  1
  O  O57  1  0.67437502  0.45723779  0.04274815  1
  O  O58  1  0.17437516  0.45723759  0.45725133  1
  O  O59  1  0.32562498  0.54276221  0.95725185  1
  O  O60  1  0.33798075  0.65166355  0.44999461  1
  O  O61  1  0.16201961  0.34833670  0.94999313  1
  O  O62  1  0.66201925  0.34833645  0.55000539  1
  O  O63  1  0.83798039  0.65166330  0.05000687  1
  O  O64  1  0.91515245  0.42316074  0.61371625  1
  O  O65  1  0.58484771  0.57683868  0.11371635  1
  O  O66  1  0.08484755  0.57683926  0.38628375  1
  O  O67  1  0.41515229  0.42316132  0.88628365  1
  O  O68  1  0.81218055  0.88105369  0.49847446  1
  O  O69  1  0.68781650  0.11894596  0.99847413  1
  O  O70  1  0.18781945  0.11894631  0.50152554  1
  O  O71  1  0.31218350  0.88105404  0.00152587  1
  O  O72  1  0.64436115  0.71150630  0.44035814  1
  O  O73  1  0.85563784  0.28849309  0.94035751  1
  O  O74  1  0.35563885  0.28849370  0.55964186  1
  O  O75  1  0.14436216  0.71150691  0.05964249  1
  O  O76  1  0.55916043  0.81077721  0.54655179  1
  O  O77  1  0.94084437  0.18922505  0.04655145  1
  O  O78  1  0.44083957  0.18922279  0.45344821  1
  O  O79  1  0.05915563  0.81077495  0.95344855  1
  O  O80  1  0.39287173  0.11506701  0.59073154  1
  O  O81  1  0.10712904  0.88493374  0.09073369  1
  O  O82  1  0.60712827  0.88493299  0.40926846  1
  O  O83  1  0.89287096  0.11506626  0.90926631  1
  O  O84  1  0.02501892  0.74170079  0.61706356  1
  O  O85  1  0.47498018  0.25829943  0.11706423  1
  O  O86  1  0.97498108  0.25829921  0.38293644  1
  O  O87  1  0.52501982  0.74170057  0.88293577  1
  O  O88  1  0.10260788  0.89834395  0.52449053  1
  O  O89  1  0.39739171  0.10165586  0.02448989  1
  O  O90  1  0.89739212  0.10165605  0.47550947  1
  O  O91  1  0.60260829  0.89834414  0.97551011  1
  O  O92  1  0.17065583  0.91642472  0.67241880  1
  O  O93  1  0.32934495  0.08357598  0.17241937  1
  O  O94  1  0.82934417  0.08357528  0.32758120  1
  O  O95  1  0.67065505  0.91642402  0.82758063  1
  O  O96  1  0.28645790  0.82988667  0.57470358  1
  O  O97  1  0.21354394  0.17011315  0.07470307  1
  O  O98  1  0.71354210  0.17011333  0.42529642  1
  O  O99  1  0.78645606  0.82988685  0.92529693  1
  O  O100  1  0.04493933  0.98538213  0.38274227  1
  O  O101  1  0.45506110  0.01461765  0.88274243  1
  O  O102  1  0.95506067  0.01461787  0.61725773  1
  O  O103  1  0.54493890  0.98538235  0.11725757  1
  O  O104  1  0.16443466  0.12287253  0.70481316  1
  O  O105  1  0.33556511  0.87712804  0.20481299  1
  O  O106  1  0.83556534  0.87712747  0.29518684  1
  O  O107  1  0.66443489  0.12287196  0.79518701  1
  O  O108  1  0.44561221  0.98707970  0.73087988  1
  O  O109  1  0.05438785  0.01292113  0.23088034  1
  O  O110  1  0.55438779  0.01292030  0.26912012  1
  O  O111  1  0.94561215  0.98707887  0.76911966  1
  O  O112  1  0.41989730  0.14406571  0.78379345  1
  O  O113  1  0.08010380  0.85593445  0.28379291  1
  O  O114  1  0.58010270  0.85593429  0.21620655  1
  O  O115  1  0.91989620  0.14406555  0.71620709  1
  O  O116  1  0.74890833  0.55192887  0.31959258  1
  O  O117  1  0.75109104  0.44806985  0.81959326  1
  O  O118  1  0.25109167  0.44807113  0.68040742  1
  O  O119  1  0.24890896  0.55193015  0.18040674  1
  O  O120  1  0.84699680  0.58833821  0.71269947  1
  O  O121  1  0.65300250  0.41166187  0.21269889  1
  O  O122  1  0.15300320  0.41166179  0.28730053  1
  O  O123  1  0.34699750  0.58833813  0.78730111  1
  O  O124  1  0.14019355  0.58897284  0.70647262  1
  O  O125  1  0.35980636  0.41102779  0.20647246  1
  O  O126  1  0.85980645  0.41102716  0.29352738  1
  O  O127  1  0.64019364  0.58897221  0.79352754  1
  O  O128  1  0.38651152  0.63867098  0.64284470  1
  O  O129  1  0.11349071  0.36132923  0.14284464  1
  O  O130  1  0.61348848  0.36132902  0.35715530  1
  O  O131  1  0.88650929  0.63867077  0.85715536  1
