# generated using pymatgen
data_SmVO3
_symmetry_space_group_name_H-M   'P 1'
_cell_length_a   5.44665000
_cell_length_b   5.74671900
_cell_length_c   7.72916400
_cell_angle_alpha   90.00000000
_cell_angle_beta   90.00000000
_cell_angle_gamma   90.00000000
_symmetry_Int_Tables_number   1
_chemical_formula_structural   SmVO3
_chemical_formula_sum   'Sm4 V4 O12'
_cell_volume   241.92567012
_cell_formula_units_Z   4
loop_
 _symmetry_equiv_pos_site_id
 _symmetry_equiv_pos_as_xyz
  1  'x, y, z'
loop_
 _atom_site_type_symbol
 _atom_site_label
 _atom_site_symmetry_multiplicity
 _atom_site_fract_x
 _atom_site_fract_y
 _atom_site_fract_z
 _atom_site_occupancy
  Sm  Sm0  1  0.98151700  0.43532500  0.75000000  1
  Sm  Sm1  1  0.01848300  0.56467500  0.25000000  1
  Sm  Sm2  1  0.48151700  0.06467500  0.25000000  1
  Sm  Sm3  1  0.51848300  0.93532500  0.75000000  1
  V  V4  1  0.00000000  0.00000000  0.50000000  1
  V  V5  1  0.50000000  0.50000000  0.50000000  1
  V  V6  1  0.00000000  0.00000000  0.00000000  1
  V  V7  1  0.50000000  0.50000000  0.00000000  1
  O  O8  1  0.29915900  0.80644000  0.44737900  1
  O  O9  1  0.70084100  0.19356000  0.55262100  1
  O  O10  1  0.79915900  0.69356000  0.55262100  1
  O  O11  1  0.20084100  0.30644000  0.44737900  1
  O  O12  1  0.79915900  0.69356000  0.94737900  1
  O  O13  1  0.20084100  0.30644000  0.05262100  1
  O  O14  1  0.29915900  0.80644000  0.05262100  1
  O  O15  1  0.70084100  0.19356000  0.94737900  1
  O  O16  1  0.89579800  0.96585100  0.25000000  1
  O  O17  1  0.10420200  0.03414900  0.75000000  1
  O  O18  1  0.39579800  0.53414900  0.75000000  1
  O  O19  1  0.60420200  0.46585100  0.25000000  1
