# generated using pymatgen
data_TmAgSe2
_symmetry_space_group_name_H-M   'P 1'
_cell_length_a   4.21929700
_cell_length_b   6.82486000
_cell_length_c   13.72502900
_cell_angle_alpha   90.00000000
_cell_angle_beta   90.00000000
_cell_angle_gamma   90.00000000
_symmetry_Int_Tables_number   1
_chemical_formula_structural   TmAgSe2
_chemical_formula_sum   'Tm4 Ag4 Se8'
_cell_volume   395.22746300
_cell_formula_units_Z   4
loop_
 _symmetry_equiv_pos_site_id
 _symmetry_equiv_pos_as_xyz
  1  'x, y, z'
loop_
 _atom_site_type_symbol
 _atom_site_label
 _atom_site_symmetry_multiplicity
 _atom_site_fract_x
 _atom_site_fract_y
 _atom_site_fract_z
 _atom_site_occupancy
  Tm  Tm0  1  0.27100900  0.70886600  0.62829500  1
  Tm  Tm1  1  0.77100900  0.79113400  0.37170500  1
  Tm  Tm2  1  0.72899100  0.20886600  0.87170500  1
  Tm  Tm3  1  0.22899100  0.29113400  0.12829500  1
  Ag  Ag4  1  0.49794200  0.70443000  0.87613200  1
  Ag  Ag5  1  0.99794200  0.79557000  0.12386800  1
  Ag  Ag6  1  0.50205800  0.20443000  0.62386800  1
  Ag  Ag7  1  0.00205800  0.29557000  0.37613200  1
  Se  Se8  1  0.77162500  0.91095500  0.72700400  1
  Se  Se9  1  0.27162500  0.58904500  0.27299600  1
  Se  Se10  1  0.22837500  0.41095500  0.77299600  1
  Se  Se11  1  0.72837500  0.08904500  0.22700400  1
  Se  Se12  1  0.76555000  0.51567700  0.52733100  1
  Se  Se13  1  0.26555000  0.98432300  0.47266900  1
  Se  Se14  1  0.23445000  0.01567700  0.97266900  1
  Se  Se15  1  0.73445000  0.48432300  0.02733100  1
