# generated using pymatgen
data_Li2CoO3
_symmetry_space_group_name_H-M   'P 1'
_cell_length_a   4.93937635
_cell_length_b   8.47545669
_cell_length_c   5.04343815
_cell_angle_alpha   90.00016529
_cell_angle_beta   70.53430997
_cell_angle_gamma   89.99987646
_symmetry_Int_Tables_number   1
_chemical_formula_structural   Li2CoO3
_chemical_formula_sum   'Li8 Co4 O12'
_cell_volume   199.06755579
_cell_formula_units_Z   4
loop_
 _symmetry_equiv_pos_site_id
 _symmetry_equiv_pos_as_xyz
  1  'x, y, z'
loop_
 _atom_site_type_symbol
 _atom_site_label
 _atom_site_symmetry_multiplicity
 _atom_site_fract_x
 _atom_site_fract_y
 _atom_site_fract_z
 _atom_site_occupancy
  Li  Li0  1  0.49999800  0.33337000  0.50000000  1
  Li  Li1  1  0.00000000  0.83336400  0.49999900  1
  Li  Li2  1  0.50000100  0.83331900  0.00000000  1
  Li  Li3  1  0.00000000  0.33332200  0.99999900  1
  Li  Li4  1  0.49999900  0.67191700  0.49999900  1
  Li  Li5  1  0.00000000  0.17193300  0.50000000  1
  Li  Li6  1  0.50000000  0.99477500  0.50000200  1
  Li  Li7  1  0.00000200  0.49476200  0.50000000  1
  Co  Co8  1  0.99999700  0.00341200  0.00000400  1
  Co  Co9  1  0.00000200  0.66323700  0.00000100  1
  Co  Co10  1  0.50000500  0.50351200  0.00000000  1
  Co  Co11  1  0.50000000  0.16314500  0.00000400  1
  O  O12  1  0.78498700  0.83332300  0.22435200  1
  O  O13  1  0.28486700  0.33332400  0.22445000  1
  O  O14  1  0.21500300  0.83332900  0.77565200  1
  O  O15  1  0.71513000  0.33332700  0.77554900  1
  O  O16  1  0.75025800  0.15149600  0.22151800  1
  O  O17  1  0.25018000  0.65150900  0.22149300  1
  O  O18  1  0.25015900  0.01514800  0.22150400  1
  O  O19  1  0.75024500  0.51516400  0.22152200  1
  O  O20  1  0.24974100  0.15149400  0.77847900  1
  O  O21  1  0.74982900  0.65151000  0.77849700  1
  O  O22  1  0.74983700  0.01514800  0.77849900  1
  O  O23  1  0.24975900  0.51516100  0.77847800  1
