# generated using pymatgen
data_Tm2C
_symmetry_space_group_name_H-M   'P 1'
_cell_length_a   6.31761905
_cell_length_b   6.31761905
_cell_length_c   6.31761853
_cell_angle_alpha   32.55513874
_cell_angle_beta   32.55513874
_cell_angle_gamma   32.55513214
_symmetry_Int_Tables_number   1
_chemical_formula_structural   Tm2C
_chemical_formula_sum   'Tm2 C1'
_cell_volume   64.92933309
_cell_formula_units_Z   1
loop_
 _symmetry_equiv_pos_site_id
 _symmetry_equiv_pos_as_xyz
  1  'x, y, z'
loop_
 _atom_site_type_symbol
 _atom_site_label
 _atom_site_symmetry_multiplicity
 _atom_site_fract_x
 _atom_site_fract_y
 _atom_site_fract_z
 _atom_site_occupancy
  Tm  Tm0  1  0.24051000  0.24051000  0.24051000  1
  Tm  Tm1  1  0.75949000  0.75949000  0.75949000  1
  C  C2  1  0.50000000  0.50000000  0.50000000  1
