# generated using pymatgen
data_FeNiP6
_symmetry_space_group_name_H-M   'P 1'
_cell_length_a   6.70558239
_cell_length_b   6.70558239
_cell_length_c   7.74290413
_cell_angle_alpha   54.81021686
_cell_angle_beta   54.81021686
_cell_angle_gamma   70.63095252
_symmetry_Int_Tables_number   1
_chemical_formula_structural   FeNiP6
_chemical_formula_sum   'Fe2 Ni2 P12'
_cell_volume   232.53277406
_cell_formula_units_Z   2
loop_
 _symmetry_equiv_pos_site_id
 _symmetry_equiv_pos_as_xyz
  1  'x, y, z'
loop_
 _atom_site_type_symbol
 _atom_site_label
 _atom_site_symmetry_multiplicity
 _atom_site_fract_x
 _atom_site_fract_y
 _atom_site_fract_z
 _atom_site_occupancy
  Fe  Fe0  1  0.00000000  0.50000000  0.00000000  1
  Fe  Fe1  1  0.50000000  0.00000000  0.00000000  1
  Ni  Ni2  1  0.50000000  0.00000000  0.50000000  1
  Ni  Ni3  1  0.00000000  0.50000000  0.50000000  1
  P  P4  1  0.65416100  0.65416100  0.19806800  1
  P  P5  1  0.34583900  0.34583900  0.80193200  1
  P  P6  1  0.64754000  0.64754000  0.49631400  1
  P  P7  1  0.35246000  0.35246000  0.50368600  1
  P  P8  1  0.86023600  0.15162200  0.34341100  1
  P  P9  1  0.13976400  0.84837800  0.65658900  1
  P  P10  1  0.15162200  0.86023600  0.34341100  1
  P  P11  1  0.84837800  0.13976400  0.65658900  1
  P  P12  1  0.49474800  0.79618400  0.85994000  1
  P  P13  1  0.50525200  0.20381600  0.14006000  1
  P  P14  1  0.20381600  0.50525200  0.14006000  1
  P  P15  1  0.79618400  0.49474800  0.85994000  1
