# generated using pymatgen
data_CaAlPt
_symmetry_space_group_name_H-M   'P 1'
_cell_length_a   4.28893600
_cell_length_b   7.25914900
_cell_length_c   7.83991200
_cell_angle_alpha   90.00000000
_cell_angle_beta   90.00000000
_cell_angle_gamma   90.00000000
_symmetry_Int_Tables_number   1
_chemical_formula_structural   CaAlPt
_chemical_formula_sum   'Ca4 Al4 Pt4'
_cell_volume   244.08801993
_cell_formula_units_Z   4
loop_
 _symmetry_equiv_pos_site_id
 _symmetry_equiv_pos_as_xyz
  1  'x, y, z'
loop_
 _atom_site_type_symbol
 _atom_site_label
 _atom_site_symmetry_multiplicity
 _atom_site_fract_x
 _atom_site_fract_y
 _atom_site_fract_z
 _atom_site_occupancy
  Ca  Ca0  1  0.25000000  0.02259400  0.67749100  1
  Ca  Ca1  1  0.25000000  0.52259400  0.82250900  1
  Ca  Ca2  1  0.75000000  0.97740600  0.32250900  1
  Ca  Ca3  1  0.75000000  0.47740600  0.17749100  1
  Al  Al4  1  0.25000000  0.14395400  0.06682000  1
  Al  Al5  1  0.25000000  0.64395400  0.43318000  1
  Al  Al6  1  0.75000000  0.85604600  0.93318000  1
  Al  Al7  1  0.75000000  0.35604600  0.56682000  1
  Pt  Pt8  1  0.25000000  0.28903700  0.38523200  1
  Pt  Pt9  1  0.25000000  0.78903700  0.11476800  1
  Pt  Pt10  1  0.75000000  0.71096300  0.61476800  1
  Pt  Pt11  1  0.75000000  0.21096300  0.88523200  1
