# generated using pymatgen
data_Mn2TeO6
_symmetry_space_group_name_H-M   'P 1'
_cell_length_a   4.80821100
_cell_length_b   4.80821400
_cell_length_c   8.96990800
_cell_angle_alpha   89.99983355
_cell_angle_beta   89.99993231
_cell_angle_gamma   89.99644896
_symmetry_Int_Tables_number   1
_chemical_formula_structural   Mn2TeO6
_chemical_formula_sum   'Mn4 Te2 O12'
_cell_volume   207.37447264
_cell_formula_units_Z   2
loop_
 _symmetry_equiv_pos_site_id
 _symmetry_equiv_pos_as_xyz
  1  'x, y, z'
loop_
 _atom_site_type_symbol
 _atom_site_label
 _atom_site_symmetry_multiplicity
 _atom_site_fract_x
 _atom_site_fract_y
 _atom_site_fract_z
 _atom_site_occupancy
  Mn  Mn0  1  0.00001000  0.00000400  0.66515200  1
  Mn  Mn1  1  0.49999100  0.49999400  0.83475500  1
  Mn  Mn2  1  0.99997900  0.00001200  0.33490600  1
  Mn  Mn3  1  0.49998400  0.50000400  0.16511900  1
  Te  Te4  1  0.00000300  0.99999800  0.99991300  1
  Te  Te5  1  0.50000300  0.50000200  0.50009100  1
  O  O6  1  0.30050700  0.30050500  0.99978000  1
  O  O7  1  0.69950000  0.69949100  0.99978000  1
  O  O8  1  0.19949400  0.80051000  0.50023600  1
  O  O9  1  0.80051100  0.19948800  0.50023700  1
  O  O10  1  0.31567100  0.31566600  0.33522400  1
  O  O11  1  0.68439500  0.68439300  0.66490700  1
  O  O12  1  0.68433500  0.68433200  0.33522100  1
  O  O13  1  0.18437200  0.81563200  0.83509200  1
  O  O14  1  0.18433900  0.81566100  0.16479500  1
  O  O15  1  0.31560600  0.31560400  0.66490600  1
  O  O16  1  0.81566400  0.18433900  0.16479300  1
  O  O17  1  0.81563600  0.18436600  0.83509300  1
