# generated using pymatgen
data_TbZn3
_symmetry_space_group_name_H-M   'P 1'
_cell_length_a   4.41466500
_cell_length_b   6.67578900
_cell_length_c   10.11709700
_cell_angle_alpha   90.00000000
_cell_angle_beta   90.00000000
_cell_angle_gamma   90.00000000
_symmetry_Int_Tables_number   1
_chemical_formula_structural   TbZn3
_chemical_formula_sum   'Tb4 Zn12'
_cell_volume   298.16472971
_cell_formula_units_Z   4
loop_
 _symmetry_equiv_pos_site_id
 _symmetry_equiv_pos_as_xyz
  1  'x, y, z'
loop_
 _atom_site_type_symbol
 _atom_site_label
 _atom_site_symmetry_multiplicity
 _atom_site_fract_x
 _atom_site_fract_y
 _atom_site_fract_z
 _atom_site_occupancy
  Tb  Tb0  1  0.25000000  0.27973400  0.66253100  1
  Tb  Tb1  1  0.25000000  0.77973400  0.83746900  1
  Tb  Tb2  1  0.75000000  0.72026600  0.33746900  1
  Tb  Tb3  1  0.75000000  0.22026600  0.16253100  1
  Zn  Zn4  1  0.25000000  0.53623800  0.10370500  1
  Zn  Zn5  1  0.25000000  0.03623800  0.39629500  1
  Zn  Zn6  1  0.75000000  0.46376200  0.89629500  1
  Zn  Zn7  1  0.75000000  0.96376200  0.60370500  1
  Zn  Zn8  1  0.25000000  0.91751600  0.14806100  1
  Zn  Zn9  1  0.25000000  0.41751600  0.35193900  1
  Zn  Zn10  1  0.75000000  0.08248400  0.85193900  1
  Zn  Zn11  1  0.75000000  0.58248400  0.64806100  1
  Zn  Zn12  1  0.25000000  0.21681900  0.95689200  1
  Zn  Zn13  1  0.25000000  0.71681900  0.54310800  1
  Zn  Zn14  1  0.75000000  0.78318100  0.04310800  1
  Zn  Zn15  1  0.75000000  0.28318100  0.45689200  1
