# generated using pymatgen
data_Cs2Ti(WO4)3
_symmetry_space_group_name_H-M   'P 1'
_cell_length_a   7.34814530
_cell_length_b   7.34814530
_cell_length_c   7.34814553
_cell_angle_alpha   60.58812387
_cell_angle_beta   60.58812387
_cell_angle_gamma   60.58812845
_symmetry_Int_Tables_number   1
_chemical_formula_structural   Cs2Ti(WO4)3
_chemical_formula_sum   'Cs2 Ti1 W3 O12'
_cell_volume   284.28200057
_cell_formula_units_Z   1
loop_
 _symmetry_equiv_pos_site_id
 _symmetry_equiv_pos_as_xyz
  1  'x, y, z'
loop_
 _atom_site_type_symbol
 _atom_site_label
 _atom_site_symmetry_multiplicity
 _atom_site_fract_x
 _atom_site_fract_y
 _atom_site_fract_z
 _atom_site_occupancy
  Cs  Cs0  1  0.63342600  0.63342600  0.63342600  1
  Cs  Cs1  1  0.36657400  0.36657400  0.36657400  1
  Ti  Ti2  1  0.00000000  0.00000000  0.00000000  1
  W  W3  1  0.50000000  0.00000000  0.00000000  1
  W  W4  1  0.00000000  0.00000000  0.50000000  1
  W  W5  1  0.00000000  0.50000000  0.00000000  1
  O  O6  1  0.94060200  0.31237600  0.31237600  1
  O  O7  1  0.31237000  0.94117200  0.94117200  1
  O  O8  1  0.31237600  0.31237600  0.94060200  1
  O  O9  1  0.94117200  0.94117200  0.31237000  1
  O  O10  1  0.94117200  0.31237000  0.94117200  1
  O  O11  1  0.31237600  0.94060200  0.31237600  1
  O  O12  1  0.05939800  0.68762400  0.68762400  1
  O  O13  1  0.68763000  0.05882800  0.05882800  1
  O  O14  1  0.68762400  0.68762400  0.05939800  1
  O  O15  1  0.05882800  0.05882800  0.68763000  1
  O  O16  1  0.05882800  0.68763000  0.05882800  1
  O  O17  1  0.68762400  0.05939800  0.68762400  1
