# generated using pymatgen
data_Yb(FeGe)6
_symmetry_space_group_name_H-M   'P 1'
_cell_length_a   5.04436814
_cell_length_b   5.04409755
_cell_length_c   8.05150500
_cell_angle_alpha   90.00000000
_cell_angle_beta   90.00000000
_cell_angle_gamma   120.00178176
_symmetry_Int_Tables_number   1
_chemical_formula_structural   Yb(FeGe)6
_chemical_formula_sum   'Yb1 Fe6 Ge6'
_cell_volume   177.41492502
_cell_formula_units_Z   1
loop_
 _symmetry_equiv_pos_site_id
 _symmetry_equiv_pos_as_xyz
  1  'x, y, z'
loop_
 _atom_site_type_symbol
 _atom_site_label
 _atom_site_symmetry_multiplicity
 _atom_site_fract_x
 _atom_site_fract_y
 _atom_site_fract_z
 _atom_site_occupancy
  Yb  Yb0  1  0.99994100  0.00000000  0.00000000  1
  Fe  Fe1  1  0.50001600  0.00000000  0.25032300  1
  Fe  Fe2  1  0.49996900  0.49996700  0.25030900  1
  Fe  Fe3  1  0.00000200  0.50003300  0.25030900  1
  Fe  Fe4  1  0.50001600  0.00000000  0.74967700  1
  Fe  Fe5  1  0.49996900  0.49996700  0.74969100  1
  Fe  Fe6  1  0.00000200  0.50003300  0.74969100  1
  Ge  Ge7  1  0.33325800  0.66669600  0.00000000  1
  Ge  Ge8  1  0.66656200  0.33330400  0.00000000  1
  Ge  Ge9  1  0.33341900  0.66671800  0.50000000  1
  Ge  Ge10  1  0.66670100  0.33328200  0.50000000  1
  Ge  Ge11  1  0.99997300  0.00000000  0.34402300  1
  Ge  Ge12  1  0.99997300  0.00000000  0.65597700  1
