# generated using pymatgen
data_Ho5BiPt2
_symmetry_space_group_name_H-M   'P 1'
_cell_length_a   8.85340697
_cell_length_b   8.85340697
_cell_length_c   8.85340697
_cell_angle_alpha   128.02855716
_cell_angle_beta   128.02855716
_cell_angle_gamma   76.57877122
_symmetry_Int_Tables_number   1
_chemical_formula_structural   Ho5BiPt2
_chemical_formula_sum   'Ho10 Bi2 Pt4'
_cell_volume   418.25457203
_cell_formula_units_Z   2
loop_
 _symmetry_equiv_pos_site_id
 _symmetry_equiv_pos_as_xyz
  1  'x, y, z'
loop_
 _atom_site_type_symbol
 _atom_site_label
 _atom_site_symmetry_multiplicity
 _atom_site_fract_x
 _atom_site_fract_y
 _atom_site_fract_z
 _atom_site_occupancy
  Ho  Ho0  1  0.00000000  0.00000000  0.00000000  1
  Ho  Ho1  1  0.50000000  0.50000000  0.00000000  1
  Ho  Ho2  1  0.79268900  0.29268900  0.81456000  1
  Ho  Ho3  1  0.20731100  0.70731100  0.18544000  1
  Ho  Ho4  1  0.47813000  0.97813000  0.18544000  1
  Ho  Ho5  1  0.29268900  0.47813000  0.50000000  1
  Ho  Ho6  1  0.02187000  0.20731100  0.50000000  1
  Ho  Ho7  1  0.52187000  0.02187000  0.81456000  1
  Ho  Ho8  1  0.70731100  0.52187000  0.50000000  1
  Ho  Ho9  1  0.97813000  0.79268900  0.50000000  1
  Bi  Bi10  1  0.25000000  0.25000000  0.00000000  1
  Bi  Bi11  1  0.75000000  0.75000000  0.00000000  1
  Pt  Pt12  1  0.13756400  0.63756400  0.77512800  1
  Pt  Pt13  1  0.86243600  0.36243600  0.22487200  1
  Pt  Pt14  1  0.63756400  0.86243600  0.50000000  1
  Pt  Pt15  1  0.36243600  0.13756400  0.50000000  1
