# generated using pymatgen
data_Na2Gd4NCl9O
_symmetry_space_group_name_H-M   'P 1'
_cell_length_a   8.19409248
_cell_length_b   9.27887195
_cell_length_c   11.13651300
_cell_angle_alpha   90.00000000
_cell_angle_beta   90.00000000
_cell_angle_gamma   106.49098908
_symmetry_Int_Tables_number   1
_chemical_formula_structural   Na2Gd4NCl9O
_chemical_formula_sum   'Na4 Gd8 N2 Cl18 O2'
_cell_volume   811.89984977
_cell_formula_units_Z   2
loop_
 _symmetry_equiv_pos_site_id
 _symmetry_equiv_pos_as_xyz
  1  'x, y, z'
loop_
 _atom_site_type_symbol
 _atom_site_label
 _atom_site_symmetry_multiplicity
 _atom_site_fract_x
 _atom_site_fract_y
 _atom_site_fract_z
 _atom_site_occupancy
  Na  Na0  1  0.22144100  0.42811000  0.98958300  1
  Na  Na1  1  0.22276200  0.42855200  0.51239800  1
  Na  Na2  1  0.77855900  0.57189000  0.48958300  1
  Na  Na3  1  0.77723800  0.57144800  0.01239800  1
  Gd  Gd4  1  0.29375800  0.95526500  0.45067200  1
  Gd  Gd5  1  0.28698700  0.95361000  0.03995200  1
  Gd  Gd6  1  0.39018100  0.78342100  0.75255100  1
  Gd  Gd7  1  0.40371300  0.16894200  0.75273100  1
  Gd  Gd8  1  0.59628700  0.83105800  0.25273100  1
  Gd  Gd9  1  0.60981900  0.21657900  0.25255100  1
  Gd  Gd10  1  0.70624200  0.04473500  0.95067200  1
  Gd  Gd11  1  0.71301300  0.04639000  0.53995200  1
  N  N12  1  0.43931400  0.98469000  0.87406300  1
  N  N13  1  0.56068600  0.01531000  0.37406300  1
  Cl  Cl14  1  0.10966700  0.69711500  0.58705200  1
  Cl  Cl15  1  0.10537500  0.69247600  0.91419400  1
  Cl  Cl16  1  0.24162200  0.74876400  0.24948400  1
  Cl  Cl17  1  0.11980800  0.11717800  0.59648500  1
  Cl  Cl18  1  0.11609800  0.12021100  0.90358300  1
  Cl  Cl19  1  0.25982000  0.14261800  0.24945300  1
  Cl  Cl20  1  0.34997400  0.46605800  0.75193500  1
  Cl  Cl21  1  0.49497800  0.69529500  0.00502300  1
  Cl  Cl22  1  0.49555300  0.69472100  0.49788000  1
  Cl  Cl23  1  0.50502200  0.30470500  0.50502300  1
  Cl  Cl24  1  0.50444700  0.30527900  0.99788000  1
  Cl  Cl25  1  0.65002600  0.53394200  0.25193500  1
  Cl  Cl26  1  0.74018000  0.85738200  0.74945300  1
  Cl  Cl27  1  0.88019200  0.88282200  0.09648500  1
  Cl  Cl28  1  0.88390200  0.87978800  0.40358300  1
  Cl  Cl29  1  0.75837800  0.25123600  0.74948400  1
  Cl  Cl30  1  0.89033300  0.30288500  0.08705200  1
  Cl  Cl31  1  0.89462500  0.30752400  0.41419400  1
  O  O32  1  0.44124200  0.98482100  0.62296100  1
  O  O33  1  0.55875800  0.01517900  0.12296100  1
