# generated using pymatgen
data_WCl2
_symmetry_space_group_name_H-M   'P 1'
_cell_length_a   9.22246212
_cell_length_b   9.22246212
_cell_length_c   11.51661400
_cell_angle_alpha   90.00000000
_cell_angle_beta   90.00000000
_cell_angle_gamma   102.90127083
_symmetry_Int_Tables_number   1
_chemical_formula_structural   WCl2
_chemical_formula_sum   'W12 Cl24'
_cell_volume   954.80480492
_cell_formula_units_Z   12
loop_
 _symmetry_equiv_pos_site_id
 _symmetry_equiv_pos_as_xyz
  1  'x, y, z'
loop_
 _atom_site_type_symbol
 _atom_site_label
 _atom_site_symmetry_multiplicity
 _atom_site_fract_x
 _atom_site_fract_y
 _atom_site_fract_z
 _atom_site_occupancy
  W  W0  1  0.87060200  0.12939800  0.00000000  1
  W  W1  1  0.12939700  0.87060200  0.00000000  1
  W  W2  1  0.62939700  0.37060200  0.50000000  1
  W  W3  1  0.37060200  0.62939700  0.50000000  1
  W  W4  1  0.43487600  0.43487600  0.35178700  1
  W  W5  1  0.56512400  0.56512400  0.64821300  1
  W  W6  1  0.06512400  0.06512400  0.85178700  1
  W  W7  1  0.93487600  0.93487600  0.14821300  1
  W  W8  1  0.14849000  0.14849000  0.06495000  1
  W  W9  1  0.85151000  0.85151000  0.93505000  1
  W  W10  1  0.35151000  0.35151000  0.56495000  1
  W  W11  1  0.64849000  0.64849000  0.43505000  1
  Cl  Cl12  1  0.70439200  0.29560800  0.00000000  1
  Cl  Cl13  1  0.29560800  0.70439200  0.00000000  1
  Cl  Cl14  1  0.79560800  0.20439200  0.50000000  1
  Cl  Cl15  1  0.20439200  0.79560800  0.50000000  1
  Cl  Cl16  1  0.95724600  0.20288700  0.20305800  1
  Cl  Cl17  1  0.04275400  0.79711300  0.79694200  1
  Cl  Cl18  1  0.54275400  0.29711300  0.70305800  1
  Cl  Cl19  1  0.70288700  0.45724600  0.29694200  1
  Cl  Cl20  1  0.45724600  0.70288700  0.29694200  1
  Cl  Cl21  1  0.29711300  0.54275400  0.70305800  1
  Cl  Cl22  1  0.79711300  0.04275400  0.79694200  1
  Cl  Cl23  1  0.20288700  0.95724600  0.20305800  1
  Cl  Cl24  1  0.35365700  0.35365700  0.14668100  1
  Cl  Cl25  1  0.64634300  0.64634300  0.85331900  1
  Cl  Cl26  1  0.14634300  0.14634300  0.64668100  1
  Cl  Cl27  1  0.85365700  0.85365700  0.35331900  1
  Cl  Cl28  1  0.91965000  0.67364600  0.07989000  1
  Cl  Cl29  1  0.08035000  0.32635400  0.92011000  1
  Cl  Cl30  1  0.58035000  0.82635400  0.57989000  1
  Cl  Cl31  1  0.17364600  0.41965000  0.42011000  1
  Cl  Cl32  1  0.41965000  0.17364600  0.42011000  1
  Cl  Cl33  1  0.82635400  0.58035000  0.57989000  1
  Cl  Cl34  1  0.32635400  0.08035000  0.92011000  1
  Cl  Cl35  1  0.67364600  0.91965000  0.07989000  1
