# generated using pymatgen
data_NaAgTe5O14
_symmetry_space_group_name_H-M   'P 1'
_cell_length_a   25.04422700
_cell_length_b   6.77479800
_cell_length_c   7.45413420
_cell_angle_alpha   68.68072199
_cell_angle_beta   90.00000000
_cell_angle_gamma   90.00000000
_symmetry_Int_Tables_number   1
_chemical_formula_structural   NaAgTe5O14
_chemical_formula_sum   'Na4 Ag4 Te20 O56'
_cell_volume   1178.19234330
_cell_formula_units_Z   4
loop_
 _symmetry_equiv_pos_site_id
 _symmetry_equiv_pos_as_xyz
  1  'x, y, z'
loop_
 _atom_site_type_symbol
 _atom_site_label
 _atom_site_symmetry_multiplicity
 _atom_site_fract_x
 _atom_site_fract_y
 _atom_site_fract_z
 _atom_site_occupancy
  Na  Na0  1  0.37339700  0.94964500  0.76387500  1
  Na  Na1  1  0.62660300  0.05035500  0.23612500  1
  Na  Na2  1  0.87339700  0.05035500  0.73612500  1
  Na  Na3  1  0.12660300  0.94964500  0.26387500  1
  Ag  Ag4  1  0.06571600  0.47882300  0.65073800  1
  Ag  Ag5  1  0.93428400  0.52117700  0.34926200  1
  Ag  Ag6  1  0.56571600  0.52117700  0.84926200  1
  Ag  Ag7  1  0.43428400  0.47882300  0.15073800  1
  Te  Te8  1  0.12533800  0.93191400  0.77202700  1
  Te  Te9  1  0.87466200  0.06808600  0.22797300  1
  Te  Te10  1  0.62533800  0.06808600  0.72797300  1
  Te  Te11  1  0.37466200  0.93191400  0.27202700  1
  Te  Te12  1  0.31187400  0.39886400  0.89377800  1
  Te  Te13  1  0.68812600  0.60113600  0.10622200  1
  Te  Te14  1  0.81187400  0.60113600  0.60622200  1
  Te  Te15  1  0.18812600  0.39886400  0.39377800  1
  Te  Te16  1  0.25072500  0.86734300  0.55080400  1
  Te  Te17  1  0.74927500  0.13265700  0.44919600  1
  Te  Te18  1  0.75072500  0.13265700  0.94919600  1
  Te  Te19  1  0.24927500  0.86734300  0.05080400  1
  Te  Te20  1  0.42869800  0.47095700  0.67061900  1
  Te  Te21  1  0.57130200  0.52904300  0.32938100  1
  Te  Te22  1  0.92869800  0.52904300  0.82938100  1
  Te  Te23  1  0.07130200  0.47095700  0.17061900  1
  Te  Te24  1  0.50000000  0.00000000  0.00000000  1
  Te  Te25  1  0.00000000  0.00000000  0.50000000  1
  Te  Te26  1  0.50000000  0.00000000  0.50000000  1
  Te  Te27  1  0.00000000  0.00000000  0.00000000  1
  O  O28  1  0.10475900  0.64096100  0.90852900  1
  O  O29  1  0.89524100  0.35903900  0.09147100  1
  O  O30  1  0.60475900  0.35903900  0.59147100  1
  O  O31  1  0.39524100  0.64096100  0.40852900  1
  O  O32  1  0.26257500  0.56918700  0.63683300  1
  O  O33  1  0.73742500  0.43081300  0.36316700  1
  O  O34  1  0.76257500  0.43081300  0.86316700  1
  O  O35  1  0.23742500  0.56918700  0.13683300  1
  O  O36  1  0.98159100  0.70725300  0.56155800  1
  O  O37  1  0.01840900  0.29274700  0.43844200  1
  O  O38  1  0.48159100  0.29274700  0.93844200  1
  O  O39  1  0.51840900  0.70725300  0.06155800  1
  O  O40  1  0.27666900  0.86912200  0.80193400  1
  O  O41  1  0.72333100  0.13087800  0.19806600  1
  O  O42  1  0.77666900  0.13087800  0.69806600  1
  O  O43  1  0.22333100  0.86912200  0.30193400  1
  O  O44  1  0.17391100  0.92170400  0.98283600  1
  O  O45  1  0.82608900  0.07829600  0.01716400  1
  O  O46  1  0.67391100  0.07829600  0.51716400  1
  O  O47  1  0.32608900  0.92170400  0.48283600  1
  O  O48  1  0.97335300  0.97323100  0.76034700  1
  O  O49  1  0.02664700  0.02676900  0.23965300  1
  O  O50  1  0.47335300  0.02676900  0.73965300  1
  O  O51  1  0.52664700  0.97323100  0.26034700  1
  O  O52  1  0.14260200  0.22433900  0.63807000  1
  O  O53  1  0.85739800  0.77566100  0.36193000  1
  O  O54  1  0.64260200  0.77566100  0.86193000  1
  O  O55  1  0.35739800  0.22433900  0.13807000  1
  O  O56  1  0.75672000  0.82495800  0.54127400  1
  O  O57  1  0.24328000  0.17504200  0.45872600  1
  O  O58  1  0.25672000  0.17504200  0.95872600  1
  O  O59  1  0.74328000  0.82495800  0.04127400  1
  O  O60  1  0.92493000  0.95675100  0.08081100  1
  O  O61  1  0.07507000  0.04324900  0.91918900  1
  O  O62  1  0.42493000  0.04324900  0.41918900  1
  O  O63  1  0.57507000  0.95675100  0.58081100  1
  O  O64  1  0.49310800  0.69260700  0.60616800  1
  O  O65  1  0.50689200  0.30739300  0.39383200  1
  O  O66  1  0.99310800  0.30739300  0.89383200  1
  O  O67  1  0.00689200  0.69260700  0.10616800  1
  O  O68  1  0.85466000  0.70995800  0.76274100  1
  O  O69  1  0.14534000  0.29004200  0.23725900  1
  O  O70  1  0.35466000  0.29004200  0.73725900  1
  O  O71  1  0.64534000  0.70995800  0.26274100  1
  O  O72  1  0.17534200  0.82203000  0.62622100  1
  O  O73  1  0.82465800  0.17797000  0.37377900  1
  O  O74  1  0.67534200  0.17797000  0.87377900  1
  O  O75  1  0.32465800  0.82203000  0.12622100  1
  O  O76  1  0.07508400  0.91913000  0.57170000  1
  O  O77  1  0.92491600  0.08087000  0.42830000  1
  O  O78  1  0.57508400  0.08087000  0.92830000  1
  O  O79  1  0.42491600  0.91913000  0.07170000  1
  O  O80  1  0.39471700  0.60422200  0.82270100  1
  O  O81  1  0.60528300  0.39577800  0.17729900  1
  O  O82  1  0.89471700  0.39577800  0.67729900  1
  O  O83  1  0.10528300  0.60422200  0.32270100  1
