# generated using pymatgen
data_K2Th3Mg(MoO4)8
_symmetry_space_group_name_H-M   'P 1'
_cell_length_a   13.13943439
_cell_length_b   13.13943439
_cell_length_c   9.54673560
_cell_angle_alpha   89.69951782
_cell_angle_beta   89.69951782
_cell_angle_gamma   88.43753336
_symmetry_Int_Tables_number   1
_chemical_formula_structural   K2Th3Mg(MoO4)8
_chemical_formula_sum   'K4 Th6 Mg2 Mo16 O64'
_cell_volume   1647.53672369
_cell_formula_units_Z   2
loop_
 _symmetry_equiv_pos_site_id
 _symmetry_equiv_pos_as_xyz
  1  'x, y, z'
loop_
 _atom_site_type_symbol
 _atom_site_label
 _atom_site_symmetry_multiplicity
 _atom_site_fract_x
 _atom_site_fract_y
 _atom_site_fract_z
 _atom_site_occupancy
  K  K0  1  0.14333700  0.62228100  0.06250700  1
  K  K1  1  0.37771900  0.85666300  0.43749300  1
  K  K2  1  0.85666300  0.37771900  0.93749300  1
  K  K3  1  0.62228100  0.14333700  0.56250700  1
  Th  Th4  1  0.13087900  0.86912100  0.75000000  1
  Th  Th5  1  0.86912100  0.13087900  0.25000000  1
  Th  Th6  1  0.87047900  0.63194500  0.33941800  1
  Th  Th7  1  0.36805500  0.12952100  0.16058200  1
  Th  Th8  1  0.12952100  0.36805500  0.66058200  1
  Th  Th9  1  0.63194500  0.87047900  0.83941800  1
  Mg  Mg10  1  0.58874900  0.41125100  0.75000000  1
  Mg  Mg11  1  0.41125100  0.58874900  0.25000000  1
  Mo  Mo12  1  0.90611600  0.85881200  0.04784000  1
  Mo  Mo13  1  0.14118800  0.09388400  0.45216000  1
  Mo  Mo14  1  0.09388400  0.14118800  0.95216000  1
  Mo  Mo15  1  0.85881200  0.90611600  0.54784000  1
  Mo  Mo16  1  0.16883800  0.64959900  0.46872700  1
  Mo  Mo17  1  0.35040100  0.83116200  0.03127300  1
  Mo  Mo18  1  0.83116200  0.35040100  0.53127300  1
  Mo  Mo19  1  0.64959900  0.16883800  0.96872700  1
  Mo  Mo20  1  0.65570000  0.58734200  0.03548000  1
  Mo  Mo21  1  0.41265800  0.34430000  0.46452000  1
  Mo  Mo22  1  0.34430000  0.41265800  0.96452000  1
  Mo  Mo23  1  0.58734200  0.65570000  0.53548000  1
  Mo  Mo24  1  0.96545800  0.60796400  0.75681100  1
  Mo  Mo25  1  0.39203600  0.03454200  0.74318900  1
  Mo  Mo26  1  0.03454200  0.39203600  0.24318900  1
  Mo  Mo27  1  0.60796400  0.96545800  0.25681100  1
  O  O28  1  0.06057500  0.70238000  0.79648000  1
  O  O29  1  0.29762000  0.93942500  0.70352000  1
  O  O30  1  0.93942500  0.29762000  0.20352000  1
  O  O31  1  0.70238000  0.06057500  0.29648000  1
  O  O32  1  0.26709200  0.61929100  0.34687200  1
  O  O33  1  0.38070900  0.73290800  0.15312800  1
  O  O34  1  0.73290800  0.38070900  0.65312800  1
  O  O35  1  0.61929100  0.26709200  0.84687200  1
  O  O36  1  0.76210700  0.58269400  0.15664600  1
  O  O37  1  0.41730600  0.23789300  0.34335400  1
  O  O38  1  0.23789300  0.41730600  0.84335400  1
  O  O39  1  0.58269400  0.76210700  0.65664600  1
  O  O40  1  0.01502700  0.48006400  0.79642700  1
  O  O41  1  0.51993600  0.98497300  0.70357300  1
  O  O42  1  0.98497300  0.51993600  0.20357300  1
  O  O43  1  0.48006400  0.01502700  0.29642700  1
  O  O44  1  0.20229200  0.76223100  0.56773900  1
  O  O45  1  0.23776900  0.79770800  0.93226100  1
  O  O46  1  0.79770800  0.23776900  0.43226100  1
  O  O47  1  0.76223100  0.20229200  0.06773900  1
  O  O48  1  0.54404900  0.57041000  0.13582300  1
  O  O49  1  0.42959000  0.45595100  0.36417700  1
  O  O50  1  0.45595100  0.42959000  0.86417700  1
  O  O51  1  0.57041000  0.54404900  0.63582300  1
  O  O52  1  0.66804200  0.48397200  0.91458600  1
  O  O53  1  0.51602800  0.33195800  0.58541400  1
  O  O54  1  0.33195800  0.51602800  0.08541400  1
  O  O55  1  0.48397200  0.66804200  0.41458600  1
  O  O56  1  0.02650900  0.87802800  0.96498000  1
  O  O57  1  0.12197200  0.97349100  0.53502000  1
  O  O58  1  0.97349100  0.12197200  0.03502000  1
  O  O59  1  0.87802800  0.02650900  0.46498000  1
  O  O60  1  0.91365800  0.74121400  0.14434500  1
  O  O61  1  0.25878600  0.08634200  0.35565500  1
  O  O62  1  0.08634200  0.25878600  0.85565500  1
  O  O63  1  0.74121400  0.91365800  0.64434500  1
  O  O64  1  0.80624200  0.85763000  0.92145400  1
  O  O65  1  0.14237000  0.19375800  0.57854600  1
  O  O66  1  0.19375800  0.14237000  0.07854600  1
  O  O67  1  0.85763000  0.80624200  0.42145400  1
  O  O68  1  0.14871400  0.54488500  0.58663100  1
  O  O69  1  0.45511500  0.85128600  0.91336900  1
  O  O70  1  0.85128600  0.45511500  0.41336900  1
  O  O71  1  0.54488500  0.14871400  0.08663100  1
  O  O72  1  0.64310300  0.70877100  0.94539500  1
  O  O73  1  0.29122900  0.35689700  0.55460500  1
  O  O74  1  0.35689700  0.29122900  0.05460500  1
  O  O75  1  0.70877100  0.64310300  0.44539500  1
  O  O76  1  0.05597300  0.67691600  0.37012500  1
  O  O77  1  0.32308400  0.94402700  0.12987500  1
  O  O78  1  0.94402700  0.32308400  0.62987500  1
  O  O79  1  0.67691600  0.05597300  0.87012500  1
  O  O80  1  0.91867200  0.61759800  0.57949500  1
  O  O81  1  0.38240200  0.08132800  0.92050500  1
  O  O82  1  0.08132800  0.38240200  0.42050500  1
  O  O83  1  0.61759800  0.91867200  0.07949500  1
  O  O84  1  0.87855100  0.96113900  0.16814000  1
  O  O85  1  0.03886100  0.12144900  0.33186000  1
  O  O86  1  0.12144900  0.03886100  0.83186000  1
  O  O87  1  0.96113900  0.87855100  0.66814000  1
  O  O88  1  0.86190000  0.62606300  0.86895900  1
  O  O89  1  0.37393700  0.13810000  0.63104100  1
  O  O90  1  0.13810000  0.37393700  0.13104100  1
  O  O91  1  0.62606300  0.86190000  0.36895900  1
