# generated using pymatgen
data_CsB2P2HO9
_symmetry_space_group_name_H-M   'P 1'
_cell_length_a   12.68156700
_cell_length_b   6.94890900
_cell_length_c   9.11672430
_cell_angle_alpha   81.72979676
_cell_angle_beta   90.00000000
_cell_angle_gamma   90.00000000
_symmetry_Int_Tables_number   1
_chemical_formula_structural   CsB2P2HO9
_chemical_formula_sum   'Cs4 B8 P8 H4 O36'
_cell_volume   795.03888854
_cell_formula_units_Z   4
loop_
 _symmetry_equiv_pos_site_id
 _symmetry_equiv_pos_as_xyz
  1  'x, y, z'
loop_
 _atom_site_type_symbol
 _atom_site_label
 _atom_site_symmetry_multiplicity
 _atom_site_fract_x
 _atom_site_fract_y
 _atom_site_fract_z
 _atom_site_occupancy
  Cs  Cs0  1  0.37953000  0.27792500  0.19183400  1
  Cs  Cs1  1  0.87953000  0.72207500  0.30816600  1
  Cs  Cs2  1  0.62047000  0.72207500  0.80816600  1
  Cs  Cs3  1  0.12047000  0.27792500  0.69183400  1
  B  B4  1  0.14599300  0.92529700  0.13980400  1
  B  B5  1  0.64599300  0.07470300  0.36019600  1
  B  B6  1  0.85400700  0.07470300  0.86019600  1
  B  B7  1  0.35400700  0.92529700  0.63980400  1
  B  B8  1  0.13471800  0.61967300  0.02825900  1
  B  B9  1  0.63471800  0.38032700  0.47174100  1
  B  B10  1  0.86528200  0.38032700  0.97174100  1
  B  B11  1  0.36528200  0.61967300  0.52825900  1
  P  P12  1  0.20538200  0.85771200  0.44249900  1
  P  P13  1  0.70538200  0.14228800  0.05750100  1
  P  P14  1  0.79461800  0.14228800  0.55750100  1
  P  P15  1  0.29461800  0.85771200  0.94249900  1
  P  P16  1  0.54162900  0.71883600  0.33447000  1
  P  P17  1  0.04162900  0.28116400  0.16553000  1
  P  P18  1  0.45837100  0.28116400  0.66553000  1
  P  P19  1  0.95837100  0.71883600  0.83447000  1
  H  H20  1  0.48614900  0.77058500  0.10279800  1
  H  H21  1  0.98614900  0.22941500  0.39720200  1
  H  H22  1  0.51385100  0.22941500  0.89720200  1
  H  H23  1  0.01385100  0.77058500  0.60279800  1
  O  O24  1  0.21587700  0.99672800  0.01061700  1
  O  O25  1  0.71587700  0.00327200  0.48938300  1
  O  O26  1  0.78412300  0.00327200  0.98938300  1
  O  O27  1  0.28412300  0.99672800  0.51061700  1
  O  O28  1  0.55660100  0.93137800  0.36012400  1
  O  O29  1  0.05660100  0.06862200  0.13987600  1
  O  O30  1  0.44339900  0.06862200  0.63987600  1
  O  O31  1  0.94339900  0.93137800  0.86012400  1
  O  O32  1  0.21423600  0.93243900  0.27336300  1
  O  O33  1  0.71423600  0.06756100  0.22663700  1
  O  O34  1  0.78576400  0.06756100  0.72663700  1
  O  O35  1  0.28576400  0.93243900  0.77336300  1
  O  O36  1  0.09413300  0.86099500  0.49925400  1
  O  O37  1  0.59413300  0.13900500  0.00074600  1
  O  O38  1  0.90586700  0.13900500  0.50074600  1
  O  O39  1  0.40586700  0.86099500  0.99925400  1
  O  O40  1  0.10133500  0.73892500  0.13260700  1
  O  O41  1  0.60133500  0.26107500  0.36739300  1
  O  O42  1  0.89866500  0.26107500  0.86739300  1
  O  O43  1  0.39866500  0.73892500  0.63260700  1
  O  O44  1  0.54679100  0.69792900  0.16627900  1
  O  O45  1  0.04679100  0.30207100  0.33372100  1
  O  O46  1  0.45320900  0.30207100  0.83372100  1
  O  O47  1  0.95320900  0.69792900  0.66627900  1
  O  O48  1  0.25426200  0.64862900  0.47869700  1
  O  O49  1  0.75426200  0.35137100  0.02130300  1
  O  O50  1  0.74573800  0.35137100  0.52130300  1
  O  O51  1  0.24573800  0.64862900  0.97869700  1
  O  O52  1  0.43117100  0.64702300  0.38661200  1
  O  O53  1  0.93117100  0.35297700  0.11338800  1
  O  O54  1  0.56882900  0.35297700  0.61338800  1
  O  O55  1  0.06882900  0.64702300  0.88661200  1
  O  O56  1  0.13131300  0.40577200  0.08620800  1
  O  O57  1  0.63131300  0.59422800  0.41379200  1
  O  O58  1  0.86868700  0.59422800  0.91379200  1
  O  O59  1  0.36868700  0.40577200  0.58620800  1
