# generated using pymatgen
data_Sc3NiC4
_symmetry_space_group_name_H-M   'P 1'
_cell_length_a   6.56902311
_cell_length_b   6.56902311
_cell_length_c   6.56902311
_cell_angle_alpha   149.53375797
_cell_angle_beta   141.12068960
_cell_angle_gamma   50.17850351
_symmetry_Int_Tables_number   1
_chemical_formula_structural   Sc3NiC4
_chemical_formula_sum   'Sc3 Ni1 C4'
_cell_volume   89.79685340
_cell_formula_units_Z   1
loop_
 _symmetry_equiv_pos_site_id
 _symmetry_equiv_pos_as_xyz
  1  'x, y, z'
loop_
 _atom_site_type_symbol
 _atom_site_label
 _atom_site_symmetry_multiplicity
 _atom_site_fract_x
 _atom_site_fract_y
 _atom_site_fract_z
 _atom_site_occupancy
  Sc  Sc0  1  0.18710900  0.68710900  0.50000000  1
  Sc  Sc1  1  0.81289100  0.31289100  0.50000000  1
  Sc  Sc2  1  0.50000000  0.50000000  0.00000000  1
  Ni  Ni3  1  0.00000000  0.00000000  0.00000000  1
  C  C4  1  0.45780700  0.12416400  0.33364400  1
  C  C5  1  0.54219300  0.87583600  0.66635600  1
  C  C6  1  0.79052000  0.12416400  0.66635600  1
  C  C7  1  0.20948000  0.87583600  0.33364400  1
