# generated using pymatgen
data_ZnSb4H18S7N6
_symmetry_space_group_name_H-M   'P 1'
_cell_length_a   7.31389200
_cell_length_b   12.11058367
_cell_length_c   13.05980096
_cell_angle_alpha   103.33840632
_cell_angle_beta   90.13459461
_cell_angle_gamma   99.81701854
_symmetry_Int_Tables_number   1
_chemical_formula_structural   ZnSb4H18S7N6
_chemical_formula_sum   'Zn2 Sb8 H36 S14 N12'
_cell_volume   1108.04353137
_cell_formula_units_Z   2
loop_
 _symmetry_equiv_pos_site_id
 _symmetry_equiv_pos_as_xyz
  1  'x, y, z'
loop_
 _atom_site_type_symbol
 _atom_site_label
 _atom_site_symmetry_multiplicity
 _atom_site_fract_x
 _atom_site_fract_y
 _atom_site_fract_z
 _atom_site_occupancy
  Zn  Zn0  1  0.32729900  0.25644300  0.15176400  1
  Zn  Zn1  1  0.67270100  0.74355700  0.84823600  1
  Sb  Sb2  1  0.24118700  0.97964400  0.50200900  1
  Sb  Sb3  1  0.75881300  0.02035600  0.49799100  1
  Sb  Sb4  1  0.21470200  0.79967700  0.22068500  1
  Sb  Sb5  1  0.78529800  0.20032300  0.77931500  1
  Sb  Sb6  1  0.69112400  0.72528700  0.32044300  1
  Sb  Sb7  1  0.30887600  0.27471300  0.67955700  1
  Sb  Sb8  1  0.11420700  0.61940700  0.44633900  1
  Sb  Sb9  1  0.88579300  0.38059300  0.55366100  1
  H  H10  1  0.56407000  0.43126600  0.09200400  1
  H  H11  1  0.43593000  0.56873400  0.90799600  1
  H  H12  1  0.67669400  0.39054400  0.18158500  1
  H  H13  1  0.32330600  0.60945600  0.81841500  1
  H  H14  1  0.65291300  0.31222300  0.05848900  1
  H  H15  1  0.34708700  0.68777700  0.94151100  1
  H  H16  1  0.08874300  0.06546800  0.18059800  1
  H  H17  1  0.91125700  0.93453200  0.81940200  1
  H  H18  1  0.02777900  0.17787100  0.26239700  1
  H  H19  1  0.97222100  0.82212900  0.73760300  1
  H  H20  1  0.97001600  0.14822300  0.13428400  1
  H  H21  1  0.02998400  0.85177700  0.86571600  1
  H  H22  1  0.16267900  0.14347300  0.96054900  1
  H  H23  1  0.83732100  0.85652700  0.03945100  1
  H  H24  1  0.38461800  0.18798300  0.94139900  1
  H  H25  1  0.61538200  0.81201700  0.05860100  1
  H  H26  1  0.32234500  0.07209500  0.98856300  1
  H  H27  1  0.67765500  0.92790500  0.01143700  1
  H  H28  1  0.46973100  0.34862100  0.35453100  1
  H  H29  1  0.53026900  0.65137900  0.64546900  1
  H  H30  1  0.36909800  0.44506400  0.31808800  1
  H  H31  1  0.63090200  0.55493600  0.68191200  1
  H  H32  1  0.24258100  0.33730100  0.35822200  1
  H  H33  1  0.75741900  0.66269900  0.64177800  1
  H  H34  1  0.06399300  0.32747700  0.04531200  1
  H  H35  1  0.93600700  0.67252300  0.95468800  1
  H  H36  1  0.08059300  0.41027600  0.16585500  1
  H  H37  1  0.91940700  0.58972400  0.83414500  1
  H  H38  1  0.23325600  0.43974800  0.08121700  1
  H  H39  1  0.76674400  0.56025200  0.91878300  1
  H  H40  1  0.61566300  0.13924600  0.15183300  1
  H  H41  1  0.38433700  0.86075400  0.84816700  1
  H  H42  1  0.53171700  0.14755400  0.27060300  1
  H  H43  1  0.46828300  0.85244600  0.72939700  1
  H  H44  1  0.42603100  0.05167300  0.16776100  1
  H  H45  1  0.57396900  0.94832700  0.83223900  1
  S  S46  1  0.19438700  0.85849300  0.05983900  1
  S  S47  1  0.80561300  0.14150700  0.94016100  1
  S  S48  1  0.96493700  0.78319300  0.52181900  1
  S  S49  1  0.03506300  0.21680700  0.47818100  1
  S  S50  1  0.44234800  0.66457800  0.16748700  1
  S  S51  1  0.55765200  0.33542200  0.83251300  1
  S  S52  1  0.77911900  0.92697000  0.30593500  1
  S  S53  1  0.22088100  0.07303000  0.69406500  1
  S  S54  1  0.93213300  0.64254500  0.20251700  1
  S  S55  1  0.06786700  0.35745500  0.79748300  1
  S  S56  1  0.15080100  0.54750500  0.61091300  1
  S  S57  1  0.84919900  0.45249500  0.38908700  1
  S  S58  1  0.46986300  0.85915500  0.52314800  1
  S  S59  1  0.53013700  0.14084500  0.47685200  1
  N  N60  1  0.58639800  0.36065100  0.11706600  1
  N  N61  1  0.41360200  0.63934900  0.88293400  1
  N  N62  1  0.07276200  0.14938700  0.18819700  1
  N  N63  1  0.92723800  0.85061300  0.81180300  1
  N  N64  1  0.29586400  0.15262800  0.99089400  1
  N  N65  1  0.70413600  0.84737200  0.00910600  1
  N  N66  1  0.35483100  0.35917400  0.31523400  1
  N  N67  1  0.64516900  0.64082600  0.68476600  1
  N  N68  1  0.15637200  0.37283500  0.10600100  1
  N  N69  1  0.84362800  0.62716500  0.89399900  1
  N  N70  1  0.49583200  0.13497200  0.19219700  1
  N  N71  1  0.50416800  0.86502800  0.80780300  1
