# generated using pymatgen
data_Mg3Si9B36C
_symmetry_space_group_name_H-M   'P 1'
_cell_length_a   8.00213109
_cell_length_b   8.00213109
_cell_length_c   8.00213121
_cell_angle_alpha   78.30840476
_cell_angle_beta   78.30840476
_cell_angle_gamma   78.30840530
_symmetry_Int_Tables_number   1
_chemical_formula_structural   Mg3Si9B36C
_chemical_formula_sum   'Mg3 Si9 B36 C1'
_cell_volume   484.34186494
_cell_formula_units_Z   1
loop_
 _symmetry_equiv_pos_site_id
 _symmetry_equiv_pos_as_xyz
  1  'x, y, z'
loop_
 _atom_site_type_symbol
 _atom_site_label
 _atom_site_symmetry_multiplicity
 _atom_site_fract_x
 _atom_site_fract_y
 _atom_site_fract_z
 _atom_site_occupancy
  Mg  Mg0  1  0.49904700  0.99972600  0.49904700  1
  Mg  Mg1  1  0.99972600  0.49904700  0.49904700  1
  Mg  Mg2  1  0.49904700  0.49904700  0.99972600  1
  Si  Si3  1  0.57267400  0.57267400  0.57267400  1
  Si  Si4  1  0.42901500  0.42901500  0.42901500  1
  Si  Si5  1  0.73859200  0.73859200  0.34316900  1
  Si  Si6  1  0.73859200  0.34316900  0.73859200  1
  Si  Si7  1  0.34316900  0.73859200  0.73859200  1
  Si  Si8  1  0.26167700  0.26167700  0.65533400  1
  Si  Si9  1  0.26167700  0.65533400  0.26167700  1
  Si  Si10  1  0.65533400  0.26167700  0.26167700  1
  Si  Si11  1  0.95583400  0.95583400  0.95583400  1
  B  B12  1  0.70404800  0.99409000  0.99409000  1
  B  B13  1  0.99409000  0.99409000  0.70404800  1
  B  B14  1  0.99409000  0.70404800  0.99409000  1
  B  B15  1  0.27603700  0.01786600  0.01786600  1
  B  B16  1  0.01786600  0.01786600  0.27603700  1
  B  B17  1  0.01786600  0.27603700  0.01786600  1
  B  B18  1  0.62454400  0.98060100  0.80026900  1
  B  B19  1  0.98060100  0.80026900  0.62454400  1
  B  B20  1  0.80026900  0.62454400  0.98060100  1
  B  B21  1  0.98060100  0.62454400  0.80026900  1
  B  B22  1  0.62454400  0.80026900  0.98060100  1
  B  B23  1  0.80026900  0.98060100  0.62454400  1
  B  B24  1  0.37282400  0.02253900  0.20290900  1
  B  B25  1  0.02253900  0.20290900  0.37282400  1
  B  B26  1  0.20290900  0.37282400  0.02253900  1
  B  B27  1  0.02253900  0.37282400  0.20290900  1
  B  B28  1  0.37282400  0.20290900  0.02253900  1
  B  B29  1  0.20290900  0.02253900  0.37282400  1
  B  B30  1  0.58064800  0.17872700  0.89195000  1
  B  B31  1  0.17872700  0.89195000  0.58064800  1
  B  B32  1  0.89195000  0.58064800  0.17872700  1
  B  B33  1  0.17872700  0.58064800  0.89195000  1
  B  B34  1  0.58064800  0.89195000  0.17872700  1
  B  B35  1  0.89195000  0.17872700  0.58064800  1
  B  B36  1  0.41098600  0.82578800  0.10930000  1
  B  B37  1  0.82578800  0.10930000  0.41098600  1
  B  B38  1  0.10930000  0.41098600  0.82578800  1
  B  B39  1  0.82578800  0.41098600  0.10930000  1
  B  B40  1  0.41098600  0.10930000  0.82578800  1
  B  B41  1  0.10930000  0.82578800  0.41098600  1
  B  B42  1  0.55636700  0.12560400  0.12560400  1
  B  B43  1  0.12560400  0.12560400  0.55636700  1
  B  B44  1  0.12560400  0.55636700  0.12560400  1
  B  B45  1  0.43474600  0.87841300  0.87841300  1
  B  B46  1  0.87841300  0.87841300  0.43474600  1
  B  B47  1  0.87841300  0.43474600  0.87841300  1
  C  C48  1  0.06775600  0.06775600  0.06775600  1
