# generated using pymatgen
data_Sm9Al(SiS7)3
_symmetry_space_group_name_H-M   'P 1'
_cell_length_a   11.56139207
_cell_length_b   11.56139207
_cell_length_c   11.56139150
_cell_angle_alpha   97.73197938
_cell_angle_beta   97.73197938
_cell_angle_gamma   97.73198106
_symmetry_Int_Tables_number   1
_chemical_formula_structural   Sm9Al(SiS7)3
_chemical_formula_sum   'Sm18 Al2 Si6 S42'
_cell_volume   1498.94346073
_cell_formula_units_Z   2
loop_
 _symmetry_equiv_pos_site_id
 _symmetry_equiv_pos_as_xyz
  1  'x, y, z'
loop_
 _atom_site_type_symbol
 _atom_site_label
 _atom_site_symmetry_multiplicity
 _atom_site_fract_x
 _atom_site_fract_y
 _atom_site_fract_z
 _atom_site_occupancy
  Sm  Sm0  1  0.02234000  0.88948700  0.65851900  1
  Sm  Sm1  1  0.34535000  0.21829900  0.98259700  1
  Sm  Sm2  1  0.67616400  0.55611700  0.33410200  1
  Sm  Sm3  1  0.33410200  0.67616400  0.55611700  1
  Sm  Sm4  1  0.65851900  0.02234000  0.88948700  1
  Sm  Sm5  1  0.98259700  0.34535000  0.21829900  1
  Sm  Sm6  1  0.21829900  0.98259700  0.34535000  1
  Sm  Sm7  1  0.55611700  0.33410200  0.67616400  1
  Sm  Sm8  1  0.88948700  0.65851900  0.02234000  1
  Sm  Sm9  1  0.19175900  0.32083400  0.55535800  1
  Sm  Sm10  1  0.51848100  0.64782600  0.88190600  1
  Sm  Sm11  1  0.86788700  0.98919800  0.20951000  1
  Sm  Sm12  1  0.88190600  0.51848100  0.64782600  1
  Sm  Sm13  1  0.20951000  0.86788700  0.98919800  1
  Sm  Sm14  1  0.55535800  0.19175900  0.32083400  1
  Sm  Sm15  1  0.98919800  0.20951000  0.86788700  1
  Sm  Sm16  1  0.32083400  0.55535800  0.19175900  1
  Sm  Sm17  1  0.64782600  0.88190600  0.51848100  1
  Al  Al18  1  0.76380200  0.76380200  0.76380200  1
  Al  Al19  1  0.26372700  0.26372700  0.26372700  1
  Si  Si20  1  0.71367100  0.38392500  0.04877100  1
  Si  Si21  1  0.04877100  0.71367100  0.38392500  1
  Si  Si22  1  0.38392500  0.04877100  0.71367100  1
  Si  Si23  1  0.88158400  0.21385500  0.55072600  1
  Si  Si24  1  0.21385500  0.55072600  0.88158400  1
  Si  Si25  1  0.55072600  0.88158400  0.21385500  1
  S  S26  1  0.66047100  0.39526600  0.48965500  1
  S  S27  1  0.96682200  0.73181400  0.81821000  1
  S  S28  1  0.31677400  0.07852800  0.16011200  1
  S  S29  1  0.81821000  0.96682200  0.73181400  1
  S  S30  1  0.16011200  0.31677400  0.07852800  1
  S  S31  1  0.48965500  0.66047100  0.39526600  1
  S  S32  1  0.07852800  0.16011200  0.31677400  1
  S  S33  1  0.39526600  0.48965500  0.66047100  1
  S  S34  1  0.73181400  0.81821000  0.96682200  1
  S  S35  1  0.86993200  0.13433400  0.04059100  1
  S  S36  1  0.21051600  0.44507700  0.36021100  1
  S  S37  1  0.55410100  0.79355400  0.70923100  1
  S  S38  1  0.70923100  0.55410100  0.79355400  1
  S  S39  1  0.04059100  0.86993200  0.13433400  1
  S  S40  1  0.36021100  0.21051600  0.44507700  1
  S  S41  1  0.44507700  0.36021100  0.21051600  1
  S  S42  1  0.79355400  0.70923100  0.55410100  1
  S  S43  1  0.13433400  0.04059100  0.86993200  1
  S  S44  1  0.92161700  0.59162400  0.26519900  1
  S  S45  1  0.26519900  0.92161700  0.59162400  1
  S  S46  1  0.59162400  0.26519900  0.92161700  1
  S  S47  1  0.76481500  0.09048000  0.42313700  1
  S  S48  1  0.09048000  0.42313700  0.76481500  1
  S  S49  1  0.42313700  0.76481500  0.09048000  1
  S  S50  1  0.66014800  0.55440100  0.08060300  1
  S  S51  1  0.99639100  0.88571600  0.41169000  1
  S  S52  1  0.33325400  0.22090200  0.73582700  1
  S  S53  1  0.73582700  0.33325400  0.22090200  1
  S  S54  1  0.08060300  0.66014800  0.55440100  1
  S  S55  1  0.41169000  0.99639100  0.88571600  1
  S  S56  1  0.88571600  0.41169000  0.99639100  1
  S  S57  1  0.22090200  0.73582700  0.33325400  1
  S  S58  1  0.55440100  0.08060300  0.66014800  1
  S  S59  1  0.03070300  0.14066600  0.62321500  1
  S  S60  1  0.36158600  0.47439700  0.95504000  1
  S  S61  1  0.70361500  0.80957700  0.27992700  1
  S  S62  1  0.95504000  0.36158600  0.47439700  1
  S  S63  1  0.27992700  0.70361500  0.80957700  1
  S  S64  1  0.62321500  0.03070300  0.14066600  1
  S  S65  1  0.80957700  0.27992700  0.70361500  1
  S  S66  1  0.14066600  0.62321500  0.03070300  1
  S  S67  1  0.47439700  0.95504000  0.36158600  1
