# generated using pymatgen
data_CsW3Br7
_symmetry_space_group_name_H-M   'P 1'
_cell_length_a   10.54306737
_cell_length_b   10.54306737
_cell_length_c   15.98054200
_cell_angle_alpha   90.00000000
_cell_angle_beta   90.00000000
_cell_angle_gamma   119.99999608
_symmetry_Int_Tables_number   1
_chemical_formula_structural   CsW3Br7
_chemical_formula_sum   'Cs4 W12 Br28'
_cell_volume   1538.35340612
_cell_formula_units_Z   4
loop_
 _symmetry_equiv_pos_site_id
 _symmetry_equiv_pos_as_xyz
  1  'x, y, z'
loop_
 _atom_site_type_symbol
 _atom_site_label
 _atom_site_symmetry_multiplicity
 _atom_site_fract_x
 _atom_site_fract_y
 _atom_site_fract_z
 _atom_site_occupancy
  Cs  Cs0  1  0.00000000  0.00000000  0.49951700  1
  Cs  Cs1  1  0.00000000  0.00000000  0.99951700  1
  Cs  Cs2  1  0.66666700  0.33333300  0.73884700  1
  Cs  Cs3  1  0.33333300  0.66666700  0.23884700  1
  W  W4  1  0.47823100  0.66503300  0.68229000  1
  W  W5  1  0.33496700  0.81319900  0.68229000  1
  W  W6  1  0.18680100  0.52176900  0.68229000  1
  W  W7  1  0.66503300  0.47823100  0.18229000  1
  W  W8  1  0.52176900  0.18680100  0.18229000  1
  W  W9  1  0.81319900  0.33496700  0.18229000  1
  W  W10  1  0.52128500  0.33402200  0.31773900  1
  W  W11  1  0.66597800  0.18726300  0.31773900  1
  W  W12  1  0.81273700  0.47871500  0.31773900  1
  W  W13  1  0.33402200  0.52128500  0.81773900  1
  W  W14  1  0.47871500  0.81273700  0.81773900  1
  W  W15  1  0.18726300  0.66597800  0.81773900  1
  Br  Br16  1  0.33333300  0.66666700  0.54682700  1
  Br  Br17  1  0.66666700  0.33333300  0.04682700  1
  Br  Br18  1  0.66666700  0.33333300  0.45321900  1
  Br  Br19  1  0.33333300  0.66666700  0.95321900  1
  Br  Br20  1  0.62781200  0.95487900  0.67978200  1
  Br  Br21  1  0.04512100  0.67293300  0.67978200  1
  Br  Br22  1  0.32706700  0.37218800  0.67978200  1
  Br  Br23  1  0.95487900  0.62781200  0.17978200  1
  Br  Br24  1  0.37218800  0.32706700  0.17978200  1
  Br  Br25  1  0.67293300  0.04512100  0.17978200  1
  Br  Br26  1  0.37320800  0.04380400  0.32006600  1
  Br  Br27  1  0.95619600  0.32940400  0.32006600  1
  Br  Br28  1  0.67059600  0.62679200  0.32006600  1
  Br  Br29  1  0.04380400  0.37320800  0.82006600  1
  Br  Br30  1  0.62679200  0.67059600  0.82006600  1
  Br  Br31  1  0.32940400  0.95619600  0.82006600  1
  Br  Br32  1  0.68191400  0.65531800  0.59186300  1
  Br  Br33  1  0.34468200  0.02659600  0.59186300  1
  Br  Br34  1  0.97340400  0.31808600  0.59186300  1
  Br  Br35  1  0.65531800  0.68191400  0.09186300  1
  Br  Br36  1  0.31808600  0.97340400  0.09186300  1
  Br  Br37  1  0.02659600  0.34468200  0.09186300  1
  Br  Br38  1  0.31842300  0.34405800  0.40769900  1
  Br  Br39  1  0.65594200  0.97436500  0.40769900  1
  Br  Br40  1  0.02563500  0.68157700  0.40769900  1
  Br  Br41  1  0.34405800  0.31842300  0.90769900  1
  Br  Br42  1  0.68157700  0.02563500  0.90769900  1
  Br  Br43  1  0.97436500  0.65594200  0.90769900  1
