# generated using pymatgen
data_Ba3Al3As5
_symmetry_space_group_name_H-M   'P 1'
_cell_length_a   13.34685940
_cell_length_b   13.34685940
_cell_length_c   13.34685956
_cell_angle_alpha   69.26038511
_cell_angle_beta   69.26038511
_cell_angle_gamma   69.26038612
_symmetry_Int_Tables_number   1
_chemical_formula_structural   Ba3Al3As5
_chemical_formula_sum   'Ba18 Al18 As30'
_cell_volume   2007.07177040
_cell_formula_units_Z   6
loop_
 _symmetry_equiv_pos_site_id
 _symmetry_equiv_pos_as_xyz
  1  'x, y, z'
loop_
 _atom_site_type_symbol
 _atom_site_label
 _atom_site_symmetry_multiplicity
 _atom_site_fract_x
 _atom_site_fract_y
 _atom_site_fract_z
 _atom_site_occupancy
  Ba  Ba0  1  0.14467000  0.22468300  0.64894300  1
  Ba  Ba1  1  0.64894300  0.14467000  0.22468300  1
  Ba  Ba2  1  0.22468300  0.64894300  0.14467000  1
  Ba  Ba3  1  0.14894300  0.72468300  0.64467000  1
  Ba  Ba4  1  0.64467000  0.14894300  0.72468300  1
  Ba  Ba5  1  0.72468300  0.64467000  0.14894300  1
  Ba  Ba6  1  0.85533000  0.77531700  0.35105700  1
  Ba  Ba7  1  0.35105700  0.85533000  0.77531700  1
  Ba  Ba8  1  0.77531700  0.35105700  0.85533000  1
  Ba  Ba9  1  0.85105700  0.27531700  0.35533000  1
  Ba  Ba10  1  0.35533000  0.85105700  0.27531700  1
  Ba  Ba11  1  0.27531700  0.35533000  0.85105700  1
  Ba  Ba12  1  0.39725900  0.39725900  0.39725900  1
  Ba  Ba13  1  0.89725900  0.89725900  0.89725900  1
  Ba  Ba14  1  0.60274100  0.60274100  0.60274100  1
  Ba  Ba15  1  0.10274100  0.10274100  0.10274100  1
  Ba  Ba16  1  0.25000000  0.25000000  0.25000000  1
  Ba  Ba17  1  0.75000000  0.75000000  0.75000000  1
  Al  Al18  1  0.08015700  0.57228500  0.49422200  1
  Al  Al19  1  0.49422200  0.08015700  0.57228500  1
  Al  Al20  1  0.57228500  0.49422200  0.08015700  1
  Al  Al21  1  0.99422200  0.07228500  0.58015700  1
  Al  Al22  1  0.58015700  0.99422200  0.07228500  1
  Al  Al23  1  0.07228500  0.58015700  0.99422200  1
  Al  Al24  1  0.91984300  0.42771500  0.50577800  1
  Al  Al25  1  0.50577800  0.91984300  0.42771500  1
  Al  Al26  1  0.42771500  0.50577800  0.91984300  1
  Al  Al27  1  0.00577800  0.92771500  0.41984300  1
  Al  Al28  1  0.41984300  0.00577800  0.92771500  1
  Al  Al29  1  0.92771500  0.41984300  0.00577800  1
  Al  Al30  1  0.97859900  0.52140100  0.25000000  1
  Al  Al31  1  0.25000000  0.97859900  0.52140100  1
  Al  Al32  1  0.52140100  0.25000000  0.97859900  1
  Al  Al33  1  0.75000000  0.02140100  0.47859900  1
  Al  Al34  1  0.47859900  0.75000000  0.02140100  1
  Al  Al35  1  0.02140100  0.47859900  0.75000000  1
  As  As36  1  0.11259900  0.44779600  0.37491400  1
  As  As37  1  0.37491400  0.11259900  0.44779600  1
  As  As38  1  0.44779600  0.37491400  0.11259900  1
  As  As39  1  0.87491400  0.94779600  0.61259900  1
  As  As40  1  0.61259900  0.87491400  0.94779600  1
  As  As41  1  0.94779600  0.61259900  0.87491400  1
  As  As42  1  0.88740100  0.55220400  0.62508600  1
  As  As43  1  0.62508600  0.88740100  0.55220400  1
  As  As44  1  0.55220400  0.62508600  0.88740100  1
  As  As45  1  0.12508600  0.05220400  0.38740100  1
  As  As46  1  0.38740100  0.12508600  0.05220400  1
  As  As47  1  0.05220400  0.38740100  0.12508600  1
  As  As48  1  0.20821200  0.46992500  0.61528900  1
  As  As49  1  0.61528900  0.20821200  0.46992500  1
  As  As50  1  0.46992500  0.61528900  0.20821200  1
  As  As51  1  0.11528900  0.96992500  0.70821200  1
  As  As52  1  0.70821200  0.11528900  0.96992500  1
  As  As53  1  0.96992500  0.70821200  0.11528900  1
  As  As54  1  0.79178800  0.53007500  0.38471100  1
  As  As55  1  0.38471100  0.79178800  0.53007500  1
  As  As56  1  0.53007500  0.38471100  0.79178800  1
  As  As57  1  0.88471100  0.03007500  0.29178800  1
  As  As58  1  0.29178800  0.88471100  0.03007500  1
  As  As59  1  0.03007500  0.29178800  0.88471100  1
  As  As60  1  0.61896500  0.88103500  0.25000000  1
  As  As61  1  0.25000000  0.61896500  0.88103500  1
  As  As62  1  0.88103500  0.25000000  0.61896500  1
  As  As63  1  0.75000000  0.38103500  0.11896500  1
  As  As64  1  0.11896500  0.75000000  0.38103500  1
  As  As65  1  0.38103500  0.11896500  0.75000000  1
