# generated using pymatgen
data_BaAl9Fe2
_symmetry_space_group_name_H-M   'P 1'
_cell_length_a   8.00686655
_cell_length_b   8.00686655
_cell_length_c   3.94983200
_cell_angle_alpha   90.00000000
_cell_angle_beta   90.00000000
_cell_angle_gamma   120.00000457
_symmetry_Int_Tables_number   1
_chemical_formula_structural   BaAl9Fe2
_chemical_formula_sum   'Ba1 Al9 Fe2'
_cell_volume   219.29787151
_cell_formula_units_Z   1
loop_
 _symmetry_equiv_pos_site_id
 _symmetry_equiv_pos_as_xyz
  1  'x, y, z'
loop_
 _atom_site_type_symbol
 _atom_site_label
 _atom_site_symmetry_multiplicity
 _atom_site_fract_x
 _atom_site_fract_y
 _atom_site_fract_z
 _atom_site_occupancy
  Ba  Ba0  1  0.00000000  0.00000000  0.00000000  1
  Al  Al1  1  0.50000000  0.00000000  0.00000000  1
  Al  Al2  1  0.50000000  0.50000000  0.00000000  1
  Al  Al3  1  0.00000000  0.50000000  0.00000000  1
  Al  Al4  1  0.21675900  0.43351700  0.50000000  1
  Al  Al5  1  0.78324100  0.21675900  0.50000000  1
  Al  Al6  1  0.43351700  0.21675900  0.50000000  1
  Al  Al7  1  0.56648300  0.78324100  0.50000000  1
  Al  Al8  1  0.21675900  0.78324100  0.50000000  1
  Al  Al9  1  0.78324100  0.56648300  0.50000000  1
  Fe  Fe10  1  0.66666700  0.33333300  0.00000000  1
  Fe  Fe11  1  0.33333300  0.66666700  0.00000000  1
