# generated using pymatgen
data_TbP4HO12
_symmetry_space_group_name_H-M   'P 1'
_cell_length_a   7.21465400
_cell_length_b   9.80551700
_cell_length_c   13.83781977
_cell_angle_alpha   78.88008043
_cell_angle_beta   90.00000000
_cell_angle_gamma   90.00000000
_symmetry_Int_Tables_number   1
_chemical_formula_structural   TbP4HO12
_chemical_formula_sum   'Tb4 P16 H4 O48'
_cell_volume   960.55575204
_cell_formula_units_Z   4
loop_
 _symmetry_equiv_pos_site_id
 _symmetry_equiv_pos_as_xyz
  1  'x, y, z'
loop_
 _atom_site_type_symbol
 _atom_site_label
 _atom_site_symmetry_multiplicity
 _atom_site_fract_x
 _atom_site_fract_y
 _atom_site_fract_z
 _atom_site_occupancy
  Tb  Tb0  1  0.55793300  0.44083400  0.72921300  1
  Tb  Tb1  1  0.05793300  0.05916600  0.27078700  1
  Tb  Tb2  1  0.44206700  0.55916600  0.27078700  1
  Tb  Tb3  1  0.94206700  0.94083400  0.72921300  1
  P  P4  1  0.17838800  0.37277100  0.90134100  1
  P  P5  1  0.67838900  0.12722900  0.09865900  1
  P  P6  1  0.82161200  0.62722900  0.09865900  1
  P  P7  1  0.32161200  0.87277100  0.90134100  1
  P  P8  1  0.65150200  0.68898000  0.89799700  1
  P  P9  1  0.15150200  0.81102000  0.10200300  1
  P  P10  1  0.34849800  0.31102000  0.10200300  1
  P  P11  1  0.84849800  0.18898000  0.89799700  1
  P  P12  1  0.28861400  0.20515900  0.61328700  1
  P  P13  1  0.78861400  0.29484100  0.38671300  1
  P  P14  1  0.71138600  0.79484100  0.38671300  1
  P  P15  1  0.21138600  0.70515900  0.61328700  1
  P  P16  1  0.89942900  0.28838700  0.59414100  1
  P  P17  1  0.39942900  0.21161300  0.40585900  1
  P  P18  1  0.10057100  0.71161300  0.40585900  1
  P  P19  1  0.60057100  0.78838700  0.59414100  1
  H  H20  1  0.14040900  0.55763900  0.79375700  1
  H  H21  1  0.64040900  0.94236100  0.20624300  1
  H  H22  1  0.85959100  0.44236100  0.20624300  1
  H  H23  1  0.35959100  0.05763900  0.79375700  1
  O  O24  1  0.02383600  0.26196100  0.94286200  1
  O  O25  1  0.52383600  0.23803900  0.05713800  1
  O  O26  1  0.97616400  0.73803900  0.05713800  1
  O  O27  1  0.47616400  0.76196100  0.94286200  1
  O  O28  1  0.26813500  0.40236100  0.00060600  1
  O  O29  1  0.76813500  0.09763900  0.99939400  1
  O  O30  1  0.73186500  0.59763900  0.99939400  1
  O  O31  1  0.23186500  0.90236100  0.00060600  1
  O  O32  1  0.12078200  0.31213900  0.58172700  1
  O  O33  1  0.62078200  0.18786100  0.41827300  1
  O  O34  1  0.87921800  0.68786100  0.41827300  1
  O  O35  1  0.37921800  0.81213900  0.58172700  1
  O  O36  1  0.32826400  0.14442400  0.51544900  1
  O  O37  1  0.82826400  0.35557600  0.48455100  1
  O  O38  1  0.67173600  0.85557600  0.48455100  1
  O  O39  1  0.17173600  0.64442400  0.51544900  1
  O  O40  1  0.31445800  0.32514500  0.83399600  1
  O  O41  1  0.81445800  0.17485500  0.16600400  1
  O  O42  1  0.68554200  0.67485500  0.16600400  1
  O  O43  1  0.18554200  0.82514500  0.83399600  1
  O  O44  1  0.57926300  0.58812400  0.83928200  1
  O  O45  1  0.07926300  0.91187600  0.16071800  1
  O  O46  1  0.42073700  0.41187600  0.16071800  1
  O  O47  1  0.92073700  0.08812400  0.83928200  1
  O  O48  1  0.78874100  0.79713900  0.85520000  1
  O  O49  1  0.28874100  0.70286100  0.14480000  1
  O  O50  1  0.21125900  0.20286100  0.14480000  1
  O  O51  1  0.71125900  0.29713900  0.85520000  1
  O  O52  1  0.45012800  0.28926000  0.63687700  1
  O  O53  1  0.95012800  0.21074000  0.36312300  1
  O  O54  1  0.54987200  0.71074000  0.36312300  1
  O  O55  1  0.04987200  0.78926000  0.63687700  1
  O  O56  1  0.22861400  0.08343700  0.69139600  1
  O  O57  1  0.72861400  0.41656300  0.30860400  1
  O  O58  1  0.77138600  0.91656300  0.30860400  1
  O  O59  1  0.27138600  0.58343700  0.69139600  1
  O  O60  1  0.85967400  0.13539300  0.61757700  1
  O  O61  1  0.35967400  0.36460700  0.38242300  1
  O  O62  1  0.14032600  0.86460700  0.38242300  1
  O  O63  1  0.64032600  0.63539300  0.61757700  1
  O  O64  1  0.83100600  0.38027100  0.66089300  1
  O  O65  1  0.33100600  0.11972900  0.33910700  1
  O  O66  1  0.16899400  0.61972900  0.33910700  1
  O  O67  1  0.66899400  0.88027100  0.66089300  1
  O  O68  1  0.07709000  0.51068100  0.85706600  1
  O  O69  1  0.57709000  0.98931900  0.14293400  1
  O  O70  1  0.92291000  0.48931900  0.14293400  1
  O  O71  1  0.42291000  0.01068100  0.85706600  1
