# generated using pymatgen
data_Cs2Th(Si2O5)3
_symmetry_space_group_name_H-M   'P 1'
_cell_length_a   9.17101728
_cell_length_b   9.17101728
_cell_length_c   13.80555500
_cell_angle_alpha   90.00000000
_cell_angle_beta   90.00000000
_cell_angle_gamma   132.19809338
_symmetry_Int_Tables_number   1
_chemical_formula_structural   Cs2Th(Si2O5)3
_chemical_formula_sum   'Cs4 Th2 Si12 O30'
_cell_volume   860.21233545
_cell_formula_units_Z   2
loop_
 _symmetry_equiv_pos_site_id
 _symmetry_equiv_pos_as_xyz
  1  'x, y, z'
loop_
 _atom_site_type_symbol
 _atom_site_label
 _atom_site_symmetry_multiplicity
 _atom_site_fract_x
 _atom_site_fract_y
 _atom_site_fract_z
 _atom_site_occupancy
  Cs  Cs0  1  0.38677300  0.61322700  0.53421800  1
  Cs  Cs1  1  0.61322700  0.38677300  0.03421800  1
  Cs  Cs2  1  0.27652100  0.72347900  0.84384000  1
  Cs  Cs3  1  0.72347900  0.27652100  0.34384000  1
  Th  Th4  1  0.86917300  0.13082700  0.69191300  1
  Th  Th5  1  0.13082700  0.86917300  0.19191300  1
  Si  Si6  1  0.85880100  0.14119900  0.96211600  1
  Si  Si7  1  0.14119900  0.85880100  0.46211600  1
  Si  Si8  1  0.47806300  0.11123300  0.61795000  1
  Si  Si9  1  0.88876700  0.52193700  0.61795000  1
  Si  Si10  1  0.52193700  0.88876700  0.11795000  1
  Si  Si11  1  0.11123300  0.47806300  0.11795000  1
  Si  Si12  1  0.95294300  0.04705700  0.43705600  1
  Si  Si13  1  0.04705700  0.95294300  0.93705600  1
  Si  Si14  1  0.75803500  0.67185600  0.76791700  1
  Si  Si15  1  0.32814400  0.24196500  0.76791700  1
  Si  Si16  1  0.24196500  0.32814400  0.26791700  1
  Si  Si17  1  0.67185600  0.75803500  0.26791700  1
  O  O18  1  0.55414700  0.00969200  0.66176700  1
  O  O19  1  0.99030800  0.44585300  0.66176700  1
  O  O20  1  0.44585300  0.99030800  0.16176700  1
  O  O21  1  0.00969200  0.55414700  0.16176700  1
  O  O22  1  0.72404200  0.80901800  0.72347100  1
  O  O23  1  0.19098200  0.27595800  0.72347100  1
  O  O24  1  0.27595800  0.19098200  0.22347100  1
  O  O25  1  0.80901800  0.72404200  0.22347100  1
  O  O26  1  0.89204800  0.10795200  0.52659300  1
  O  O27  1  0.10795200  0.89204800  0.02659300  1
  O  O28  1  0.83073900  0.16926100  0.85104800  1
  O  O29  1  0.16926100  0.83073900  0.35104800  1
  O  O30  1  0.34295000  0.10962200  0.69618100  1
  O  O31  1  0.89037800  0.65705000  0.69618100  1
  O  O32  1  0.65705000  0.89037800  0.19618100  1
  O  O33  1  0.10962200  0.34295000  0.19618100  1
  O  O34  1  0.65976900  0.34023100  0.58314800  1
  O  O35  1  0.34023100  0.65976900  0.08314800  1
  O  O36  1  0.35502700  0.00127300  0.51735800  1
  O  O37  1  0.99872700  0.64497300  0.51735800  1
  O  O38  1  0.64497300  0.99872700  0.01735800  1
  O  O39  1  0.00127300  0.35502700  0.01735800  1
  O  O40  1  0.75561900  0.87924600  0.37151200  1
  O  O41  1  0.12075400  0.24438100  0.37151200  1
  O  O42  1  0.24438100  0.12075400  0.87151200  1
  O  O43  1  0.87924600  0.75561900  0.87151200  1
  O  O44  1  0.04472300  0.95527700  0.47500500  1
  O  O45  1  0.95527700  0.04472300  0.97500500  1
  O  O46  1  0.55206600  0.44793400  0.79516100  1
  O  O47  1  0.44793400  0.55206600  0.29516100  1
