# generated using pymatgen
data_YbMgCu4
_symmetry_space_group_name_H-M   'P 1'
_cell_length_a   5.06550085
_cell_length_b   5.06550085
_cell_length_c   5.06550085
_cell_angle_alpha   60.00000000
_cell_angle_beta   60.00000000
_cell_angle_gamma   60.00000000
_symmetry_Int_Tables_number   1
_chemical_formula_structural   YbMgCu4
_chemical_formula_sum   'Yb1 Mg1 Cu4'
_cell_volume   91.90775957
_cell_formula_units_Z   1
loop_
 _symmetry_equiv_pos_site_id
 _symmetry_equiv_pos_as_xyz
  1  'x, y, z'
loop_
 _atom_site_type_symbol
 _atom_site_label
 _atom_site_symmetry_multiplicity
 _atom_site_fract_x
 _atom_site_fract_y
 _atom_site_fract_z
 _atom_site_occupancy
  Yb  Yb0  1  0.25000000  0.25000000  0.25000000  1
  Mg  Mg1  1  0.00000000  0.00000000  0.00000000  1
  Cu  Cu2  1  0.62530500  0.62530500  0.62530500  1
  Cu  Cu3  1  0.62530500  0.62530500  0.12408400  1
  Cu  Cu4  1  0.62530500  0.12408400  0.62530500  1
  Cu  Cu5  1  0.12408400  0.62530500  0.62530500  1
