# generated using pymatgen
data_Th2Si3Pt
_symmetry_space_group_name_H-M   'P 1'
_cell_length_a   7.67528305
_cell_length_b   7.67528305
_cell_length_c   7.67528305
_cell_angle_alpha   148.20218185
_cell_angle_beta   147.92604288
_cell_angle_gamma   45.79112587
_symmetry_Int_Tables_number   1
_chemical_formula_structural   Th2Si3Pt
_chemical_formula_sum   'Th2 Si3 Pt1'
_cell_volume   126.08856997
_cell_formula_units_Z   1
loop_
 _symmetry_equiv_pos_site_id
 _symmetry_equiv_pos_as_xyz
  1  'x, y, z'
loop_
 _atom_site_type_symbol
 _atom_site_label
 _atom_site_symmetry_multiplicity
 _atom_site_fract_x
 _atom_site_fract_y
 _atom_site_fract_z
 _atom_site_occupancy
  Th  Th0  1  0.74602500  0.24602500  0.50000000  1
  Th  Th1  1  0.00092600  0.00092600  0.00000000  1
  Si  Si2  1  0.41746400  0.41746400  0.00000000  1
  Si  Si3  1  0.16559700  0.66559700  0.50000000  1
  Si  Si4  1  0.58571400  0.58571400  0.00000000  1
  Pt  Pt5  1  0.33427400  0.83427400  0.50000000  1
