# generated using pymatgen
data_K(FeSb3)4
_symmetry_space_group_name_H-M   'P 1'
_cell_length_a   8.00280566
_cell_length_b   8.00280566
_cell_length_c   8.00280566
_cell_angle_alpha   109.47122063
_cell_angle_beta   109.47122063
_cell_angle_gamma   109.47122063
_symmetry_Int_Tables_number   1
_chemical_formula_structural   K(FeSb3)4
_chemical_formula_sum   'K1 Fe4 Sb12'
_cell_volume   394.55260991
_cell_formula_units_Z   1
loop_
 _symmetry_equiv_pos_site_id
 _symmetry_equiv_pos_as_xyz
  1  'x, y, z'
loop_
 _atom_site_type_symbol
 _atom_site_label
 _atom_site_symmetry_multiplicity
 _atom_site_fract_x
 _atom_site_fract_y
 _atom_site_fract_z
 _atom_site_occupancy
  K  K0  1  0.00000000  0.00000000  0.00000000  1
  Fe  Fe1  1  0.50000000  0.50000000  0.50000000  1
  Fe  Fe2  1  0.50000000  0.00000000  0.00000000  1
  Fe  Fe3  1  0.00000000  0.50000000  0.00000000  1
  Fe  Fe4  1  0.00000000  0.00000000  0.50000000  1
  Sb  Sb5  1  0.83836900  0.66322500  0.50159400  1
  Sb  Sb6  1  0.16163100  0.33677500  0.49840600  1
  Sb  Sb7  1  0.16163100  0.66322500  0.82485700  1
  Sb  Sb8  1  0.83836900  0.33677500  0.17514300  1
  Sb  Sb9  1  0.66322500  0.50159400  0.83836900  1
  Sb  Sb10  1  0.33677500  0.49840600  0.16163100  1
  Sb  Sb11  1  0.66322500  0.82485700  0.16163100  1
  Sb  Sb12  1  0.33677500  0.17514300  0.83836900  1
  Sb  Sb13  1  0.50159400  0.83836900  0.66322500  1
  Sb  Sb14  1  0.49840600  0.16163100  0.33677500  1
  Sb  Sb15  1  0.17514300  0.83836900  0.33677500  1
  Sb  Sb16  1  0.82485700  0.16163100  0.66322500  1
