# generated using pymatgen
data_Nd3Si11Pt23
_symmetry_space_group_name_H-M   'P 1'
_cell_length_a   12.05783939
_cell_length_b   12.05783939
_cell_length_c   12.05783939
_cell_angle_alpha   60.00000000
_cell_angle_beta   60.00000000
_cell_angle_gamma   60.00000000
_symmetry_Int_Tables_number   1
_chemical_formula_structural   Nd3Si11Pt23
_chemical_formula_sum   'Nd6 Si22 Pt46'
_cell_volume   1239.63402090
_cell_formula_units_Z   2
loop_
 _symmetry_equiv_pos_site_id
 _symmetry_equiv_pos_as_xyz
  1  'x, y, z'
loop_
 _atom_site_type_symbol
 _atom_site_label
 _atom_site_symmetry_multiplicity
 _atom_site_fract_x
 _atom_site_fract_y
 _atom_site_fract_z
 _atom_site_occupancy
  Nd  Nd0  1  0.00000000  0.00000000  0.50000000  1
  Nd  Nd1  1  0.50000000  0.00000000  0.50000000  1
  Nd  Nd2  1  0.00000000  0.50000000  0.50000000  1
  Nd  Nd3  1  0.50000000  0.50000000  0.00000000  1
  Nd  Nd4  1  0.00000000  0.50000000  0.00000000  1
  Nd  Nd5  1  0.50000000  0.00000000  0.00000000  1
  Si  Si6  1  0.82856100  0.82856100  0.17143900  1
  Si  Si7  1  0.17143900  0.82856100  0.17143900  1
  Si  Si8  1  0.82856100  0.17143900  0.17143900  1
  Si  Si9  1  0.17143900  0.17143900  0.82856100  1
  Si  Si10  1  0.82856100  0.17143900  0.82856100  1
  Si  Si11  1  0.17143900  0.82856100  0.82856100  1
  Si  Si12  1  0.83488000  0.83488000  0.49535900  1
  Si  Si13  1  0.83488000  0.49535900  0.83488000  1
  Si  Si14  1  0.49535900  0.83488000  0.83488000  1
  Si  Si15  1  0.83488000  0.83488000  0.83488000  1
  Si  Si16  1  0.16512000  0.16512000  0.50464100  1
  Si  Si17  1  0.16512000  0.50464100  0.16512000  1
  Si  Si18  1  0.50464100  0.16512000  0.16512000  1
  Si  Si19  1  0.16512000  0.16512000  0.16512000  1
  Si  Si20  1  0.60664400  0.60664400  0.18006900  1
  Si  Si21  1  0.60664400  0.18006900  0.60664400  1
  Si  Si22  1  0.18006900  0.60664400  0.60664400  1
  Si  Si23  1  0.60664400  0.60664400  0.60664400  1
  Si  Si24  1  0.39335600  0.39335600  0.81993100  1
  Si  Si25  1  0.39335600  0.81993100  0.39335600  1
  Si  Si26  1  0.81993100  0.39335600  0.39335600  1
  Si  Si27  1  0.39335600  0.39335600  0.39335600  1
  Pt  Pt28  1  0.91737200  0.91737200  0.24788300  1
  Pt  Pt29  1  0.91737200  0.24788300  0.91737200  1
  Pt  Pt30  1  0.24788300  0.91737200  0.91737200  1
  Pt  Pt31  1  0.91737200  0.91737200  0.91737200  1
  Pt  Pt32  1  0.08262800  0.08262800  0.75211700  1
  Pt  Pt33  1  0.08262800  0.75211700  0.08262800  1
  Pt  Pt34  1  0.75211700  0.08262800  0.08262800  1
  Pt  Pt35  1  0.08262800  0.08262800  0.08262800  1
  Pt  Pt36  1  0.69177200  0.69177200  0.92468300  1
  Pt  Pt37  1  0.69177200  0.92468300  0.69177200  1
  Pt  Pt38  1  0.92468300  0.69177200  0.69177200  1
  Pt  Pt39  1  0.69177200  0.69177200  0.69177200  1
  Pt  Pt40  1  0.30822800  0.30822800  0.07531700  1
  Pt  Pt41  1  0.30822800  0.07531700  0.30822800  1
  Pt  Pt42  1  0.07531700  0.30822800  0.30822800  1
  Pt  Pt43  1  0.30822800  0.30822800  0.30822800  1
  Pt  Pt44  1  0.62535700  0.62535700  0.37464300  1
  Pt  Pt45  1  0.37464300  0.62535700  0.37464300  1
  Pt  Pt46  1  0.62535700  0.37464300  0.37464300  1
  Pt  Pt47  1  0.37464300  0.37464300  0.62535700  1
  Pt  Pt48  1  0.62535700  0.37464300  0.62535700  1
  Pt  Pt49  1  0.37464300  0.62535700  0.62535700  1
  Pt  Pt50  1  0.74812500  0.08292900  0.42082200  1
  Pt  Pt51  1  0.74812500  0.74812500  0.42082200  1
  Pt  Pt52  1  0.08292900  0.74812500  0.42082200  1
  Pt  Pt53  1  0.74812500  0.42082200  0.08292900  1
  Pt  Pt54  1  0.08292900  0.42082200  0.74812500  1
  Pt  Pt55  1  0.74812500  0.42082200  0.74812500  1
  Pt  Pt56  1  0.42082200  0.74812500  0.74812500  1
  Pt  Pt57  1  0.42082200  0.08292900  0.74812500  1
  Pt  Pt58  1  0.42082200  0.74812500  0.08292900  1
  Pt  Pt59  1  0.08292900  0.74812500  0.74812500  1
  Pt  Pt60  1  0.74812500  0.74812500  0.08292900  1
  Pt  Pt61  1  0.74812500  0.08292900  0.74812500  1
  Pt  Pt62  1  0.25187500  0.91707100  0.57917800  1
  Pt  Pt63  1  0.25187500  0.25187500  0.57917800  1
  Pt  Pt64  1  0.91707100  0.25187500  0.57917800  1
  Pt  Pt65  1  0.25187500  0.57917800  0.91707100  1
  Pt  Pt66  1  0.91707100  0.57917800  0.25187500  1
  Pt  Pt67  1  0.25187500  0.57917800  0.25187500  1
  Pt  Pt68  1  0.57917800  0.25187500  0.25187500  1
  Pt  Pt69  1  0.57917800  0.91707100  0.25187500  1
  Pt  Pt70  1  0.57917800  0.25187500  0.91707100  1
  Pt  Pt71  1  0.91707100  0.25187500  0.25187500  1
  Pt  Pt72  1  0.25187500  0.25187500  0.91707100  1
  Pt  Pt73  1  0.25187500  0.91707100  0.25187500  1
