# generated using pymatgen
data_CsGd(MoO4)2
_symmetry_space_group_name_H-M   'P 1'
_cell_length_a   5.10864800
_cell_length_b   8.37365800
_cell_length_c   9.67950000
_cell_angle_alpha   90.00000000
_cell_angle_beta   90.00000000
_cell_angle_gamma   90.00000000
_symmetry_Int_Tables_number   1
_chemical_formula_structural   CsGd(MoO4)2
_chemical_formula_sum   'Cs2 Gd2 Mo4 O16'
_cell_volume   414.07034013
_cell_formula_units_Z   2
loop_
 _symmetry_equiv_pos_site_id
 _symmetry_equiv_pos_as_xyz
  1  'x, y, z'
loop_
 _atom_site_type_symbol
 _atom_site_label
 _atom_site_symmetry_multiplicity
 _atom_site_fract_x
 _atom_site_fract_y
 _atom_site_fract_z
 _atom_site_occupancy
  Cs  Cs0  1  0.00000000  0.25000000  0.50000000  1
  Cs  Cs1  1  0.00000000  0.75000000  0.50000000  1
  Gd  Gd2  1  0.00000000  0.25000000  0.00000000  1
  Gd  Gd3  1  0.00000000  0.75000000  0.00000000  1
  Mo  Mo4  1  0.52185000  0.00000000  0.19686600  1
  Mo  Mo5  1  0.47815000  0.00000000  0.80313400  1
  Mo  Mo6  1  0.47815000  0.50000000  0.19686600  1
  Mo  Mo7  1  0.52185000  0.50000000  0.80313400  1
  O  O8  1  0.24976100  0.00000000  0.06882900  1
  O  O9  1  0.75023900  0.00000000  0.93117100  1
  O  O10  1  0.75023900  0.50000000  0.06882900  1
  O  O11  1  0.24976100  0.50000000  0.93117100  1
  O  O12  1  0.26227800  0.32892200  0.18671800  1
  O  O13  1  0.73772200  0.67107800  0.81328200  1
  O  O14  1  0.73772200  0.32892200  0.81328200  1
  O  O15  1  0.73772200  0.17107800  0.18671800  1
  O  O16  1  0.26227800  0.67107800  0.18671800  1
  O  O17  1  0.26227800  0.82892200  0.81328200  1
  O  O18  1  0.26227800  0.17107800  0.81328200  1
  O  O19  1  0.73772200  0.82892200  0.18671800  1
  O  O20  1  0.37923500  0.00000000  0.36180600  1
  O  O21  1  0.62076500  0.00000000  0.63819400  1
  O  O22  1  0.62076500  0.50000000  0.36180600  1
  O  O23  1  0.37923500  0.50000000  0.63819400  1
