# generated using pymatgen
data_K3AlF6
_symmetry_space_group_name_H-M   'P 1'
_cell_length_a   8.73553400
_cell_length_b   10.52726888
_cell_length_c   10.52726888
_cell_angle_alpha   80.08760213
_cell_angle_beta   65.48696203
_cell_angle_gamma   65.48696203
_symmetry_Int_Tables_number   1
_chemical_formula_structural   K3AlF6
_chemical_formula_sum   'K15 Al5 F30'
_cell_volume   801.45031473
_cell_formula_units_Z   5
loop_
 _symmetry_equiv_pos_site_id
 _symmetry_equiv_pos_as_xyz
  1  'x, y, z'
loop_
 _atom_site_type_symbol
 _atom_site_label
 _atom_site_symmetry_multiplicity
 _atom_site_fract_x
 _atom_site_fract_y
 _atom_site_fract_z
 _atom_site_occupancy
  K  K0  1  0.25000000  0.50000000  0.50000000  1
  K  K1  1  0.75000000  0.50000000  0.50000000  1
  K  K2  1  0.51620100  0.31767200  0.10427800  1
  K  K3  1  0.93815200  0.68232800  0.89572200  1
  K  K4  1  0.83387400  0.10427800  0.68232800  1
  K  K5  1  0.62047900  0.89572200  0.31767200  1
  K  K6  1  0.48379900  0.68232800  0.89572200  1
  K  K7  1  0.06184800  0.31767200  0.10427800  1
  K  K8  1  0.16612600  0.89572200  0.31767200  1
  K  K9  1  0.37952100  0.10427800  0.68232800  1
  K  K10  1  0.50000000  0.00000000  0.00000000  1
  K  K11  1  0.08595200  0.64574500  0.18235100  1
  K  K12  1  0.91404800  0.35425500  0.81764900  1
  K  K13  1  0.73169700  0.18235100  0.35425500  1
  K  K14  1  0.26830300  0.81764900  0.64574500  1
  Al  Al15  1  0.00000000  0.00000000  0.00000000  1
  Al  Al16  1  0.59373100  0.60508700  0.20745100  1
  Al  Al17  1  0.40626900  0.39491300  0.79254900  1
  Al  Al18  1  0.19881800  0.20745100  0.39491300  1
  Al  Al19  1  0.80118200  0.79254900  0.60508700  1
  F  F20  1  0.87925900  0.18621400  0.05526800  1
  F  F21  1  0.12074100  0.81378600  0.94473200  1
  F  F22  1  0.06547300  0.05526800  0.81378600  1
  F  F23  1  0.93452700  0.94473200  0.18621400  1
  F  F24  1  0.79127600  0.00000000  0.00000000  1
  F  F25  1  0.20872400  0.00000000  0.00000000  1
  F  F26  1  0.54986800  0.77628600  0.12397900  1
  F  F27  1  0.45013200  0.22371400  0.87602100  1
  F  F28  1  0.32615300  0.12397900  0.22371400  1
  F  F29  1  0.67384700  0.87602100  0.77628600  1
  F  F30  1  0.46376800  0.69242000  0.38004500  1
  F  F31  1  0.53623200  0.30758000  0.61995500  1
  F  F32  1  0.15618700  0.38004500  0.30758000  1
  F  F33  1  0.84381300  0.61995500  0.69242000  1
  F  F34  1  0.63600300  0.43656800  0.29142600  1
  F  F35  1  0.36399700  0.56343200  0.70857400  1
  F  F36  1  0.07257100  0.29142600  0.56343200  1
  F  F37  1  0.92742900  0.70857400  0.43656800  1
  F  F38  1  0.72276400  0.52266600  0.03180700  1
  F  F39  1  0.27723600  0.47733400  0.96819300  1
  F  F40  1  0.24542900  0.03180700  0.47733400  1
  F  F41  1  0.75457100  0.96819300  0.52266600  1
  F  F42  1  0.38242600  0.60746100  0.20427400  1
  F  F43  1  0.19416200  0.39253900  0.79572600  1
  F  F44  1  0.98988800  0.20427400  0.39253900  1
  F  F45  1  0.58670000  0.79572600  0.60746100  1
  F  F46  1  0.61757400  0.39253900  0.79572600  1
  F  F47  1  0.80583800  0.60746100  0.20427400  1
  F  F48  1  0.01011200  0.79572600  0.60746100  1
  F  F49  1  0.41330000  0.20427400  0.39253900  1
