# generated using pymatgen
data_Li2CaHfF8
_symmetry_space_group_name_H-M   'P 1'
_cell_length_a   6.44552797
_cell_length_b   6.44552797
_cell_length_c   6.44552797
_cell_angle_alpha   132.64765480
_cell_angle_beta   132.64765480
_cell_angle_gamma   69.20802997
_symmetry_Int_Tables_number   1
_chemical_formula_structural   Li2CaHfF8
_chemical_formula_sum   'Li2 Ca1 Hf1 F8'
_cell_volume   142.16811318
_cell_formula_units_Z   1
loop_
 _symmetry_equiv_pos_site_id
 _symmetry_equiv_pos_as_xyz
  1  'x, y, z'
loop_
 _atom_site_type_symbol
 _atom_site_label
 _atom_site_symmetry_multiplicity
 _atom_site_fract_x
 _atom_site_fract_y
 _atom_site_fract_z
 _atom_site_occupancy
  Li  Li0  1  0.75000000  0.25000000  0.50000000  1
  Li  Li1  1  0.00000000  0.00000000  0.00000000  1
  Ca  Ca2  1  0.50000000  0.50000000  0.00000000  1
  Hf  Hf3  1  0.25000000  0.75000000  0.50000000  1
  F  F4  1  0.49094800  0.46725100  0.59785500  1
  F  F5  1  0.23714500  0.79869000  0.85704200  1
  F  F6  1  0.53274900  0.13060400  0.02369800  1
  F  F7  1  0.10690700  0.50905200  0.97630200  1
  F  F8  1  0.86939600  0.89309300  0.40214500  1
  F  F9  1  0.20131000  0.05835200  0.43845500  1
  F  F10  1  0.94164800  0.38010300  0.14295800  1
  F  F11  1  0.61989700  0.76285500  0.56154500  1
