# generated using pymatgen
data_YZrF7
_symmetry_space_group_name_H-M   'P 1'
_cell_length_a   5.74196500
_cell_length_b   6.14860447
_cell_length_c   8.33904423
_cell_angle_alpha   102.03215530
_cell_angle_beta   90.00000000
_cell_angle_gamma   90.00000000
_symmetry_Int_Tables_number   1
_chemical_formula_structural   YZrF7
_chemical_formula_sum   'Y2 Zr2 F14'
_cell_volume   287.94257887
_cell_formula_units_Z   2
loop_
 _symmetry_equiv_pos_site_id
 _symmetry_equiv_pos_as_xyz
  1  'x, y, z'
loop_
 _atom_site_type_symbol
 _atom_site_label
 _atom_site_symmetry_multiplicity
 _atom_site_fract_x
 _atom_site_fract_y
 _atom_site_fract_z
 _atom_site_occupancy
  Y  Y0  1  0.69696300  0.65497700  0.68355400  1
  Y  Y1  1  0.19696300  0.34502300  0.31644600  1
  Zr  Zr2  1  0.70692500  0.81162200  0.22385700  1
  Zr  Zr3  1  0.20692500  0.18837800  0.77614300  1
  F  F4  1  0.89011100  0.45512300  0.47788400  1
  F  F5  1  0.39011100  0.54487700  0.52211600  1
  F  F6  1  0.42697500  0.92508500  0.76882500  1
  F  F7  1  0.92697500  0.07491500  0.23117500  1
  F  F8  1  0.94485700  0.95795800  0.75950700  1
  F  F9  1  0.44485700  0.04204200  0.24049300  1
  F  F10  1  0.99445400  0.45744000  0.78673400  1
  F  F11  1  0.49445400  0.54256000  0.21326600  1
  F  F12  1  0.70313500  0.75449300  0.97475900  1
  F  F13  1  0.20313500  0.24550700  0.02524100  1
  F  F14  1  0.71000900  0.86049200  0.47308900  1
  F  F15  1  0.21000900  0.13950800  0.52691100  1
  F  F16  1  0.50293100  0.37892300  0.78157500  1
  F  F17  1  0.00293100  0.62107700  0.21842500  1
