# generated using pymatgen
data_NaAl6Sb7(TeCl3)8
_symmetry_space_group_name_H-M   'P 1'
_cell_length_a   11.96074300
_cell_length_b   12.51187380
_cell_length_c   12.74829443
_cell_angle_alpha   112.13428039
_cell_angle_beta   111.99375119
_cell_angle_gamma   101.09916678
_symmetry_Int_Tables_number   1
_chemical_formula_structural   NaAl6Sb7(TeCl3)8
_chemical_formula_sum   'Na1 Al6 Sb7 Te8 Cl24'
_cell_volume   1509.93158952
_cell_formula_units_Z   1
loop_
 _symmetry_equiv_pos_site_id
 _symmetry_equiv_pos_as_xyz
  1  'x, y, z'
loop_
 _atom_site_type_symbol
 _atom_site_label
 _atom_site_symmetry_multiplicity
 _atom_site_fract_x
 _atom_site_fract_y
 _atom_site_fract_z
 _atom_site_occupancy
  Na  Na0  1  0.48002700  0.03110600  0.46985000  1
  Al  Al1  1  0.11739800  0.83363700  0.26008900  1
  Al  Al2  1  0.88056700  0.16370200  0.74034100  1
  Al  Al3  1  0.57972900  0.79004000  0.88193900  1
  Al  Al4  1  0.41987200  0.21020300  0.11789200  1
  Al  Al5  1  0.46739000  0.29417800  0.71699900  1
  Al  Al6  1  0.53212000  0.70550200  0.28488300  1
  Sb  Sb7  1  0.14621900  0.45993700  0.24594300  1
  Sb  Sb8  1  0.85429500  0.54072600  0.75388800  1
  Sb  Sb9  1  0.14548200  0.23112200  0.40897300  1
  Sb  Sb10  1  0.85200600  0.76986000  0.58951600  1
  Sb  Sb11  1  0.99990600  0.50044700  0.50013300  1
  Sb  Sb12  1  0.79118100  0.19913600  0.13528800  1
  Sb  Sb13  1  0.20846500  0.80014100  0.86346400  1
  Te  Te14  1  0.03506600  0.19157100  0.13924300  1
  Te  Te15  1  0.96466800  0.80858200  0.85985700  1
  Te  Te16  1  0.89795000  0.46607700  0.22459100  1
  Te  Te17  1  0.10227700  0.53374600  0.77553400  1
  Te  Te18  1  0.25923900  0.49660700  0.50817500  1
  Te  Te19  1  0.74108800  0.50416100  0.49165700  1
  Te  Te20  1  0.88999300  0.21563200  0.38769500  1
  Te  Te21  1  0.10877800  0.78413500  0.61137400  1
  Cl  Cl22  1  0.47962600  0.89509600  0.81110600  1
  Cl  Cl23  1  0.51965000  0.10527600  0.19007100  1
  Cl  Cl24  1  0.28885400  0.32272600  0.70523500  1
  Cl  Cl25  1  0.71186100  0.67842100  0.29549200  1
  Cl  Cl26  1  0.25186100  0.78443700  0.38581500  1
  Cl  Cl27  1  0.75050900  0.21763300  0.61447300  1
  Cl  Cl28  1  0.76596600  0.91797100  0.05869400  1
  Cl  Cl29  1  0.23399300  0.08211600  0.94130500  1
  Cl  Cl30  1  0.46863900  0.29155300  0.54490400  1
  Cl  Cl31  1  0.53238900  0.70366300  0.45434700  1
  Cl  Cl32  1  0.62474800  0.67285800  0.74046200  1
  Cl  Cl33  1  0.37521100  0.32665700  0.25996400  1
  Cl  Cl34  1  0.44382100  0.10774500  0.68675700  1
  Cl  Cl35  1  0.55798000  0.88983900  0.30629400  1
  Cl  Cl36  1  0.45390800  0.67837500  0.91710000  1
  Cl  Cl37  1  0.54621900  0.32131100  0.08285000  1
  Cl  Cl38  1  0.98593500  0.66314300  0.07755800  1
  Cl  Cl39  1  0.01302900  0.33712900  0.92065800  1
  Cl  Cl40  1  0.23259200  0.96589400  0.23226700  1
  Cl  Cl41  1  0.77247500  0.03467200  0.77412700  1
  Cl  Cl42  1  0.64260600  0.43481300  0.88835900  1
  Cl  Cl43  1  0.35739900  0.56597900  0.11175700  1
  Cl  Cl44  1  0.01913800  0.92340000  0.35425100  1
  Cl  Cl45  1  0.97987600  0.07704500  0.64483000  1
