# generated using pymatgen
data_La2NCl3
_symmetry_space_group_name_H-M   'P 1'
_cell_length_a   8.37418182
_cell_length_b   8.37418182
_cell_length_c   8.37418182
_cell_angle_alpha   136.43626434
_cell_angle_beta   130.69405703
_cell_angle_gamma   67.87503338
_symmetry_Int_Tables_number   1
_chemical_formula_structural   La2NCl3
_chemical_formula_sum   'La4 N2 Cl6'
_cell_volume   301.64993943
_cell_formula_units_Z   2
loop_
 _symmetry_equiv_pos_site_id
 _symmetry_equiv_pos_as_xyz
  1  'x, y, z'
loop_
 _atom_site_type_symbol
 _atom_site_label
 _atom_site_symmetry_multiplicity
 _atom_site_fract_x
 _atom_site_fract_y
 _atom_site_fract_z
 _atom_site_occupancy
  La  La0  1  0.91721800  0.59349600  0.32372200  1
  La  La1  1  0.08278200  0.40650400  0.67627800  1
  La  La2  1  0.73022600  0.90650400  0.82372200  1
  La  La3  1  0.26977400  0.09349600  0.17627800  1
  N  N4  1  0.00000000  0.25000000  0.25000000  1
  N  N5  1  0.00000000  0.75000000  0.75000000  1
  Cl  Cl6  1  0.50000000  0.25000000  0.75000000  1
  Cl  Cl7  1  0.50000000  0.75000000  0.25000000  1
  Cl  Cl8  1  0.98808400  0.80170700  0.18637700  1
  Cl  Cl9  1  0.01191600  0.19829300  0.81362300  1
  Cl  Cl10  1  0.38467000  0.69829300  0.68637700  1
  Cl  Cl11  1  0.61533000  0.30170700  0.31362300  1
