# generated using pymatgen
data_SmAlZn
_symmetry_space_group_name_H-M   'P 1'
_cell_length_a   5.73995202
_cell_length_b   5.73995202
_cell_length_c   7.37781624
_cell_angle_alpha   51.12906646
_cell_angle_beta   51.12906646
_cell_angle_gamma   46.83098152
_symmetry_Int_Tables_number   1
_chemical_formula_structural   SmAlZn
_chemical_formula_sum   'Sm2 Al2 Zn2'
_cell_volume   129.34526741
_cell_formula_units_Z   2
loop_
 _symmetry_equiv_pos_site_id
 _symmetry_equiv_pos_as_xyz
  1  'x, y, z'
loop_
 _atom_site_type_symbol
 _atom_site_label
 _atom_site_symmetry_multiplicity
 _atom_site_fract_x
 _atom_site_fract_y
 _atom_site_fract_z
 _atom_site_occupancy
  Sm  Sm0  1  0.53480300  0.53480300  0.21207700  1
  Sm  Sm1  1  0.46519700  0.46519700  0.78792300  1
  Al  Al2  1  0.16342600  0.16342600  0.38856000  1
  Al  Al3  1  0.83657400  0.83657400  0.61144000  1
  Zn  Zn4  1  0.83677500  0.83677500  0.21542800  1
  Zn  Zn5  1  0.16322500  0.16322500  0.78457200  1
