# generated using pymatgen
data_Yb5Pt2
_symmetry_space_group_name_H-M   'P 1'
_cell_length_a   8.65072326
_cell_length_b   8.65072326
_cell_length_c   7.57975923
_cell_angle_alpha   82.90297957
_cell_angle_beta   82.90297957
_cell_angle_gamma   44.04283543
_symmetry_Int_Tables_number   1
_chemical_formula_structural   Yb5Pt2
_chemical_formula_sum   'Yb10 Pt4'
_cell_volume   390.81923402
_cell_formula_units_Z   2
loop_
 _symmetry_equiv_pos_site_id
 _symmetry_equiv_pos_as_xyz
  1  'x, y, z'
loop_
 _atom_site_type_symbol
 _atom_site_label
 _atom_site_symmetry_multiplicity
 _atom_site_fract_x
 _atom_site_fract_y
 _atom_site_fract_z
 _atom_site_occupancy
  Yb  Yb0  1  0.02431400  0.79681100  0.91984600  1
  Yb  Yb1  1  0.20318900  0.97568600  0.58015400  1
  Yb  Yb2  1  0.97568600  0.20318900  0.08015400  1
  Yb  Yb3  1  0.79681100  0.02431400  0.41984600  1
  Yb  Yb4  1  0.36529700  0.20049600  0.82122600  1
  Yb  Yb5  1  0.79950400  0.63470300  0.67877400  1
  Yb  Yb6  1  0.63470300  0.79950400  0.17877400  1
  Yb  Yb7  1  0.20049600  0.36529700  0.32122600  1
  Yb  Yb8  1  0.57667900  0.42332100  0.75000000  1
  Yb  Yb9  1  0.42332100  0.57667900  0.25000000  1
  Pt  Pt10  1  0.18062500  0.59869000  0.58243900  1
  Pt  Pt11  1  0.40131000  0.81937500  0.91756100  1
  Pt  Pt12  1  0.81937500  0.40131000  0.41756100  1
  Pt  Pt13  1  0.59869000  0.18062500  0.08243900  1
