# generated using pymatgen
data_EuRhO3
_symmetry_space_group_name_H-M   'P 1'
_cell_length_a   5.41266700
_cell_length_b   5.83691700
_cell_length_c   7.81814500
_cell_angle_alpha   90.00000000
_cell_angle_beta   90.00000000
_cell_angle_gamma   90.00000000
_symmetry_Int_Tables_number   1
_chemical_formula_structural   EuRhO3
_chemical_formula_sum   'Eu4 Rh4 O12'
_cell_volume   247.00090683
_cell_formula_units_Z   4
loop_
 _symmetry_equiv_pos_site_id
 _symmetry_equiv_pos_as_xyz
  1  'x, y, z'
loop_
 _atom_site_type_symbol
 _atom_site_label
 _atom_site_symmetry_multiplicity
 _atom_site_fract_x
 _atom_site_fract_y
 _atom_site_fract_z
 _atom_site_occupancy
  Eu  Eu0  1  0.02482600  0.07533800  0.75000000  1
  Eu  Eu1  1  0.97517400  0.92466200  0.25000000  1
  Eu  Eu2  1  0.52482600  0.42466200  0.25000000  1
  Eu  Eu3  1  0.47517400  0.57533800  0.75000000  1
  Rh  Rh4  1  0.50000000  0.00000000  0.50000000  1
  Rh  Rh5  1  0.00000000  0.50000000  0.00000000  1
  Rh  Rh6  1  0.00000000  0.50000000  0.50000000  1
  Rh  Rh7  1  0.50000000  0.00000000  0.00000000  1
  O  O8  1  0.18672700  0.80381100  0.55317500  1
  O  O9  1  0.88937000  0.46427100  0.75000000  1
  O  O10  1  0.38937000  0.03572900  0.25000000  1
  O  O11  1  0.68672700  0.69618900  0.44682500  1
  O  O12  1  0.81327300  0.19618900  0.05317500  1
  O  O13  1  0.31327300  0.30381100  0.94682500  1
  O  O14  1  0.61063000  0.96427100  0.75000000  1
  O  O15  1  0.31327300  0.30381100  0.55317500  1
  O  O16  1  0.11063000  0.53572900  0.25000000  1
  O  O17  1  0.81327300  0.19618900  0.44682500  1
  O  O18  1  0.18672700  0.80381100  0.94682500  1
  O  O19  1  0.68672700  0.69618900  0.05317500  1
