# generated using pymatgen
data_CeZn4Ni
_symmetry_space_group_name_H-M   'P 1'
_cell_length_a   4.30260000
_cell_length_b   5.19826000
_cell_length_c   5.19705278
_cell_angle_alpha   59.99456020
_cell_angle_beta   90.00000000
_cell_angle_gamma   90.00000000
_symmetry_Int_Tables_number   1
_chemical_formula_structural   CeZn4Ni
_chemical_formula_sum   'Ce1 Zn4 Ni1'
_cell_volume   100.65907170
_cell_formula_units_Z   1
loop_
 _symmetry_equiv_pos_site_id
 _symmetry_equiv_pos_as_xyz
  1  'x, y, z'
loop_
 _atom_site_type_symbol
 _atom_site_label
 _atom_site_symmetry_multiplicity
 _atom_site_fract_x
 _atom_site_fract_y
 _atom_site_fract_z
 _atom_site_occupancy
  Ce  Ce0  1  0.00000000  0.99998700  0.00000900  1
  Zn  Zn1  1  0.00000000  0.66659700  0.66672500  1
  Zn  Zn2  1  0.50000000  0.49592200  0.49592300  1
  Zn  Zn3  1  0.50000000  0.49591400  0.00816600  1
  Zn  Zn4  1  0.50000000  0.00814600  0.49592500  1
  Ni  Ni5  1  0.00000000  0.33333400  0.33335200  1
