# generated using pymatgen
data_Rb4Sn21Hg2
_symmetry_space_group_name_H-M   'P 1'
_cell_length_a   12.47948647
_cell_length_b   12.47948647
_cell_length_c   12.48460000
_cell_angle_alpha   90.00000000
_cell_angle_beta   90.00000000
_cell_angle_gamma   90.00585013
_symmetry_Int_Tables_number   1
_chemical_formula_structural   Rb4Sn21Hg2
_chemical_formula_sum   'Rb8 Sn42 Hg4'
_cell_volume   1944.32141428
_cell_formula_units_Z   2
loop_
 _symmetry_equiv_pos_site_id
 _symmetry_equiv_pos_as_xyz
  1  'x, y, z'
loop_
 _atom_site_type_symbol
 _atom_site_label
 _atom_site_symmetry_multiplicity
 _atom_site_fract_x
 _atom_site_fract_y
 _atom_site_fract_z
 _atom_site_occupancy
  Rb  Rb0  1  0.49976000  0.99968700  0.25000000  1
  Rb  Rb1  1  0.00031300  0.50024000  0.75000000  1
  Rb  Rb2  1  0.00076200  0.99923800  0.50000000  1
  Rb  Rb3  1  0.74901100  0.50080600  0.25000000  1
  Rb  Rb4  1  0.49919400  0.25098900  0.75000000  1
  Rb  Rb5  1  0.00076200  0.99923800  0.00000000  1
  Rb  Rb6  1  0.25092700  0.50078800  0.25000000  1
  Rb  Rb7  1  0.49921200  0.74907300  0.75000000  1
  Sn  Sn8  1  0.61661200  0.99993300  0.55804600  1
  Sn  Sn9  1  0.80848400  0.11598000  0.25000000  1
  Sn  Sn10  1  0.50003600  0.31217700  0.36768700  1
  Sn  Sn11  1  0.38028700  0.00005900  0.93647700  1
  Sn  Sn12  1  0.18644700  0.88051600  0.25000000  1
  Sn  Sn13  1  0.50002000  0.68771500  0.13201100  1
  Sn  Sn14  1  0.19167800  0.11647500  0.25000000  1
  Sn  Sn15  1  0.50003600  0.31217700  0.13231300  1
  Sn  Sn16  1  0.81370700  0.88089600  0.25000000  1
  Sn  Sn17  1  0.50002000  0.68771500  0.36798900  1
  Sn  Sn18  1  0.38028700  0.00005900  0.56352300  1
  Sn  Sn19  1  0.61661200  0.99993300  0.94195400  1
  Sn  Sn20  1  0.68782300  0.49996400  0.63231300  1
  Sn  Sn21  1  0.99994100  0.61971300  0.43647700  1
  Sn  Sn22  1  0.88352500  0.80832200  0.75000000  1
  Sn  Sn23  1  0.31228500  0.49998000  0.86798900  1
  Sn  Sn24  1  0.00006700  0.38338800  0.05804600  1
  Sn  Sn25  1  0.11910400  0.18629300  0.75000000  1
  Sn  Sn26  1  0.99994100  0.61971300  0.06352300  1
  Sn  Sn27  1  0.11948400  0.81355300  0.75000000  1
  Sn  Sn28  1  0.00006700  0.38338800  0.44195400  1
  Sn  Sn29  1  0.88402000  0.19151600  0.75000000  1
  Sn  Sn30  1  0.68782300  0.49996400  0.86768700  1
  Sn  Sn31  1  0.31228500  0.49998000  0.63201100  1
  Sn  Sn32  1  0.68323200  0.18408500  0.43331700  1
  Sn  Sn33  1  0.31764500  0.81773900  0.06762400  1
  Sn  Sn34  1  0.31762900  0.18315000  0.06665200  1
  Sn  Sn35  1  0.68319100  0.81683500  0.43239500  1
  Sn  Sn36  1  0.31764500  0.81773900  0.43237600  1
  Sn  Sn37  1  0.68323200  0.18408500  0.06668300  1
  Sn  Sn38  1  0.68319100  0.81683500  0.06760500  1
  Sn  Sn39  1  0.31762900  0.18315000  0.43334800  1
  Sn  Sn40  1  0.81685000  0.68237100  0.56665200  1
  Sn  Sn41  1  0.18316500  0.31680900  0.93239500  1
  Sn  Sn42  1  0.18226100  0.68235500  0.93237600  1
  Sn  Sn43  1  0.81591500  0.31676800  0.56668300  1
  Sn  Sn44  1  0.81591500  0.31676800  0.93331700  1
  Sn  Sn45  1  0.18226100  0.68235500  0.56762400  1
  Sn  Sn46  1  0.18316500  0.31680900  0.56760500  1
  Sn  Sn47  1  0.81685000  0.68237100  0.93334800  1
  Sn  Sn48  1  0.74995000  0.00021700  0.75000000  1
  Sn  Sn49  1  0.99978300  0.25005000  0.25000000  1
  Hg  Hg50  1  0.50003800  0.49996200  0.50000000  1
  Hg  Hg51  1  0.24994200  0.00005700  0.75000000  1
  Hg  Hg52  1  0.99994300  0.75005800  0.25000000  1
  Hg  Hg53  1  0.50003800  0.49996200  0.00000000  1
