# generated using pymatgen
data_MnCoP2
_symmetry_space_group_name_H-M   'P 1'
_cell_length_a   3.06643200
_cell_length_b   5.19034600
_cell_length_c   5.76322900
_cell_angle_alpha   90.00000000
_cell_angle_beta   90.00000000
_cell_angle_gamma   90.00000000
_symmetry_Int_Tables_number   1
_chemical_formula_structural   MnCoP2
_chemical_formula_sum   'Mn2 Co2 P4'
_cell_volume   91.72664831
_cell_formula_units_Z   2
loop_
 _symmetry_equiv_pos_site_id
 _symmetry_equiv_pos_as_xyz
  1  'x, y, z'
loop_
 _atom_site_type_symbol
 _atom_site_label
 _atom_site_symmetry_multiplicity
 _atom_site_fract_x
 _atom_site_fract_y
 _atom_site_fract_z
 _atom_site_occupancy
  Mn  Mn0  1  0.25000000  0.50414600  0.30504800  1
  Mn  Mn1  1  0.25000000  0.00414600  0.19495200  1
  Co  Co2  1  0.75000000  0.50073800  0.70630700  1
  Co  Co3  1  0.75000000  0.00073800  0.79369300  1
  P  P4  1  0.75000000  0.30732200  0.06895200  1
  P  P5  1  0.75000000  0.80732200  0.43104800  1
  P  P6  1  0.25000000  0.68779400  0.93323400  1
  P  P7  1  0.25000000  0.18779400  0.56676600  1
