# generated using pymatgen
data_K3Mn4P5H3O20
_symmetry_space_group_name_H-M   'P 1'
_cell_length_a   8.28025596
_cell_length_b   8.28025596
_cell_length_c   13.85213235
_cell_angle_alpha   79.54414899
_cell_angle_beta   79.54414899
_cell_angle_gamma   79.68223336
_symmetry_Int_Tables_number   1
_chemical_formula_structural   K3Mn4P5H3O20
_chemical_formula_sum   'K6 Mn8 P10 H6 O40'
_cell_volume   907.90736539
_cell_formula_units_Z   2
loop_
 _symmetry_equiv_pos_site_id
 _symmetry_equiv_pos_as_xyz
  1  'x, y, z'
loop_
 _atom_site_type_symbol
 _atom_site_label
 _atom_site_symmetry_multiplicity
 _atom_site_fract_x
 _atom_site_fract_y
 _atom_site_fract_z
 _atom_site_occupancy
  K  K0  1  0.00033700  0.99944500  0.74820900  1
  K  K1  1  0.99944500  0.00033700  0.24820900  1
  K  K2  1  0.69126200  0.83863700  0.58440600  1
  K  K3  1  0.16715300  0.31230600  0.91474700  1
  K  K4  1  0.31230600  0.16715300  0.41474700  1
  K  K5  1  0.83863700  0.69126200  0.08440600  1
  Mn  Mn6  1  0.04147800  0.47766600  0.66675600  1
  Mn  Mn7  1  0.52152300  0.95668100  0.83301100  1
  Mn  Mn8  1  0.95668100  0.52152300  0.33301100  1
  Mn  Mn9  1  0.47766600  0.04147800  0.16675600  1
  Mn  Mn10  1  0.50208700  0.49864400  0.50027600  1
  Mn  Mn11  1  0.49864400  0.50208700  0.00027600  1
  Mn  Mn12  1  0.35564700  0.64549900  0.24887500  1
  Mn  Mn13  1  0.64549900  0.35564700  0.74887500  1
  P  P14  1  0.37686600  0.62306700  0.74980900  1
  P  P15  1  0.62306700  0.37686600  0.24980900  1
  P  P16  1  0.14563300  0.73032100  0.46362000  1
  P  P17  1  0.26625400  0.85816900  0.03678900  1
  P  P18  1  0.85816900  0.26625400  0.53678900  1
  P  P19  1  0.73032100  0.14563300  0.96362000  1
  P  P20  1  0.34059600  0.20752100  0.65787800  1
  P  P21  1  0.79233400  0.65963500  0.84238400  1
  P  P22  1  0.65963500  0.79233400  0.34238400  1
  P  P23  1  0.20752100  0.34059600  0.15787800  1
  H  H24  1  0.34982800  0.93686200  0.66815700  1
  H  H25  1  0.06310800  0.65060600  0.83174200  1
  H  H26  1  0.65060600  0.06310800  0.33174200  1
  H  H27  1  0.93686200  0.34982800  0.16815700  1
  H  H28  1  0.01406200  0.98967400  0.49470700  1
  H  H29  1  0.98967400  0.01406200  0.99470700  1
  O  O30  1  0.34377500  0.34498300  0.56551200  1
  O  O31  1  0.65501400  0.65707200  0.93490200  1
  O  O32  1  0.65707200  0.65501400  0.43490200  1
  O  O33  1  0.34498300  0.34377500  0.06551200  1
  O  O34  1  0.13855900  0.67095800  0.36393800  1
  O  O35  1  0.33298400  0.86180900  0.13540700  1
  O  O36  1  0.86180900  0.33298400  0.63540700  1
  O  O37  1  0.67095800  0.13855900  0.86393800  1
  O  O38  1  0.49299800  0.17223900  0.71225900  1
  O  O39  1  0.82752800  0.50711000  0.78829700  1
  O  O40  1  0.50711000  0.82752800  0.28829700  1
  O  O41  1  0.17223900  0.49299800  0.21225900  1
  O  O42  1  0.33086400  0.04287200  0.61507700  1
  O  O43  1  0.95717600  0.66959200  0.88491500  1
  O  O44  1  0.66959200  0.95717600  0.38491500  1
  O  O45  1  0.04287200  0.33086400  0.11507700  1
  O  O46  1  0.10934800  0.92594900  0.44232200  1
  O  O47  1  0.07468200  0.89950100  0.05702500  1
  O  O48  1  0.89950100  0.07468200  0.55702500  1
  O  O49  1  0.92594900  0.10934800  0.94232200  1
  O  O50  1  0.19224700  0.61219200  0.74431900  1
  O  O51  1  0.38754600  0.80763700  0.75552600  1
  O  O52  1  0.80763700  0.38754600  0.25552600  1
  O  O53  1  0.61219200  0.19224700  0.24431900  1
  O  O54  1  0.32382100  0.68341600  0.48916200  1
  O  O55  1  0.31348400  0.67797400  0.01159000  1
  O  O56  1  0.67797400  0.31348400  0.51159000  1
  O  O57  1  0.68341600  0.32382100  0.98916200  1
  O  O58  1  0.17872600  0.25124900  0.72840300  1
  O  O59  1  0.74839800  0.82137000  0.77182200  1
  O  O60  1  0.82137000  0.74839800  0.27182200  1
  O  O61  1  0.25124900  0.17872600  0.22840300  1
  O  O62  1  0.49990300  0.56426300  0.65847100  1
  O  O63  1  0.43625300  0.50004100  0.84109300  1
  O  O64  1  0.50004100  0.43625300  0.34109300  1
  O  O65  1  0.56426300  0.49990300  0.15847100  1
  O  O66  1  0.01450900  0.66737400  0.54837900  1
  O  O67  1  0.33825300  0.98602600  0.95191400  1
  O  O68  1  0.98602600  0.33825300  0.45191400  1
  O  O69  1  0.66737400  0.01450900  0.04837900  1
