# generated using pymatgen
data_YB2Os
_symmetry_space_group_name_H-M   'P 1'
_cell_length_a   5.91465700
_cell_length_b   5.33289900
_cell_length_c   6.39118200
_cell_angle_alpha   90.00000000
_cell_angle_beta   90.00000000
_cell_angle_gamma   90.00000000
_symmetry_Int_Tables_number   1
_chemical_formula_structural   YB2Os
_chemical_formula_sum   'Y4 B8 Os4'
_cell_volume   201.59237804
_cell_formula_units_Z   4
loop_
 _symmetry_equiv_pos_site_id
 _symmetry_equiv_pos_as_xyz
  1  'x, y, z'
loop_
 _atom_site_type_symbol
 _atom_site_label
 _atom_site_symmetry_multiplicity
 _atom_site_fract_x
 _atom_site_fract_y
 _atom_site_fract_z
 _atom_site_occupancy
  Y  Y0  1  0.01080200  0.25000000  0.33544800  1
  Y  Y1  1  0.51080200  0.25000000  0.16455200  1
  Y  Y2  1  0.98919800  0.75000000  0.66455200  1
  Y  Y3  1  0.48919800  0.75000000  0.83544800  1
  B  B4  1  0.36385600  0.08209100  0.53986300  1
  B  B5  1  0.86385600  0.41790900  0.96013700  1
  B  B6  1  0.63614400  0.58209100  0.46013700  1
  B  B7  1  0.13614400  0.91790900  0.03986300  1
  B  B8  1  0.63614400  0.91790900  0.46013700  1
  B  B9  1  0.13614400  0.58209100  0.03986300  1
  B  B10  1  0.36385600  0.41790900  0.53986300  1
  B  B11  1  0.86385600  0.08209100  0.96013700  1
  Os  Os12  1  0.17585000  0.25000000  0.81818700  1
  Os  Os13  1  0.67585000  0.25000000  0.68181300  1
  Os  Os14  1  0.82415000  0.75000000  0.18181300  1
  Os  Os15  1  0.32415000  0.75000000  0.31818700  1
