# generated using pymatgen
data_Ce2(ReB2)3
_symmetry_space_group_name_H-M   'P 1'
_cell_length_a   6.28672237
_cell_length_b   6.28672237
_cell_length_c   7.52225576
_cell_angle_alpha   90.60045278
_cell_angle_beta   90.60045278
_cell_angle_gamma   114.57332827
_symmetry_Int_Tables_number   1
_chemical_formula_structural   Ce2(ReB2)3
_chemical_formula_sum   'Ce4 Re6 B12'
_cell_volume   270.32372928
_cell_formula_units_Z   2
loop_
 _symmetry_equiv_pos_site_id
 _symmetry_equiv_pos_as_xyz
  1  'x, y, z'
loop_
 _atom_site_type_symbol
 _atom_site_label
 _atom_site_symmetry_multiplicity
 _atom_site_fract_x
 _atom_site_fract_y
 _atom_site_fract_z
 _atom_site_occupancy
  Ce  Ce0  1  0.09521900  0.44507700  0.33054400  1
  Ce  Ce1  1  0.55492300  0.90478100  0.16945600  1
  Ce  Ce2  1  0.90478100  0.55492300  0.66945600  1
  Ce  Ce3  1  0.44507700  0.09521900  0.83054400  1
  Re  Re4  1  0.58932400  0.41067600  0.25000000  1
  Re  Re5  1  0.41067600  0.58932400  0.75000000  1
  Re  Re6  1  0.99020200  0.80676100  0.08741900  1
  Re  Re7  1  0.19323900  0.00979800  0.41258100  1
  Re  Re8  1  0.00979800  0.19323900  0.91258100  1
  Re  Re9  1  0.80676100  0.99020200  0.58741900  1
  B  B10  1  0.24726200  0.15606000  0.13467600  1
  B  B11  1  0.84394000  0.75273800  0.36532400  1
  B  B12  1  0.75273800  0.84394000  0.86532400  1
  B  B13  1  0.15606000  0.24726200  0.63467600  1
  B  B14  1  0.58505200  0.15915700  0.48219800  1
  B  B15  1  0.84084300  0.41494800  0.01780200  1
  B  B16  1  0.41494800  0.84084300  0.51780200  1
  B  B17  1  0.15915700  0.58505200  0.98219800  1
  B  B18  1  0.44513300  0.35004900  0.53570000  1
  B  B19  1  0.64995100  0.55486700  0.96430000  1
  B  B20  1  0.55486700  0.64995100  0.46430000  1
  B  B21  1  0.35004900  0.44513300  0.03570000  1
