# generated using pymatgen
data_SmNiGe
_symmetry_space_group_name_H-M   'P 1'
_cell_length_a   4.32244200
_cell_length_b   7.12863500
_cell_length_c   7.24372100
_cell_angle_alpha   90.00000000
_cell_angle_beta   90.00000000
_cell_angle_gamma   90.00000000
_symmetry_Int_Tables_number   1
_chemical_formula_structural   SmNiGe
_chemical_formula_sum   'Sm4 Ni4 Ge4'
_cell_volume   223.20158159
_cell_formula_units_Z   4
loop_
 _symmetry_equiv_pos_site_id
 _symmetry_equiv_pos_as_xyz
  1  'x, y, z'
loop_
 _atom_site_type_symbol
 _atom_site_label
 _atom_site_symmetry_multiplicity
 _atom_site_fract_x
 _atom_site_fract_y
 _atom_site_fract_z
 _atom_site_occupancy
  Sm  Sm0  1  0.25000000  0.48517900  0.20065000  1
  Sm  Sm1  1  0.25000000  0.98517900  0.29935000  1
  Sm  Sm2  1  0.75000000  0.51482100  0.79935000  1
  Sm  Sm3  1  0.75000000  0.01482100  0.70065000  1
  Ni  Ni4  1  0.25000000  0.17815000  0.92089500  1
  Ni  Ni5  1  0.25000000  0.67815000  0.57910500  1
  Ni  Ni6  1  0.75000000  0.82185000  0.07910500  1
  Ni  Ni7  1  0.75000000  0.32185000  0.42089500  1
  Ge  Ge8  1  0.25000000  0.30698000  0.59333400  1
  Ge  Ge9  1  0.25000000  0.80698000  0.90666600  1
  Ge  Ge10  1  0.75000000  0.69302000  0.40666600  1
  Ge  Ge11  1  0.75000000  0.19302000  0.09333400  1
