# generated using pymatgen
data_Sr5Sn3
_symmetry_space_group_name_H-M   'P 1'
_cell_length_a   10.25798494
_cell_length_b   10.25798494
_cell_length_c   10.25798494
_cell_angle_alpha   130.25726219
_cell_angle_beta   130.25726219
_cell_angle_gamma   72.99582263
_symmetry_Int_Tables_number   1
_chemical_formula_structural   Sr5Sn3
_chemical_formula_sum   'Sr10 Sn6'
_cell_volume   613.95848576
_cell_formula_units_Z   2
loop_
 _symmetry_equiv_pos_site_id
 _symmetry_equiv_pos_as_xyz
  1  'x, y, z'
loop_
 _atom_site_type_symbol
 _atom_site_label
 _atom_site_symmetry_multiplicity
 _atom_site_fract_x
 _atom_site_fract_y
 _atom_site_fract_z
 _atom_site_occupancy
  Sr  Sr0  1  0.50000000  0.50000000  0.00000000  1
  Sr  Sr1  1  0.00000000  0.00000000  0.00000000  1
  Sr  Sr2  1  0.53471200  0.03471200  0.85175100  1
  Sr  Sr3  1  0.18296100  0.68296100  0.14824900  1
  Sr  Sr4  1  0.03471200  0.18296100  0.50000000  1
  Sr  Sr5  1  0.68296100  0.53471200  0.50000000  1
  Sr  Sr6  1  0.46528800  0.96528800  0.14824900  1
  Sr  Sr7  1  0.81703900  0.31703900  0.85175100  1
  Sr  Sr8  1  0.96528800  0.81703900  0.50000000  1
  Sr  Sr9  1  0.31703900  0.46528800  0.50000000  1
  Sn  Sn10  1  0.25000000  0.25000000  0.00000000  1
  Sn  Sn11  1  0.75000000  0.75000000  0.00000000  1
  Sn  Sn12  1  0.87877400  0.37877400  0.25754800  1
  Sn  Sn13  1  0.12122600  0.62122600  0.74245200  1
  Sn  Sn14  1  0.37877400  0.12122600  0.50000000  1
  Sn  Sn15  1  0.62122600  0.87877400  0.50000000  1
