# generated using pymatgen
data_Ba20Ru11PtO48
_symmetry_space_group_name_H-M   'P 1'
_cell_length_a   5.98756800
_cell_length_b   11.02429100
_cell_length_c   20.12045361
_cell_angle_alpha   89.69685892
_cell_angle_beta   90.00000000
_cell_angle_gamma   90.00000000
_symmetry_Int_Tables_number   1
_chemical_formula_structural   Ba20Ru11PtO48
_chemical_formula_sum   'Ba20 Ru11 Pt1 O48'
_cell_volume   1328.10623682
_cell_formula_units_Z   1
loop_
 _symmetry_equiv_pos_site_id
 _symmetry_equiv_pos_as_xyz
  1  'x, y, z'
loop_
 _atom_site_type_symbol
 _atom_site_label
 _atom_site_symmetry_multiplicity
 _atom_site_fract_x
 _atom_site_fract_y
 _atom_site_fract_z
 _atom_site_occupancy
  Ba  Ba0  1  0.00000000  0.88725900  0.96966700  1
  Ba  Ba1  1  0.00000000  0.38726000  0.53048200  1
  Ba  Ba2  1  0.50000000  0.11300500  0.03060800  1
  Ba  Ba3  1  0.50000000  0.61326300  0.46962400  1
  Ba  Ba4  1  0.00000000  0.69784700  0.75482200  1
  Ba  Ba5  1  0.00000000  0.19762900  0.74439700  1
  Ba  Ba6  1  0.50000000  0.30107800  0.24512700  1
  Ba  Ba7  1  0.50000000  0.80227300  0.25488600  1
  Ba  Ba8  1  0.00000000  0.04801000  0.17546800  1
  Ba  Ba9  1  0.00000000  0.54988700  0.32561700  1
  Ba  Ba10  1  0.50000000  0.95183400  0.82384500  1
  Ba  Ba11  1  0.50000000  0.45212300  0.67571600  1
  Ba  Ba12  1  0.00000000  0.68601300  0.13037100  1
  Ba  Ba13  1  0.00000000  0.18519400  0.37060000  1
  Ba  Ba14  1  0.50000000  0.31452400  0.86924500  1
  Ba  Ba15  1  0.50000000  0.81401100  0.63025600  1
  Ba  Ba16  1  0.00000000  0.52586400  0.92632700  1
  Ba  Ba17  1  0.00000000  0.02600300  0.57381000  1
  Ba  Ba18  1  0.50000000  0.47271000  0.07367300  1
  Ba  Ba19  1  0.50000000  0.97308900  0.42601600  1
  Ru  Ru20  1  0.00000000  0.38351100  0.17875400  1
  Ru  Ru21  1  0.00000000  0.87807600  0.32698200  1
  Ru  Ru22  1  0.50000000  0.62144300  0.82726500  1
  Ru  Ru23  1  0.50000000  0.12177300  0.67308400  1
  Ru  Ru24  1  0.00000000  0.19279200  0.92792700  1
  Ru  Ru25  1  0.00000000  0.69526600  0.56891000  1
  Ru  Ru26  1  0.50000000  0.80502600  0.06875200  1
  Ru  Ru27  1  0.50000000  0.30500400  0.43097600  1
  Ru  Ru28  1  0.00000000  0.78554700  0.44234000  1
  Ru  Ru29  1  0.50000000  0.71470200  0.94210300  1
  Ru  Ru30  1  0.50000000  0.21436000  0.55771700  1
  Pt  Pt31  1  0.00000000  0.28339900  0.05525600  1
  O  O32  1  0.22827900  0.30664800  0.98119700  1
  O  O33  1  0.77386800  0.80720400  0.51618700  1
  O  O34  1  0.72458200  0.69257100  0.01605800  1
  O  O35  1  0.27434600  0.19286000  0.48402400  1
  O  O36  1  0.27541800  0.69257100  0.01605800  1
  O  O37  1  0.72565400  0.19286000  0.48402400  1
  O  O38  1  0.77172100  0.30664800  0.98119700  1
  O  O39  1  0.22613200  0.80720400  0.51618700  1
  O  O40  1  0.00000000  0.10827700  0.02263100  1
  O  O41  1  0.00000000  0.61214400  0.47543600  1
  O  O42  1  0.50000000  0.88849100  0.97533800  1
  O  O43  1  0.50000000  0.38761400  0.52444300  1
  O  O44  1  0.23285900  0.26322300  0.13037400  1
  O  O45  1  0.76195800  0.76035200  0.37045000  1
  O  O46  1  0.73655900  0.73997400  0.87058900  1
  O  O47  1  0.26219100  0.23971100  0.62931700  1
  O  O48  1  0.26344100  0.73997400  0.87058900  1
  O  O49  1  0.73780900  0.23971100  0.62931700  1
  O  O50  1  0.76714100  0.26322300  0.13037400  1
  O  O51  1  0.23804200  0.76035200  0.37045000  1
  O  O52  1  0.00000000  0.30946600  0.85838800  1
  O  O53  1  0.00000000  0.80858400  0.64005900  1
  O  O54  1  0.50000000  0.69106600  0.14017400  1
  O  O55  1  0.50000000  0.19150700  0.35994900  1
  O  O56  1  0.76579100  0.09345500  0.89585600  1
  O  O57  1  0.23240400  0.59493300  0.60318300  1
  O  O58  1  0.26754700  0.90446800  0.10316000  1
  O  O59  1  0.73236400  0.40507000  0.39677000  1
  O  O60  1  0.73245300  0.90446800  0.10316000  1
  O  O61  1  0.26763600  0.40507000  0.39677000  1
  O  O62  1  0.23420900  0.09345500  0.89585600  1
  O  O63  1  0.76759600  0.59493300  0.60318300  1
  O  O64  1  0.00000000  0.46041600  0.08328500  1
  O  O65  1  0.00000000  0.96295100  0.41939100  1
  O  O66  1  0.50000000  0.53619100  0.91947300  1
  O  O67  1  0.50000000  0.03688700  0.58061100  1
  O  O68  1  0.00000000  0.27903300  0.25443100  1
  O  O69  1  0.00000000  0.78091400  0.24762000  1
  O  O70  1  0.50000000  0.71950200  0.74768000  1
  O  O71  1  0.50000000  0.21908400  0.75227600  1
  O  O72  1  0.76775800  0.48715200  0.20851900  1
  O  O73  1  0.22760700  0.98373000  0.29317800  1
  O  O74  1  0.27284900  0.51642100  0.79339100  1
  O  O75  1  0.72767600  0.01627700  0.70684400  1
  O  O76  1  0.72715100  0.51642100  0.79339100  1
  O  O77  1  0.27232400  0.01627700  0.70684400  1
  O  O78  1  0.23224200  0.48715200  0.20851900  1
  O  O79  1  0.77239300  0.98373000  0.29317800  1
