# generated using pymatgen
data_YSn2
_symmetry_space_group_name_H-M   'P 1'
_cell_length_a   8.50759767
_cell_length_b   8.50759767
_cell_length_c   4.37381000
_cell_angle_alpha   90.00000000
_cell_angle_beta   90.00000000
_cell_angle_gamma   149.74881833
_symmetry_Int_Tables_number   1
_chemical_formula_structural   YSn2
_chemical_formula_sum   'Y2 Sn4'
_cell_volume   159.48685292
_cell_formula_units_Z   2
loop_
 _symmetry_equiv_pos_site_id
 _symmetry_equiv_pos_as_xyz
  1  'x, y, z'
loop_
 _atom_site_type_symbol
 _atom_site_label
 _atom_site_symmetry_multiplicity
 _atom_site_fract_x
 _atom_site_fract_y
 _atom_site_fract_z
 _atom_site_occupancy
  Y  Y0  1  0.90105800  0.09894100  0.75000000  1
  Y  Y1  1  0.09894100  0.90105900  0.25000000  1
  Sn  Sn2  1  0.56337400  0.43662600  0.75000000  1
  Sn  Sn3  1  0.43662600  0.56337400  0.25000000  1
  Sn  Sn4  1  0.25110100  0.74889900  0.75000000  1
  Sn  Sn5  1  0.74889900  0.25110100  0.25000000  1
