# generated using pymatgen
data_Zn2GaP3H8(NO6)2
_symmetry_space_group_name_H-M   'P 1'
_cell_length_a   11.75657600
_cell_length_b   11.79231087
_cell_length_c   11.81294329
_cell_angle_alpha   109.38836874
_cell_angle_beta   109.55634924
_cell_angle_gamma   109.32785611
_symmetry_Int_Tables_number   1
_chemical_formula_structural   Zn2GaP3H8(NO6)2
_chemical_formula_sum   'Zn8 Ga4 P12 H32 N8 O48'
_cell_volume   1262.89869028
_cell_formula_units_Z   4
loop_
 _symmetry_equiv_pos_site_id
 _symmetry_equiv_pos_as_xyz
  1  'x, y, z'
loop_
 _atom_site_type_symbol
 _atom_site_label
 _atom_site_symmetry_multiplicity
 _atom_site_fract_x
 _atom_site_fract_y
 _atom_site_fract_z
 _atom_site_occupancy
  Zn  Zn0  1  0.23004400  0.20235100  0.27082100  1
  Zn  Zn1  1  0.02997200  0.56872400  0.30011500  1
  Zn  Zn2  1  0.04544600  0.97203800  0.77218000  1
  Zn  Zn3  1  0.46463900  0.76692000  0.53909200  1
  Zn  Zn4  1  0.69947000  0.27280600  0.72924400  1
  Zn  Zn5  1  0.07450300  0.29867700  0.52511000  1
  Zn  Zn6  1  0.42743100  0.96061600  0.22932500  1
  Zn  Zn7  1  0.77358600  0.72713100  0.20294800  1
  Ga  Ga8  1  0.46052800  0.22738700  0.92902400  1
  Ga  Ga9  1  0.26671000  0.54586300  0.96771900  1
  Ga  Ga10  1  0.72243900  0.92222100  0.95743500  1
  Ga  Ga11  1  0.80029400  0.53461400  0.57757900  1
  P  P12  1  0.30551000  0.07474600  0.03410800  1
  P  P13  1  0.22802700  0.46084800  0.42420200  1
  P  P14  1  0.76455100  0.45898800  0.03892600  1
  P  P15  1  0.19949500  0.24107100  0.77949700  1
  P  P16  1  0.26962200  0.69625700  0.22856500  1
  P  P17  1  0.73974000  0.77830800  0.70379100  1
  P  P18  1  0.96298600  0.42505700  0.72205500  1
  P  P19  1  0.95807900  0.03741000  0.26272500  1
  P  P20  1  0.57247300  0.03281800  0.80174200  1
  P  P21  1  0.54167400  0.27154800  0.46685800  1
  P  P22  1  0.53664500  0.79691400  0.07440500  1
  P  P23  1  0.92033100  0.72503000  0.46241300  1
  H  H24  1  0.26782500  0.05867600  0.59853300  1
  H  H25  1  0.20530600  0.03944000  0.43755800  1
  H  H26  1  0.16559000  0.89776600  0.45854200  1
  H  H27  1  0.22982500  0.83194100  0.79005100  1
  H  H28  1  0.28851800  0.72996800  0.82981700  1
  H  H29  1  0.33169200  0.79084600  0.73096200  1
  H  H30  1  0.54008900  0.43925900  0.70700700  1
  H  H31  1  0.39638700  0.45801700  0.66452100  1
  H  H32  1  0.55758400  0.59907100  0.76769600  1
  H  H33  1  0.95884100  0.66946600  0.90131500  1
  H  H34  1  0.10159000  0.76806000  0.06156900  1
  H  H35  1  0.93892200  0.70818000  0.04168800  1
  H  H36  1  0.33175900  0.99878200  0.49763400  1
  H  H37  1  0.16553400  0.66493100  0.66363700  1
  H  H38  1  0.49923000  0.49926800  0.83258500  1
  H  H39  1  0.00061600  0.83447200  0.00155300  1
  H  H40  1  0.85793000  0.99902400  0.49928400  1
  H  H41  1  0.64122200  0.14299200  0.14457200  1
  H  H42  1  0.49602100  0.49858000  0.35711000  1
  H  H43  1  0.99943800  0.35880400  0.00260300  1
  H  H44  1  0.73121200  0.93293500  0.53367900  1
  H  H45  1  0.79823700  0.10059500  0.56630100  1
  H  H46  1  0.69721200  0.96599400  0.39882300  1
  H  H47  1  0.76902300  0.30352100  0.20180200  1
  H  H48  1  0.70447000  0.27037200  0.30417600  1
  H  H49  1  0.80469100  0.20204600  0.26906200  1
  H  H50  1  0.60217100  0.56742000  0.30025500  1
  H  H51  1  0.46658800  0.40014600  0.19836900  1
  H  H52  1  0.43297800  0.53378700  0.23073400  1
  H  H53  1  0.90123000  0.19868800  0.96891000  1
  H  H54  1  0.03592100  0.23276800  0.93595400  1
  H  H55  1  0.06849100  0.30000000  0.10473400  1
  N  N56  1  0.24419100  0.99870800  0.49803200  1
  N  N57  1  0.25159400  0.75243500  0.75169600  1
  N  N58  1  0.49805700  0.49866500  0.74495500  1
  N  N59  1  0.99986600  0.74698200  0.00178600  1
  N  N60  1  0.77057700  0.99977000  0.49963300  1
  N  N61  1  0.73025000  0.22985700  0.23006800  1
  N  N62  1  0.49975500  0.50026100  0.27164700  1
  N  N63  1  0.00138600  0.27203500  0.00256200  1
  O  O64  1  0.60309100  0.39615400  0.98595200  1
  O  O65  1  0.21044900  0.09097000  0.09285900  1
  O  O66  1  0.12334100  0.51329200  0.42150900  1
  O  O67  1  0.89539100  0.88255800  0.80239700  1
  O  O68  1  0.29358900  0.40039200  0.88725200  1
  O  O69  1  0.38250700  0.79119400  0.38208600  1
  O  O70  1  0.59149700  0.09401400  0.70974000  1
  O  O71  1  0.01453200  0.41755400  0.61855400  1
  O  O72  1  0.89322400  0.98558000  0.10191300  1
  O  O73  1  0.90905900  0.61784200  0.51630700  1
  O  O74  1  0.50148400  0.11800400  0.40877300  1
  O  O75  1  0.59376700  0.69868900  0.08024900  1
  O  O76  1  0.51950100  0.09923300  0.89513400  1
  O  O77  1  0.42890200  0.30255100  0.39991300  1
  O  O78  1  0.12513100  0.59960000  0.19682200  1
  O  O79  1  0.97192500  0.87108200  0.57504700  1
  O  O80  1  0.08087800  0.48955700  0.87356300  1
  O  O81  1  0.37594700  0.57234900  0.47499300  1
  O  O82  1  0.79691300  0.39675000  0.92596800  1
  O  O83  1  0.11214800  0.20631000  0.63181000  1
  O  O84  1  0.58954000  0.88329500  0.00923600  1
  O  O85  1  0.70789800  0.62774000  0.61815100  1
  O  O86  1  0.40395500  0.02750100  0.09838900  1
  O  O87  1  0.89580000  0.92401600  0.29477800  1
  O  O88  1  0.30595500  0.18704000  0.77556000  1
  O  O89  1  0.11498300  0.08411900  0.31863400  1
  O  O90  1  0.02848800  0.73396900  0.41339500  1
  O  O91  1  0.21337900  0.96959900  0.87532400  1
  O  O92  1  0.37433000  0.70074700  0.96581900  1
  O  O93  1  0.46576400  0.87582400  0.70938200  1
  O  O94  1  0.59290600  0.33576700  0.62509500  1
  O  O95  1  0.24333800  0.40668000  0.53011200  1
  O  O96  1  0.67408300  0.76715800  0.80025000  1
  O  O97  1  0.90902000  0.53323200  0.73360200  1
  O  O98  1  0.25799300  0.79020100  0.16315400  1
  O  O99  1  0.82170100  0.61530100  0.08537800  1
  O  O100  1  0.40331800  0.22267400  0.05682300  1
  O  O101  1  0.17195100  0.34157300  0.27572400  1
  O  O102  1  0.82974700  0.43370100  0.15989100  1
  O  O103  1  0.10769500  0.17101600  0.83085700  1
  O  O104  1  0.31933800  0.59871100  0.15195400  1
  O  O105  1  0.66649800  0.82133800  0.60451200  1
  O  O106  1  0.84800400  0.28286800  0.68058500  1
  O  O107  1  0.93300500  0.15815400  0.32946600  1
  O  O108  1  0.71627100  0.05543100  0.90580800  1
  O  O109  1  0.66893500  0.34938200  0.44777500  1
  O  O110  1  0.56367400  0.89677000  0.21624200  1
  O  O111  1  0.77314000  0.66964700  0.34197200  1
