# generated using pymatgen
data_Pr5Pb3
_symmetry_space_group_name_H-M   'P 1'
_cell_length_a   9.63111366
_cell_length_b   9.63111366
_cell_length_c   7.07984800
_cell_angle_alpha   90.00000000
_cell_angle_beta   90.00000000
_cell_angle_gamma   119.99999768
_symmetry_Int_Tables_number   1
_chemical_formula_structural   Pr5Pb3
_chemical_formula_sum   'Pr10 Pb6'
_cell_volume   568.73190481
_cell_formula_units_Z   2
loop_
 _symmetry_equiv_pos_site_id
 _symmetry_equiv_pos_as_xyz
  1  'x, y, z'
loop_
 _atom_site_type_symbol
 _atom_site_label
 _atom_site_symmetry_multiplicity
 _atom_site_fract_x
 _atom_site_fract_y
 _atom_site_fract_z
 _atom_site_occupancy
  Pr  Pr0  1  0.66666700  0.33333300  0.00000000  1
  Pr  Pr1  1  0.33333300  0.66666700  0.00000000  1
  Pr  Pr2  1  0.33333300  0.66666700  0.50000000  1
  Pr  Pr3  1  0.66666700  0.33333300  0.50000000  1
  Pr  Pr4  1  0.75993000  0.75993000  0.75000000  1
  Pr  Pr5  1  0.24007000  0.00000000  0.75000000  1
  Pr  Pr6  1  0.00000000  0.24007000  0.75000000  1
  Pr  Pr7  1  0.24007000  0.24007000  0.25000000  1
  Pr  Pr8  1  0.75993000  0.00000000  0.25000000  1
  Pr  Pr9  1  0.00000000  0.75993000  0.25000000  1
  Pb  Pb10  1  0.39481500  0.39481500  0.75000000  1
  Pb  Pb11  1  0.60518500  0.00000000  0.75000000  1
  Pb  Pb12  1  0.00000000  0.60518500  0.75000000  1
  Pb  Pb13  1  0.60518500  0.60518500  0.25000000  1
  Pb  Pb14  1  0.39481500  0.00000000  0.25000000  1
  Pb  Pb15  1  0.00000000  0.39481500  0.25000000  1
