# generated using pymatgen
data_Sr5As3O13
_symmetry_space_group_name_H-M   'P 1'
_cell_length_a   10.22153477
_cell_length_b   10.22153477
_cell_length_c   7.48497600
_cell_angle_alpha   90.00000000
_cell_angle_beta   90.00000000
_cell_angle_gamma   120.00000499
_symmetry_Int_Tables_number   1
_chemical_formula_structural   Sr5As3O13
_chemical_formula_sum   'Sr10 As6 O26'
_cell_volume   677.25659480
_cell_formula_units_Z   2
loop_
 _symmetry_equiv_pos_site_id
 _symmetry_equiv_pos_as_xyz
  1  'x, y, z'
loop_
 _atom_site_type_symbol
 _atom_site_label
 _atom_site_symmetry_multiplicity
 _atom_site_fract_x
 _atom_site_fract_y
 _atom_site_fract_z
 _atom_site_occupancy
  Sr  Sr0  1  0.33333300  0.66666700  0.49944300  1
  Sr  Sr1  1  0.66666700  0.33333300  0.99944300  1
  Sr  Sr2  1  0.66666700  0.33333300  0.50102500  1
  Sr  Sr3  1  0.33333300  0.66666700  0.00102500  1
  Sr  Sr4  1  0.74803200  0.75384500  0.25240000  1
  Sr  Sr5  1  0.00581300  0.25196800  0.25240000  1
  Sr  Sr6  1  0.24615500  0.99418700  0.25240000  1
  Sr  Sr7  1  0.25196800  0.24615500  0.75240000  1
  Sr  Sr8  1  0.99418700  0.74803200  0.75240000  1
  Sr  Sr9  1  0.75384500  0.00581300  0.75240000  1
  As  As10  1  0.96911200  0.60039900  0.25172600  1
  As  As11  1  0.63128700  0.03088800  0.25172600  1
  As  As12  1  0.39960100  0.36871300  0.25172600  1
  As  As13  1  0.03088800  0.39960100  0.75172600  1
  As  As14  1  0.36871300  0.96911200  0.75172600  1
  As  As15  1  0.60039900  0.63128700  0.75172600  1
  O  O16  1  0.87353400  0.40578500  0.24880100  1
  O  O17  1  0.53225000  0.12646600  0.24880100  1
  O  O18  1  0.59421500  0.46775000  0.24880100  1
  O  O19  1  0.12646600  0.59421500  0.74880100  1
  O  O20  1  0.46775000  0.87353400  0.74880100  1
  O  O21  1  0.40578500  0.53225000  0.74880100  1
  O  O22  1  0.16214000  0.67613500  0.25142300  1
  O  O23  1  0.51399500  0.83786000  0.25142300  1
  O  O24  1  0.32386500  0.48600500  0.25142300  1
  O  O25  1  0.83786000  0.32386500  0.75142300  1
  O  O26  1  0.48600500  0.16214000  0.75142300  1
  O  O27  1  0.67613500  0.51399500  0.75142300  1
  O  O28  1  0.90671400  0.65319800  0.43681700  1
  O  O29  1  0.74648300  0.09328600  0.43681700  1
  O  O30  1  0.34680200  0.25351700  0.43681700  1
  O  O31  1  0.09328600  0.34680200  0.93681700  1
  O  O32  1  0.25351700  0.90671400  0.93681700  1
  O  O33  1  0.65319800  0.74648300  0.93681700  1
  O  O34  1  0.09075500  0.34134300  0.56861200  1
  O  O35  1  0.25058900  0.90924500  0.56861200  1
  O  O36  1  0.65865700  0.74941100  0.56861200  1
  O  O37  1  0.90924500  0.65865700  0.06861200  1
  O  O38  1  0.74941100  0.09075500  0.06861200  1
  O  O39  1  0.34134300  0.25058900  0.06861200  1
  O  O40  1  0.00000000  0.00000000  0.27830300  1
  O  O41  1  0.00000000  0.00000000  0.77830300  1
