# generated using pymatgen
data_LuZnPt
_symmetry_space_group_name_H-M   'P 1'
_cell_length_a   4.17782400
_cell_length_b   6.78576000
_cell_length_c   8.02690200
_cell_angle_alpha   90.00000000
_cell_angle_beta   90.00000000
_cell_angle_gamma   90.00000000
_symmetry_Int_Tables_number   1
_chemical_formula_structural   LuZnPt
_chemical_formula_sum   'Lu4 Zn4 Pt4'
_cell_volume   227.56035181
_cell_formula_units_Z   4
loop_
 _symmetry_equiv_pos_site_id
 _symmetry_equiv_pos_as_xyz
  1  'x, y, z'
loop_
 _atom_site_type_symbol
 _atom_site_label
 _atom_site_symmetry_multiplicity
 _atom_site_fract_x
 _atom_site_fract_y
 _atom_site_fract_z
 _atom_site_occupancy
  Lu  Lu0  1  0.25000000  0.53120800  0.18230500  1
  Lu  Lu1  1  0.75000000  0.46879200  0.81769500  1
  Lu  Lu2  1  0.75000000  0.96879200  0.68230500  1
  Lu  Lu3  1  0.25000000  0.03120800  0.31769500  1
  Zn  Zn4  1  0.25000000  0.64420100  0.56235100  1
  Zn  Zn5  1  0.75000000  0.35579900  0.43764900  1
  Zn  Zn6  1  0.75000000  0.85579900  0.06235100  1
  Zn  Zn7  1  0.25000000  0.14420100  0.93764900  1
  Pt  Pt8  1  0.25000000  0.75512100  0.87775500  1
  Pt  Pt9  1  0.75000000  0.24487900  0.12224500  1
  Pt  Pt10  1  0.75000000  0.74487900  0.37775500  1
  Pt  Pt11  1  0.25000000  0.25512100  0.62224500  1
