# generated using pymatgen
data_SbH5(Cl3O)2
_symmetry_space_group_name_H-M   'P 1'
_cell_length_a   7.07866045
_cell_length_b   7.07866045
_cell_length_c   13.56446826
_cell_angle_alpha   69.46092184
_cell_angle_beta   69.46092184
_cell_angle_gamma   61.49240627
_symmetry_Int_Tables_number   1
_chemical_formula_structural   SbH5(Cl3O)2
_chemical_formula_sum   'Sb2 H10 Cl12 O4'
_cell_volume   545.23814649
_cell_formula_units_Z   2
loop_
 _symmetry_equiv_pos_site_id
 _symmetry_equiv_pos_as_xyz
  1  'x, y, z'
loop_
 _atom_site_type_symbol
 _atom_site_label
 _atom_site_symmetry_multiplicity
 _atom_site_fract_x
 _atom_site_fract_y
 _atom_site_fract_z
 _atom_site_occupancy
  Sb  Sb0  1  0.50000000  0.00000000  0.50000000  1
  Sb  Sb1  1  0.00000000  0.50000000  0.00000000  1
  H  H2  1  0.71842400  0.28157600  0.75000000  1
  H  H3  1  0.28157600  0.71842400  0.25000000  1
  H  H4  1  0.69459200  0.13099500  0.66686900  1
  H  H5  1  0.86900500  0.30540800  0.83313100  1
  H  H6  1  0.30540800  0.86900500  0.33313100  1
  H  H7  1  0.13099500  0.69459200  0.16686900  1
  H  H8  1  0.77226400  0.32964100  0.60076600  1
  H  H9  1  0.67035900  0.22773600  0.89923400  1
  H  H10  1  0.22773600  0.67035900  0.39923400  1
  H  H11  1  0.32964100  0.77226400  0.10076600  1
  Cl  Cl12  1  0.23454500  0.32731500  0.56757700  1
  Cl  Cl13  1  0.67268500  0.76545500  0.93242300  1
  Cl  Cl14  1  0.76545500  0.67268500  0.43242300  1
  Cl  Cl15  1  0.32731500  0.23454500  0.06757700  1
  Cl  Cl16  1  0.34285400  0.14875800  0.34123800  1
  Cl  Cl17  1  0.85124200  0.65714600  0.15876200  1
  Cl  Cl18  1  0.65714600  0.85124200  0.65876200  1
  Cl  Cl19  1  0.14875800  0.34285400  0.84123800  1
  Cl  Cl20  1  0.24622900  0.82772500  0.59241800  1
  Cl  Cl21  1  0.17227500  0.75377100  0.90758200  1
  Cl  Cl22  1  0.75377100  0.17227500  0.40758200  1
  Cl  Cl23  1  0.82772500  0.24622900  0.09241800  1
  O  O24  1  0.68750900  0.27330200  0.66953800  1
  O  O25  1  0.72669800  0.31249100  0.83046200  1
  O  O26  1  0.31249100  0.72669800  0.33046200  1
  O  O27  1  0.27330200  0.68750900  0.16953800  1
