# generated using pymatgen
data_Rb2Th(NO3)6
_symmetry_space_group_name_H-M   'P 1'
_cell_length_a   6.96161200
_cell_length_b   8.40797300
_cell_length_c   15.36044215
_cell_angle_alpha   58.83395119
_cell_angle_beta   90.00000000
_cell_angle_gamma   90.00000000
_symmetry_Int_Tables_number   1
_chemical_formula_structural   Rb2Th(NO3)6
_chemical_formula_sum   'Rb4 Th2 N12 O36'
_cell_volume   769.32826712
_cell_formula_units_Z   2
loop_
 _symmetry_equiv_pos_site_id
 _symmetry_equiv_pos_as_xyz
  1  'x, y, z'
loop_
 _atom_site_type_symbol
 _atom_site_label
 _atom_site_symmetry_multiplicity
 _atom_site_fract_x
 _atom_site_fract_y
 _atom_site_fract_z
 _atom_site_occupancy
  Rb  Rb0  1  0.73177200  0.37457800  0.16066400  1
  Rb  Rb1  1  0.26822800  0.62542200  0.83933600  1
  Rb  Rb2  1  0.23177200  0.62542200  0.33933600  1
  Rb  Rb3  1  0.76822800  0.37457800  0.66066400  1
  Th  Th4  1  0.00000000  0.00000000  0.00000000  1
  Th  Th5  1  0.50000000  0.00000000  0.50000000  1
  N  N6  1  0.73549600  0.78182400  0.18310500  1
  N  N7  1  0.26450400  0.21817600  0.81689500  1
  N  N8  1  0.23549600  0.21817600  0.31689500  1
  N  N9  1  0.76450400  0.78182400  0.68310500  1
  N  N10  1  0.24934100  0.66332700  0.05400200  1
  N  N11  1  0.75065900  0.33667300  0.94599800  1
  N  N12  1  0.74934100  0.33667300  0.44599800  1
  N  N13  1  0.25065900  0.66332700  0.55400200  1
  N  N14  1  0.77935900  0.88931800  0.38759000  1
  N  N15  1  0.22064100  0.11068200  0.61241000  1
  N  N16  1  0.27935900  0.11068200  0.11241000  1
  N  N17  1  0.72064100  0.88931800  0.88759000  1
  O  O18  1  0.79304200  0.82388600  0.48377600  1
  O  O19  1  0.20695800  0.17611400  0.51622400  1
  O  O20  1  0.29304200  0.17611400  0.01622400  1
  O  O21  1  0.70695800  0.82388600  0.98377600  1
  O  O22  1  0.61707200  0.68735700  0.24958600  1
  O  O23  1  0.38292800  0.31264300  0.75041400  1
  O  O24  1  0.11707200  0.31264300  0.25041400  1
  O  O25  1  0.88292800  0.68735700  0.74958600  1
  O  O26  1  0.88887200  0.70770700  0.17071100  1
  O  O27  1  0.11112800  0.29229300  0.82928900  1
  O  O28  1  0.38887200  0.29229300  0.32928900  1
  O  O29  1  0.61112800  0.70770700  0.67071100  1
  O  O30  1  0.86106000  0.45753400  0.43703600  1
  O  O31  1  0.13894000  0.54246600  0.56296400  1
  O  O32  1  0.36106000  0.54246600  0.06296400  1
  O  O33  1  0.63894000  0.45753400  0.93703600  1
  O  O34  1  0.13500200  0.00023500  0.15638200  1
  O  O35  1  0.86499800  0.99976500  0.84361800  1
  O  O36  1  0.63500200  0.99976500  0.34361800  1
  O  O37  1  0.36499800  0.00023500  0.65638200  1
  O  O38  1  0.40713900  0.69987800  0.50122600  1
  O  O39  1  0.59286100  0.30012200  0.49877400  1
  O  O40  1  0.90713900  0.30012200  0.99877400  1
  O  O41  1  0.09286100  0.69987800  0.00122600  1
  O  O42  1  0.71645500  0.95621600  0.12114700  1
  O  O43  1  0.28354500  0.04378400  0.87885300  1
  O  O44  1  0.21645500  0.04378400  0.37885300  1
  O  O45  1  0.78354500  0.95621600  0.62114700  1
  O  O46  1  0.89367800  0.85216300  0.34001800  1
  O  O47  1  0.10632200  0.14783700  0.65998200  1
  O  O48  1  0.39367800  0.14783700  0.15998200  1
  O  O49  1  0.60632200  0.85216300  0.84001800  1
  O  O50  1  0.27870000  0.76236700  0.09392300  1
  O  O51  1  0.72130000  0.23763300  0.90607700  1
  O  O52  1  0.77870000  0.23763300  0.40607700  1
  O  O53  1  0.22130000  0.76236700  0.59392300  1
