# generated using pymatgen
data_Er3Ga5
_symmetry_space_group_name_H-M   'P 1'
_cell_length_a   6.07635900
_cell_length_b   9.64571800
_cell_length_c   11.32955600
_cell_angle_alpha   90.00000000
_cell_angle_beta   90.00000000
_cell_angle_gamma   90.00000000
_symmetry_Int_Tables_number   1
_chemical_formula_structural   Er3Ga5
_chemical_formula_sum   'Er12 Ga20'
_cell_volume   664.03485495
_cell_formula_units_Z   4
loop_
 _symmetry_equiv_pos_site_id
 _symmetry_equiv_pos_as_xyz
  1  'x, y, z'
loop_
 _atom_site_type_symbol
 _atom_site_label
 _atom_site_symmetry_multiplicity
 _atom_site_fract_x
 _atom_site_fract_y
 _atom_site_fract_z
 _atom_site_occupancy
  Er  Er0  1  0.84830600  0.75000000  0.07329000  1
  Er  Er1  1  0.65169400  0.75000000  0.57329000  1
  Er  Er2  1  0.15169400  0.25000000  0.92671000  1
  Er  Er3  1  0.34830600  0.25000000  0.42671000  1
  Er  Er4  1  0.88954400  0.50967000  0.35225800  1
  Er  Er5  1  0.61045600  0.99033000  0.85225800  1
  Er  Er6  1  0.11045600  0.00967000  0.64774200  1
  Er  Er7  1  0.38954400  0.49033000  0.14774200  1
  Er  Er8  1  0.11045600  0.49033000  0.64774200  1
  Er  Er9  1  0.38954400  0.00967000  0.14774200  1
  Er  Er10  1  0.88954400  0.99033000  0.35225800  1
  Er  Er11  1  0.61045600  0.50967000  0.85225800  1
  Ga  Ga12  1  0.87430800  0.05233100  0.09089700  1
  Ga  Ga13  1  0.62569200  0.44766900  0.59089700  1
  Ga  Ga14  1  0.12569200  0.55233100  0.90910300  1
  Ga  Ga15  1  0.37430800  0.94766900  0.40910300  1
  Ga  Ga16  1  0.12569200  0.94766900  0.90910300  1
  Ga  Ga17  1  0.37430800  0.55233100  0.40910300  1
  Ga  Ga18  1  0.87430800  0.44766900  0.09089700  1
  Ga  Ga19  1  0.62569200  0.05233100  0.59089700  1
  Ga  Ga20  1  0.17542600  0.75000000  0.25152700  1
  Ga  Ga21  1  0.32457400  0.75000000  0.75152700  1
  Ga  Ga22  1  0.82457400  0.25000000  0.74847300  1
  Ga  Ga23  1  0.67542600  0.25000000  0.24847300  1
  Ga  Ga24  1  0.37187900  0.75000000  0.00550000  1
  Ga  Ga25  1  0.12812100  0.75000000  0.50550000  1
  Ga  Ga26  1  0.62812100  0.25000000  0.99450000  1
  Ga  Ga27  1  0.87187900  0.25000000  0.49450000  1
  Ga  Ga28  1  0.60404700  0.75000000  0.29878400  1
  Ga  Ga29  1  0.89595300  0.75000000  0.79878400  1
  Ga  Ga30  1  0.39595300  0.25000000  0.70121600  1
  Ga  Ga31  1  0.10404700  0.25000000  0.20121600  1
