# generated using pymatgen
data_BiP3(PbO4)3
_symmetry_space_group_name_H-M   'P 1'
_cell_length_a   9.16329836
_cell_length_b   9.16329836
_cell_length_c   9.13296043
_cell_angle_alpha   70.48711051
_cell_angle_beta   70.48711051
_cell_angle_gamma   109.42150899
_symmetry_Int_Tables_number   1
_chemical_formula_structural   BiP3(PbO4)3
_chemical_formula_sum   'Bi2 P6 Pb6 O24'
_cell_volume   590.08245876
_cell_formula_units_Z   2
loop_
 _symmetry_equiv_pos_site_id
 _symmetry_equiv_pos_as_xyz
  1  'x, y, z'
loop_
 _atom_site_type_symbol
 _atom_site_label
 _atom_site_symmetry_multiplicity
 _atom_site_fract_x
 _atom_site_fract_y
 _atom_site_fract_z
 _atom_site_occupancy
  Bi  Bi0  1  0.50183700  0.83368500  0.00067900  1
  Bi  Bi1  1  0.83368500  0.50183700  0.50067900  1
  P  P2  1  0.62532300  0.75105700  0.62489800  1
  P  P3  1  0.86922700  0.24913000  0.87004000  1
  P  P4  1  0.75105700  0.62532300  0.12489800  1
  P  P5  1  0.24913000  0.86922700  0.37004000  1
  P  P6  1  0.12464700  0.38110500  0.25515800  1
  P  P7  1  0.38110500  0.12464700  0.75515800  1
  Pb  Pb8  1  0.34890300  0.49483100  0.50742200  1
  Pb  Pb9  1  0.14529600  0.64572700  0.84741600  1
  Pb  Pb10  1  0.00954400  0.00404100  0.64413500  1
  Pb  Pb11  1  0.49483100  0.34890300  0.00742200  1
  Pb  Pb12  1  0.64572700  0.14529600  0.34741600  1
  Pb  Pb13  1  0.00404100  0.00954400  0.14413500  1
  O  O14  1  0.64700000  0.79899700  0.76925900  1
  O  O15  1  0.06610000  0.40184100  0.73915900  1
  O  O16  1  0.43260000  0.68492300  0.65913600  1
  O  O17  1  0.83074900  0.08052400  0.84736700  1
  O  O18  1  0.79899700  0.64700000  0.26925900  1
  O  O19  1  0.40184100  0.06610000  0.23915900  1
  O  O20  1  0.68492300  0.43260000  0.15913600  1
  O  O21  1  0.08052400  0.83074900  0.34736700  1
  O  O22  1  0.15819100  0.34601300  0.41517100  1
  O  O23  1  0.36369800  0.93632100  0.81212900  1
  O  O24  1  0.26701200  0.57559000  0.09131600  1
  O  O25  1  0.24926900  0.14451200  0.68974000  1
  O  O26  1  0.83299900  0.19444000  0.06415800  1
  O  O27  1  0.66548500  0.59319500  0.64771700  1
  O  O28  1  0.74704100  0.32164700  0.82798300  1
  O  O29  1  0.76053900  0.91696200  0.43711600  1
  O  O30  1  0.19444000  0.83299900  0.56415800  1
  O  O31  1  0.59319500  0.66548500  0.14771700  1
  O  O32  1  0.32164700  0.74704100  0.32798300  1
  O  O33  1  0.91696200  0.76053900  0.93711600  1
  O  O34  1  0.34601300  0.15819100  0.91517100  1
  O  O35  1  0.93632100  0.36369800  0.31212900  1
  O  O36  1  0.57559000  0.26701200  0.59131600  1
  O  O37  1  0.14451200  0.24926900  0.18974000  1
