# generated using pymatgen
data_Na3Li3Cr2F12
_symmetry_space_group_name_H-M   'P 1'
_cell_length_a   10.87135546
_cell_length_b   10.87135546
_cell_length_c   10.87135546
_cell_angle_alpha   109.47122063
_cell_angle_beta   109.47122063
_cell_angle_gamma   109.47122063
_symmetry_Int_Tables_number   1
_chemical_formula_structural   Na3Li3Cr2F12
_chemical_formula_sum   'Na12 Li12 Cr8 F48'
_cell_volume   989.07493734
_cell_formula_units_Z   4
loop_
 _symmetry_equiv_pos_site_id
 _symmetry_equiv_pos_as_xyz
  1  'x, y, z'
loop_
 _atom_site_type_symbol
 _atom_site_label
 _atom_site_symmetry_multiplicity
 _atom_site_fract_x
 _atom_site_fract_y
 _atom_site_fract_z
 _atom_site_occupancy
  Na  Na0  1  0.87500000  0.75000000  0.62500000  1
  Na  Na1  1  0.62500000  0.25000000  0.87500000  1
  Na  Na2  1  0.25000000  0.87500000  0.62500000  1
  Na  Na3  1  0.87500000  0.62500000  0.25000000  1
  Na  Na4  1  0.62500000  0.87500000  0.75000000  1
  Na  Na5  1  0.75000000  0.62500000  0.87500000  1
  Na  Na6  1  0.12500000  0.25000000  0.37500000  1
  Na  Na7  1  0.37500000  0.75000000  0.12500000  1
  Na  Na8  1  0.75000000  0.12500000  0.37500000  1
  Na  Na9  1  0.12500000  0.37500000  0.75000000  1
  Na  Na10  1  0.25000000  0.37500000  0.12500000  1
  Na  Na11  1  0.37500000  0.12500000  0.25000000  1
  Li  Li12  1  0.62500000  0.37500000  0.25000000  1
  Li  Li13  1  0.25000000  0.12500000  0.87500000  1
  Li  Li14  1  0.75000000  0.87500000  0.12500000  1
  Li  Li15  1  0.12500000  0.75000000  0.87500000  1
  Li  Li16  1  0.37500000  0.25000000  0.62500000  1
  Li  Li17  1  0.87500000  0.12500000  0.75000000  1
  Li  Li18  1  0.87500000  0.25000000  0.12500000  1
  Li  Li19  1  0.62500000  0.75000000  0.37500000  1
  Li  Li20  1  0.75000000  0.37500000  0.62500000  1
  Li  Li21  1  0.37500000  0.62500000  0.75000000  1
  Li  Li22  1  0.12500000  0.87500000  0.25000000  1
  Li  Li23  1  0.25000000  0.62500000  0.37500000  1
  Cr  Cr24  1  0.50000000  0.50000000  0.50000000  1
  Cr  Cr25  1  0.50000000  0.00000000  0.50000000  1
  Cr  Cr26  1  0.00000000  0.50000000  0.50000000  1
  Cr  Cr27  1  0.50000000  0.50000000  0.00000000  1
  Cr  Cr28  1  0.00000000  0.00000000  0.50000000  1
  Cr  Cr29  1  0.00000000  0.50000000  0.00000000  1
  Cr  Cr30  1  0.50000000  0.00000000  0.00000000  1
  Cr  Cr31  1  0.00000000  0.00000000  0.00000000  1
  F  F32  1  0.42349600  0.82572400  0.80735900  1
  F  F33  1  0.40222800  0.82572400  0.51836500  1
  F  F34  1  0.07650400  0.69264100  0.67427600  1
  F  F35  1  0.09777200  0.61613700  0.42349600  1
  F  F36  1  0.51836500  0.40222800  0.82572400  1
  F  F37  1  0.07650400  0.88386300  0.40222800  1
  F  F38  1  0.98163500  0.67427600  0.09777200  1
  F  F39  1  0.82572400  0.80735900  0.42349600  1
  F  F40  1  0.69264100  0.67427600  0.07650400  1
  F  F41  1  0.80735900  0.88386300  0.98163500  1
  F  F42  1  0.98163500  0.80735900  0.88386300  1
  F  F43  1  0.82572400  0.51836500  0.40222800  1
  F  F44  1  0.69264100  0.51836500  0.61613700  1
  F  F45  1  0.61613700  0.42349600  0.09777200  1
  F  F46  1  0.61613700  0.69264100  0.51836500  1
  F  F47  1  0.67427600  0.07650400  0.69264100  1
  F  F48  1  0.51836500  0.61613700  0.69264100  1
  F  F49  1  0.42349600  0.09777200  0.61613700  1
  F  F50  1  0.09777200  0.98163500  0.67427600  1
  F  F51  1  0.88386300  0.40222800  0.07650400  1
  F  F52  1  0.11613700  0.01836500  0.19264100  1
  F  F53  1  0.59777200  0.92349600  0.11613700  1
  F  F54  1  0.19264100  0.57650400  0.17427600  1
  F  F55  1  0.17427600  0.19264100  0.57650400  1
  F  F56  1  0.32572400  0.90222800  0.01836500  1
  F  F57  1  0.01836500  0.32572400  0.90222800  1
  F  F58  1  0.92349600  0.11613700  0.59777200  1
  F  F59  1  0.48163500  0.59777200  0.17427600  1
  F  F60  1  0.90222800  0.38386300  0.57650400  1
  F  F61  1  0.92349600  0.30735900  0.32572400  1
  F  F62  1  0.59777200  0.17427600  0.48163500  1
  F  F63  1  0.57650400  0.90222800  0.38386300  1
  F  F64  1  0.30735900  0.32572400  0.92349600  1
  F  F65  1  0.19264100  0.11613700  0.01836500  1
  F  F66  1  0.01836500  0.19264100  0.11613700  1
  F  F67  1  0.17427600  0.48163500  0.59777200  1
  F  F68  1  0.30735900  0.48163500  0.38386300  1
  F  F69  1  0.38386300  0.57650400  0.90222800  1
  F  F70  1  0.38386300  0.30735900  0.48163500  1
  F  F71  1  0.32572400  0.92349600  0.30735900  1
  F  F72  1  0.48163500  0.38386300  0.30735900  1
  F  F73  1  0.90222800  0.01836500  0.32572400  1
  F  F74  1  0.11613700  0.59777200  0.92349600  1
  F  F75  1  0.57650400  0.17427600  0.19264100  1
  F  F76  1  0.88386300  0.98163500  0.80735900  1
  F  F77  1  0.40222800  0.07650400  0.88386300  1
  F  F78  1  0.80735900  0.42349600  0.82572400  1
  F  F79  1  0.67427600  0.09777200  0.98163500  1
