# generated using pymatgen
data_Ta3Te4ClO15
_symmetry_space_group_name_H-M   'P 1'
_cell_length_a   10.42312453
_cell_length_b   10.42312453
_cell_length_c   21.55243961
_cell_angle_alpha   65.51007849
_cell_angle_beta   65.51007849
_cell_angle_gamma   44.10426722
_symmetry_Int_Tables_number   1
_chemical_formula_structural   Ta3Te4ClO15
_chemical_formula_sum   'Ta12 Te16 Cl4 O60'
_cell_volume   1457.52464113
_cell_formula_units_Z   4
loop_
 _symmetry_equiv_pos_site_id
 _symmetry_equiv_pos_as_xyz
  1  'x, y, z'
loop_
 _atom_site_type_symbol
 _atom_site_label
 _atom_site_symmetry_multiplicity
 _atom_site_fract_x
 _atom_site_fract_y
 _atom_site_fract_z
 _atom_site_occupancy
  Ta  Ta0  1  0.75173600  0.00340300  0.49035000  1
  Ta  Ta1  1  0.24826400  0.99659700  0.50965000  1
  Ta  Ta2  1  0.99659700  0.24826400  0.00965000  1
  Ta  Ta3  1  0.00340300  0.75173600  0.99035000  1
  Ta  Ta4  1  0.49137200  0.75092500  0.00608400  1
  Ta  Ta5  1  0.50862800  0.24907500  0.99391600  1
  Ta  Ta6  1  0.24907500  0.50862800  0.49391600  1
  Ta  Ta7  1  0.75092500  0.49137200  0.50608400  1
  Ta  Ta8  1  0.14014600  0.36583500  0.25282500  1
  Ta  Ta9  1  0.85985400  0.63416500  0.74717500  1
  Ta  Ta10  1  0.63416500  0.85985400  0.24717500  1
  Ta  Ta11  1  0.36583500  0.14014600  0.75282500  1
  Te  Te12  1  0.73445800  0.60670900  0.12472600  1
  Te  Te13  1  0.26554200  0.39329100  0.87527400  1
  Te  Te14  1  0.39329100  0.26554200  0.37527400  1
  Te  Te15  1  0.60670900  0.73445800  0.62472600  1
  Te  Te16  1  0.12660700  0.00853000  0.36348200  1
  Te  Te17  1  0.87339300  0.99147000  0.63651800  1
  Te  Te18  1  0.99147000  0.87339300  0.13651800  1
  Te  Te19  1  0.00853000  0.12660700  0.86348200  1
  Te  Te20  1  0.23055100  0.12287800  0.14380600  1
  Te  Te21  1  0.76944900  0.87712200  0.85619400  1
  Te  Te22  1  0.87712200  0.76944900  0.35619400  1
  Te  Te23  1  0.12287800  0.23055100  0.64380600  1
  Te  Te24  1  0.51013100  0.39523000  0.12920200  1
  Te  Te25  1  0.48986900  0.60477000  0.87079800  1
  Te  Te26  1  0.60477000  0.48986900  0.37079800  1
  Te  Te27  1  0.39523000  0.51013100  0.62920200  1
  Cl  Cl28  1  0.45959500  0.54040500  0.25000000  1
  Cl  Cl29  1  0.54040500  0.45959500  0.75000000  1
  Cl  Cl30  1  0.96213300  0.03786700  0.25000000  1
  Cl  Cl31  1  0.03786700  0.96213300  0.75000000  1
  O  O32  1  0.07590900  0.34372700  0.18231100  1
  O  O33  1  0.92409100  0.65627300  0.81768900  1
  O  O34  1  0.65627300  0.92409100  0.31768900  1
  O  O35  1  0.34372700  0.07590900  0.68231100  1
  O  O36  1  0.99254000  0.25603600  0.50396000  1
  O  O37  1  0.00746000  0.74396400  0.49604000  1
  O  O38  1  0.74396400  0.00746000  0.99604000  1
  O  O39  1  0.25603600  0.99254000  0.00396000  1
  O  O40  1  0.76082000  0.03678900  0.57059500  1
  O  O41  1  0.23918000  0.96321100  0.42940500  1
  O  O42  1  0.96321100  0.23918000  0.92940500  1
  O  O43  1  0.03678900  0.76082000  0.07059500  1
  O  O44  1  0.37942000  0.08339300  0.24726400  1
  O  O45  1  0.62058000  0.91660700  0.75273600  1
  O  O46  1  0.91660700  0.62058000  0.25273600  1
  O  O47  1  0.08339300  0.37942000  0.74726400  1
  O  O48  1  0.76096100  0.94985100  0.40739900  1
  O  O49  1  0.23903900  0.05014900  0.59260100  1
  O  O50  1  0.05014900  0.23903900  0.09260100  1
  O  O51  1  0.94985100  0.76096100  0.90739900  1
  O  O52  1  0.52369400  0.80327900  0.07853500  1
  O  O53  1  0.47630600  0.19672100  0.92146500  1
  O  O54  1  0.19672100  0.47630600  0.42146500  1
  O  O55  1  0.80327900  0.52369400  0.57853500  1
  O  O56  1  0.63198400  0.90187000  0.55127200  1
  O  O57  1  0.36801600  0.09813000  0.44872800  1
  O  O58  1  0.09813000  0.36801600  0.94872800  1
  O  O59  1  0.90187000  0.63198400  0.05127200  1
  O  O60  1  0.74002100  0.47574000  0.03493200  1
  O  O61  1  0.25997900  0.52426000  0.96506800  1
  O  O62  1  0.52426000  0.25997900  0.46506800  1
  O  O63  1  0.47574000  0.74002100  0.53493200  1
  O  O64  1  0.01676000  0.26670500  0.32694900  1
  O  O65  1  0.98324000  0.73329500  0.67305100  1
  O  O66  1  0.73329500  0.98324000  0.17305100  1
  O  O67  1  0.26670500  0.01676000  0.82694900  1
  O  O68  1  0.52164800  0.33507200  0.05404700  1
  O  O69  1  0.47835200  0.66492800  0.94595300  1
  O  O70  1  0.66492800  0.47835200  0.44595300  1
  O  O71  1  0.33507200  0.52164800  0.55404700  1
  O  O72  1  0.22106000  0.34828100  0.32609500  1
  O  O73  1  0.77894000  0.65171900  0.67390500  1
  O  O74  1  0.65171900  0.77894000  0.17390500  1
  O  O75  1  0.34828100  0.22106000  0.82609500  1
  O  O76  1  0.36699500  0.65676300  0.08947800  1
  O  O77  1  0.63300500  0.34323700  0.91052200  1
  O  O78  1  0.34323700  0.63300500  0.41052200  1
  O  O79  1  0.65676300  0.36699500  0.58947800  1
  O  O80  1  0.28872000  0.43170500  0.18129700  1
  O  O81  1  0.71128000  0.56829500  0.81870300  1
  O  O82  1  0.56829500  0.71128000  0.31870300  1
  O  O83  1  0.43170500  0.28872000  0.68129700  1
  O  O84  1  0.36425500  0.19079000  0.06998000  1
  O  O85  1  0.63574500  0.80921000  0.93002000  1
  O  O86  1  0.80921000  0.63574500  0.43002000  1
  O  O87  1  0.19079000  0.36425500  0.56998000  1
  O  O88  1  0.89821200  0.08581100  0.42421900  1
  O  O89  1  0.10178800  0.91418900  0.57578100  1
  O  O90  1  0.91418900  0.10178800  0.07578100  1
  O  O91  1  0.08581100  0.89821200  0.92421900  1
