# generated using pymatgen
data_Sc3BPb
_symmetry_space_group_name_H-M   'P 1'
_cell_length_a   4.68904100
_cell_length_b   4.68904100
_cell_length_c   4.68904100
_cell_angle_alpha   90.00000000
_cell_angle_beta   90.00000000
_cell_angle_gamma   90.00000000
_symmetry_Int_Tables_number   1
_chemical_formula_structural   Sc3BPb
_chemical_formula_sum   'Sc3 B1 Pb1'
_cell_volume   103.09843916
_cell_formula_units_Z   1
loop_
 _symmetry_equiv_pos_site_id
 _symmetry_equiv_pos_as_xyz
  1  'x, y, z'
loop_
 _atom_site_type_symbol
 _atom_site_label
 _atom_site_symmetry_multiplicity
 _atom_site_fract_x
 _atom_site_fract_y
 _atom_site_fract_z
 _atom_site_occupancy
  Sc  Sc0  1  0.50000000  0.00000000  0.50000000  1
  Sc  Sc1  1  0.00000000  0.50000000  0.50000000  1
  Sc  Sc2  1  0.50000000  0.50000000  0.00000000  1
  B  B3  1  0.50000000  0.50000000  0.50000000  1
  Pb  Pb4  1  0.00000000  0.00000000  0.00000000  1
