# generated using pymatgen
data_YSiIr
_symmetry_space_group_name_H-M   'P 1'
_cell_length_a   4.23854600
_cell_length_b   6.86641400
_cell_length_c   7.50518100
_cell_angle_alpha   90.00000000
_cell_angle_beta   90.00000000
_cell_angle_gamma   90.00000000
_symmetry_Int_Tables_number   1
_chemical_formula_structural   YSiIr
_chemical_formula_sum   'Y4 Si4 Ir4'
_cell_volume   218.42787277
_cell_formula_units_Z   4
loop_
 _symmetry_equiv_pos_site_id
 _symmetry_equiv_pos_as_xyz
  1  'x, y, z'
loop_
 _atom_site_type_symbol
 _atom_site_label
 _atom_site_symmetry_multiplicity
 _atom_site_fract_x
 _atom_site_fract_y
 _atom_site_fract_z
 _atom_site_occupancy
  Y  Y0  1  0.25000000  0.00384500  0.31267900  1
  Y  Y1  1  0.25000000  0.50384500  0.18732100  1
  Y  Y2  1  0.75000000  0.99615500  0.68732100  1
  Y  Y3  1  0.75000000  0.49615500  0.81267900  1
  Si  Si4  1  0.25000000  0.29778000  0.60877700  1
  Si  Si5  1  0.25000000  0.79778000  0.89122300  1
  Si  Si6  1  0.75000000  0.70222000  0.39122300  1
  Si  Si7  1  0.75000000  0.20222000  0.10877700  1
  Ir  Ir8  1  0.25000000  0.15714800  0.93366100  1
  Ir  Ir9  1  0.25000000  0.65714800  0.56633900  1
  Ir  Ir10  1  0.75000000  0.84285200  0.06633900  1
  Ir  Ir11  1  0.75000000  0.34285200  0.43366100  1
