# generated using pymatgen
data_Ti2Co3Sn2
_symmetry_space_group_name_H-M   'P 1'
_cell_length_a   7.29922985
_cell_length_b   7.29922985
_cell_length_c   7.29922979
_cell_angle_alpha   33.88857997
_cell_angle_beta   33.88857997
_cell_angle_gamma   33.88857715
_symmetry_Int_Tables_number   1
_chemical_formula_structural   Ti2Co3Sn2
_chemical_formula_sum   'Ti2 Co3 Sn2'
_cell_volume   107.75204732
_cell_formula_units_Z   1
loop_
 _symmetry_equiv_pos_site_id
 _symmetry_equiv_pos_as_xyz
  1  'x, y, z'
loop_
 _atom_site_type_symbol
 _atom_site_label
 _atom_site_symmetry_multiplicity
 _atom_site_fract_x
 _atom_site_fract_y
 _atom_site_fract_z
 _atom_site_occupancy
  Ti  Ti0  1  0.75381400  0.75381400  0.75381400  1
  Ti  Ti1  1  0.24697500  0.24697500  0.24697500  1
  Co  Co2  1  0.12245300  0.12245300  0.12245300  1
  Co  Co3  1  0.62826400  0.62826400  0.62826400  1
  Co  Co4  1  0.37517500  0.37517500  0.37517500  1
  Sn  Sn5  1  0.99497900  0.99497900  0.99497900  1
  Sn  Sn6  1  0.50334000  0.50334000  0.50334000  1
