# generated using pymatgen
data_KCd(BO2)3
_symmetry_space_group_name_H-M   'P 1'
_cell_length_a   7.63747042
_cell_length_b   7.63747042
_cell_length_c   12.88688854
_cell_angle_alpha   82.22488931
_cell_angle_beta   82.22488931
_cell_angle_gamma   122.90860524
_symmetry_Int_Tables_number   1
_chemical_formula_structural   KCd(BO2)3
_chemical_formula_sum   'K4 Cd4 B12 O24'
_cell_volume   605.26605603
_cell_formula_units_Z   4
loop_
 _symmetry_equiv_pos_site_id
 _symmetry_equiv_pos_as_xyz
  1  'x, y, z'
loop_
 _atom_site_type_symbol
 _atom_site_label
 _atom_site_symmetry_multiplicity
 _atom_site_fract_x
 _atom_site_fract_y
 _atom_site_fract_z
 _atom_site_occupancy
  K  K0  1  0.16654300  0.68252300  0.13113900  1
  K  K1  1  0.31747700  0.83345700  0.36886100  1
  K  K2  1  0.83345700  0.31747700  0.86886100  1
  K  K3  1  0.68252300  0.16654300  0.63113900  1
  Cd  Cd4  1  0.52269800  0.37577300  0.12231400  1
  Cd  Cd5  1  0.62422700  0.47730200  0.37768600  1
  Cd  Cd6  1  0.47730200  0.62422700  0.87768600  1
  Cd  Cd7  1  0.37577300  0.52269800  0.62231400  1
  B  B8  1  0.68519800  0.07192400  0.12585900  1
  B  B9  1  0.92807600  0.31480200  0.37414100  1
  B  B10  1  0.31480200  0.92807600  0.87414100  1
  B  B11  1  0.07192400  0.68519900  0.62585900  1
  B  B12  1  0.81490600  0.84025800  0.15709900  1
  B  B13  1  0.15974200  0.18509400  0.34290100  1
  B  B14  1  0.18509400  0.15974200  0.84290100  1
  B  B15  1  0.84025800  0.81490600  0.65709900  1
  B  B16  1  0.07556500  0.23227100  0.08844200  1
  B  B17  1  0.76772900  0.92443500  0.41155800  1
  B  B18  1  0.92443500  0.76772900  0.91155800  1
  B  B19  1  0.23227100  0.07556500  0.58844200  1
  O  O20  1  0.27883700  0.40923200  0.06074600  1
  O  O21  1  0.59076800  0.72116300  0.43925400  1
  O  O22  1  0.72116300  0.59076800  0.93925400  1
  O  O23  1  0.40923200  0.27883700  0.56074600  1
  O  O24  1  0.64803100  0.86991400  0.16352000  1
  O  O25  1  0.13008600  0.35196900  0.33648000  1
  O  O26  1  0.35196900  0.13008600  0.83648000  1
  O  O27  1  0.86991400  0.64803100  0.66352000  1
  O  O28  1  0.90247100  0.25181500  0.08785600  1
  O  O29  1  0.74818500  0.09752900  0.41214400  1
  O  O30  1  0.09752900  0.74818500  0.91214400  1
  O  O31  1  0.25181500  0.90247100  0.58785600  1
  O  O32  1  0.77573900  0.64390200  0.18454600  1
  O  O33  1  0.35609800  0.22426100  0.31545400  1
  O  O34  1  0.22426100  0.35609800  0.81545400  1
  O  O35  1  0.64390200  0.77573900  0.68454600  1
  O  O36  1  0.02769400  0.02542900  0.12114300  1
  O  O37  1  0.97457100  0.97230600  0.37885700  1
  O  O38  1  0.97230600  0.97457100  0.87885700  1
  O  O39  1  0.02542900  0.02769400  0.62114300  1
  O  O40  1  0.51973100  0.08655600  0.12626500  1
  O  O41  1  0.91344400  0.48026900  0.37373500  1
  O  O42  1  0.48026900  0.91344400  0.87373500  1
  O  O43  1  0.08655600  0.51973100  0.62626500  1
