# generated using pymatgen
data_AgI3O8
_symmetry_space_group_name_H-M   'P 1'
_cell_length_a   13.41058127
_cell_length_b   13.41058127
_cell_length_c   13.41058127
_cell_angle_alpha   144.15640086
_cell_angle_beta   144.15640086
_cell_angle_gamma   51.59348248
_symmetry_Int_Tables_number   1
_chemical_formula_structural   AgI3O8
_chemical_formula_sum   'Ag4 I12 O32'
_cell_volume   822.46739086
_cell_formula_units_Z   4
loop_
 _symmetry_equiv_pos_site_id
 _symmetry_equiv_pos_as_xyz
  1  'x, y, z'
loop_
 _atom_site_type_symbol
 _atom_site_label
 _atom_site_symmetry_multiplicity
 _atom_site_fract_x
 _atom_site_fract_y
 _atom_site_fract_z
 _atom_site_occupancy
  Ag  Ag0  1  0.11615800  0.61615800  0.50000000  1
  Ag  Ag1  1  0.38384200  0.88384200  0.50000000  1
  Ag  Ag2  1  0.63029700  0.63029700  0.00000000  1
  Ag  Ag3  1  0.36970300  0.36970300  0.00000000  1
  I  I4  1  0.96973600  0.49906300  0.03020700  1
  I  I5  1  0.46885600  0.93952900  0.96979300  1
  I  I6  1  0.06047100  0.03026400  0.52932700  1
  I  I7  1  0.50093700  0.53114400  0.47067300  1
  I  I8  1  0.15767700  0.15767700  0.00000000  1
  I  I9  1  0.84232300  0.84232300  0.00000000  1
  I  I10  1  0.25691500  0.28106900  0.48058400  1
  I  I11  1  0.80048500  0.77633100  0.51941600  1
  I  I12  1  0.22366900  0.74308500  0.02415400  1
  I  I13  1  0.71893100  0.19951500  0.97584600  1
  I  I14  1  0.59428900  0.09428900  0.50000000  1
  I  I15  1  0.90571100  0.40571100  0.50000000  1
  O  O16  1  0.74968900  0.41741900  0.81651600  1
  O  O17  1  0.60090300  0.93317300  0.18348400  1
  O  O18  1  0.06682700  0.25031100  0.66773100  1
  O  O19  1  0.58258100  0.39909700  0.33226900  1
  O  O20  1  0.97771000  0.70359100  0.26640300  1
  O  O21  1  0.43718800  0.71130700  0.73359700  1
  O  O22  1  0.28869300  0.02229000  0.72588100  1
  O  O23  1  0.29640900  0.56281200  0.27411900  1
  O  O24  1  0.07796200  0.40051700  0.15440900  1
  O  O25  1  0.24610700  0.92355300  0.84559100  1
  O  O26  1  0.07644700  0.92203800  0.32255400  1
  O  O27  1  0.59948300  0.75389300  0.67744600  1
  O  O28  1  0.37241100  0.25356300  0.21443900  1
  O  O29  1  0.03912500  0.15797300  0.78556100  1
  O  O30  1  0.84202700  0.62758900  0.88115200  1
  O  O31  1  0.74643700  0.96087500  0.11884800  1
  O  O32  1  0.33758000  0.50296700  0.69902400  1
  O  O33  1  0.80394400  0.63855700  0.30097600  1
  O  O34  1  0.36144300  0.66242000  0.16538700  1
  O  O35  1  0.49703300  0.19605600  0.83461300  1
  O  O36  1  0.05150700  0.27723000  0.24858500  1
  O  O37  1  0.02864600  0.80292200  0.75141500  1
  O  O38  1  0.19707800  0.94849300  0.22572300  1
  O  O39  1  0.72277000  0.97135400  0.77427600  1
  O  O40  1  0.35518700  0.18092800  0.35916000  1
  O  O41  1  0.82176800  0.99602700  0.64084000  1
  O  O42  1  0.00397300  0.64481300  0.82574100  1
  O  O43  1  0.81907200  0.17823200  0.17425900  1
  O  O44  1  0.49204300  0.87943500  0.27672400  1
  O  O45  1  0.60271100  0.21531800  0.72327600  1
  O  O46  1  0.78468200  0.50795700  0.38739200  1
  O  O47  1  0.12056500  0.39728900  0.61260800  1
