# generated using pymatgen
data_RbSm(MoO4)2
_symmetry_space_group_name_H-M   'P 1'
_cell_length_a   5.22273200
_cell_length_b   8.30824100
_cell_length_c   18.95172800
_cell_angle_alpha   90.00000000
_cell_angle_beta   90.00000000
_cell_angle_gamma   90.00000000
_symmetry_Int_Tables_number   1
_chemical_formula_structural   RbSm(MoO4)2
_chemical_formula_sum   'Rb4 Sm4 Mo8 O32'
_cell_volume   822.34800163
_cell_formula_units_Z   4
loop_
 _symmetry_equiv_pos_site_id
 _symmetry_equiv_pos_as_xyz
  1  'x, y, z'
loop_
 _atom_site_type_symbol
 _atom_site_label
 _atom_site_symmetry_multiplicity
 _atom_site_fract_x
 _atom_site_fract_y
 _atom_site_fract_z
 _atom_site_occupancy
  Rb  Rb0  1  0.00000000  0.75000000  0.76917800  1
  Rb  Rb1  1  0.00000000  0.25000000  0.23082200  1
  Rb  Rb2  1  0.50000000  0.25000000  0.73082200  1
  Rb  Rb3  1  0.50000000  0.75000000  0.26917800  1
  Sm  Sm4  1  0.00000000  0.75000000  0.00627600  1
  Sm  Sm5  1  0.00000000  0.25000000  0.99372400  1
  Sm  Sm6  1  0.50000000  0.25000000  0.49372400  1
  Sm  Sm7  1  0.50000000  0.75000000  0.50627600  1
  Mo  Mo8  1  0.02263800  0.51632800  0.39919000  1
  Mo  Mo9  1  0.97736200  0.48367200  0.60081000  1
  Mo  Mo10  1  0.47736200  0.01632800  0.10081000  1
  Mo  Mo11  1  0.97736200  0.98367200  0.39919000  1
  Mo  Mo12  1  0.52263800  0.98367200  0.89919000  1
  Mo  Mo13  1  0.02263800  0.01632800  0.60081000  1
  Mo  Mo14  1  0.52263800  0.48367200  0.10081000  1
  Mo  Mo15  1  0.47736200  0.51632800  0.89919000  1
  O  O16  1  0.10095900  0.97432100  0.31314200  1
  O  O17  1  0.89904100  0.02567900  0.68685800  1
  O  O18  1  0.39904100  0.47432100  0.18685800  1
  O  O19  1  0.89904100  0.52567900  0.31314200  1
  O  O20  1  0.60095900  0.52567900  0.81314200  1
  O  O21  1  0.10095900  0.47432100  0.68685800  1
  O  O22  1  0.60095900  0.02567900  0.18685800  1
  O  O23  1  0.39904100  0.97432100  0.81314200  1
  O  O24  1  0.27335500  0.84190500  0.09944700  1
  O  O25  1  0.72664500  0.15809500  0.90055300  1
  O  O26  1  0.22664500  0.34190500  0.40055300  1
  O  O27  1  0.72664500  0.65809500  0.09944700  1
  O  O28  1  0.77335500  0.65809500  0.59944700  1
  O  O29  1  0.27335500  0.34190500  0.90055300  1
  O  O30  1  0.77335500  0.15809500  0.40055300  1
  O  O31  1  0.22664500  0.84190500  0.59944700  1
  O  O32  1  0.25303500  0.50256600  0.03655400  1
  O  O33  1  0.74696500  0.49743400  0.96344600  1
  O  O34  1  0.24696500  0.00256600  0.46344600  1
  O  O35  1  0.74696500  0.99743400  0.03655400  1
  O  O36  1  0.75303500  0.99743400  0.53655400  1
  O  O37  1  0.25303500  0.00256600  0.96344600  1
  O  O38  1  0.75303500  0.49743400  0.46344600  1
  O  O39  1  0.24696500  0.50256600  0.53655400  1
  O  O40  1  0.23960600  0.68631500  0.40838100  1
  O  O41  1  0.76039400  0.31368500  0.59161900  1
  O  O42  1  0.26039400  0.18631500  0.09161900  1
  O  O43  1  0.76039400  0.81368500  0.40838100  1
  O  O44  1  0.73960600  0.81368500  0.90838100  1
  O  O45  1  0.23960600  0.18631500  0.59161900  1
  O  O46  1  0.73960600  0.31368500  0.09161900  1
  O  O47  1  0.26039400  0.68631500  0.90838100  1
