# generated using pymatgen
data_Na5SrTaP4
_symmetry_space_group_name_H-M   'P 1'
_cell_length_a   9.34683512
_cell_length_b   9.34683512
_cell_length_c   7.37416661
_cell_angle_alpha   89.90731219
_cell_angle_beta   89.90731219
_cell_angle_gamma   120.01531056
_symmetry_Int_Tables_number   1
_chemical_formula_structural   Na5SrTaP4
_chemical_formula_sum   'Na10 Sr2 Ta2 P8'
_cell_volume   557.83202512
_cell_formula_units_Z   2
loop_
 _symmetry_equiv_pos_site_id
 _symmetry_equiv_pos_as_xyz
  1  'x, y, z'
loop_
 _atom_site_type_symbol
 _atom_site_label
 _atom_site_symmetry_multiplicity
 _atom_site_fract_x
 _atom_site_fract_y
 _atom_site_fract_z
 _atom_site_occupancy
  Na  Na0  1  0.53389400  0.47141900  0.61234600  1
  Na  Na1  1  0.93697200  0.47030200  0.61238400  1
  Na  Na2  1  0.47141900  0.53389400  0.11234600  1
  Na  Na3  1  0.47030200  0.93697200  0.11238400  1
  Na  Na4  1  0.13925400  0.85324900  0.78255300  1
  Na  Na5  1  0.71143000  0.85012000  0.78632200  1
  Na  Na6  1  0.14636700  0.28931700  0.77878700  1
  Na  Na7  1  0.85324900  0.13925400  0.28255300  1
  Na  Na8  1  0.28931700  0.14636700  0.27878700  1
  Na  Na9  1  0.85012000  0.71143000  0.28632200  1
  Sr  Sr10  1  0.53273600  0.06349400  0.60877300  1
  Sr  Sr11  1  0.06349400  0.53273600  0.10877300  1
  Ta  Ta12  1  0.33298900  0.66270600  0.50006800  1
  Ta  Ta13  1  0.66270600  0.33298900  0.00006800  1
  P  P14  1  0.80816700  0.19430700  0.89656900  1
  P  P15  1  0.38412000  0.19109300  0.89407300  1
  P  P16  1  0.80995600  0.61505900  0.89955900  1
  P  P17  1  0.19430700  0.80816700  0.39656900  1
  P  P18  1  0.61505900  0.80995600  0.39955900  1
  P  P19  1  0.19109300  0.38412000  0.39407300  1
  P  P20  1  0.33357600  0.66947300  0.82566600  1
  P  P21  1  0.66947300  0.33357600  0.32566600  1
