# generated using pymatgen
data_La4Si2S3O7
_symmetry_space_group_name_H-M   'P 1'
_cell_length_a   11.26289293
_cell_length_b   11.26289293
_cell_length_c   11.26289293
_cell_angle_alpha   114.37100328
_cell_angle_beta   114.37100328
_cell_angle_gamma   100.06195800
_symmetry_Int_Tables_number   1
_chemical_formula_structural   La4Si2S3O7
_chemical_formula_sum   'La16 Si8 S12 O28'
_cell_volume   1078.12507775
_cell_formula_units_Z   4
loop_
 _symmetry_equiv_pos_site_id
 _symmetry_equiv_pos_as_xyz
  1  'x, y, z'
loop_
 _atom_site_type_symbol
 _atom_site_label
 _atom_site_symmetry_multiplicity
 _atom_site_fract_x
 _atom_site_fract_y
 _atom_site_fract_z
 _atom_site_occupancy
  La  La0  1  0.42101100  0.92101100  0.84202100  1
  La  La1  1  0.67101100  0.32898900  0.00000000  1
  La  La2  1  0.32898900  0.67101100  0.00000000  1
  La  La3  1  0.07898900  0.57898900  0.15797900  1
  La  La4  1  0.32898900  0.32898900  0.65797900  1
  La  La5  1  0.07898900  0.92101100  0.50000000  1
  La  La6  1  0.42101100  0.57898900  0.50000000  1
  La  La7  1  0.67101100  0.67101100  0.34202100  1
  La  La8  1  0.71810500  0.98114800  0.26304300  1
  La  La9  1  0.71810500  0.45506200  0.73695700  1
  La  La10  1  0.01885200  0.28189500  0.73695700  1
  La  La11  1  0.20506200  0.96810500  0.23695700  1
  La  La12  1  0.73114800  0.96810500  0.76304300  1
  La  La13  1  0.03189500  0.79493800  0.76304300  1
  La  La14  1  0.03189500  0.26885200  0.23695700  1
  La  La15  1  0.54493800  0.28189500  0.26304300  1
  Si  Si16  1  0.47280900  0.84935300  0.37654400  1
  Si  Si17  1  0.47280900  0.09626400  0.62345600  1
  Si  Si18  1  0.15064700  0.52719100  0.62345600  1
  Si  Si19  1  0.84626400  0.72280900  0.12345600  1
  Si  Si20  1  0.59935300  0.72280900  0.87654400  1
  Si  Si21  1  0.27719100  0.15373600  0.87654400  1
  Si  Si22  1  0.27719100  0.40064700  0.12345600  1
  Si  Si23  1  0.90373600  0.52719100  0.37654400  1
  S  S24  1  0.37500000  0.97591600  0.10091600  1
  S  S25  1  0.72591600  0.12500000  0.10091600  1
  S  S26  1  0.02408400  0.62500000  0.89908400  1
  S  S27  1  0.87500000  0.27408400  0.89908400  1
  S  S28  1  0.37500000  0.27408400  0.39908400  1
  S  S29  1  0.02408400  0.12500000  0.39908400  1
  S  S30  1  0.72591600  0.62500000  0.60091600  1
  S  S31  1  0.87500000  0.97591600  0.60091600  1
  S  S32  1  0.00000000  0.00000000  0.00000000  1
  S  S33  1  0.75000000  0.25000000  0.50000000  1
  S  S34  1  0.25000000  0.75000000  0.50000000  1
  S  S35  1  0.50000000  0.50000000  0.00000000  1
  O  O36  1  0.54977100  0.82535100  0.27558000  1
  O  O37  1  0.54977100  0.27419000  0.72442000  1
  O  O38  1  0.17464900  0.45022900  0.72442000  1
  O  O39  1  0.02419000  0.79977100  0.22442000  1
  O  O40  1  0.57535100  0.79977100  0.77558000  1
  O  O41  1  0.20022900  0.97581000  0.77558000  1
  O  O42  1  0.20022900  0.42464900  0.22442000  1
  O  O43  1  0.72581000  0.45022900  0.27558000  1
  O  O44  1  0.51987600  0.01987600  0.50000000  1
  O  O45  1  0.76987600  0.76987600  0.00000000  1
  O  O46  1  0.23012400  0.23012400  0.00000000  1
  O  O47  1  0.98012400  0.48012400  0.50000000  1
  O  O48  1  0.21364800  0.47101300  0.02267900  1
  O  O49  1  0.44833400  0.19096900  0.97732100  1
  O  O50  1  0.52898700  0.78635200  0.97732100  1
  O  O51  1  0.94096900  0.46364800  0.24263500  1
  O  O52  1  0.22101300  0.69833400  0.75736500  1
  O  O53  1  0.53635200  0.05903100  0.75736500  1
  O  O54  1  0.30166600  0.77898700  0.24263500  1
  O  O55  1  0.80903100  0.55166600  0.02267900  1
  O  O56  1  0.53635200  0.77898700  0.47732100  1
  O  O57  1  0.30166600  0.05903100  0.52267900  1
  O  O58  1  0.22101300  0.46364800  0.52267900  1
  O  O59  1  0.80903100  0.78635200  0.25736500  1
  O  O60  1  0.52898700  0.55166600  0.74263500  1
  O  O61  1  0.21364800  0.19096900  0.74263500  1
  O  O62  1  0.44833400  0.47101300  0.25736500  1
  O  O63  1  0.94096900  0.69833400  0.47732100  1
