# generated using pymatgen
data_KSc(MoO4)2
_symmetry_space_group_name_H-M   'P 1'
_cell_length_a   5.88498927
_cell_length_b   5.88498927
_cell_length_c   7.40486600
_cell_angle_alpha   90.00000000
_cell_angle_beta   90.00000000
_cell_angle_gamma   119.99999181
_symmetry_Int_Tables_number   1
_chemical_formula_structural   KSc(MoO4)2
_chemical_formula_sum   'K1 Sc1 Mo2 O8'
_cell_volume   222.09522545
_cell_formula_units_Z   1
loop_
 _symmetry_equiv_pos_site_id
 _symmetry_equiv_pos_as_xyz
  1  'x, y, z'
loop_
 _atom_site_type_symbol
 _atom_site_label
 _atom_site_symmetry_multiplicity
 _atom_site_fract_x
 _atom_site_fract_y
 _atom_site_fract_z
 _atom_site_occupancy
  K  K0  1  0.00000000  0.00000000  0.50000000  1
  Sc  Sc1  1  0.00000000  0.00000000  0.00000000  1
  Mo  Mo2  1  0.33333300  0.66666700  0.24818000  1
  Mo  Mo3  1  0.66666700  0.33333300  0.75182000  1
  O  O4  1  0.32900000  0.16450000  0.82807700  1
  O  O5  1  0.83550000  0.16450000  0.82807700  1
  O  O6  1  0.83550000  0.67100000  0.82807700  1
  O  O7  1  0.16450000  0.83550000  0.17192300  1
  O  O8  1  0.33333300  0.66666700  0.48436800  1
  O  O9  1  0.66666700  0.33333300  0.51563200  1
  O  O10  1  0.16450000  0.32900000  0.17192300  1
  O  O11  1  0.67100000  0.83550000  0.17192300  1
