# generated using pymatgen
data_LiZn2(BH4)5
_symmetry_space_group_name_H-M   'P 1'
_cell_length_a   9.92065154
_cell_length_b   9.92065154
_cell_length_c   15.95147700
_cell_angle_alpha   90.00000000
_cell_angle_beta   90.00000000
_cell_angle_gamma   127.56339431
_symmetry_Int_Tables_number   1
_chemical_formula_structural   LiZn2(BH4)5
_chemical_formula_sum   'Li4 Zn8 B20 H80'
_cell_volume   1244.45388813
_cell_formula_units_Z   4
loop_
 _symmetry_equiv_pos_site_id
 _symmetry_equiv_pos_as_xyz
  1  'x, y, z'
loop_
 _atom_site_type_symbol
 _atom_site_label
 _atom_site_symmetry_multiplicity
 _atom_site_fract_x
 _atom_site_fract_y
 _atom_site_fract_z
 _atom_site_occupancy
  Li  Li0  1  0.64950300  0.35049700  0.94043000  1
  Li  Li1  1  0.35049700  0.64950300  0.05957000  1
  Li  Li2  1  0.85049700  0.14950300  0.44043000  1
  Li  Li3  1  0.14950300  0.85049700  0.55957000  1
  Zn  Zn4  1  0.15041300  0.84958700  0.26428900  1
  Zn  Zn5  1  0.84958700  0.15041300  0.73571100  1
  Zn  Zn6  1  0.34958700  0.65041300  0.76428900  1
  Zn  Zn7  1  0.65041300  0.34958700  0.23571100  1
  Zn  Zn8  1  0.92930600  0.07069400  0.12083700  1
  Zn  Zn9  1  0.07069400  0.92930600  0.87916300  1
  Zn  Zn10  1  0.57069400  0.42930600  0.62083700  1
  Zn  Zn11  1  0.42930600  0.57069400  0.37916300  1
  B  B12  1  0.76028500  0.23971500  0.83036000  1
  B  B13  1  0.23971500  0.76028500  0.16964000  1
  B  B14  1  0.73971500  0.26028500  0.33036000  1
  B  B15  1  0.26028500  0.73971500  0.66964000  1
  B  B16  1  0.85419700  0.14580300  0.59854600  1
  B  B17  1  0.14580300  0.85419700  0.40145400  1
  B  B18  1  0.64580300  0.35419700  0.09854600  1
  B  B19  1  0.35419700  0.64580300  0.90145400  1
  B  B20  1  0.03903400  0.96096600  0.19179100  1
  B  B21  1  0.96096600  0.03903400  0.80820900  1
  B  B22  1  0.46096600  0.53903400  0.69179100  1
  B  B23  1  0.53903400  0.46096600  0.30820900  1
  B  B24  1  0.65943900  0.88058600  0.09324900  1
  B  B25  1  0.88058600  0.65943900  0.90675100  1
  B  B26  1  0.38058600  0.15943900  0.59324900  1
  B  B27  1  0.15943900  0.38058600  0.40675100  1
  B  B28  1  0.34056100  0.11941400  0.90675100  1
  B  B29  1  0.11941400  0.34056100  0.09324900  1
  B  B30  1  0.61941400  0.84056100  0.40675100  1
  B  B31  1  0.84056100  0.61941400  0.59324900  1
  H  H32  1  0.69315900  0.30684100  0.81693200  1
  H  H33  1  0.30684100  0.69315900  0.18306800  1
  H  H34  1  0.80684100  0.19315900  0.31693200  1
  H  H35  1  0.19315900  0.80684100  0.68306800  1
  H  H36  1  0.78202000  0.21798000  0.90221600  1
  H  H37  1  0.21798000  0.78202000  0.09778400  1
  H  H38  1  0.71798000  0.28202000  0.40221600  1
  H  H39  1  0.28202000  0.71798000  0.59778400  1
  H  H40  1  0.66324200  0.09578800  0.79558800  1
  H  H41  1  0.09578800  0.66324200  0.20441200  1
  H  H42  1  0.59578800  0.16324200  0.29558800  1
  H  H43  1  0.16324200  0.59578800  0.70441200  1
  H  H44  1  0.33675800  0.90421200  0.20441200  1
  H  H45  1  0.90421200  0.33675800  0.79558800  1
  H  H46  1  0.40421200  0.83675800  0.70441200  1
  H  H47  1  0.83675800  0.40421200  0.29558800  1
  H  H48  1  0.79250700  0.20749300  0.63584900  1
  H  H49  1  0.20749300  0.79250700  0.36415100  1
  H  H50  1  0.70749300  0.29250700  0.13584900  1
  H  H51  1  0.29250700  0.70749300  0.86415100  1
  H  H52  1  0.91219800  0.08780200  0.64277100  1
  H  H53  1  0.08780200  0.91219800  0.35722900  1
  H  H54  1  0.58780200  0.41219800  0.14277100  1
  H  H55  1  0.41219800  0.58780200  0.85722900  1
  H  H56  1  0.73838100  0.02483700  0.55987500  1
  H  H57  1  0.02483700  0.73838100  0.44012500  1
  H  H58  1  0.52483700  0.23838100  0.05987500  1
  H  H59  1  0.23838100  0.52483700  0.94012500  1
  H  H60  1  0.26161900  0.97516300  0.44012500  1
  H  H61  1  0.97516300  0.26161900  0.55987500  1
  H  H62  1  0.47516300  0.76161900  0.94012500  1
  H  H63  1  0.76161900  0.47516300  0.05987500  1
  H  H64  1  0.97946600  0.02053400  0.23115400  1
  H  H65  1  0.02053400  0.97946600  0.76884600  1
  H  H66  1  0.52053400  0.47946600  0.73115400  1
  H  H67  1  0.47946600  0.52053400  0.26884600  1
  H  H68  1  0.03650900  0.96349100  0.11432400  1
  H  H69  1  0.96349100  0.03650900  0.88567600  1
  H  H70  1  0.46349100  0.53650900  0.61432400  1
  H  H71  1  0.53650900  0.46349100  0.38567600  1
  H  H72  1  0.94984400  0.80902900  0.21057700  1
  H  H73  1  0.80902900  0.94984400  0.78942300  1
  H  H74  1  0.30902900  0.44984400  0.71057700  1
  H  H75  1  0.44984400  0.30902900  0.28942300  1
  H  H76  1  0.05015600  0.19097100  0.78942300  1
  H  H77  1  0.19097100  0.05015600  0.21057700  1
  H  H78  1  0.69097100  0.55015600  0.28942300  1
  H  H79  1  0.55015600  0.69097100  0.71057700  1
  H  H80  1  0.77192000  0.92509400  0.03932700  1
  H  H81  1  0.92509400  0.77192000  0.96067300  1
  H  H82  1  0.42509400  0.27192000  0.53932700  1
  H  H83  1  0.27192000  0.42509400  0.46067300  1
  H  H84  1  0.22808000  0.07490600  0.96067300  1
  H  H85  1  0.07490600  0.22808000  0.03932700  1
  H  H86  1  0.57490600  0.72808000  0.46067300  1
  H  H87  1  0.72808000  0.57490600  0.53932700  1
  H  H88  1  0.59530300  0.73438200  0.11165900  1
  H  H89  1  0.73438200  0.59530300  0.88834100  1
  H  H90  1  0.23438200  0.09530300  0.61165900  1
  H  H91  1  0.09530300  0.23438200  0.38834100  1
  H  H92  1  0.40469700  0.26561800  0.88834100  1
  H  H93  1  0.26561800  0.40469700  0.11165900  1
  H  H94  1  0.76561800  0.90469700  0.38834100  1
  H  H95  1  0.90469700  0.76561800  0.61165900  1
  H  H96  1  0.71251300  0.96527500  0.16030800  1
  H  H97  1  0.96527500  0.71251300  0.83969200  1
  H  H98  1  0.46527500  0.21251300  0.66030800  1
  H  H99  1  0.21251300  0.46527500  0.33969200  1
  H  H100  1  0.28748700  0.03472500  0.83969200  1
  H  H101  1  0.03472500  0.28748700  0.16030800  1
  H  H102  1  0.53472500  0.78748700  0.33969200  1
  H  H103  1  0.78748700  0.53472500  0.66030800  1
  H  H104  1  0.56976800  0.91195800  0.06216100  1
  H  H105  1  0.91195800  0.56976900  0.93783900  1
  H  H106  1  0.41195800  0.06976800  0.56216100  1
  H  H107  1  0.06976900  0.41195800  0.43783900  1
  H  H108  1  0.43023200  0.08804200  0.93783900  1
  H  H109  1  0.08804200  0.43023200  0.06216100  1
  H  H110  1  0.58804200  0.93023200  0.43783900  1
  H  H111  1  0.93023200  0.58804200  0.56216100  1
