# generated using pymatgen
data_HfScGe4
_symmetry_space_group_name_H-M   'P 1'
_cell_length_a   7.76919266
_cell_length_b   7.76919266
_cell_length_c   3.80644400
_cell_angle_alpha   90.00000000
_cell_angle_beta   90.00000000
_cell_angle_gamma   151.23856518
_symmetry_Int_Tables_number   1
_chemical_formula_structural   HfScGe4
_chemical_formula_sum   'Hf1 Sc1 Ge4'
_cell_volume   110.55136563
_cell_formula_units_Z   1
loop_
 _symmetry_equiv_pos_site_id
 _symmetry_equiv_pos_as_xyz
  1  'x, y, z'
loop_
 _atom_site_type_symbol
 _atom_site_label
 _atom_site_symmetry_multiplicity
 _atom_site_fract_x
 _atom_site_fract_y
 _atom_site_fract_z
 _atom_site_occupancy
  Hf  Hf0  1  0.10443900  0.89556100  0.00000000  1
  Sc  Sc1  1  0.89671600  0.10328400  0.50000000  1
  Ge  Ge2  1  0.44056800  0.55943200  0.00000000  1
  Ge  Ge3  1  0.55951800  0.44048200  0.50000000  1
  Ge  Ge4  1  0.74885200  0.25114800  0.00000000  1
  Ge  Ge5  1  0.24990800  0.75009200  0.50000000  1
