# generated using pymatgen
data_Sm2(Al3Ir)3
_symmetry_space_group_name_H-M   'P 1'
_cell_length_a   7.58637360
_cell_length_b   7.58637360
_cell_length_c   9.54155100
_cell_angle_alpha   90.00000000
_cell_angle_beta   90.00000000
_cell_angle_gamma   119.33140924
_symmetry_Int_Tables_number   1
_chemical_formula_structural   Sm2(Al3Ir)3
_chemical_formula_sum   'Sm4 Al18 Ir6'
_cell_volume   478.74552083
_cell_formula_units_Z   2
loop_
 _symmetry_equiv_pos_site_id
 _symmetry_equiv_pos_as_xyz
  1  'x, y, z'
loop_
 _atom_site_type_symbol
 _atom_site_label
 _atom_site_symmetry_multiplicity
 _atom_site_fract_x
 _atom_site_fract_y
 _atom_site_fract_z
 _atom_site_occupancy
  Sm  Sm0  1  0.99487600  0.66974600  0.75000000  1
  Sm  Sm1  1  0.00512400  0.33025400  0.25000000  1
  Sm  Sm2  1  0.66974600  0.99487600  0.75000000  1
  Sm  Sm3  1  0.33025400  0.00512400  0.25000000  1
  Al  Al4  1  0.12949300  0.12949300  0.75000000  1
  Al  Al5  1  0.87050700  0.87050700  0.25000000  1
  Al  Al6  1  0.00292600  0.33505900  0.57279400  1
  Al  Al7  1  0.99707400  0.66494100  0.42720600  1
  Al  Al8  1  0.99707400  0.66494100  0.07279400  1
  Al  Al9  1  0.33505900  0.00292600  0.92720600  1
  Al  Al10  1  0.00292600  0.33505900  0.92720600  1
  Al  Al11  1  0.66494100  0.99707400  0.07279400  1
  Al  Al12  1  0.66494100  0.99707400  0.42720600  1
  Al  Al13  1  0.33505900  0.00292600  0.57279400  1
  Al  Al14  1  0.33428600  0.33428600  0.05043000  1
  Al  Al15  1  0.66571400  0.66571400  0.94957000  1
  Al  Al16  1  0.66571400  0.66571400  0.55043000  1
  Al  Al17  1  0.33428600  0.33428600  0.44957000  1
  Al  Al18  1  0.33823100  0.54501500  0.75000000  1
  Al  Al19  1  0.66176900  0.45498500  0.25000000  1
  Al  Al20  1  0.54501500  0.33823100  0.75000000  1
  Al  Al21  1  0.45498500  0.66176900  0.25000000  1
  Ir  Ir22  1  0.67117900  0.32882100  0.50000000  1
  Ir  Ir23  1  0.32882100  0.67117900  0.50000000  1
  Ir  Ir24  1  0.32882100  0.67117900  0.00000000  1
  Ir  Ir25  1  0.67117900  0.32882100  0.00000000  1
  Ir  Ir26  1  0.00000000  0.00000000  0.50000000  1
  Ir  Ir27  1  0.00000000  0.00000000  0.00000000  1
