# generated using pymatgen
data_Dy5(SiB4)2
_symmetry_space_group_name_H-M   'P 1'
_cell_length_a   7.23019500
_cell_length_b   7.23019500
_cell_length_c   8.08990400
_cell_angle_alpha   90.00000000
_cell_angle_beta   90.00000000
_cell_angle_gamma   90.00000000
_symmetry_Int_Tables_number   1
_chemical_formula_structural   Dy5(SiB4)2
_chemical_formula_sum   'Dy10 Si4 B16'
_cell_volume   422.90555421
_cell_formula_units_Z   2
loop_
 _symmetry_equiv_pos_site_id
 _symmetry_equiv_pos_as_xyz
  1  'x, y, z'
loop_
 _atom_site_type_symbol
 _atom_site_label
 _atom_site_symmetry_multiplicity
 _atom_site_fract_x
 _atom_site_fract_y
 _atom_site_fract_z
 _atom_site_occupancy
  Dy  Dy0  1  0.68042400  0.18042400  0.22415400  1
  Dy  Dy1  1  0.31957600  0.81957600  0.77584600  1
  Dy  Dy2  1  0.31957600  0.81957600  0.22415400  1
  Dy  Dy3  1  0.81957600  0.68042400  0.22415400  1
  Dy  Dy4  1  0.81957600  0.68042400  0.77584600  1
  Dy  Dy5  1  0.68042400  0.18042400  0.77584600  1
  Dy  Dy6  1  0.18042400  0.31957600  0.77584600  1
  Dy  Dy7  1  0.18042400  0.31957600  0.22415400  1
  Dy  Dy8  1  0.00000000  0.00000000  0.50000000  1
  Dy  Dy9  1  0.50000000  0.50000000  0.50000000  1
  Si  Si10  1  0.11486300  0.61486300  0.50000000  1
  Si  Si11  1  0.88513700  0.38513700  0.50000000  1
  Si  Si12  1  0.38513700  0.11486300  0.50000000  1
  Si  Si13  1  0.61486300  0.88513700  0.50000000  1
  B  B14  1  0.17261700  0.03915700  0.00000000  1
  B  B15  1  0.82738300  0.96084300  0.00000000  1
  B  B16  1  0.96084300  0.17261700  0.00000000  1
  B  B17  1  0.32738300  0.53915700  0.00000000  1
  B  B18  1  0.03915700  0.82738300  0.00000000  1
  B  B19  1  0.67261700  0.46084300  0.00000000  1
  B  B20  1  0.53915700  0.67261700  0.00000000  1
  B  B21  1  0.46084300  0.32738300  0.00000000  1
  B  B22  1  0.08989000  0.58989000  0.00000000  1
  B  B23  1  0.91011000  0.41011000  0.00000000  1
  B  B24  1  0.41011000  0.08989000  0.00000000  1
  B  B25  1  0.58989000  0.91011000  0.00000000  1
  B  B26  1  0.00000000  0.00000000  0.16250300  1
  B  B27  1  0.00000000  0.00000000  0.83749700  1
  B  B28  1  0.50000000  0.50000000  0.83749700  1
  B  B29  1  0.50000000  0.50000000  0.16250300  1
