# generated using pymatgen
data_Mg149Sb
_symmetry_space_group_name_H-M   'P 1'
_cell_length_a   15.98666086
_cell_length_b   15.98666828
_cell_length_c   15.62393673
_cell_angle_alpha   90.00000000
_cell_angle_beta   90.00000000
_cell_angle_gamma   120.00001054
_symmetry_Int_Tables_number   1
_chemical_formula_structural   Mg149Sb
_chemical_formula_sum   'Mg149 Sb1'
_cell_volume   3458.09390782
_cell_formula_units_Z   1
loop_
 _symmetry_equiv_pos_site_id
 _symmetry_equiv_pos_as_xyz
  1  'x, y, z'
loop_
 _atom_site_type_symbol
 _atom_site_label
 _atom_site_symmetry_multiplicity
 _atom_site_fract_x
 _atom_site_fract_y
 _atom_site_fract_z
 _atom_site_occupancy
  Mg  Mg0  1  0.79877781  0.00126921  0.00000000  1
  Mg  Mg1  1  0.20249140  0.00126921  0.00000000  1
  Mg  Mg2  1  0.79996471  0.20003529  0.00000000  1
  Mg  Mg3  1  0.40007059  0.20003529  0.00000000  1
  Mg  Mg4  1  0.60013896  0.20027893  0.00000000  1
  Mg  Mg5  1  0.99873079  0.20122219  0.00000000  1
  Mg  Mg6  1  0.20249140  0.20122219  0.00000000  1
  Mg  Mg7  1  0.19947415  0.39894830  0.00000000  1
  Mg  Mg8  1  0.60013896  0.39986004  0.00000000  1
  Mg  Mg9  1  0.79972107  0.39986004  0.00000000  1
  Mg  Mg10  1  0.00020444  0.40080119  0.00000000  1
  Mg  Mg11  1  0.40059675  0.40080219  0.00000000  1
  Mg  Mg12  1  0.00020444  0.59940325  0.00000000  1
  Mg  Mg13  1  0.59919781  0.59940325  0.00000000  1
  Mg  Mg14  1  0.79996471  0.59993041  0.00000000  1
  Mg  Mg15  1  0.20017453  0.60008676  0.00000000  1
  Mg  Mg16  1  0.39991324  0.60008776  0.00000000  1
  Mg  Mg17  1  0.99873079  0.79750860  0.00000000  1
  Mg  Mg18  1  0.79877781  0.79750860  0.00000000  1
  Mg  Mg19  1  0.39991324  0.79982547  0.00000000  1
  Mg  Mg20  1  0.19947415  0.80052585  0.00000000  1
  Mg  Mg21  1  0.60105270  0.80052585  0.00000000  1
  Mg  Mg22  1  0.59919781  0.99979456  0.00000000  1
  Mg  Mg23  1  0.40059675  0.99979556  0.00000000  1
  Mg  Mg24  1  0.26653979  0.33276306  0.16617058  1
  Mg  Mg25  1  0.06622427  0.33276406  0.16617058  1
  Mg  Mg26  1  0.66723594  0.73346021  0.16617058  1
  Mg  Mg27  1  0.06622427  0.73346021  0.16617058  1
  Mg  Mg28  1  0.26653979  0.93377573  0.16617058  1
  Mg  Mg29  1  0.66723594  0.93377573  0.16617058  1
  Mg  Mg30  1  0.46677849  0.13335443  0.16628668  1
  Mg  Mg31  1  0.66657594  0.13335443  0.16628668  1
  Mg  Mg32  1  0.86664557  0.33342406  0.16628668  1
  Mg  Mg33  1  0.46677849  0.33342406  0.16628668  1
  Mg  Mg34  1  0.66657594  0.53322151  0.16628668  1
  Mg  Mg35  1  0.86664557  0.53322151  0.16628668  1
  Mg  Mg36  1  0.26655269  0.53310437  0.16636315  1
  Mg  Mg37  1  0.26655269  0.73344731  0.16636315  1
  Mg  Mg38  1  0.46689563  0.73344731  0.16636315  1
  Mg  Mg39  1  0.66666700  0.33333300  0.16644483  1
  Mg  Mg40  1  0.06682122  0.53341061  0.16642960  1
  Mg  Mg41  1  0.46658939  0.53341061  0.16642960  1
  Mg  Mg42  1  0.46658939  0.93317878  0.16642960  1
  Mg  Mg43  1  0.86634255  0.13365745  0.16729361  1
  Mg  Mg44  1  0.26731491  0.13365745  0.16729361  1
  Mg  Mg45  1  0.86634255  0.73268509  0.16729361  1
  Mg  Mg46  1  0.06683873  0.13367746  0.16835131  1
  Mg  Mg47  1  0.86632154  0.93316027  0.16835131  1
  Mg  Mg48  1  0.06683873  0.93316127  0.16835131  1
  Mg  Mg49  1  0.19984954  0.39969908  0.33277503  1
  Mg  Mg50  1  0.60030092  0.80015046  0.33277503  1
  Mg  Mg51  1  0.19984954  0.80015046  0.33277503  1
  Mg  Mg52  1  -0.00000000  -0.00000000  0.33311471  1
  Mg  Mg53  1  0.40002314  0.20001157  0.33305464  1
  Mg  Mg54  1  0.79998843  0.20001157  0.33305464  1
  Mg  Mg55  1  0.79998843  0.59997686  0.33305464  1
  Mg  Mg56  1  0.60012896  0.20025692  0.33296775  1
  Mg  Mg57  1  0.79974308  0.39987104  0.33296775  1
  Mg  Mg58  1  0.60012896  0.39987204  0.33296775  1
  Mg  Mg59  1  0.39985679  0.99998267  0.33314720  1
  Mg  Mg60  1  0.60012588  0.99998267  0.33314720  1
  Mg  Mg61  1  0.00001733  0.39987412  0.33314720  1
  Mg  Mg62  1  0.39985679  0.39987412  0.33314720  1
  Mg  Mg63  1  0.00001733  0.60014321  0.33314720  1
  Mg  Mg64  1  0.60012588  0.60014321  0.33314720  1
  Mg  Mg65  1  0.39988632  0.60011268  0.33300127  1
  Mg  Mg66  1  0.20022635  0.60011268  0.33300127  1
  Mg  Mg67  1  0.39988632  0.79977365  0.33300127  1
  Mg  Mg68  1  0.80015310  0.00007732  0.33398884  1
  Mg  Mg69  1  0.19992523  0.00007732  0.33398884  1
  Mg  Mg70  1  0.19992523  0.19984790  0.33398884  1
  Mg  Mg71  1  0.99992268  0.19984790  0.33398884  1
  Mg  Mg72  1  0.99992268  0.80007577  0.33398884  1
  Mg  Mg73  1  0.80015310  0.80007577  0.33398884  1
  Mg  Mg74  1  0.06648652  0.13297304  0.50000000  1
  Mg  Mg75  1  0.66649609  0.13315494  0.50000000  1
  Mg  Mg76  1  0.46665985  0.13315594  0.50000000  1
  Mg  Mg77  1  0.26664705  0.13332353  0.50000000  1
  Mg  Mg78  1  0.86667647  0.13332353  0.50000000  1
  Mg  Mg79  1  0.26660378  0.33327454  0.50000000  1
  Mg  Mg80  1  0.06667176  0.33327554  0.50000000  1
  Mg  Mg81  1  0.66666700  0.33333300  0.50000000  1
  Mg  Mg82  1  0.46665985  0.33350391  0.50000000  1
  Mg  Mg83  1  0.86684406  0.33350391  0.50000000  1
  Mg  Mg84  1  0.66649609  0.53334015  0.50000000  1
  Mg  Mg85  1  0.86684406  0.53334115  0.50000000  1
  Mg  Mg86  1  0.26658956  0.53317913  0.50000000  1
  Mg  Mg87  1  0.06668986  0.53334443  0.50000000  1
  Mg  Mg88  1  0.46665457  0.53334443  0.50000000  1
  Mg  Mg89  1  0.86667647  0.73335295  0.50000000  1
  Mg  Mg90  1  0.46682087  0.73341044  0.50000000  1
  Mg  Mg91  1  0.26658956  0.73341044  0.50000000  1
  Mg  Mg92  1  0.66672546  0.73339722  0.50000000  1
  Mg  Mg93  1  0.06667176  0.73339722  0.50000000  1
  Mg  Mg94  1  0.46665457  0.93331014  0.50000000  1
  Mg  Mg95  1  0.26660378  0.93332824  0.50000000  1
  Mg  Mg96  1  0.66672546  0.93332824  0.50000000  1
  Mg  Mg97  1  0.86702696  0.93351348  0.50000000  1
  Mg  Mg98  1  0.06648652  0.93351348  0.50000000  1
  Mg  Mg99  1  0.80015310  0.00007732  0.66601116  1
  Mg  Mg100  1  0.19992523  0.00007732  0.66601116  1
  Mg  Mg101  1  0.19992523  0.19984790  0.66601116  1
  Mg  Mg102  1  0.99992268  0.19984790  0.66601116  1
  Mg  Mg103  1  0.99992268  0.80007577  0.66601116  1
  Mg  Mg104  1  0.80015310  0.80007577  0.66601116  1
  Mg  Mg105  1  0.39988632  0.60011268  0.66699873  1
  Mg  Mg106  1  0.20022635  0.60011268  0.66699873  1
  Mg  Mg107  1  0.39988632  0.79977365  0.66699873  1
  Mg  Mg108  1  0.39985679  0.99998267  0.66685280  1
  Mg  Mg109  1  0.60012588  0.99998267  0.66685280  1
  Mg  Mg110  1  0.00001733  0.39987412  0.66685280  1
  Mg  Mg111  1  0.39985679  0.39987412  0.66685280  1
  Mg  Mg112  1  0.00001733  0.60014321  0.66685280  1
  Mg  Mg113  1  0.60012588  0.60014321  0.66685280  1
  Mg  Mg114  1  0.60012896  0.20025692  0.66703125  1
  Mg  Mg115  1  0.79974308  0.39987104  0.66703125  1
  Mg  Mg116  1  0.60012896  0.39987204  0.66703125  1
  Mg  Mg117  1  0.40002314  0.20001157  0.66694536  1
  Mg  Mg118  1  0.79998843  0.20001157  0.66694536  1
  Mg  Mg119  1  0.79998843  0.59997686  0.66694536  1
  Mg  Mg120  1  -0.00000000  -0.00000000  0.66688529  1
  Mg  Mg121  1  0.19984954  0.39969908  0.66722497  1
  Mg  Mg122  1  0.60030092  0.80015046  0.66722497  1
  Mg  Mg123  1  0.19984954  0.80015046  0.66722497  1
  Mg  Mg124  1  0.06683873  0.13367746  0.83164869  1
  Mg  Mg125  1  0.86632154  0.93316027  0.83164869  1
  Mg  Mg126  1  0.06683873  0.93316127  0.83164869  1
  Mg  Mg127  1  0.86634255  0.13365745  0.83270639  1
  Mg  Mg128  1  0.26731491  0.13365745  0.83270639  1
  Mg  Mg129  1  0.86634255  0.73268509  0.83270639  1
  Mg  Mg130  1  0.06682122  0.53341061  0.83357040  1
  Mg  Mg131  1  0.46658939  0.53341061  0.83357040  1
  Mg  Mg132  1  0.46658939  0.93317878  0.83357040  1
  Mg  Mg133  1  0.66666700  0.33333300  0.83355517  1
  Mg  Mg134  1  0.26655269  0.53310437  0.83363685  1
  Mg  Mg135  1  0.26655269  0.73344731  0.83363685  1
  Mg  Mg136  1  0.46689563  0.73344731  0.83363685  1
  Mg  Mg137  1  0.46677849  0.13335443  0.83371332  1
  Mg  Mg138  1  0.66657594  0.13335443  0.83371332  1
  Mg  Mg139  1  0.86664557  0.33342406  0.83371332  1
  Mg  Mg140  1  0.46677849  0.33342406  0.83371332  1
  Mg  Mg141  1  0.66657594  0.53322151  0.83371332  1
  Mg  Mg142  1  0.86664557  0.53322151  0.83371332  1
  Mg  Mg143  1  0.26653979  0.33276306  0.83382942  1
  Mg  Mg144  1  0.06622427  0.33276406  0.83382942  1
  Mg  Mg145  1  0.66723594  0.73346021  0.83382942  1
  Mg  Mg146  1  0.06622427  0.73346021  0.83382942  1
  Mg  Mg147  1  0.26653979  0.93377573  0.83382942  1
  Mg  Mg148  1  0.66723594  0.93377573  0.83382942  1
  Sb  Sb149  1  -0.00000000  -0.00000000  0.00000000  1
