# generated using pymatgen
data_Al12Co4Cu
_symmetry_space_group_name_H-M   'P 1'
_cell_length_a   8.61262188
_cell_length_b   8.61262188
_cell_length_c   12.37677093
_cell_angle_alpha   73.95811227
_cell_angle_beta   73.95811227
_cell_angle_gamma   55.58968528
_symmetry_Int_Tables_number   1
_chemical_formula_structural   Al12Co4Cu
_chemical_formula_sum   'Al36 Co12 Cu3'
_cell_volume   719.51865050
_cell_formula_units_Z   3
loop_
 _symmetry_equiv_pos_site_id
 _symmetry_equiv_pos_as_xyz
  1  'x, y, z'
loop_
 _atom_site_type_symbol
 _atom_site_label
 _atom_site_symmetry_multiplicity
 _atom_site_fract_x
 _atom_site_fract_y
 _atom_site_fract_z
 _atom_site_occupancy
  Al  Al0  1  0.96462300  0.39331200  0.16320000  1
  Al  Al1  1  0.39331200  0.96462300  0.16320000  1
  Al  Al2  1  0.97282000  0.39789700  0.38566700  1
  Al  Al3  1  0.39789700  0.97282000  0.38566700  1
  Al  Al4  1  0.15010800  0.59190500  0.38917100  1
  Al  Al5  1  0.59190500  0.15010800  0.38917100  1
  Al  Al6  1  0.26019600  0.72226000  0.17326000  1
  Al  Al7  1  0.72226000  0.26019600  0.17326000  1
  Al  Al8  1  0.16301300  0.57626400  0.02099000  1
  Al  Al9  1  0.57626400  0.16301300  0.02099000  1
  Al  Al10  1  0.25260200  0.74739800  0.50000000  1
  Al  Al11  1  0.74739800  0.25260200  0.50000000  1
  Al  Al12  1  0.03537700  0.60668800  0.83680000  1
  Al  Al13  1  0.60668800  0.03537700  0.83680000  1
  Al  Al14  1  0.02718000  0.60210300  0.61433300  1
  Al  Al15  1  0.52047900  0.52047900  0.33165400  1
  Al  Al16  1  0.23862700  0.23862700  0.53830600  1
  Al  Al17  1  0.05656100  0.05656100  0.32462700  1
  Al  Al18  1  0.23561500  0.23561500  0.96678000  1
  Al  Al19  1  0.47952100  0.47952100  0.66834600  1
  Al  Al20  1  0.76137300  0.76137300  0.46169400  1
  Al  Al21  1  0.94343900  0.94343900  0.67537300  1
  Al  Al22  1  0.76438500  0.76438500  0.03322000  1
  Al  Al23  1  0.07531300  0.07531300  0.91238800  1
  Al  Al24  1  0.29959000  0.29959000  0.73068700  1
  Al  Al25  1  0.92468700  0.92468700  0.08761200  1
  Al  Al26  1  0.70041000  0.70041000  0.26931300  1
  Al  Al27  1  0.66809900  0.66809900  0.78050700  1
  Al  Al28  1  0.33190100  0.33190100  0.21949300  1
  Al  Al29  1  0.42373600  0.83698700  0.97901000  1
  Al  Al30  1  0.83698700  0.42373600  0.97901000  1
  Al  Al31  1  0.27774000  0.73980400  0.82674000  1
  Al  Al32  1  0.73980400  0.27774000  0.82674000  1
  Al  Al33  1  0.40809500  0.84989200  0.61082900  1
  Al  Al34  1  0.84989200  0.40809500  0.61082900  1
  Al  Al35  1  0.60210300  0.02718000  0.61433300  1
  Co  Co36  1  0.03881200  0.59704900  0.21935000  1
  Co  Co37  1  0.59704900  0.03881200  0.21935000  1
  Co  Co38  1  0.96118800  0.40295100  0.78065000  1
  Co  Co39  1  0.40295100  0.96118800  0.78065000  1
  Co  Co40  1  0.91321900  0.91321900  0.89001300  1
  Co  Co41  1  0.90767000  0.90767000  0.49611300  1
  Co  Co42  1  0.60082800  0.60082800  0.48270600  1
  Co  Co43  1  0.39660700  0.39660700  0.86936500  1
  Co  Co44  1  0.08678100  0.08678100  0.10998700  1
  Co  Co45  1  0.09233000  0.09233000  0.50388700  1
  Co  Co46  1  0.39917200  0.39917200  0.51729400  1
  Co  Co47  1  0.60339300  0.60339300  0.13063500  1
  Cu  Cu48  1  0.91017300  0.91017300  0.28726300  1
  Cu  Cu49  1  0.08982700  0.08982700  0.71273700  1
  Cu  Cu50  1  0.50000000  0.50000000  0.00000000  1
