# generated using pymatgen
data_Ni2Hg2SF6
_symmetry_space_group_name_H-M   'P 1'
_cell_length_a   7.68672730
_cell_length_b   7.68672730
_cell_length_c   7.68672730
_cell_angle_alpha   60.00000000
_cell_angle_beta   60.00000000
_cell_angle_gamma   60.00000000
_symmetry_Int_Tables_number   1
_chemical_formula_structural   Ni2Hg2SF6
_chemical_formula_sum   'Ni4 Hg4 S2 F12'
_cell_volume   321.15110777
_cell_formula_units_Z   2
loop_
 _symmetry_equiv_pos_site_id
 _symmetry_equiv_pos_as_xyz
  1  'x, y, z'
loop_
 _atom_site_type_symbol
 _atom_site_label
 _atom_site_symmetry_multiplicity
 _atom_site_fract_x
 _atom_site_fract_y
 _atom_site_fract_z
 _atom_site_occupancy
  Ni  Ni0  1  0.12500000  0.62500000  0.62500000  1
  Ni  Ni1  1  0.62500000  0.12500000  0.62500000  1
  Ni  Ni2  1  0.62500000  0.62500000  0.12500000  1
  Ni  Ni3  1  0.62500000  0.62500000  0.62500000  1
  Hg  Hg4  1  0.62500000  0.12500000  0.12500000  1
  Hg  Hg5  1  0.12500000  0.12500000  0.62500000  1
  Hg  Hg6  1  0.12500000  0.12500000  0.12500000  1
  Hg  Hg7  1  0.12500000  0.62500000  0.12500000  1
  S  S8  1  0.00000000  0.00000000  0.00000000  1
  S  S9  1  0.25000000  0.25000000  0.25000000  1
  F  F10  1  0.94411100  0.55588900  0.55588900  1
  F  F11  1  0.69411100  0.69411100  0.30588900  1
  F  F12  1  0.55588900  0.55588900  0.94411100  1
  F  F13  1  0.30588900  0.69411100  0.30588900  1
  F  F14  1  0.69411100  0.30588900  0.69411100  1
  F  F15  1  0.94411100  0.94411100  0.55588900  1
  F  F16  1  0.30588900  0.30588900  0.69411100  1
  F  F17  1  0.55588900  0.94411100  0.94411100  1
  F  F18  1  0.30588900  0.69411100  0.69411100  1
  F  F19  1  0.94411100  0.55588900  0.94411100  1
  F  F20  1  0.69411100  0.30588900  0.30588900  1
  F  F21  1  0.55588900  0.94411100  0.55588900  1
