# generated using pymatgen
data_MnOs3
_symmetry_space_group_name_H-M   'P 1'
_cell_length_a   5.41873374
_cell_length_b   5.41873374
_cell_length_c   4.26554300
_cell_angle_alpha   90.00000000
_cell_angle_beta   90.00000000
_cell_angle_gamma   119.99999682
_symmetry_Int_Tables_number   1
_chemical_formula_structural   MnOs3
_chemical_formula_sum   'Mn2 Os6'
_cell_volume   108.46774044
_cell_formula_units_Z   2
loop_
 _symmetry_equiv_pos_site_id
 _symmetry_equiv_pos_as_xyz
  1  'x, y, z'
loop_
 _atom_site_type_symbol
 _atom_site_label
 _atom_site_symmetry_multiplicity
 _atom_site_fract_x
 _atom_site_fract_y
 _atom_site_fract_z
 _atom_site_occupancy
  Mn  Mn0  1  0.66666700  0.33333300  0.25000000  1
  Mn  Mn1  1  0.33333300  0.66666700  0.75000000  1
  Os  Os2  1  0.82941500  0.17058500  0.75000000  1
  Os  Os3  1  0.34117100  0.17058500  0.75000000  1
  Os  Os4  1  0.65882900  0.82941500  0.25000000  1
  Os  Os5  1  0.17058500  0.82941500  0.25000000  1
  Os  Os6  1  0.82941500  0.65882900  0.75000000  1
  Os  Os7  1  0.17058500  0.34117100  0.25000000  1
