# generated using pymatgen
data_Hf5Ir3
_symmetry_space_group_name_H-M   'P 1'
_cell_length_a   7.91945593
_cell_length_b   7.91945593
_cell_length_c   17.03513200
_cell_angle_alpha   90.00000000
_cell_angle_beta   90.00000000
_cell_angle_gamma   119.99999942
_symmetry_Int_Tables_number   1
_chemical_formula_structural   Hf5Ir3
_chemical_formula_sum   'Hf30 Ir18'
_cell_volume   925.26648241
_cell_formula_units_Z   6
loop_
 _symmetry_equiv_pos_site_id
 _symmetry_equiv_pos_as_xyz
  1  'x, y, z'
loop_
 _atom_site_type_symbol
 _atom_site_label
 _atom_site_symmetry_multiplicity
 _atom_site_fract_x
 _atom_site_fract_y
 _atom_site_fract_z
 _atom_site_occupancy
  Hf  Hf0  1  0.23736100  0.00712500  0.34023800  1
  Hf  Hf1  1  0.99287500  0.23023700  0.67357200  1
  Hf  Hf2  1  0.76263900  0.99287500  0.84023800  1
  Hf  Hf3  1  0.00712500  0.23736100  0.99309500  1
  Hf  Hf4  1  0.76976300  0.76263900  0.00690500  1
  Hf  Hf5  1  0.00712500  0.76976300  0.17357200  1
  Hf  Hf6  1  0.23023700  0.99287500  0.65976200  1
  Hf  Hf7  1  0.99287500  0.76263900  0.49309500  1
  Hf  Hf8  1  0.23023700  0.23736100  0.50690500  1
  Hf  Hf9  1  0.76976300  0.00712500  0.15976200  1
  Hf  Hf10  1  0.76263900  0.76976300  0.32642800  1
  Hf  Hf11  1  0.23736100  0.23023700  0.82642800  1
  Hf  Hf12  1  0.65376600  0.30753300  0.25000000  1
  Hf  Hf13  1  0.69246700  0.34623400  0.58333300  1
  Hf  Hf14  1  0.34623400  0.69246700  0.75000000  1
  Hf  Hf15  1  0.30753300  0.65376600  0.08333300  1
  Hf  Hf16  1  0.65376600  0.34623400  0.91666700  1
  Hf  Hf17  1  0.34623400  0.65376600  0.41666700  1
  Hf  Hf18  1  0.37488600  0.74977100  0.25000000  1
  Hf  Hf19  1  0.25022900  0.62511400  0.58333300  1
  Hf  Hf20  1  0.62511400  0.25022900  0.75000000  1
  Hf  Hf21  1  0.74977100  0.37488600  0.08333300  1
  Hf  Hf22  1  0.37488600  0.62511400  0.91666700  1
  Hf  Hf23  1  0.62511400  0.37488600  0.41666700  1
  Hf  Hf24  1  0.24537600  0.00000000  0.00000000  1
  Hf  Hf25  1  0.00000000  0.24537600  0.33333300  1
  Hf  Hf26  1  0.75462400  0.00000000  0.50000000  1
  Hf  Hf27  1  0.75462400  0.75462400  0.66666700  1
  Hf  Hf28  1  0.00000000  0.75462400  0.83333300  1
  Hf  Hf29  1  0.24537600  0.24537600  0.16666700  1
  Ir  Ir30  1  0.41358300  0.02080400  0.14372500  1
  Ir  Ir31  1  0.97919600  0.39277900  0.47705900  1
  Ir  Ir32  1  0.58641700  0.97919600  0.64372500  1
  Ir  Ir33  1  0.02080400  0.41358300  0.18960800  1
  Ir  Ir34  1  0.60722100  0.58641700  0.81039200  1
  Ir  Ir35  1  0.02080400  0.60722100  0.97705900  1
  Ir  Ir36  1  0.39277900  0.97919600  0.85627500  1
  Ir  Ir37  1  0.97919600  0.58641700  0.68960800  1
  Ir  Ir38  1  0.39277900  0.41358300  0.31039200  1
  Ir  Ir39  1  0.60722100  0.02080400  0.35627500  1
  Ir  Ir40  1  0.58641700  0.60722100  0.52294100  1
  Ir  Ir41  1  0.41358300  0.39277900  0.02294100  1
  Ir  Ir42  1  0.61507500  0.00000000  0.00000000  1
  Ir  Ir43  1  0.00000000  0.61507500  0.33333300  1
  Ir  Ir44  1  0.38492500  0.00000000  0.50000000  1
  Ir  Ir45  1  0.38492500  0.38492500  0.66666700  1
  Ir  Ir46  1  0.00000000  0.38492500  0.83333300  1
  Ir  Ir47  1  0.61507500  0.61507500  0.16666700  1
