# generated using pymatgen
data_Zr9Re4O3
_symmetry_space_group_name_H-M   'P 1'
_cell_length_a   8.55737240
_cell_length_b   8.55737240
_cell_length_c   8.67775600
_cell_angle_alpha   90.00000000
_cell_angle_beta   90.00000000
_cell_angle_gamma   120.00000307
_symmetry_Int_Tables_number   1
_chemical_formula_structural   Zr9Re4O3
_chemical_formula_sum   'Zr18 Re8 O6'
_cell_volume   550.32458729
_cell_formula_units_Z   2
loop_
 _symmetry_equiv_pos_site_id
 _symmetry_equiv_pos_as_xyz
  1  'x, y, z'
loop_
 _atom_site_type_symbol
 _atom_site_label
 _atom_site_symmetry_multiplicity
 _atom_site_fract_x
 _atom_site_fract_y
 _atom_site_fract_z
 _atom_site_occupancy
  Zr  Zr0  1  0.45297200  0.90594400  0.25000000  1
  Zr  Zr1  1  0.54702800  0.09405600  0.75000000  1
  Zr  Zr2  1  0.09405600  0.54702800  0.25000000  1
  Zr  Zr3  1  0.90594400  0.45297200  0.75000000  1
  Zr  Zr4  1  0.45297200  0.54702800  0.25000000  1
  Zr  Zr5  1  0.54702800  0.45297200  0.75000000  1
  Zr  Zr6  1  0.20201900  0.40403700  0.56159900  1
  Zr  Zr7  1  0.79798100  0.59596300  0.43840100  1
  Zr  Zr8  1  0.59596300  0.79798100  0.56159900  1
  Zr  Zr9  1  0.79798100  0.59596300  0.06159900  1
  Zr  Zr10  1  0.40403700  0.20201900  0.43840100  1
  Zr  Zr11  1  0.20201900  0.40403700  0.93840100  1
  Zr  Zr12  1  0.20201900  0.79798100  0.56159900  1
  Zr  Zr13  1  0.40403700  0.20201900  0.06159900  1
  Zr  Zr14  1  0.79798100  0.20201900  0.43840100  1
  Zr  Zr15  1  0.59596300  0.79798100  0.93840100  1
  Zr  Zr16  1  0.79798100  0.20201900  0.06159900  1
  Zr  Zr17  1  0.20201900  0.79798100  0.93840100  1
  Re  Re18  1  0.10770200  0.21540300  0.25000000  1
  Re  Re19  1  0.89229800  0.78459700  0.75000000  1
  Re  Re20  1  0.78459700  0.89229800  0.25000000  1
  Re  Re21  1  0.21540300  0.10770200  0.75000000  1
  Re  Re22  1  0.10770200  0.89229800  0.25000000  1
  Re  Re23  1  0.89229800  0.10770200  0.75000000  1
  Re  Re24  1  0.00000000  0.00000000  0.00000000  1
  Re  Re25  1  0.00000000  0.00000000  0.50000000  1
  O  O26  1  0.50000000  0.00000000  0.00000000  1
  O  O27  1  0.00000000  0.50000000  0.00000000  1
  O  O28  1  0.50000000  0.00000000  0.50000000  1
  O  O29  1  0.50000000  0.50000000  0.00000000  1
  O  O30  1  0.00000000  0.50000000  0.50000000  1
  O  O31  1  0.50000000  0.50000000  0.50000000  1
