# generated using pymatgen
data_Lu2PbS4
_symmetry_space_group_name_H-M   'P 1'
_cell_length_a   3.92257500
_cell_length_b   11.92569100
_cell_length_c   14.18107600
_cell_angle_alpha   90.00000000
_cell_angle_beta   90.00000000
_cell_angle_gamma   90.00000000
_symmetry_Int_Tables_number   1
_chemical_formula_structural   Lu2PbS4
_chemical_formula_sum   'Lu8 Pb4 S16'
_cell_volume   663.38247302
_cell_formula_units_Z   4
loop_
 _symmetry_equiv_pos_site_id
 _symmetry_equiv_pos_as_xyz
  1  'x, y, z'
loop_
 _atom_site_type_symbol
 _atom_site_label
 _atom_site_symmetry_multiplicity
 _atom_site_fract_x
 _atom_site_fract_y
 _atom_site_fract_z
 _atom_site_occupancy
  Lu  Lu0  1  0.25000000  0.43377400  0.38911500  1
  Lu  Lu1  1  0.25000000  0.93377400  0.11088500  1
  Lu  Lu2  1  0.75000000  0.56622600  0.61088500  1
  Lu  Lu3  1  0.75000000  0.06622600  0.88911500  1
  Lu  Lu4  1  0.25000000  0.41921400  0.89982100  1
  Lu  Lu5  1  0.25000000  0.91921400  0.60017900  1
  Lu  Lu6  1  0.75000000  0.58078600  0.10017900  1
  Lu  Lu7  1  0.75000000  0.08078600  0.39982100  1
  Pb  Pb8  1  0.25000000  0.75848500  0.33723100  1
  Pb  Pb9  1  0.25000000  0.25848500  0.16276900  1
  Pb  Pb10  1  0.75000000  0.24151500  0.66276900  1
  Pb  Pb11  1  0.75000000  0.74151500  0.83723100  1
  S  S12  1  0.25000000  0.20727600  0.82944000  1
  S  S13  1  0.25000000  0.70727600  0.67056000  1
  S  S14  1  0.75000000  0.79272400  0.17056000  1
  S  S15  1  0.75000000  0.29272400  0.32944000  1
  S  S16  1  0.25000000  0.12810200  0.52594000  1
  S  S17  1  0.25000000  0.62810200  0.97406000  1
  S  S18  1  0.75000000  0.87189800  0.47406000  1
  S  S19  1  0.75000000  0.37189800  0.02594000  1
  S  S20  1  0.25000000  0.02358800  0.28471600  1
  S  S21  1  0.25000000  0.52358800  0.21528400  1
  S  S22  1  0.75000000  0.97641200  0.71528400  1
  S  S23  1  0.75000000  0.47641200  0.78471600  1
  S  S24  1  0.25000000  0.41540400  0.57658800  1
  S  S25  1  0.25000000  0.91540400  0.92341200  1
  S  S26  1  0.75000000  0.58459600  0.42341200  1
  S  S27  1  0.75000000  0.08459600  0.07658800  1
