# generated using pymatgen
data_Ba6Y(ReO6)3
_symmetry_space_group_name_H-M   'P 1'
_cell_length_a   10.21511865
_cell_length_b   10.21511865
_cell_length_c   10.08707460
_cell_angle_alpha   80.28440676
_cell_angle_beta   80.28440676
_cell_angle_gamma   119.99499127
_symmetry_Int_Tables_number   1
_chemical_formula_structural   Ba6Y(ReO6)3
_chemical_formula_sum   'Ba12 Y2 Re6 O36'
_cell_volume   858.11629634
_cell_formula_units_Z   2
loop_
 _symmetry_equiv_pos_site_id
 _symmetry_equiv_pos_as_xyz
  1  'x, y, z'
loop_
 _atom_site_type_symbol
 _atom_site_label
 _atom_site_symmetry_multiplicity
 _atom_site_fract_x
 _atom_site_fract_y
 _atom_site_fract_z
 _atom_site_occupancy
  Ba  Ba0  1  0.63450600  0.95866600  0.12406100  1
  Ba  Ba1  1  0.28276000  0.28276000  0.12438300  1
  Ba  Ba2  1  0.95866600  0.63450600  0.12406100  1
  Ba  Ba3  1  0.36549400  0.04133400  0.87593900  1
  Ba  Ba4  1  0.04133400  0.36549400  0.87593900  1
  Ba  Ba5  1  0.71724000  0.71724000  0.87561700  1
  Ba  Ba6  1  0.46343200  0.79742100  0.60758100  1
  Ba  Ba7  1  0.12901700  0.12901700  0.61477100  1
  Ba  Ba8  1  0.79742100  0.46343200  0.60758100  1
  Ba  Ba9  1  0.53656800  0.20257900  0.39241900  1
  Ba  Ba10  1  0.20257900  0.53656800  0.39241900  1
  Ba  Ba11  1  0.87098300  0.87098300  0.38522900  1
  Y  Y12  1  0.66673700  0.33326300  0.00000000  1
  Y  Y13  1  0.33326300  0.66673700  0.00000000  1
  Re  Re14  1  0.41891300  0.41891300  0.73205500  1
  Re  Re15  1  0.08907600  0.75985700  0.73197200  1
  Re  Re16  1  0.75985700  0.08907600  0.73197200  1
  Re  Re17  1  0.58108700  0.58108700  0.26794500  1
  Re  Re18  1  0.24014300  0.91092400  0.26802800  1
  Re  Re19  1  0.91092400  0.24014300  0.26802800  1
  O  O20  1  0.45698200  0.30028400  0.63132200  1
  O  O21  1  0.12097300  0.63171300  0.63750700  1
  O  O22  1  0.78898100  0.96650900  0.63051200  1
  O  O23  1  0.61013300  0.61013300  0.63673100  1
  O  O24  1  0.27970300  0.94524200  0.63135700  1
  O  O25  1  0.94524200  0.27970300  0.63135700  1
  O  O26  1  0.30028400  0.45698200  0.63132200  1
  O  O27  1  0.96650900  0.78898100  0.63051200  1
  O  O28  1  0.63171300  0.12097300  0.63750700  1
  O  O29  1  0.54301800  0.69971600  0.36867800  1
  O  O30  1  0.21101900  0.03349100  0.36948800  1
  O  O31  1  0.87902700  0.36828700  0.36249300  1
  O  O32  1  0.38986700  0.38986700  0.36326900  1
  O  O33  1  0.05475800  0.72029700  0.36864300  1
  O  O34  1  0.72029700  0.05475800  0.36864300  1
  O  O35  1  0.69971600  0.54301800  0.36867800  1
  O  O36  1  0.36828700  0.87902700  0.36249300  1
  O  O37  1  0.03349100  0.21101900  0.36948800  1
  O  O38  1  0.62011700  0.46547400  0.13764700  1
  O  O39  1  0.28799200  0.79937600  0.13756300  1
  O  O40  1  0.95322300  0.14201600  0.14078200  1
  O  O41  1  0.76422100  0.76422100  0.14075000  1
  O  O42  1  0.44258400  0.10885500  0.13768200  1
  O  O43  1  0.10885500  0.44258400  0.13768200  1
  O  O44  1  0.46547400  0.62011700  0.13764700  1
  O  O45  1  0.14201600  0.95322300  0.14078200  1
  O  O46  1  0.79937600  0.28799200  0.13756300  1
  O  O47  1  0.37988300  0.53452600  0.86235300  1
  O  O48  1  0.04677700  0.85798400  0.85921800  1
  O  O49  1  0.71200800  0.20062400  0.86243700  1
  O  O50  1  0.23577900  0.23577900  0.85925000  1
  O  O51  1  0.89114500  0.55741600  0.86231800  1
  O  O52  1  0.55741600  0.89114500  0.86231800  1
  O  O53  1  0.53452600  0.37988300  0.86235300  1
  O  O54  1  0.20062400  0.71200800  0.86243700  1
  O  O55  1  0.85798400  0.04677700  0.85921800  1
