# generated using pymatgen
data_Er11Sn10
_symmetry_space_group_name_H-M   'P 1'
_cell_length_a   11.76964411
_cell_length_b   11.76964411
_cell_length_c   11.76964411
_cell_angle_alpha   121.13381358
_cell_angle_beta   121.13381358
_cell_angle_gamma   88.04714538
_symmetry_Int_Tables_number   1
_chemical_formula_structural   Er11Sn10
_chemical_formula_sum   'Er22 Sn20'
_cell_volume   1132.38447695
_cell_formula_units_Z   2
loop_
 _symmetry_equiv_pos_site_id
 _symmetry_equiv_pos_as_xyz
  1  'x, y, z'
loop_
 _atom_site_type_symbol
 _atom_site_label
 _atom_site_symmetry_multiplicity
 _atom_site_fract_x
 _atom_site_fract_y
 _atom_site_fract_z
 _atom_site_occupancy
  Er  Er0  1  0.81145500  0.06362800  0.25217300  1
  Er  Er1  1  0.81145500  0.55928300  0.74782700  1
  Er  Er2  1  0.06362800  0.81145500  0.25217300  1
  Er  Er3  1  0.55928300  0.81145500  0.74782700  1
  Er  Er4  1  0.18854500  0.93637200  0.74782700  1
  Er  Er5  1  0.18854500  0.44071700  0.25217300  1
  Er  Er6  1  0.93637200  0.18854500  0.74782700  1
  Er  Er7  1  0.44071700  0.18854500  0.25217300  1
  Er  Er8  1  0.17478300  0.17478300  0.34956600  1
  Er  Er9  1  0.82521700  0.82521700  0.65043400  1
  Er  Er10  1  0.17478300  0.82521700  0.00000000  1
  Er  Er11  1  0.82521700  0.17478300  0.00000000  1
  Er  Er12  1  0.66408000  0.66408000  0.00000000  1
  Er  Er13  1  0.33592000  0.33592000  0.00000000  1
  Er  Er14  1  0.60221300  0.93176000  0.32954700  1
  Er  Er15  1  0.60221300  0.27266500  0.67045300  1
  Er  Er16  1  0.93176000  0.60221300  0.32954700  1
  Er  Er17  1  0.27266500  0.60221300  0.67045300  1
  Er  Er18  1  0.39778700  0.06824000  0.67045300  1
  Er  Er19  1  0.39778700  0.72733500  0.32954700  1
  Er  Er20  1  0.06824000  0.39778700  0.67045300  1
  Er  Er21  1  0.72733500  0.39778700  0.32954700  1
  Sn  Sn22  1  0.35610500  0.00000000  0.35610500  1
  Sn  Sn23  1  0.64389500  0.00000000  0.64389500  1
  Sn  Sn24  1  0.00000000  0.64389500  0.64389500  1
  Sn  Sn25  1  0.00000000  0.35610500  0.35610500  1
  Sn  Sn26  1  0.88729800  0.88729800  0.00000000  1
  Sn  Sn27  1  0.11270200  0.11270200  0.00000000  1
  Sn  Sn28  1  0.37050100  0.37050100  0.74100100  1
  Sn  Sn29  1  0.62949900  0.62949900  0.25899900  1
  Sn  Sn30  1  0.37050100  0.62949900  0.00000000  1
  Sn  Sn31  1  0.62949900  0.37050100  0.00000000  1
  Sn  Sn32  1  0.75000000  0.25000000  0.50000000  1
  Sn  Sn33  1  0.25000000  0.75000000  0.50000000  1
  Sn  Sn34  1  0.88195000  0.88195000  0.41296800  1
  Sn  Sn35  1  0.46898200  0.46898200  0.58703200  1
  Sn  Sn36  1  0.88195000  0.46898200  0.00000000  1
  Sn  Sn37  1  0.46898200  0.88195000  0.00000000  1
  Sn  Sn38  1  0.11805000  0.11805000  0.58703200  1
  Sn  Sn39  1  0.53101800  0.53101800  0.41296800  1
  Sn  Sn40  1  0.11805000  0.53101800  0.00000000  1
  Sn  Sn41  1  0.53101800  0.11805000  0.00000000  1
