# generated using pymatgen
data_Rb2SnF6
_symmetry_space_group_name_H-M   'P 1'
_cell_length_a   5.06066500
_cell_length_b   6.15195138
_cell_length_c   6.15195138
_cell_angle_alpha   119.99999334
_cell_angle_beta   90.00000000
_cell_angle_gamma   90.00000000
_symmetry_Int_Tables_number   1
_chemical_formula_structural   Rb2SnF6
_chemical_formula_sum   'Rb2 Sn1 F6'
_cell_volume   165.86854663
_cell_formula_units_Z   1
loop_
 _symmetry_equiv_pos_site_id
 _symmetry_equiv_pos_as_xyz
  1  'x, y, z'
loop_
 _atom_site_type_symbol
 _atom_site_label
 _atom_site_symmetry_multiplicity
 _atom_site_fract_x
 _atom_site_fract_y
 _atom_site_fract_z
 _atom_site_occupancy
  Rb  Rb0  1  0.68277300  0.66666700  0.33333300  1
  Rb  Rb1  1  0.31722700  0.33333300  0.66666700  1
  Sn  Sn2  1  0.00000000  0.00000000  0.00000000  1
  F  F3  1  0.77890700  0.15693400  0.31386800  1
  F  F4  1  0.22109300  0.84306600  0.68613200  1
  F  F5  1  0.77890700  0.15693400  0.84306600  1
  F  F6  1  0.22109300  0.84306600  0.15693400  1
  F  F7  1  0.77890700  0.68613200  0.84306600  1
  F  F8  1  0.22109300  0.31386800  0.15693400  1
