# generated using pymatgen
data_ThGaRh
_symmetry_space_group_name_H-M   'P 1'
_cell_length_a   7.33782847
_cell_length_b   7.33782847
_cell_length_c   4.01891400
_cell_angle_alpha   90.00000000
_cell_angle_beta   90.00000000
_cell_angle_gamma   120.00000424
_symmetry_Int_Tables_number   1
_chemical_formula_structural   ThGaRh
_chemical_formula_sum   'Th3 Ga3 Rh3'
_cell_volume   187.40209297
_cell_formula_units_Z   3
loop_
 _symmetry_equiv_pos_site_id
 _symmetry_equiv_pos_as_xyz
  1  'x, y, z'
loop_
 _atom_site_type_symbol
 _atom_site_label
 _atom_site_symmetry_multiplicity
 _atom_site_fract_x
 _atom_site_fract_y
 _atom_site_fract_z
 _atom_site_occupancy
  Th  Th0  1  0.00000000  0.40983400  0.50000000  1
  Th  Th1  1  0.59016600  0.59016600  0.50000000  1
  Th  Th2  1  0.40983400  0.00000000  0.50000000  1
  Ga  Ga3  1  0.00000000  0.75664000  0.00000000  1
  Ga  Ga4  1  0.24336000  0.24336000  0.00000000  1
  Ga  Ga5  1  0.75664000  0.00000000  0.00000000  1
  Rh  Rh6  1  0.33333300  0.66666700  0.00000000  1
  Rh  Rh7  1  0.66666700  0.33333300  0.00000000  1
  Rh  Rh8  1  0.00000000  0.00000000  0.50000000  1
