# generated using pymatgen
data_CaBi2O5
_symmetry_space_group_name_H-M   'P 1'
_cell_length_a   5.64716900
_cell_length_b   10.84121300
_cell_length_c   16.48929200
_cell_angle_alpha   90.00000000
_cell_angle_beta   90.00000000
_cell_angle_gamma   90.00000000
_symmetry_Int_Tables_number   1
_chemical_formula_structural   CaBi2O5
_chemical_formula_sum   'Ca8 Bi16 O40'
_cell_volume   1009.51010569
_cell_formula_units_Z   8
loop_
 _symmetry_equiv_pos_site_id
 _symmetry_equiv_pos_as_xyz
  1  'x, y, z'
loop_
 _atom_site_type_symbol
 _atom_site_label
 _atom_site_symmetry_multiplicity
 _atom_site_fract_x
 _atom_site_fract_y
 _atom_site_fract_z
 _atom_site_occupancy
  Ca  Ca0  1  0.53621000  0.36543800  0.42629900  1
  Ca  Ca1  1  0.03621000  0.13456200  0.42629900  1
  Ca  Ca2  1  0.03621000  0.63456200  0.07370100  1
  Ca  Ca3  1  0.96379000  0.36543800  0.92629900  1
  Ca  Ca4  1  0.46379000  0.13456200  0.92629900  1
  Ca  Ca5  1  0.96379000  0.86543800  0.57370100  1
  Ca  Ca6  1  0.46379000  0.63456200  0.57370100  1
  Ca  Ca7  1  0.53621000  0.86543800  0.07370100  1
  Bi  Bi8  1  0.03603900  0.38115800  0.57420100  1
  Bi  Bi9  1  0.46396100  0.88115800  0.42579900  1
  Bi  Bi10  1  0.96396100  0.61884200  0.42579900  1
  Bi  Bi11  1  0.53603900  0.11884200  0.57420100  1
  Bi  Bi12  1  0.96396100  0.11884200  0.07420100  1
  Bi  Bi13  1  0.03603900  0.88115800  0.92579900  1
  Bi  Bi14  1  0.46396100  0.38115800  0.07420100  1
  Bi  Bi15  1  0.53603900  0.61884200  0.92579900  1
  Bi  Bi16  1  0.97029700  0.85121300  0.24141800  1
  Bi  Bi17  1  0.02970300  0.14878700  0.75858200  1
  Bi  Bi18  1  0.52970300  0.35121300  0.75858200  1
  Bi  Bi19  1  0.02970300  0.64878700  0.74141800  1
  Bi  Bi20  1  0.47029700  0.14878700  0.25858200  1
  Bi  Bi21  1  0.47029700  0.64878700  0.24141800  1
  Bi  Bi22  1  0.52970300  0.85121300  0.74141800  1
  Bi  Bi23  1  0.97029700  0.35121300  0.25858200  1
  O  O24  1  0.88358900  0.30948500  0.68341200  1
  O  O25  1  0.22504400  0.99512400  0.02805800  1
  O  O26  1  0.27495600  0.49512400  0.97194200  1
  O  O27  1  0.26281800  0.77327300  0.16454600  1
  O  O28  1  0.23718200  0.27327300  0.83545400  1
  O  O29  1  0.88358900  0.80948500  0.81658800  1
  O  O30  1  0.23718200  0.77327300  0.66454600  1
  O  O31  1  0.61641100  0.80948500  0.31658800  1
  O  O32  1  0.22504400  0.49512400  0.47194200  1
  O  O33  1  0.11641200  0.69051500  0.31658800  1
  O  O34  1  0.61641100  0.30948500  0.18341200  1
  O  O35  1  0.78688700  0.24514600  0.51822900  1
  O  O36  1  0.72504400  0.00487600  0.47194200  1
  O  O37  1  0.73718200  0.72672700  0.66454600  1
  O  O38  1  0.23933700  0.99493800  0.85102300  1
  O  O39  1  0.72504400  0.50487600  0.02805800  1
  O  O40  1  0.11641200  0.19051500  0.18341200  1
  O  O41  1  0.76281800  0.22672700  0.33545400  1
  O  O42  1  0.28688600  0.75485400  0.98177100  1
  O  O43  1  0.27495600  0.99512400  0.52805800  1
  O  O44  1  0.21311400  0.75485400  0.48177100  1
  O  O45  1  0.76066300  0.00506200  0.14897700  1
  O  O46  1  0.73718200  0.22672700  0.83545400  1
  O  O47  1  0.73933700  0.00506200  0.64897700  1
  O  O48  1  0.21311400  0.25485400  0.01822900  1
  O  O49  1  0.28688600  0.25485400  0.51822900  1
  O  O50  1  0.77495600  0.50487600  0.52805800  1
  O  O51  1  0.77495600  0.00487600  0.97194200  1
  O  O52  1  0.73933700  0.50506200  0.85102300  1
  O  O53  1  0.71311300  0.74514600  0.48177100  1
  O  O54  1  0.71311300  0.24514600  0.01822900  1
  O  O55  1  0.78688700  0.74514600  0.98177100  1
  O  O56  1  0.76066300  0.50506200  0.35102300  1
  O  O57  1  0.76281800  0.72672700  0.16454600  1
  O  O58  1  0.26281800  0.27327300  0.33545400  1
  O  O59  1  0.23933700  0.49493800  0.64897700  1
  O  O60  1  0.26066300  0.49493800  0.14897700  1
  O  O61  1  0.38358800  0.19051500  0.68341200  1
  O  O62  1  0.26066300  0.99493800  0.35102300  1
  O  O63  1  0.38358800  0.69051500  0.81658800  1
