# generated using pymatgen
data_K3Tb(BO3)2
_symmetry_space_group_name_H-M   'P 1'
_cell_length_a   5.59785100
_cell_length_b   6.87721900
_cell_length_c   9.48885100
_cell_angle_alpha   90.00000000
_cell_angle_beta   90.00000000
_cell_angle_gamma   90.00000000
_symmetry_Int_Tables_number   1
_chemical_formula_structural   K3Tb(BO3)2
_chemical_formula_sum   'K6 Tb2 B4 O12'
_cell_volume   365.29843867
_cell_formula_units_Z   2
loop_
 _symmetry_equiv_pos_site_id
 _symmetry_equiv_pos_as_xyz
  1  'x, y, z'
loop_
 _atom_site_type_symbol
 _atom_site_label
 _atom_site_symmetry_multiplicity
 _atom_site_fract_x
 _atom_site_fract_y
 _atom_site_fract_z
 _atom_site_occupancy
  K  K0  1  0.00000000  0.26708900  0.66784600  1
  K  K1  1  0.00000000  0.73291100  0.33215400  1
  K  K2  1  0.50000000  0.23291100  0.16784600  1
  K  K3  1  0.50000000  0.76708900  0.83215400  1
  K  K4  1  0.50000000  0.00000000  0.50000000  1
  K  K5  1  0.00000000  0.50000000  0.00000000  1
  Tb  Tb6  1  0.00000000  0.00000000  0.00000000  1
  Tb  Tb7  1  0.50000000  0.50000000  0.50000000  1
  B  B8  1  0.00000000  0.26259700  0.33387900  1
  B  B9  1  0.00000000  0.73740300  0.66612100  1
  B  B10  1  0.50000000  0.23740300  0.83387900  1
  B  B11  1  0.50000000  0.76259700  0.16612100  1
  O  O12  1  0.21583900  0.29859800  0.40336700  1
  O  O13  1  0.78416100  0.70140200  0.59663300  1
  O  O14  1  0.21583900  0.70140200  0.59663300  1
  O  O15  1  0.28416100  0.20140200  0.90336700  1
  O  O16  1  0.78416100  0.29859800  0.40336700  1
  O  O17  1  0.71583900  0.79859800  0.09663300  1
  O  O18  1  0.28416100  0.79859800  0.09663300  1
  O  O19  1  0.71583900  0.20140200  0.90336700  1
  O  O20  1  0.00000000  0.19339700  0.19601700  1
  O  O21  1  0.00000000  0.80660300  0.80398300  1
  O  O22  1  0.50000000  0.30660300  0.69601700  1
  O  O23  1  0.50000000  0.69339700  0.30398300  1
