# generated using pymatgen
data_La4Se3N2
_symmetry_space_group_name_H-M   'P 1'
_cell_length_a   8.48848971
_cell_length_b   8.48848971
_cell_length_c   6.64582944
_cell_angle_alpha   89.94204909
_cell_angle_beta   89.94204909
_cell_angle_gamma   75.51374320
_symmetry_Int_Tables_number   1
_chemical_formula_structural   La4Se3N2
_chemical_formula_sum   'La8 Se6 N4'
_cell_volume   463.63712860
_cell_formula_units_Z   2
loop_
 _symmetry_equiv_pos_site_id
 _symmetry_equiv_pos_as_xyz
  1  'x, y, z'
loop_
 _atom_site_type_symbol
 _atom_site_label
 _atom_site_symmetry_multiplicity
 _atom_site_fract_x
 _atom_site_fract_y
 _atom_site_fract_z
 _atom_site_occupancy
  La  La0  1  0.80823700  0.44457400  0.02952300  1
  La  La1  1  0.55542600  0.19176300  0.47047700  1
  La  La2  1  0.19176300  0.55542600  0.97047700  1
  La  La3  1  0.44457400  0.80823700  0.52952300  1
  La  La4  1  0.24293500  0.08600100  0.07299700  1
  La  La5  1  0.91399900  0.75706500  0.42700300  1
  La  La6  1  0.75706500  0.91399900  0.92700300  1
  La  La7  1  0.08600100  0.24293500  0.57299700  1
  Se  Se8  1  0.90252800  0.09747200  0.25000000  1
  Se  Se9  1  0.09747200  0.90252800  0.75000000  1
  Se  Se10  1  0.48502400  0.74623100  0.03431500  1
  Se  Se11  1  0.25376900  0.51497600  0.46568500  1
  Se  Se12  1  0.51497600  0.25376900  0.96568500  1
  Se  Se13  1  0.74623100  0.48502400  0.53431400  1
  N  N14  1  0.91913200  0.67006200  0.08564700  1
  N  N15  1  0.32993800  0.08086800  0.41435300  1
  N  N16  1  0.08086800  0.32993800  0.91435300  1
  N  N17  1  0.67006200  0.91913200  0.58564700  1
