# generated using pymatgen
data_Tb(Al5Fe)2
_symmetry_space_group_name_H-M   'P 1'
_cell_length_a   6.75520989
_cell_length_b   6.75520989
_cell_length_c   8.98706300
_cell_angle_alpha   90.00000000
_cell_angle_beta   90.00000000
_cell_angle_gamma   97.19621096
_symmetry_Int_Tables_number   1
_chemical_formula_structural   Tb(Al5Fe)2
_chemical_formula_sum   'Tb2 Al20 Fe4'
_cell_volume   406.87498845
_cell_formula_units_Z   2
loop_
 _symmetry_equiv_pos_site_id
 _symmetry_equiv_pos_as_xyz
  1  'x, y, z'
loop_
 _atom_site_type_symbol
 _atom_site_label
 _atom_site_symmetry_multiplicity
 _atom_site_fract_x
 _atom_site_fract_y
 _atom_site_fract_z
 _atom_site_occupancy
  Tb  Tb0  1  0.87400700  0.12599300  0.75000000  1
  Tb  Tb1  1  0.12599300  0.87400700  0.25000000  1
  Al  Al2  1  0.41710300  0.13700700  0.75000000  1
  Al  Al3  1  0.13700700  0.41710300  0.25000000  1
  Al  Al4  1  0.58289700  0.86299300  0.25000000  1
  Al  Al5  1  0.86299300  0.58289700  0.75000000  1
  Al  Al6  1  0.51973300  0.78085600  0.75000000  1
  Al  Al7  1  0.78085600  0.51973300  0.25000000  1
  Al  Al8  1  0.48026700  0.21914400  0.25000000  1
  Al  Al9  1  0.21914400  0.48026700  0.75000000  1
  Al  Al10  1  0.84407600  0.15592400  0.40226600  1
  Al  Al11  1  0.15592400  0.84407600  0.59773400  1
  Al  Al12  1  0.84407600  0.15592400  0.09773400  1
  Al  Al13  1  0.15592400  0.84407600  0.90226600  1
  Al  Al14  1  0.62649400  0.37350600  0.95492300  1
  Al  Al15  1  0.37350600  0.62649400  0.04507700  1
  Al  Al16  1  0.62649400  0.37350600  0.54507700  1
  Al  Al17  1  0.37350600  0.62649400  0.45492300  1
  Al  Al18  1  0.77059000  0.77058900  0.00000000  1
  Al  Al19  1  0.77059000  0.77058900  0.50000000  1
  Al  Al20  1  0.22941000  0.22941000  0.00000000  1
  Al  Al21  1  0.22941000  0.22941000  0.50000000  1
  Fe  Fe22  1  0.50000000  0.00000000  0.00000000  1
  Fe  Fe23  1  0.00000000  0.50000000  0.00000000  1
  Fe  Fe24  1  0.50000000  0.00000000  0.50000000  1
  Fe  Fe25  1  0.00000000  0.50000000  0.50000000  1
