# generated using pymatgen
data_Th2Se3
_symmetry_space_group_name_H-M   'P 1'
_cell_length_a   11.40593100
_cell_length_b   4.07603200
_cell_length_c   11.35695900
_cell_angle_alpha   90.00000000
_cell_angle_beta   90.00000000
_cell_angle_gamma   90.00000000
_symmetry_Int_Tables_number   1
_chemical_formula_structural   Th2Se3
_chemical_formula_sum   'Th8 Se12'
_cell_volume   527.99569656
_cell_formula_units_Z   4
loop_
 _symmetry_equiv_pos_site_id
 _symmetry_equiv_pos_as_xyz
  1  'x, y, z'
loop_
 _atom_site_type_symbol
 _atom_site_label
 _atom_site_symmetry_multiplicity
 _atom_site_fract_x
 _atom_site_fract_y
 _atom_site_fract_z
 _atom_site_occupancy
  Th  Th0  1  0.47961000  0.25000000  0.18509100  1
  Th  Th1  1  0.97961000  0.25000000  0.31490900  1
  Th  Th2  1  0.52039000  0.75000000  0.81490900  1
  Th  Th3  1  0.02039000  0.75000000  0.68509100  1
  Th  Th4  1  0.69936400  0.75000000  0.48641400  1
  Th  Th5  1  0.19936400  0.75000000  0.01358600  1
  Th  Th6  1  0.30063600  0.25000000  0.51358600  1
  Th  Th7  1  0.80063600  0.25000000  0.98641400  1
  Se  Se8  1  0.55108300  0.25000000  0.62094700  1
  Se  Se9  1  0.05108300  0.25000000  0.87905300  1
  Se  Se10  1  0.44891700  0.75000000  0.37905300  1
  Se  Se11  1  0.94891700  0.75000000  0.12094700  1
  Se  Se12  1  0.62301600  0.75000000  0.05655600  1
  Se  Se13  1  0.12301600  0.75000000  0.44344400  1
  Se  Se14  1  0.37698400  0.25000000  0.94344400  1
  Se  Se15  1  0.87698400  0.25000000  0.55655600  1
  Se  Se16  1  0.72029900  0.25000000  0.29312900  1
  Se  Se17  1  0.22029900  0.25000000  0.20687100  1
  Se  Se18  1  0.27970100  0.75000000  0.70687100  1
  Se  Se19  1  0.77970100  0.75000000  0.79312900  1
