# generated using pymatgen
data_Eu3Al2O7
_symmetry_space_group_name_H-M   'P 1'
_cell_length_a   10.25582352
_cell_length_b   10.25582352
_cell_length_c   10.25582352
_cell_angle_alpha   158.90357674
_cell_angle_beta   158.90357674
_cell_angle_gamma   30.00840898
_symmetry_Int_Tables_number   1
_chemical_formula_structural   Eu3Al2O7
_chemical_formula_sum   'Eu3 Al2 O7'
_cell_volume   139.67129309
_cell_formula_units_Z   1
loop_
 _symmetry_equiv_pos_site_id
 _symmetry_equiv_pos_as_xyz
  1  'x, y, z'
loop_
 _atom_site_type_symbol
 _atom_site_label
 _atom_site_symmetry_multiplicity
 _atom_site_fract_x
 _atom_site_fract_y
 _atom_site_fract_z
 _atom_site_occupancy
  Eu  Eu0  1  0.31764300  0.31764300  0.00000000  1
  Eu  Eu1  1  0.68235700  0.68235700  0.00000000  1
  Eu  Eu2  1  0.50000000  0.50000000  0.00000000  1
  Al  Al3  1  0.09557100  0.09557100  0.00000000  1
  Al  Al4  1  0.90442900  0.90442900  0.00000000  1
  O  O5  1  0.59721600  0.09721600  0.50000000  1
  O  O6  1  0.40278400  0.90278400  0.50000000  1
  O  O7  1  0.09721600  0.59721600  0.50000000  1
  O  O8  1  0.90278400  0.40278400  0.50000000  1
  O  O9  1  0.19808300  0.19808300  0.00000000  1
  O  O10  1  0.80191700  0.80191700  0.00000000  1
  O  O11  1  0.00000000  0.00000000  0.00000000  1
