# generated using pymatgen
data_Tb8Se15
_symmetry_space_group_name_H-M   'P 1'
_cell_length_a   11.63657982
_cell_length_b   11.63657982
_cell_length_c   12.18036519
_cell_angle_alpha   89.97109816
_cell_angle_beta   89.97109816
_cell_angle_gamma   91.70004350
_symmetry_Int_Tables_number   1
_chemical_formula_structural   Tb8Se15
_chemical_formula_sum   'Tb24 Se45'
_cell_volume   1648.61671558
_cell_formula_units_Z   3
loop_
 _symmetry_equiv_pos_site_id
 _symmetry_equiv_pos_as_xyz
  1  'x, y, z'
loop_
 _atom_site_type_symbol
 _atom_site_label
 _atom_site_symmetry_multiplicity
 _atom_site_fract_x
 _atom_site_fract_y
 _atom_site_fract_z
 _atom_site_occupancy
  Tb  Tb0  1  0.84177700  0.15822300  0.00000000  1
  Tb  Tb1  1  0.49533600  0.24700800  0.16840700  1
  Tb  Tb2  1  0.75299200  0.50466400  0.83159300  1
  Tb  Tb3  1  0.49476900  0.24555900  0.82953300  1
  Tb  Tb4  1  0.75444100  0.50523100  0.17046700  1
  Tb  Tb5  1  0.01329600  0.74294500  0.16563100  1
  Tb  Tb6  1  0.25705500  0.98670400  0.83436900  1
  Tb  Tb7  1  0.01333000  0.74291300  0.83410000  1
  Tb  Tb8  1  0.25708700  0.98667000  0.16590000  1
  Tb  Tb9  1  0.60932900  0.88472100  0.66939800  1
  Tb  Tb10  1  0.11527900  0.39067100  0.33060200  1
  Tb  Tb11  1  0.61121400  0.88539600  0.33187400  1
  Tb  Tb12  1  0.11460400  0.38878600  0.66812600  1
  Tb  Tb13  1  0.37172600  0.62827400  0.00000000  1
  Tb  Tb14  1  0.99511100  0.74919900  0.49951500  1
  Tb  Tb15  1  0.25080100  0.00488900  0.50048500  1
  Tb  Tb16  1  0.86004600  0.14018400  0.33241400  1
  Tb  Tb17  1  0.85981600  0.13995400  0.66758600  1
  Tb  Tb18  1  0.60711000  0.89404500  0.00005800  1
  Tb  Tb19  1  0.10595500  0.39289000  0.99994200  1
  Tb  Tb20  1  0.51445300  0.23595100  0.49856000  1
  Tb  Tb21  1  0.76404900  0.48554700  0.50144000  1
  Tb  Tb22  1  0.35302300  0.64879000  0.33427100  1
  Tb  Tb23  1  0.35121000  0.64697700  0.66572900  1
  Se  Se24  1  0.76460700  0.77611600  0.84168100  1
  Se  Se25  1  0.22388400  0.23539300  0.15831900  1
  Se  Se26  1  0.76423200  0.77605300  0.15824300  1
  Se  Se27  1  0.22394700  0.23576800  0.84175700  1
  Se  Se28  1  0.49676400  0.50747400  0.19023700  1
  Se  Se29  1  0.49252600  0.50323600  0.80976300  1
  Se  Se30  1  0.42955100  0.06816900  0.66626600  1
  Se  Se31  1  0.93183100  0.57044900  0.33373400  1
  Se  Se32  1  0.43001200  0.06825100  0.33306100  1
  Se  Se33  1  0.93174900  0.56998800  0.66693900  1
  Se  Se34  1  0.86935800  0.88326400  0.31422000  1
  Se  Se35  1  0.11673600  0.13064200  0.68578000  1
  Se  Se36  1  0.86855400  0.88274900  0.68482500  1
  Se  Se37  1  0.11725100  0.13144600  0.31517500  1
  Se  Se38  1  0.68857700  0.05766600  0.50008800  1
  Se  Se39  1  0.94233400  0.31142300  0.49991200  1
  Se  Se40  1  0.17535100  0.82489200  0.33392800  1
  Se  Se41  1  0.17510800  0.82464900  0.66607200  1
  Se  Se42  1  0.68149800  0.31959600  0.33517200  1
  Se  Se43  1  0.68040400  0.31850200  0.66482800  1
  Se  Se44  1  0.42447900  0.06914500  0.99988600  1
  Se  Se45  1  0.93085500  0.57552100  0.00011400  1
  Se  Se46  1  0.18247400  0.57032900  0.49928500  1
  Se  Se47  1  0.42967100  0.81752600  0.50071500  1
  Se  Se48  1  0.66783800  0.33216200  0.00000000  1
  Se  Se49  1  0.26351700  0.27254200  0.49703100  1
  Se  Se50  1  0.72745800  0.73648300  0.50296900  1
  Se  Se51  1  0.68235100  0.06859300  0.16469700  1
  Se  Se52  1  0.93140700  0.31764900  0.83530300  1
  Se  Se53  1  0.68236500  0.06828800  0.83525000  1
  Se  Se54  1  0.93171200  0.31763500  0.16475000  1
  Se  Se55  1  0.35816200  0.36811500  0.99921100  1
  Se  Se56  1  0.63188500  0.64183800  0.00078900  1
  Se  Se57  1  0.18861300  0.56181800  0.16662000  1
  Se  Se58  1  0.43818200  0.81138700  0.83338000  1
  Se  Se59  1  0.18775800  0.56105400  0.83267700  1
  Se  Se60  1  0.43894600  0.81224200  0.16732300  1
  Se  Se61  1  0.99345000  0.00655000  0.50000000  1
  Se  Se62  1  0.19489100  0.80510900  0.00000000  1
  Se  Se63  1  0.38341400  0.39246200  0.34473900  1
  Se  Se64  1  0.60753800  0.61658600  0.65526100  1
  Se  Se65  1  0.37758200  0.38798900  0.64746400  1
  Se  Se66  1  0.61201100  0.62241800  0.35253600  1
  Se  Se67  1  0.00721400  0.99419600  0.89871600  1
  Se  Se68  1  0.00580400  0.99278600  0.10128400  1
