# generated using pymatgen
data_Li4MnSn2Se7
_symmetry_space_group_name_H-M   'P 1'
_cell_length_a   9.90910904
_cell_length_b   9.90910904
_cell_length_c   10.87464375
_cell_angle_alpha   86.98816752
_cell_angle_beta   86.98816752
_cell_angle_gamma   43.53176266
_symmetry_Int_Tables_number   1
_chemical_formula_structural   Li4MnSn2Se7
_chemical_formula_sum   'Li8 Mn2 Sn4 Se14'
_cell_volume   734.26674633
_cell_formula_units_Z   2
loop_
 _symmetry_equiv_pos_site_id
 _symmetry_equiv_pos_as_xyz
  1  'x, y, z'
loop_
 _atom_site_type_symbol
 _atom_site_label
 _atom_site_symmetry_multiplicity
 _atom_site_fract_x
 _atom_site_fract_y
 _atom_site_fract_z
 _atom_site_occupancy
  Li  Li0  1  0.52732000  0.18142900  0.41236900  1
  Li  Li1  1  0.18142900  0.52732000  0.91236900  1
  Li  Li2  1  0.91584700  0.21696400  0.33559100  1
  Li  Li3  1  0.21696400  0.91584700  0.83559100  1
  Li  Li4  1  0.68205200  0.30952300  0.69767800  1
  Li  Li5  1  0.30952300  0.68205200  0.19767800  1
  Li  Li6  1  0.04104800  0.38390200  0.61493400  1
  Li  Li7  1  0.38390200  0.04104800  0.11493400  1
  Mn  Mn8  1  0.92976500  0.63557700  0.25902100  1
  Mn  Mn9  1  0.63557700  0.92976500  0.75902100  1
  Sn  Sn10  1  0.47173600  0.80987000  0.47014100  1
  Sn  Sn11  1  0.80987000  0.47173600  0.97014100  1
  Sn  Sn12  1  0.07942900  0.76759400  0.53828200  1
  Sn  Sn13  1  0.76759400  0.07942900  0.03828200  1
  Se  Se14  1  0.36876400  0.69072700  0.63553000  1
  Se  Se15  1  0.69072700  0.36876400  0.13553000  1
  Se  Se16  1  0.21879400  0.54960700  0.35001600  1
  Se  Se17  1  0.54960700  0.21879400  0.85001600  1
  Se  Se18  1  0.99753400  0.64492700  0.70883000  1
  Se  Se19  1  0.64492700  0.99753400  0.20883000  1
  Se  Se20  1  0.27365400  0.94052700  0.27839800  1
  Se  Se21  1  0.94052700  0.27365400  0.77839800  1
  Se  Se22  1  0.41617800  0.07490100  0.57330000  1
  Se  Se23  1  0.07490100  0.41617800  0.07330000  1
  Se  Se24  1  0.83633300  0.51421300  0.41651200  1
  Se  Se25  1  0.51421300  0.83633300  0.91651200  1
  Se  Se26  1  0.79503600  0.13125000  0.49772900  1
  Se  Se27  1  0.13125000  0.79503600  0.99772900  1
