# generated using pymatgen
data_CrAgSnSe4
_symmetry_space_group_name_H-M   'P 1'
_cell_length_a   7.86267279
_cell_length_b   7.86267279
_cell_length_c   7.86267279
_cell_angle_alpha   120.58676807
_cell_angle_beta   119.16292232
_cell_angle_gamma   90.22131771
_symmetry_Int_Tables_number   1
_chemical_formula_structural   CrAgSnSe4
_chemical_formula_sum   'Cr2 Ag2 Sn2 Se8'
_cell_volume   344.29400320
_cell_formula_units_Z   2
loop_
 _symmetry_equiv_pos_site_id
 _symmetry_equiv_pos_as_xyz
  1  'x, y, z'
loop_
 _atom_site_type_symbol
 _atom_site_label
 _atom_site_symmetry_multiplicity
 _atom_site_fract_x
 _atom_site_fract_y
 _atom_site_fract_z
 _atom_site_occupancy
  Cr  Cr0  1  0.50000000  0.00000000  0.00000000  1
  Cr  Cr1  1  0.50000000  0.50000000  0.50000000  1
  Ag  Ag2  1  0.88254700  0.63254700  0.25000000  1
  Ag  Ag3  1  0.11745300  0.36745300  0.75000000  1
  Sn  Sn4  1  0.50000000  0.00000000  0.50000000  1
  Sn  Sn5  1  0.00000000  0.00000000  0.00000000  1
  Se  Se6  1  0.72994100  0.73812400  0.50818300  1
  Se  Se7  1  0.72994100  0.22175800  0.99181700  1
  Se  Se8  1  0.71718500  0.75311200  0.96407300  1
  Se  Se9  1  0.28903900  0.75311200  0.53592700  1
  Se  Se10  1  0.27005900  0.26187600  0.49181700  1
  Se  Se11  1  0.27005900  0.77824200  0.00818300  1
  Se  Se12  1  0.28281500  0.24688800  0.03592700  1
  Se  Se13  1  0.71096100  0.24688800  0.46407300  1
