# generated using pymatgen
data_Pr5Si2Ge
_symmetry_space_group_name_H-M   'P 1'
_cell_length_a   7.90005500
_cell_length_b   8.99013376
_cell_length_c   7.90005500
_cell_angle_alpha   116.06392521
_cell_angle_beta   90.00000000
_cell_angle_gamma   116.06392521
_symmetry_Int_Tables_number   1
_chemical_formula_structural   Pr5Si2Ge
_chemical_formula_sum   'Pr10 Si4 Ge2'
_cell_volume   439.61829178
_cell_formula_units_Z   2
loop_
 _symmetry_equiv_pos_site_id
 _symmetry_equiv_pos_as_xyz
  1  'x, y, z'
loop_
 _atom_site_type_symbol
 _atom_site_label
 _atom_site_symmetry_multiplicity
 _atom_site_fract_x
 _atom_site_fract_y
 _atom_site_fract_z
 _atom_site_occupancy
  Pr  Pr0  1  0.00000000  0.00000000  0.00000000  1
  Pr  Pr1  1  0.50000000  0.00000000  0.50000000  1
  Pr  Pr2  1  0.53079600  0.70946500  0.67867000  1
  Pr  Pr3  1  0.17867000  0.70946500  0.03079600  1
  Pr  Pr4  1  0.67867000  0.70946500  0.17867000  1
  Pr  Pr5  1  0.03079600  0.70946500  0.53079600  1
  Pr  Pr6  1  0.46920400  0.29053500  0.32133000  1
  Pr  Pr7  1  0.82133000  0.29053500  0.96920400  1
  Pr  Pr8  1  0.32133000  0.29053500  0.82133000  1
  Pr  Pr9  1  0.96920400  0.29053500  0.46920400  1
  Si  Si10  1  0.88517700  0.00000000  0.61482300  1
  Si  Si11  1  0.11482300  0.00000000  0.38517700  1
  Si  Si12  1  0.61482300  0.00000000  0.11482300  1
  Si  Si13  1  0.38517700  0.00000000  0.88517700  1
  Ge  Ge14  1  0.75000000  0.50000000  0.75000000  1
  Ge  Ge15  1  0.25000000  0.50000000  0.25000000  1
