# generated using pymatgen
data_Na3U6AlF30
_symmetry_space_group_name_H-M   'P 1'
_cell_length_a   9.87600010
_cell_length_b   9.87600010
_cell_length_c   13.03928500
_cell_angle_alpha   90.00000000
_cell_angle_beta   90.00000000
_cell_angle_gamma   120.00000065
_symmetry_Int_Tables_number   1
_chemical_formula_structural   Na3U6AlF30
_chemical_formula_sum   'Na6 U12 Al2 F60'
_cell_volume   1101.40381827
_cell_formula_units_Z   2
loop_
 _symmetry_equiv_pos_site_id
 _symmetry_equiv_pos_as_xyz
  1  'x, y, z'
loop_
 _atom_site_type_symbol
 _atom_site_label
 _atom_site_symmetry_multiplicity
 _atom_site_fract_x
 _atom_site_fract_y
 _atom_site_fract_z
 _atom_site_occupancy
  Na  Na0  1  0.66666700  0.33333300  0.83824200  1
  Na  Na1  1  0.66666700  0.33333300  0.33824200  1
  Na  Na2  1  0.33333300  0.66666700  0.16175800  1
  Na  Na3  1  0.33333300  0.66666700  0.66175800  1
  Na  Na4  1  0.00000000  0.00000000  0.00000000  1
  Na  Na5  1  0.00000000  0.00000000  0.50000000  1
  U  U6  1  0.07622700  0.39858000  0.89769800  1
  U  U7  1  0.32235300  0.92377300  0.89769800  1
  U  U8  1  0.60142000  0.67764700  0.89769800  1
  U  U9  1  0.07622700  0.67764700  0.39769800  1
  U  U10  1  0.60142000  0.92377300  0.39769800  1
  U  U11  1  0.32235300  0.39858000  0.39769800  1
  U  U12  1  0.92377300  0.60142000  0.10230200  1
  U  U13  1  0.67764700  0.07622700  0.10230200  1
  U  U14  1  0.39858000  0.32235300  0.10230200  1
  U  U15  1  0.92377300  0.32235300  0.60230200  1
  U  U16  1  0.39858000  0.07622700  0.60230200  1
  U  U17  1  0.67764700  0.60142000  0.60230200  1
  Al  Al18  1  0.00000000  0.00000000  0.75000000  1
  Al  Al19  1  0.00000000  0.00000000  0.25000000  1
  F  F20  1  0.86871600  0.30155700  0.78508100  1
  F  F21  1  0.43284100  0.13128400  0.78508100  1
  F  F22  1  0.69844300  0.56715900  0.78508100  1
  F  F23  1  0.86871600  0.56715900  0.28508100  1
  F  F24  1  0.69844300  0.13128400  0.28508100  1
  F  F25  1  0.43284100  0.30155700  0.28508100  1
  F  F26  1  0.13128400  0.69844300  0.21491900  1
  F  F27  1  0.56715900  0.86871600  0.21491900  1
  F  F28  1  0.30155700  0.43284100  0.21491900  1
  F  F29  1  0.13128400  0.43284100  0.71491900  1
  F  F30  1  0.30155700  0.86871600  0.71491900  1
  F  F31  1  0.56715900  0.69844300  0.71491900  1
  F  F32  1  0.88685900  0.19168700  0.98295800  1
  F  F33  1  0.30482800  0.11314100  0.98295800  1
  F  F34  1  0.80831300  0.69517200  0.98295800  1
  F  F35  1  0.88685900  0.69517200  0.48295800  1
  F  F36  1  0.80831300  0.11314100  0.48295800  1
  F  F37  1  0.30482800  0.19168700  0.48295800  1
  F  F38  1  0.11314100  0.80831300  0.01704200  1
  F  F39  1  0.69517200  0.88685900  0.01704200  1
  F  F40  1  0.19168700  0.30482800  0.01704200  1
  F  F41  1  0.11314100  0.30482800  0.51704200  1
  F  F42  1  0.19168700  0.88685900  0.51704200  1
  F  F43  1  0.69517200  0.80831300  0.51704200  1
  F  F44  1  0.12064400  0.53272800  0.04983400  1
  F  F45  1  0.41208400  0.87935600  0.04983400  1
  F  F46  1  0.46727200  0.58791600  0.04983400  1
  F  F47  1  0.12064400  0.58791600  0.54983400  1
  F  F48  1  0.46727200  0.87935600  0.54983400  1
  F  F49  1  0.41208400  0.53272800  0.54983400  1
  F  F50  1  0.87935600  0.46727200  0.95016600  1
  F  F51  1  0.58791600  0.12064400  0.95016600  1
  F  F52  1  0.53272800  0.41208400  0.95016600  1
  F  F53  1  0.87935600  0.41208400  0.45016600  1
  F  F54  1  0.53272800  0.12064400  0.45016600  1
  F  F55  1  0.58791600  0.46727200  0.45016600  1
  F  F56  1  0.07671700  0.17257700  0.83351400  1
  F  F57  1  0.09586000  0.92328300  0.83351400  1
  F  F58  1  0.82742300  0.90414000  0.83351400  1
  F  F59  1  0.07671700  0.90414000  0.33351400  1
  F  F60  1  0.82742300  0.92328300  0.33351400  1
  F  F61  1  0.09586000  0.17257700  0.33351400  1
  F  F62  1  0.92328300  0.82742300  0.16648600  1
  F  F63  1  0.90414000  0.07671700  0.16648600  1
  F  F64  1  0.17257700  0.09586000  0.16648600  1
  F  F65  1  0.92328300  0.09586000  0.66648600  1
  F  F66  1  0.17257700  0.07671700  0.66648600  1
  F  F67  1  0.90414000  0.82742300  0.66648600  1
  F  F68  1  0.34106100  0.51138400  0.86156600  1
  F  F69  1  0.17032200  0.65893900  0.86156600  1
  F  F70  1  0.48861600  0.82967800  0.86156600  1
  F  F71  1  0.34106100  0.82967800  0.36156600  1
  F  F72  1  0.48861600  0.65893900  0.36156600  1
  F  F73  1  0.17032200  0.51138400  0.36156600  1
  F  F74  1  0.65893900  0.48861600  0.13843400  1
  F  F75  1  0.82967800  0.34106100  0.13843400  1
  F  F76  1  0.51138400  0.17032200  0.13843400  1
  F  F77  1  0.65893900  0.17032200  0.63843400  1
  F  F78  1  0.51138400  0.34106100  0.63843400  1
  F  F79  1  0.82967800  0.48861600  0.63843400  1
