# generated using pymatgen
data_K4TiSn3(PO5)4
_symmetry_space_group_name_H-M   'P 1'
_cell_length_a   10.86771700
_cell_length_b   6.58795600
_cell_length_c   13.28155788
_cell_angle_alpha   89.94168853
_cell_angle_beta   90.00000000
_cell_angle_gamma   90.00000000
_symmetry_Int_Tables_number   1
_chemical_formula_structural   K4TiSn3(PO5)4
_chemical_formula_sum   'K8 Ti2 Sn6 P8 O40'
_cell_volume   950.90647547
_cell_formula_units_Z   2
loop_
 _symmetry_equiv_pos_site_id
 _symmetry_equiv_pos_as_xyz
  1  'x, y, z'
loop_
 _atom_site_type_symbol
 _atom_site_label
 _atom_site_symmetry_multiplicity
 _atom_site_fract_x
 _atom_site_fract_y
 _atom_site_fract_z
 _atom_site_occupancy
  K  K0  1  0.30221100  0.27663100  0.12120000  1
  K  K1  1  0.80221100  0.72336900  0.87880000  1
  K  K2  1  0.80285800  0.77738500  0.37457400  1
  K  K3  1  0.30285800  0.22261500  0.62542600  1
  K  K4  1  0.06088600  0.19531100  0.39003800  1
  K  K5  1  0.56088600  0.80468900  0.60996200  1
  K  K6  1  0.55997600  0.69718300  0.10553300  1
  K  K7  1  0.05997600  0.30281700  0.89446700  1
  Ti  Ti8  1  0.99905800  0.99750000  0.13062200  1
  Ti  Ti9  1  0.49905800  0.00250000  0.86937800  1
  Sn  Sn10  1  0.49929700  0.49845200  0.37265200  1
  Sn  Sn11  1  0.99929700  0.50154800  0.62734800  1
  Sn  Sn12  1  0.24936300  0.75221500  0.25031400  1
  Sn  Sn13  1  0.74936300  0.24778500  0.74968600  1
  Sn  Sn14  1  0.74897300  0.25705000  0.24527600  1
  Sn  Sn15  1  0.24897300  0.74295000  0.75472400  1
  P  P16  1  0.24980100  0.84489900  0.99952700  1
  P  P17  1  0.74980100  0.15510100  0.00047300  1
  P  P18  1  0.74966800  0.33870200  0.50026200  1
  P  P19  1  0.24966800  0.66129800  0.49973800  1
  P  P20  1  0.50157200  0.00210800  0.32351200  1
  P  P21  1  0.00157200  0.99789200  0.67648800  1
  P  P22  1  0.00180700  0.50210400  0.17699900  1
  P  P23  1  0.50180700  0.49789600  0.82300100  1
  O  O24  1  0.22480400  0.69890700  0.90938800  1
  O  O25  1  0.72480400  0.30109300  0.09061200  1
  O  O26  1  0.72669500  0.19811200  0.59196800  1
  O  O27  1  0.22669500  0.80188800  0.40803200  1
  O  O28  1  0.27232700  0.70333400  0.09235100  1
  O  O29  1  0.77232700  0.29666600  0.90764900  1
  O  O30  1  0.77073200  0.20130200  0.40685300  1
  O  O31  1  0.27073200  0.79869800  0.59314700  1
  O  O32  1  0.47822000  0.18513500  0.39354600  1
  O  O33  1  0.97822000  0.81486500  0.60645400  1
  O  O34  1  0.98100100  0.69489500  0.11267800  1
  O  O35  1  0.48100100  0.30510500  0.88732200  1
  O  O36  1  0.39079500  0.97144600  0.25106800  1
  O  O37  1  0.89079500  0.02855400  0.74893200  1
  O  O38  1  0.89125500  0.47125700  0.25018300  1
  O  O39  1  0.39125500  0.52874300  0.74981700  1
  O  O40  1  0.63603600  0.48850200  0.27102300  1
  O  O41  1  0.13603600  0.51149800  0.72897700  1
  O  O42  1  0.12559500  0.97391400  0.22288800  1
  O  O43  1  0.62559500  0.02608600  0.77711200  1
  O  O44  1  0.52510800  0.81797200  0.39402200  1
  O  O45  1  0.02510800  0.18202800  0.60597800  1
  O  O46  1  0.02276900  0.31373600  0.10964600  1
  O  O47  1  0.52276900  0.68626400  0.89035400  1
  O  O48  1  0.37385100  0.53119500  0.26410000  1
  O  O49  1  0.87385100  0.46880500  0.73590000  1
  O  O50  1  0.88123900  0.04151900  0.22684300  1
  O  O51  1  0.38123900  0.95848100  0.77315700  1
  O  O52  1  0.13860600  0.98788500  0.01591600  1
  O  O53  1  0.63860600  0.01211500  0.98408400  1
  O  O54  1  0.63887900  0.48717200  0.48682300  1
  O  O55  1  0.13887900  0.51282800  0.51317700  1
  O  O56  1  0.36764800  0.97423600  0.98338600  1
  O  O57  1  0.86764800  0.02576400  0.01661400  1
  O  O58  1  0.86654700  0.47522300  0.51228400  1
  O  O59  1  0.36654700  0.52477700  0.48771600  1
  O  O60  1  0.61518800  0.02786100  0.25327800  1
  O  O61  1  0.11518800  0.97213900  0.74672200  1
  O  O62  1  0.11483400  0.52611200  0.24849500  1
  O  O63  1  0.61483400  0.47388800  0.75150500  1
