# generated using pymatgen
data_SrLi4N2
_symmetry_space_group_name_H-M   'P 1'
_cell_length_a   13.80031506
_cell_length_b   13.80031506
_cell_length_c   13.80031506
_cell_angle_alpha   164.04843657
_cell_angle_beta   164.04843657
_cell_angle_gamma   22.63299786
_symmetry_Int_Tables_number   1
_chemical_formula_structural   SrLi4N2
_chemical_formula_sum   'Sr2 Li8 N4'
_cell_volume   198.46987925
_cell_formula_units_Z   2
loop_
 _symmetry_equiv_pos_site_id
 _symmetry_equiv_pos_as_xyz
  1  'x, y, z'
loop_
 _atom_site_type_symbol
 _atom_site_label
 _atom_site_symmetry_multiplicity
 _atom_site_fract_x
 _atom_site_fract_y
 _atom_site_fract_z
 _atom_site_occupancy
  Sr  Sr0  1  0.75000000  0.25000000  0.50000000  1
  Sr  Sr1  1  0.00000000  0.00000000  0.00000000  1
  Li  Li2  1  0.85372200  0.35372200  0.50000000  1
  Li  Li3  1  0.10372200  0.10372200  0.00000000  1
  Li  Li4  1  0.17782900  0.67782900  0.50000000  1
  Li  Li5  1  0.42782900  0.42782900  0.00000000  1
  Li  Li6  1  0.57217100  0.57217100  0.00000000  1
  Li  Li7  1  0.89627800  0.89627800  0.00000000  1
  Li  Li8  1  0.64627800  0.14627800  0.50000000  1
  Li  Li9  1  0.32217100  0.82217100  0.50000000  1
  N  N10  1  0.81802900  0.81802900  0.00000000  1
  N  N11  1  0.56802900  0.06802900  0.50000000  1
  N  N12  1  0.93197100  0.43197100  0.50000000  1
  N  N13  1  0.18197100  0.18197100  0.00000000  1
