# generated using pymatgen
data_Ca2CdPt2
_symmetry_space_group_name_H-M   'P 1'
_cell_length_a   5.68701264
_cell_length_b   5.68701264
_cell_length_c   5.68701264
_cell_angle_alpha   133.34234431
_cell_angle_beta   117.61305355
_cell_angle_gamma   81.38153722
_symmetry_Int_Tables_number   1
_chemical_formula_structural   Ca2CdPt2
_chemical_formula_sum   'Ca2 Cd1 Pt2'
_cell_volume   114.41766921
_cell_formula_units_Z   1
loop_
 _symmetry_equiv_pos_site_id
 _symmetry_equiv_pos_as_xyz
  1  'x, y, z'
loop_
 _atom_site_type_symbol
 _atom_site_label
 _atom_site_symmetry_multiplicity
 _atom_site_fract_x
 _atom_site_fract_y
 _atom_site_fract_z
 _atom_site_occupancy
  Ca  Ca0  1  0.29935200  0.79935200  0.50000000  1
  Ca  Ca1  1  0.70064800  0.20064800  0.50000000  1
  Cd  Cd2  1  0.00000000  0.00000000  0.00000000  1
  Pt  Pt3  1  0.72671500  0.50000000  0.22671500  1
  Pt  Pt4  1  0.27328500  0.50000000  0.77328500  1
