# generated using pymatgen
data_KAg3Te2
_symmetry_space_group_name_H-M   'P 1'
_cell_length_a   9.14624513
_cell_length_b   9.14624513
_cell_length_c   9.26329121
_cell_angle_alpha   66.67689330
_cell_angle_beta   66.67689330
_cell_angle_gamma   29.37945263
_symmetry_Int_Tables_number   1
_chemical_formula_structural   KAg3Te2
_chemical_formula_sum   'K2 Ag6 Te4'
_cell_volume   346.86240822
_cell_formula_units_Z   2
loop_
 _symmetry_equiv_pos_site_id
 _symmetry_equiv_pos_as_xyz
  1  'x, y, z'
loop_
 _atom_site_type_symbol
 _atom_site_label
 _atom_site_symmetry_multiplicity
 _atom_site_fract_x
 _atom_site_fract_y
 _atom_site_fract_z
 _atom_site_occupancy
  K  K0  1  0.13389700  0.13389700  0.95170900  1
  K  K1  1  0.86610300  0.86610300  0.04829100  1
  Ag  Ag2  1  0.58920100  0.58920100  0.37103800  1
  Ag  Ag3  1  0.41079900  0.41079900  0.62896200  1
  Ag  Ag4  1  0.69213300  0.69213300  0.54359600  1
  Ag  Ag5  1  0.30786700  0.30786700  0.45640400  1
  Ag  Ag6  1  0.06374600  0.06374600  0.59021000  1
  Ag  Ag7  1  0.93625400  0.93625400  0.40979000  1
  Te  Te8  1  0.20492700  0.20492700  0.29268000  1
  Te  Te9  1  0.79507300  0.79507300  0.70732000  1
  Te  Te10  1  0.51804400  0.51804400  0.77914900  1
  Te  Te11  1  0.48195600  0.48195600  0.22085100  1
