# generated using pymatgen
data_LiP5Pb2O15
_symmetry_space_group_name_H-M   'P 1'
_cell_length_a   5.60401686
_cell_length_b   9.80989900
_cell_length_c   12.47711679
_cell_angle_alpha   90.00000000
_cell_angle_beta   91.27313797
_cell_angle_gamma   90.00000000
_symmetry_Int_Tables_number   1
_chemical_formula_structural   LiP5Pb2O15
_chemical_formula_sum   'Li2 P10 Pb4 O30'
_cell_volume   685.75816069
_cell_formula_units_Z   2
loop_
 _symmetry_equiv_pos_site_id
 _symmetry_equiv_pos_as_xyz
  1  'x, y, z'
loop_
 _atom_site_type_symbol
 _atom_site_label
 _atom_site_symmetry_multiplicity
 _atom_site_fract_x
 _atom_site_fract_y
 _atom_site_fract_z
 _atom_site_occupancy
  Li  Li0  1  0.55688900  0.01518400  0.47538400  1
  Li  Li1  1  0.05688900  0.98481600  0.97538400  1
  P  P2  1  0.89103200  0.45918300  0.34945100  1
  P  P3  1  0.10782600  0.54089600  0.65054400  1
  P  P4  1  0.60782600  0.45910400  0.15054400  1
  P  P5  1  0.39103200  0.54081700  0.84945100  1
  P  P6  1  0.25054800  0.00256900  0.24932300  1
  P  P7  1  0.75054800  0.99743100  0.74932300  1
  P  P8  1  0.07852200  0.19080800  0.41816100  1
  P  P9  1  0.92359000  0.80806900  0.58110900  1
  P  P10  1  0.42359000  0.19193100  0.08110900  1
  P  P11  1  0.57852200  0.80919200  0.91816100  1
  Pb  Pb12  1  0.09506500  0.68501700  0.09207800  1
  Pb  Pb13  1  0.90240700  0.31238500  0.91090000  1
  Pb  Pb14  1  0.40240700  0.68761500  0.41090000  1
  Pb  Pb15  1  0.59506500  0.31498300  0.59207800  1
  O  O16  1  0.74978400  0.38786300  0.24996300  1
  O  O17  1  0.24978400  0.61213700  0.74996300  1
  O  O18  1  0.30989500  0.16683200  0.47832100  1
  O  O19  1  0.69265900  0.83447000  0.52036100  1
  O  O20  1  0.19265900  0.16553000  0.02036100  1
  O  O21  1  0.80989500  0.83316800  0.97832100  1
  O  O22  1  0.40187800  0.92873400  0.33231500  1
  O  O23  1  0.60387400  0.07552800  0.66845100  1
  O  O24  1  0.10387400  0.92447200  0.16845100  1
  O  O25  1  0.90187800  0.07126600  0.83231500  1
  O  O26  1  0.84358300  0.16880300  0.47233500  1
  O  O27  1  0.15557600  0.82712300  0.52597900  1
  O  O28  1  0.65557600  0.17287700  0.02597900  1
  O  O29  1  0.34358300  0.83119700  0.97233500  1
  O  O30  1  0.09279100  0.34573500  0.37294300  1
  O  O31  1  0.90488900  0.65364700  0.62775600  1
  O  O32  1  0.40488900  0.34635300  0.12775600  1
  O  O33  1  0.59279100  0.65426500  0.87294300  1
  O  O34  1  0.72185700  0.47008500  0.44167600  1
  O  O35  1  0.27807700  0.52952000  0.55866600  1
  O  O36  1  0.77807700  0.47048000  0.05866600  1
  O  O37  1  0.22185700  0.52991500  0.94167600  1
  O  O38  1  0.01403100  0.58719800  0.31403400  1
  O  O39  1  0.98586100  0.41247600  0.68567000  1
  O  O40  1  0.48586100  0.58752400  0.18567000  1
  O  O41  1  0.51403100  0.41280200  0.81403400  1
  O  O42  1  0.43191500  0.10591600  0.19098300  1
  O  O43  1  0.56745300  0.89545200  0.80859600  1
  O  O44  1  0.06745300  0.10454800  0.30859600  1
  O  O45  1  0.93191500  0.89408400  0.69098300  1
