# generated using pymatgen
data_GdSi2Ni
_symmetry_space_group_name_H-M   'P 1'
_cell_length_a   8.24808178
_cell_length_b   8.24808178
_cell_length_c   3.96139000
_cell_angle_alpha   90.00000000
_cell_angle_beta   90.00000000
_cell_angle_gamma   152.04336246
_symmetry_Int_Tables_number   1
_chemical_formula_structural   GdSi2Ni
_chemical_formula_sum   'Gd2 Si4 Ni2'
_cell_volume   126.34093394
_cell_formula_units_Z   2
loop_
 _symmetry_equiv_pos_site_id
 _symmetry_equiv_pos_as_xyz
  1  'x, y, z'
loop_
 _atom_site_type_symbol
 _atom_site_label
 _atom_site_symmetry_multiplicity
 _atom_site_fract_x
 _atom_site_fract_y
 _atom_site_fract_z
 _atom_site_occupancy
  Gd  Gd0  1  0.89375600  0.10624400  0.75000000  1
  Gd  Gd1  1  0.10624400  0.89375600  0.25000000  1
  Si  Si2  1  0.53972700  0.46027300  0.75000000  1
  Si  Si3  1  0.46027300  0.53972700  0.25000000  1
  Si  Si4  1  0.24971800  0.75028200  0.75000000  1
  Si  Si5  1  0.75028200  0.24971800  0.25000000  1
  Ni  Ni6  1  0.67926200  0.32073800  0.75000000  1
  Ni  Ni7  1  0.32073800  0.67926200  0.25000000  1
