# generated using pymatgen
data_Y3B7W
_symmetry_space_group_name_H-M   'P 1'
_cell_length_a   8.19499646
_cell_length_b   8.19499646
_cell_length_c   9.49972600
_cell_angle_alpha   90.00000000
_cell_angle_beta   90.00000000
_cell_angle_gamma   155.53142533
_symmetry_Int_Tables_number   1
_chemical_formula_structural   Y3B7W
_chemical_formula_sum   'Y6 B14 W2'
_cell_volume   264.24849127
_cell_formula_units_Z   2
loop_
 _symmetry_equiv_pos_site_id
 _symmetry_equiv_pos_as_xyz
  1  'x, y, z'
loop_
 _atom_site_type_symbol
 _atom_site_label
 _atom_site_symmetry_multiplicity
 _atom_site_fract_x
 _atom_site_fract_y
 _atom_site_fract_z
 _atom_site_occupancy
  Y  Y0  1  0.89337600  0.10662400  0.93967300  1
  Y  Y1  1  0.10662400  0.89337600  0.06032700  1
  Y  Y2  1  0.75614200  0.24385800  0.25000000  1
  Y  Y3  1  0.24385800  0.75614200  0.75000000  1
  Y  Y4  1  0.89337600  0.10662400  0.56032700  1
  Y  Y5  1  0.10662400  0.89337600  0.43967300  1
  B  B6  1  0.54380400  0.45619600  0.25000000  1
  B  B7  1  0.45619600  0.54380400  0.75000000  1
  B  B8  1  0.51973700  0.48026300  0.90795200  1
  B  B9  1  0.48026300  0.51973700  0.09204800  1
  B  B10  1  0.48026300  0.51973700  0.40795200  1
  B  B11  1  0.51973700  0.48026300  0.59204800  1
  B  B12  1  0.63487900  0.36512100  0.85266600  1
  B  B13  1  0.36512100  0.63487900  0.14733400  1
  B  B14  1  0.72746300  0.27253700  0.96709400  1
  B  B15  1  0.27253700  0.72746300  0.03290600  1
  B  B16  1  0.27253700  0.72746300  0.46709400  1
  B  B17  1  0.72746300  0.27253700  0.53290600  1
  B  B18  1  0.63487900  0.36512100  0.64733400  1
  B  B19  1  0.36512100  0.63487900  0.35266600  1
  W  W20  1  0.05353100  0.94646900  0.75000000  1
  W  W21  1  0.94646900  0.05353100  0.25000000  1
