# generated using pymatgen
data_VAs2
_symmetry_space_group_name_H-M   'P 1'
_cell_length_a   4.84940204
_cell_length_b   4.84940204
_cell_length_c   7.51360615
_cell_angle_alpha   62.12970665
_cell_angle_beta   62.12970665
_cell_angle_gamma   39.71390700
_symmetry_Int_Tables_number   1
_chemical_formula_structural   VAs2
_chemical_formula_sum   'V2 As4'
_cell_volume   97.96775426
_cell_formula_units_Z   2
loop_
 _symmetry_equiv_pos_site_id
 _symmetry_equiv_pos_as_xyz
  1  'x, y, z'
loop_
 _atom_site_type_symbol
 _atom_site_label
 _atom_site_symmetry_multiplicity
 _atom_site_fract_x
 _atom_site_fract_y
 _atom_site_fract_z
 _atom_site_occupancy
  V  V0  1  0.15375600  0.15375600  0.80651300  1
  V  V1  1  0.84624400  0.84624400  0.19348700  1
  As  As2  1  0.40403700  0.40403700  0.89320000  1
  As  As3  1  0.59596300  0.59596300  0.10680000  1
  As  As4  1  0.85189200  0.85189200  0.53471700  1
  As  As5  1  0.14810800  0.14810800  0.46528300  1
