# generated using pymatgen
data_K2TiO3
_symmetry_space_group_name_H-M   'P 1'
_cell_length_a   6.19328151
_cell_length_b   6.19328151
_cell_length_c   5.51337400
_cell_angle_alpha   90.00000000
_cell_angle_beta   90.00000000
_cell_angle_gamma   110.77080208
_symmetry_Int_Tables_number   1
_chemical_formula_structural   K2TiO3
_chemical_formula_sum   'K4 Ti2 O6'
_cell_volume   197.73053143
_cell_formula_units_Z   2
loop_
 _symmetry_equiv_pos_site_id
 _symmetry_equiv_pos_as_xyz
  1  'x, y, z'
loop_
 _atom_site_type_symbol
 _atom_site_label
 _atom_site_symmetry_multiplicity
 _atom_site_fract_x
 _atom_site_fract_y
 _atom_site_fract_z
 _atom_site_occupancy
  K  K0  1  0.81124800  0.48504900  0.25000000  1
  K  K1  1  0.48504900  0.81124800  0.25000000  1
  K  K2  1  0.18875200  0.51495100  0.75000000  1
  K  K3  1  0.51495100  0.18875200  0.75000000  1
  Ti  Ti4  1  0.91521100  0.91521100  0.75000000  1
  Ti  Ti5  1  0.08478900  0.08478900  0.25000000  1
  O  O6  1  0.66293800  0.66293800  0.75000000  1
  O  O7  1  0.33706200  0.33706200  0.25000000  1
  O  O8  1  0.87448900  0.12551100  0.50000000  1
  O  O9  1  0.12551100  0.87448900  0.00000000  1
  O  O10  1  0.87448900  0.12551100  0.00000000  1
  O  O11  1  0.12551100  0.87448900  0.50000000  1
