# generated using pymatgen
data_CeSiRu2C
_symmetry_space_group_name_H-M   'P 1'
_cell_length_a   5.93332258
_cell_length_b   5.93332258
_cell_length_c   7.14245100
_cell_angle_alpha   90.00000000
_cell_angle_beta   90.00000000
_cell_angle_gamma   141.68379453
_symmetry_Int_Tables_number   1
_chemical_formula_structural   CeSiRu2C
_chemical_formula_sum   'Ce2 Si2 Ru4 C2'
_cell_volume   155.89621131
_cell_formula_units_Z   2
loop_
 _symmetry_equiv_pos_site_id
 _symmetry_equiv_pos_as_xyz
  1  'x, y, z'
loop_
 _atom_site_type_symbol
 _atom_site_label
 _atom_site_symmetry_multiplicity
 _atom_site_fract_x
 _atom_site_fract_y
 _atom_site_fract_z
 _atom_site_occupancy
  Ce  Ce0  1  0.55191900  0.44808100  0.25000000  1
  Ce  Ce1  1  0.44808100  0.55191900  0.75000000  1
  Si  Si2  1  0.27206600  0.72793400  0.25000000  1
  Si  Si3  1  0.72793400  0.27206600  0.75000000  1
  Ru  Ru4  1  0.83586500  0.16413500  0.05651300  1
  Ru  Ru5  1  0.16413500  0.83586500  0.94348700  1
  Ru  Ru6  1  0.16413500  0.83586500  0.55651300  1
  Ru  Ru7  1  0.83586500  0.16413500  0.44348700  1
  C  C8  1  0.00000000  0.00000000  0.00000000  1
  C  C9  1  0.00000000  0.00000000  0.50000000  1
