# generated using pymatgen
data_TmCuPbS3
_symmetry_space_group_name_H-M   'P 1'
_cell_length_a   6.85448136
_cell_length_b   6.85448136
_cell_length_c   10.13929500
_cell_angle_alpha   90.00000000
_cell_angle_beta   90.00000000
_cell_angle_gamma   146.75519194
_symmetry_Int_Tables_number   1
_chemical_formula_structural   TmCuPbS3
_chemical_formula_sum   'Tm2 Cu2 Pb2 S6'
_cell_volume   261.16189453
_cell_formula_units_Z   2
loop_
 _symmetry_equiv_pos_site_id
 _symmetry_equiv_pos_as_xyz
  1  'x, y, z'
loop_
 _atom_site_type_symbol
 _atom_site_label
 _atom_site_symmetry_multiplicity
 _atom_site_fract_x
 _atom_site_fract_y
 _atom_site_fract_z
 _atom_site_occupancy
  Tm  Tm0  1  0.99654800  0.00345200  0.49892300  1
  Tm  Tm1  1  0.00345200  0.99654800  0.99892300  1
  Cu  Cu2  1  0.46685700  0.53314300  0.24861000  1
  Cu  Cu3  1  0.53314300  0.46685700  0.74861000  1
  Pb  Pb4  1  0.74905900  0.25094100  0.22074700  1
  Pb  Pb5  1  0.25094100  0.74905900  0.72074700  1
  S  S6  1  0.07257700  0.92742300  0.25089500  1
  S  S7  1  0.92742300  0.07257700  0.75089500  1
  S  S8  1  0.36394800  0.63605200  0.43725200  1
  S  S9  1  0.63515000  0.36485000  0.56217200  1
  S  S10  1  0.36485000  0.63515000  0.06217200  1
  S  S11  1  0.63605200  0.36394800  0.93725200  1
