# generated using pymatgen
data_VPO4
_symmetry_space_group_name_H-M   'P 1'
_cell_length_a   5.28950301
_cell_length_b   7.91787900
_cell_length_c   6.47193901
_cell_angle_alpha   90.00006435
_cell_angle_beta   90.00503611
_cell_angle_gamma   90.00015542
_symmetry_Int_Tables_number   1
_chemical_formula_structural   VPO4
_chemical_formula_sum   'V4 P4 O16'
_cell_volume   271.05544935
_cell_formula_units_Z   4
loop_
 _symmetry_equiv_pos_site_id
 _symmetry_equiv_pos_as_xyz
  1  'x, y, z'
loop_
 _atom_site_type_symbol
 _atom_site_label
 _atom_site_symmetry_multiplicity
 _atom_site_fract_x
 _atom_site_fract_y
 _atom_site_fract_z
 _atom_site_occupancy
  V  V0  1  0.49999700  0.50000100  0.50000400  1
  V  V1  1  0.00000500  0.00000100  0.00000600  1
  V  V2  1  0.99999800  0.00000000  0.50000000  1
  V  V3  1  0.50000000  0.49999900  0.99999800  1
  P  P4  1  0.49999900  0.84943900  0.75000200  1
  P  P5  1  0.99999900  0.34943800  0.74999700  1
  P  P6  1  0.50000100  0.15056100  0.24999800  1
  P  P7  1  0.00000000  0.65056200  0.25000200  1
  O  O8  1  0.74365500  0.96433400  0.75001000  1
  O  O9  1  0.24365600  0.46433400  0.75001000  1
  O  O10  1  0.74365100  0.03566600  0.25000500  1
  O  O11  1  0.24365000  0.53566700  0.25001500  1
  O  O12  1  0.25634400  0.03566700  0.24998800  1
  O  O13  1  0.75634400  0.53566600  0.24998900  1
  O  O14  1  0.25634900  0.96433400  0.74999300  1
  O  O15  1  0.75635000  0.46433400  0.74998500  1
  O  O16  1  0.50000700  0.74389000  0.55192000  1
  O  O17  1  0.00000300  0.24389100  0.55191500  1
  O  O18  1  0.49999500  0.25611000  0.44808000  1
  O  O19  1  0.99999500  0.75610900  0.44808500  1
  O  O20  1  0.49999500  0.74389000  0.94808400  1
  O  O21  1  0.99999400  0.24389000  0.94807900  1
  O  O22  1  0.50000600  0.25610900  0.05191500  1
  O  O23  1  0.00000600  0.75611000  0.05191900  1
