# generated using pymatgen
data_CaU2(BO5)2
_symmetry_space_group_name_H-M   'P 1'
_cell_length_a   6.69236985
_cell_length_b   8.37220367
_cell_length_c   9.37019813
_cell_angle_alpha   63.31708506
_cell_angle_beta   95.48301053
_cell_angle_gamma   89.71801079
_symmetry_Int_Tables_number   1
_chemical_formula_structural   CaU2(BO5)2
_chemical_formula_sum   'Ca2 U4 B4 O20'
_cell_volume   466.27823268
_cell_formula_units_Z   2
loop_
 _symmetry_equiv_pos_site_id
 _symmetry_equiv_pos_as_xyz
  1  'x, y, z'
loop_
 _atom_site_type_symbol
 _atom_site_label
 _atom_site_symmetry_multiplicity
 _atom_site_fract_x
 _atom_site_fract_y
 _atom_site_fract_z
 _atom_site_occupancy
  Ca  Ca0  1  0.41728500  0.65401000  0.67819000  1
  Ca  Ca1  1  0.58364100  0.33230900  0.32151500  1
  U  U2  1  0.00017000  0.49633200  0.00007300  1
  U  U3  1  0.55518100  0.87467400  0.24048500  1
  U  U4  1  0.44658100  0.11430000  0.75915600  1
  U  U5  1  0.00146300  0.99556900  0.00067400  1
  B  B6  1  0.84182900  0.69405300  0.60665200  1
  B  B7  1  0.15910600  0.29713600  0.39318800  1
  B  B8  1  0.07697000  0.80497300  0.39277100  1
  B  B9  1  0.92373500  0.19500800  0.60708400  1
  O  O10  1  0.67308300  0.74454100  0.49997200  1
  O  O11  1  0.32793100  0.24830500  0.49966900  1
  O  O12  1  0.07203700  0.12911300  0.73425600  1
  O  O13  1  0.92800600  0.87062800  0.26617300  1
  O  O14  1  0.23226200  0.54553700  0.89705400  1
  O  O15  1  0.76755100  0.45156200  0.10233300  1
  O  O16  1  0.55587200  0.64826000  0.24989200  1
  O  O17  1  0.44306700  0.89700000  0.75045300  1
  O  O18  1  0.56219300  0.09456000  0.24271300  1
  O  O19  1  0.44187100  0.33668700  0.75675200  1
  O  O20  1  0.81168800  0.61794800  0.76534800  1
  O  O21  1  0.18861400  0.36937200  0.23449800  1
  O  O22  1  0.31186600  0.99051100  0.02074600  1
  O  O23  1  0.69208100  0.99353600  0.97791500  1
  O  O24  1  0.03481000  0.71984800  0.55509700  1
  O  O25  1  0.96636800  0.27436800  0.44486100  1
  O  O26  1  0.27654400  0.81499200  0.37500300  1
  O  O27  1  0.72382200  0.18907300  0.62357700  1
  O  O28  1  0.98796600  0.23030400  0.99332900  1
  O  O29  1  0.01450800  0.75939100  0.01077200  1
