# generated using pymatgen
data_Na3Dy(PO4)2
_symmetry_space_group_name_H-M   'P 1'
_cell_length_a   5.32622300
_cell_length_b   13.94879000
_cell_length_c   18.58535000
_cell_angle_alpha   90.00000000
_cell_angle_beta   90.00000000
_cell_angle_gamma   90.00000000
_symmetry_Int_Tables_number   1
_chemical_formula_structural   Na3Dy(PO4)2
_chemical_formula_sum   'Na24 Dy8 P16 O64'
_cell_volume   1380.78679737
_cell_formula_units_Z   8
loop_
 _symmetry_equiv_pos_site_id
 _symmetry_equiv_pos_as_xyz
  1  'x, y, z'
loop_
 _atom_site_type_symbol
 _atom_site_label
 _atom_site_symmetry_multiplicity
 _atom_site_fract_x
 _atom_site_fract_y
 _atom_site_fract_z
 _atom_site_occupancy
  Na  Na0  1  0.00817200  0.78313900  0.50760500  1
  Na  Na1  1  0.99182800  0.21686100  0.00760500  1
  Na  Na2  1  0.99182800  0.28313900  0.50760500  1
  Na  Na3  1  0.00817200  0.71686100  0.00760500  1
  Na  Na4  1  0.00616900  0.04812800  0.85094700  1
  Na  Na5  1  0.99383100  0.95187200  0.35094700  1
  Na  Na6  1  0.99383100  0.54812800  0.85094700  1
  Na  Na7  1  0.00616900  0.45187200  0.35094700  1
  Na  Na8  1  0.00225300  0.13844900  0.67221800  1
  Na  Na9  1  0.99774700  0.86155100  0.17221800  1
  Na  Na10  1  0.99774700  0.63844900  0.67221800  1
  Na  Na11  1  0.00225300  0.36155100  0.17221800  1
  Na  Na12  1  0.51953300  0.20267200  0.77110100  1
  Na  Na13  1  0.48046700  0.79732800  0.27110100  1
  Na  Na14  1  0.48046700  0.70267200  0.77110100  1
  Na  Na15  1  0.51953300  0.29732800  0.27110100  1
  Na  Na16  1  0.46165400  0.03137200  0.61216800  1
  Na  Na17  1  0.53834600  0.96862800  0.11216800  1
  Na  Na18  1  0.53834600  0.53137200  0.61216800  1
  Na  Na19  1  0.46165400  0.46862800  0.11216800  1
  Na  Na20  1  0.49920400  0.11205800  0.95056300  1
  Na  Na21  1  0.50079600  0.88794200  0.45056300  1
  Na  Na22  1  0.50079600  0.61205800  0.95056300  1
  Na  Na23  1  0.49920400  0.38794200  0.45056300  1
  Dy  Dy24  1  0.07205100  0.38883700  0.69577200  1
  Dy  Dy25  1  0.92794900  0.61116300  0.19577200  1
  Dy  Dy26  1  0.92794900  0.88883700  0.69577200  1
  Dy  Dy27  1  0.07205100  0.11116300  0.19577200  1
  Dy  Dy28  1  0.44285100  0.36155500  0.92698800  1
  Dy  Dy29  1  0.55714900  0.63844500  0.42698800  1
  Dy  Dy30  1  0.55714900  0.86155500  0.92698800  1
  Dy  Dy31  1  0.44285100  0.13844500  0.42698800  1
  P  P32  1  0.03093100  0.52459600  0.51877900  1
  P  P33  1  0.96906900  0.47540400  0.01877900  1
  P  P34  1  0.96906900  0.02459600  0.51877900  1
  P  P35  1  0.03093100  0.97540400  0.01877900  1
  P  P36  1  0.00798100  0.77759000  0.84722600  1
  P  P37  1  0.99201900  0.22241000  0.34722600  1
  P  P38  1  0.99201900  0.27759000  0.84722600  1
  P  P39  1  0.00798100  0.72241000  0.34722600  1
  P  P40  1  0.52007400  0.47321800  0.77518400  1
  P  P41  1  0.47992600  0.52678200  0.27518400  1
  P  P42  1  0.47992600  0.97321800  0.77518400  1
  P  P43  1  0.52007400  0.02678200  0.27518400  1
  P  P44  1  0.53826800  0.27358500  0.60393000  1
  P  P45  1  0.46173200  0.72641500  0.10393000  1
  P  P46  1  0.46173200  0.77358500  0.60393000  1
  P  P47  1  0.53826800  0.22641500  0.10393000  1
  O  O48  1  0.42641700  0.19165300  0.64964700  1
  O  O49  1  0.57358300  0.80834700  0.14964700  1
  O  O50  1  0.57358300  0.69165300  0.64964700  1
  O  O51  1  0.42641700  0.30834700  0.14964700  1
  O  O52  1  0.30222700  0.52731300  0.73616000  1
  O  O53  1  0.69777300  0.47268700  0.23616000  1
  O  O54  1  0.69777300  0.02731300  0.73616000  1
  O  O55  1  0.30222700  0.97268700  0.23616000  1
  O  O56  1  0.12153500  0.11871600  0.50594800  1
  O  O57  1  0.87846500  0.88128400  0.00594800  1
  O  O58  1  0.87846500  0.61871600  0.50594800  1
  O  O59  1  0.12153500  0.38128400  0.00594800  1
  O  O60  1  0.20753600  0.22438900  0.88823900  1
  O  O61  1  0.79246400  0.77561100  0.38823900  1
  O  O62  1  0.79246400  0.72438900  0.88823900  1
  O  O63  1  0.20753600  0.27561100  0.38823900  1
  O  O64  1  0.31395800  0.54116100  0.49908900  1
  O  O65  1  0.68604200  0.45883900  0.99908900  1
  O  O66  1  0.68604200  0.04116100  0.49908900  1
  O  O67  1  0.31395800  0.95883900  0.99908900  1
  O  O68  1  0.08050000  0.55706500  0.97275900  1
  O  O69  1  0.91950000  0.44293500  0.47275900  1
  O  O70  1  0.91950000  0.05706500  0.97275900  1
  O  O71  1  0.08050000  0.94293500  0.47275900  1
  O  O72  1  0.22685900  0.99995500  0.73852900  1
  O  O73  1  0.77314100  0.00004500  0.23852900  1
  O  O74  1  0.77314100  0.49995500  0.73852900  1
  O  O75  1  0.22685900  0.50004500  0.23852900  1
  O  O76  1  0.38495200  0.36754100  0.61541700  1
  O  O77  1  0.61504800  0.63245900  0.11541700  1
  O  O78  1  0.61504800  0.86754100  0.61541700  1
  O  O79  1  0.38495200  0.13245900  0.11541700  1
  O  O80  1  0.46437200  0.36504600  0.76936200  1
  O  O81  1  0.53562800  0.63495400  0.26936200  1
  O  O82  1  0.53562800  0.86504600  0.76936200  1
  O  O83  1  0.46437200  0.13495400  0.26936200  1
  O  O84  1  0.04627600  0.38589900  0.85223600  1
  O  O85  1  0.95372400  0.61410100  0.35223600  1
  O  O86  1  0.95372400  0.88589900  0.85223600  1
  O  O87  1  0.04627600  0.11410100  0.35223600  1
  O  O88  1  0.18074300  0.79164100  0.62584800  1
  O  O89  1  0.81925700  0.20835900  0.12584800  1
  O  O90  1  0.81925700  0.29164100  0.62584800  1
  O  O91  1  0.18074300  0.70835900  0.12584800  1
  O  O92  1  0.00800200  0.74640400  0.76670900  1
  O  O93  1  0.99199800  0.25359600  0.26670900  1
  O  O94  1  0.99199800  0.24640400  0.76670900  1
  O  O95  1  0.00800200  0.75359600  0.26670900  1
  O  O96  1  0.47366600  0.00248000  0.85611300  1
  O  O97  1  0.52633400  0.99752000  0.35611300  1
  O  O98  1  0.52633400  0.50248000  0.85611300  1
  O  O99  1  0.47366600  0.49752000  0.35611300  1
  O  O100  1  0.99195100  0.00159000  0.60071600  1
  O  O101  1  0.00804900  0.99841000  0.10071600  1
  O  O102  1  0.00804900  0.50159000  0.60071600  1
  O  O103  1  0.99195100  0.49841000  0.10071600  1
  O  O104  1  0.73683700  0.25089300  0.88225100  1
  O  O105  1  0.26316300  0.74910700  0.38225100  1
  O  O106  1  0.26316300  0.75089300  0.88225100  1
  O  O107  1  0.73683700  0.24910700  0.38225100  1
  O  O108  1  0.53090800  0.25047700  0.52189500  1
  O  O109  1  0.46909200  0.74952300  0.02189500  1
  O  O110  1  0.46909200  0.75047700  0.52189500  1
  O  O111  1  0.53090800  0.24952300  0.02189500  1
