# generated using pymatgen
data_NaFeO2
_symmetry_space_group_name_H-M   'P 1'
_cell_length_a   5.28949744
_cell_length_b   6.11838266
_cell_length_c   5.68545795
_cell_angle_alpha   89.99999523
_cell_angle_beta   71.93427820
_cell_angle_gamma   90.00000702
_symmetry_Int_Tables_number   1
_chemical_formula_structural   NaFeO2
_chemical_formula_sum   'Na4 Fe4 O8'
_cell_volume   174.92852957
_cell_formula_units_Z   4
loop_
 _symmetry_equiv_pos_site_id
 _symmetry_equiv_pos_as_xyz
  1  'x, y, z'
loop_
 _atom_site_type_symbol
 _atom_site_label
 _atom_site_symmetry_multiplicity
 _atom_site_fract_x
 _atom_site_fract_y
 _atom_site_fract_z
 _atom_site_occupancy
  Na  Na0  1  0.50000000  0.49999900  0.50000000  1
  Na  Na1  1  0.00000000  0.75000100  0.50000000  1
  Na  Na2  1  0.50000000  0.99999800  0.50000000  1
  Na  Na3  1  0.00000000  0.25000200  0.50000000  1
  Fe  Fe4  1  0.00000100  0.50011100  0.00000000  1
  Fe  Fe5  1  0.49999900  0.74988900  0.00000100  1
  Fe  Fe6  1  0.99999900  0.00010100  0.00000000  1
  Fe  Fe7  1  0.50000000  0.24989800  0.00000000  1
  O  O8  1  0.76636100  0.25011100  0.20089000  1
  O  O9  1  0.26635700  0.49989400  0.20089000  1
  O  O10  1  0.76635700  0.75010600  0.20089000  1
  O  O11  1  0.26636100  0.99988900  0.20089000  1
  O  O12  1  0.23364300  0.75010600  0.79911000  1
  O  O13  1  0.73363900  0.99988900  0.79911000  1
  O  O14  1  0.23363900  0.25011100  0.79911000  1
  O  O15  1  0.73364300  0.49989400  0.79911000  1
