# generated using pymatgen
data_Sb3RhPb4O13
_symmetry_space_group_name_H-M   'P 1'
_cell_length_a   7.48363729
_cell_length_b   7.48363729
_cell_length_c   7.48363715
_cell_angle_alpha   60.83228823
_cell_angle_beta   60.83228823
_cell_angle_gamma   60.83229292
_symmetry_Int_Tables_number   1
_chemical_formula_structural   Sb3RhPb4O13
_chemical_formula_sum   'Sb3 Rh1 Pb4 O13'
_cell_volume   301.92470193
_cell_formula_units_Z   1
loop_
 _symmetry_equiv_pos_site_id
 _symmetry_equiv_pos_as_xyz
  1  'x, y, z'
loop_
 _atom_site_type_symbol
 _atom_site_label
 _atom_site_symmetry_multiplicity
 _atom_site_fract_x
 _atom_site_fract_y
 _atom_site_fract_z
 _atom_site_occupancy
  Sb  Sb0  1  0.00059600  0.49964700  0.49964700  1
  Sb  Sb1  1  0.49964700  0.49964700  0.00059600  1
  Sb  Sb2  1  0.49964700  0.00059600  0.49964700  1
  Rh  Rh3  1  0.49950000  0.49950000  0.49950000  1
  Pb  Pb4  1  0.99860300  0.99860300  0.99860300  1
  Pb  Pb5  1  0.50502200  0.99868900  0.99868900  1
  Pb  Pb6  1  0.99868900  0.99868900  0.50502200  1
  Pb  Pb7  1  0.99868900  0.50502200  0.99868900  1
  O  O8  1  0.83185400  0.42260000  0.42260000  1
  O  O9  1  0.42661100  0.82216900  0.82216900  1
  O  O10  1  0.42260000  0.42260000  0.83185400  1
  O  O11  1  0.82216900  0.82216900  0.42661100  1
  O  O12  1  0.82216900  0.42661100  0.82216900  1
  O  O13  1  0.42260000  0.83185400  0.42260000  1
  O  O14  1  0.17162600  0.57460800  0.57460800  1
  O  O15  1  0.57167900  0.17986100  0.17986100  1
  O  O16  1  0.57460800  0.57460800  0.17162600  1
  O  O17  1  0.17986100  0.17986100  0.57167900  1
  O  O18  1  0.17986100  0.57167900  0.17986100  1
  O  O19  1  0.57460800  0.17162600  0.57460800  1
  O  O20  1  0.12436100  0.12436100  0.12436100  1
