# generated using pymatgen
data_SrAlF5
_symmetry_space_group_name_H-M   'P 1'
_cell_length_a   14.54130617
_cell_length_b   16.03041451
_cell_length_c   16.03041451
_cell_angle_alpha   78.12888300
_cell_angle_beta   63.02808962
_cell_angle_gamma   63.02808962
_symmetry_Int_Tables_number   1
_chemical_formula_structural   SrAlF5
_chemical_formula_sum   'Sr32 Al32 F160'
_cell_volume   2968.05218160
_cell_formula_units_Z   32
loop_
 _symmetry_equiv_pos_site_id
 _symmetry_equiv_pos_as_xyz
  1  'x, y, z'
loop_
 _atom_site_type_symbol
 _atom_site_label
 _atom_site_symmetry_multiplicity
 _atom_site_fract_x
 _atom_site_fract_y
 _atom_site_fract_z
 _atom_site_occupancy
  Sr  Sr0  1  0.04819017  0.19413086  0.46783289  1
  Sr  Sr1  1  0.21015392  0.30586914  0.03216711  1
  Sr  Sr2  1  0.01602307  0.53216711  0.69413086  1
  Sr  Sr3  1  0.74232103  0.96783289  0.80586914  1
  Sr  Sr4  1  0.95180983  0.80586914  0.53216711  1
  Sr  Sr5  1  0.78984608  0.69413086  0.96783289  1
  Sr  Sr6  1  0.98397693  0.46783289  0.30586914  1
  Sr  Sr7  1  0.25767897  0.03216711  0.19413086  1
  Sr  Sr8  1  0.53910687  0.19709862  0.46696576  1
  Sr  Sr9  1  0.70317124  0.30290138  0.03303424  1
  Sr  Sr10  1  0.50607263  0.53303424  0.69709862  1
  Sr  Sr11  1  0.23620548  0.96696576  0.80290138  1
  Sr  Sr12  1  0.46089313  0.80290138  0.53303424  1
  Sr  Sr13  1  0.29682876  0.69709862  0.96696576  1
  Sr  Sr14  1  0.49392737  0.46696576  0.30290138  1
  Sr  Sr15  1  0.76379452  0.03303424  0.19709862  1
  Sr  Sr16  1  0.71455065  0.31835411  0.50484900  1
  Sr  Sr17  1  0.03775376  0.18164589  0.99515100  1
  Sr  Sr18  1  0.71939965  0.49515100  0.81835411  1
  Sr  Sr19  1  0.53290476  0.00484900  0.68164589  1
  Sr  Sr20  1  0.28544935  0.68164589  0.49515100  1
  Sr  Sr21  1  0.96224624  0.81835411  0.00484900  1
  Sr  Sr22  1  0.28060035  0.50484900  0.18164589  1
  Sr  Sr23  1  0.46709524  0.99515100  0.31835411  1
  Sr  Sr24  1  0.21515952  0.49995596  0.81885286  1
  Sr  Sr25  1  0.03396834  0.00004404  0.68114714  1
  Sr  Sr26  1  0.53401238  0.18114714  0.99995596  1
  Sr  Sr27  1  0.21511548  0.31885286  0.50004404  1
  Sr  Sr28  1  0.78484048  0.50004404  0.18114714  1
  Sr  Sr29  1  0.96603166  0.99995596  0.31885286  1
  Sr  Sr30  1  0.46598762  0.81885286  0.00004404  1
  Sr  Sr31  1  0.78488452  0.68114714  0.49995596  1
  Al  Al32  1  0.79776991  0.08512827  0.56857557  1
  Al  Al33  1  0.95147375  0.41487173  0.93142443  1
  Al  Al34  1  0.86634548  0.43142443  0.58512827  1
  Al  Al35  1  0.38289818  0.06857557  0.91487173  1
  Al  Al36  1  0.20223009  0.91487173  0.43142443  1
  Al  Al37  1  0.04852625  0.58512827  0.06857557  1
  Al  Al38  1  0.13365452  0.56857557  0.41487173  1
  Al  Al39  1  0.61710182  0.93142443  0.08512827  1
  Al  Al40  1  0.37351105  0.25289276  0.74994401  1
  Al  Al41  1  0.87634782  0.24710724  0.75005599  1
  Al  Al42  1  0.62345506  0.25005599  0.75289276  1
  Al  Al43  1  0.12640381  0.24994401  0.74710724  1
  Al  Al44  1  0.62648895  0.74710724  0.25005599  1
  Al  Al45  1  0.12365218  0.75289276  0.24994401  1
  Al  Al46  1  0.37654494  0.74994401  0.24710724  1
  Al  Al47  1  0.87359619  0.75005599  0.25289276  1
  Al  Al48  1  0.36951442  0.43280356  0.58029070  1
  Al  Al49  1  0.88260868  0.06719644  0.91970930  1
  Al  Al50  1  0.44980512  0.41970930  0.93280356  1
  Al  Al51  1  0.30231798  0.08029070  0.56719644  1
  Al  Al52  1  0.63048558  0.56719644  0.41970930  1
  Al  Al53  1  0.11739132  0.93280356  0.08029070  1
  Al  Al54  1  0.55019488  0.58029070  0.06719644  1
  Al  Al55  1  0.69768202  0.91970930  0.43280356  1
  Al  Al56  1  0.77069503  0.25000000  0.25000000  1
  Al  Al57  1  0.52069503  0.75000000  0.75000000  1
  Al  Al58  1  0.22930497  0.75000000  0.75000000  1
  Al  Al59  1  0.47930497  0.25000000  0.25000000  1
  Al  Al60  1  0.98097965  0.25000000  0.25000000  1
  Al  Al61  1  0.73097965  0.75000000  0.75000000  1
  Al  Al62  1  0.01902035  0.75000000  0.75000000  1
  Al  Al63  1  0.26902035  0.25000000  0.25000000  1
  F  F64  1  0.11139835  0.01561520  0.50670462  1
  F  F65  1  0.13371817  0.48438480  0.99329538  1
  F  F66  1  0.11810297  0.49329538  0.51561520  1
  F  F67  1  0.62701355  0.00670462  0.98438480  1
  F  F68  1  0.88860165  0.98438480  0.49329538  1
  F  F69  1  0.86628183  0.51561520  0.00670462  1
  F  F70  1  0.88189703  0.50670462  0.48438480  1
  F  F71  1  0.37298645  0.99329538  0.01561520  1
  F  F72  1  0.61201526  0.02199332  0.50611433  1
  F  F73  1  0.64012290  0.47800668  0.99388567  1
  F  F74  1  0.61812959  0.49388567  0.52199332  1
  F  F75  1  0.13400857  0.00611433  0.97800668  1
  F  F76  1  0.38798474  0.97800668  0.49388567  1
  F  F77  1  0.35987710  0.52199332  0.00611433  1
  F  F78  1  0.38187041  0.50611433  0.47800668  1
  F  F79  1  0.86599143  0.99388567  0.02199332  1
  F  F80  1  0.73506946  0.36538481  0.20232475  1
  F  F81  1  0.80277902  0.13461519  0.29767525  1
  F  F82  1  0.43739421  0.79767525  0.86538481  1
  F  F83  1  0.60045427  0.70232475  0.63461519  1
  F  F84  1  0.26493054  0.63461519  0.79767525  1
  F  F85  1  0.19722098  0.86538481  0.70232475  1
  F  F86  1  0.56260579  0.20232475  0.13461519  1
  F  F87  1  0.39954573  0.29767525  0.36538481  1
  F  F88  1  0.82157579  0.28135202  0.32698323  1
  F  F89  1  0.92991105  0.21864798  0.17301677  1
  F  F90  1  0.64855903  0.67301677  0.78135202  1
  F  F91  1  0.60292781  0.82698323  0.71864798  1
  F  F92  1  0.17842421  0.71864798  0.67301677  1
  F  F93  1  0.07008895  0.78135202  0.82698323  1
  F  F94  1  0.35144097  0.32698323  0.21864798  1
  F  F95  1  0.39707219  0.17301677  0.28135202  1
  F  F96  1  0.98835248  0.29256872  0.34196557  1
  F  F97  1  0.12288676  0.20743128  0.15803443  1
  F  F98  1  0.83031805  0.65803443  0.79256872  1
  F  F99  1  0.78092120  0.84196557  0.70743128  1
  F  F100  1  0.01164752  0.70743128  0.65803443  1
  F  F101  1  0.87711324  0.79256872  0.84196557  1
  F  F102  1  0.16968195  0.34196557  0.20743128  1
  F  F103  1  0.21907880  0.15803443  0.29256872  1
  F  F104  1  0.62887107  0.29170103  0.34108577  1
  F  F105  1  0.76165786  0.20829897  0.15891423  1
  F  F106  1  0.46995683  0.65891423  0.79170103  1
  F  F107  1  0.42057210  0.84108577  0.70829897  1
  F  F108  1  0.37112893  0.70829897  0.65891423  1
  F  F109  1  0.23834214  0.79170103  0.84108577  1
  F  F110  1  0.53004317  0.34108577  0.20829897  1
  F  F111  1  0.57942790  0.15891423  0.29170103  1
  F  F112  1  0.71515199  0.14894574  0.49822045  1
  F  F113  1  0.86231818  0.35105426  0.00177955  1
  F  F114  1  0.71337244  0.50177955  0.64894574  1
  F  F115  1  0.36409773  0.99822045  0.85105426  1
  F  F116  1  0.28484801  0.85105426  0.50177955  1
  F  F117  1  0.13768182  0.64894574  0.99822045  1
  F  F118  1  0.28662756  0.49822045  0.35105426  1
  F  F119  1  0.63590227  0.00177955  0.14894574  1
  F  F120  1  0.88658060  0.15016061  0.50047059  1
  F  F121  1  0.03721180  0.34983939  0.99952941  1
  F  F122  1  0.88705119  0.49952941  0.65016061  1
  F  F123  1  0.53674122  0.00047059  0.84983939  1
  F  F124  1  0.11341940  0.84983939  0.49952941  1
  F  F125  1  0.96278820  0.65016061  0.00047059  1
  F  F126  1  0.11294881  0.50047059  0.34983939  1
  F  F127  1  0.46325878  0.99952941  0.15016061  1
  F  F128  1  0.96285517  0.18117533  0.64111229  1
  F  F129  1  0.28514278  0.31882467  0.85888771  1
  F  F130  1  0.10396745  0.35888771  0.68117533  1
  F  F131  1  0.64403050  0.14111229  0.81882467  1
  F  F132  1  0.03714483  0.81882467  0.35888771  1
  F  F133  1  0.71485722  0.68117533  0.14111229  1
  F  F134  1  0.89603255  0.64111229  0.31882467  1
  F  F135  1  0.35596950  0.85888771  0.18117533  1
  F  F136  1  0.46315950  0.18605013  0.64145002  1
  F  F137  1  0.79065965  0.31394987  0.85854998  1
  F  F138  1  0.60460953  0.35854998  0.68605013  1
  F  F139  1  0.14920963  0.14145002  0.81394987  1
  F  F140  1  0.53684050  0.81394987  0.35854998  1
  F  F141  1  0.20934035  0.68605013  0.14145002  1
  F  F142  1  0.39539047  0.64145002  0.31394987  1
  F  F143  1  0.85079037  0.85854998  0.18605013  1
  F  F144  1  0.70451284  0.19384770  0.64053976  1
  F  F145  1  0.03890030  0.30615230  0.85946024  1
  F  F146  1  0.84505260  0.35946024  0.69384770  1
  F  F147  1  0.39836054  0.14053976  0.80615230  1
  F  F148  1  0.29548716  0.80615230  0.35946024  1
  F  F149  1  0.96109970  0.69384770  0.14053976  1
  F  F150  1  0.15494740  0.64053976  0.30615230  1
  F  F151  1  0.60163946  0.85946024  0.19384770  1
  F  F152  1  0.52000915  0.35277867  0.53136462  1
  F  F153  1  0.90415245  0.14722133  0.96863538  1
  F  F154  1  0.55137378  0.46863538  0.85277867  1
  F  F155  1  0.37278782  0.03136462  0.64722133  1
  F  F156  1  0.47999085  0.64722133  0.46863538  1
  F  F157  1  0.09584755  0.85277867  0.03136462  1
  F  F158  1  0.44862622  0.53136462  0.14722133  1
  F  F159  1  0.62721218  0.96863538  0.35277867  1
  F  F160  1  0.34731826  0.35041218  0.53630026  1
  F  F161  1  0.73403070  0.14958782  0.96369974  1
  F  F162  1  0.38361852  0.46369974  0.85041218  1
  F  F163  1  0.19773044  0.03630026  0.64958782  1
  F  F164  1  0.65268174  0.64958782  0.46369974  1
  F  F165  1  0.26596930  0.85041218  0.03630026  1
  F  F166  1  0.61638148  0.53630026  0.14958782  1
  F  F167  1  0.80226956  0.96369974  0.35041218  1
  F  F168  1  0.84438815  0.35353787  0.53375560  1
  F  F169  1  0.23168162  0.14646213  0.96624440  1
  F  F170  1  0.87814375  0.46624440  0.85353787  1
  F  F171  1  0.69792602  0.03375560  0.64646213  1
  F  F172  1  0.15561185  0.64646213  0.46624440  1
  F  F173  1  0.76831838  0.85353787  0.03375560  1
  F  F174  1  0.12185625  0.53375560  0.14646213  1
  F  F175  1  0.30207398  0.96624440  0.35353787  1
  F  F176  1  0.24920205  0.25424903  0.74793804  1
  F  F177  1  0.75138912  0.24575097  0.75206196  1
  F  F178  1  0.49714009  0.25206196  0.75424903  1
  F  F179  1  0.00345108  0.24793804  0.74575097  1
  F  F180  1  0.75079795  0.74575097  0.25206196  1
  F  F181  1  0.24861088  0.75424903  0.24793804  1
  F  F182  1  0.50285991  0.74793804  0.24575097  1
  F  F183  1  0.99654892  0.75206196  0.25424903  1
  F  F184  1  0.34968578  0.36501421  0.69267762  1
  F  F185  1  0.90737762  0.13498579  0.80732238  1
  F  F186  1  0.54236340  0.30732238  0.86501421  1
  F  F187  1  0.21469999  0.19267762  0.63498579  1
  F  F188  1  0.65031422  0.63498579  0.30732238  1
  F  F189  1  0.09262238  0.86501421  0.19267762  1
  F  F190  1  0.45763660  0.69267762  0.13498579  1
  F  F191  1  0.78530001  0.80732238  0.36501421  1
  F  F192  1  0.21666526  0.50389250  0.64116966  1
  F  F193  1  0.86172742  0.99610750  0.85883034  1
  F  F194  1  0.35783492  0.35883034  0.00389250  1
  F  F195  1  0.22055775  0.14116966  0.49610750  1
  F  F196  1  0.78333474  0.49610750  0.35883034  1
  F  F197  1  0.13827258  0.00389250  0.14116966  1
  F  F198  1  0.64216508  0.64116966  0.99610750  1
  F  F199  1  0.77944225  0.85883034  0.50389250  1
  F  F200  1  0.38896703  0.50599071  0.63915923  1
  F  F201  1  0.03411698  0.99400929  0.86084077  1
  F  F202  1  0.52812626  0.36084077  0.00599071  1
  F  F203  1  0.39495774  0.13915923  0.49400929  1
  F  F204  1  0.61103297  0.49400929  0.36084077  1
  F  F205  1  0.96588302  0.00599071  0.13915923  1
  F  F206  1  0.47187374  0.63915923  0.99400929  1
  F  F207  1  0.60504226  0.86084077  0.50599071  1
  F  F208  1  0.13488721  0.96239452  0.34973473  1
  F  F209  1  0.94701646  0.53760548  0.15026527  1
  F  F210  1  0.98462194  0.65026527  0.46239452  1
  F  F211  1  0.59728173  0.84973473  0.03760548  1
  F  F212  1  0.86511279  0.03760548  0.65026527  1
  F  F213  1  0.05298354  0.46239452  0.84973473  1
  F  F214  1  0.01537806  0.34973473  0.53760548  1
  F  F215  1  0.40271827  0.15026527  0.96239452  1
  F  F216  1  0.05076705  0.63492354  0.79828072  1
  F  F217  1  0.98397131  0.86507646  0.70171928  1
  F  F218  1  0.34904776  0.20171928  0.13492354  1
  F  F219  1  0.18569059  0.29828072  0.36507646  1
  F  F220  1  0.94923295  0.36507646  0.20171928  1
  F  F221  1  0.01602869  0.13492354  0.29828072  1
  F  F222  1  0.65095224  0.79828072  0.86507646  1
  F  F223  1  0.81430941  0.70171928  0.63492354  1
