# generated using pymatgen
data_Ca2SiS4
_symmetry_space_group_name_H-M   'P 1'
_cell_length_a   6.24699800
_cell_length_b   8.18057400
_cell_length_c   13.78750100
_cell_angle_alpha   90.00000000
_cell_angle_beta   90.00000000
_cell_angle_gamma   90.00000000
_symmetry_Int_Tables_number   1
_chemical_formula_structural   Ca2SiS4
_chemical_formula_sum   'Ca8 Si4 S16'
_cell_volume   704.59685669
_cell_formula_units_Z   4
loop_
 _symmetry_equiv_pos_site_id
 _symmetry_equiv_pos_as_xyz
  1  'x, y, z'
loop_
 _atom_site_type_symbol
 _atom_site_label
 _atom_site_symmetry_multiplicity
 _atom_site_fract_x
 _atom_site_fract_y
 _atom_site_fract_z
 _atom_site_occupancy
  Ca  Ca0  1  0.50000000  0.00000000  0.50000000  1
  Ca  Ca1  1  0.00000000  0.50000000  0.00000000  1
  Ca  Ca2  1  0.50000000  0.50000000  0.50000000  1
  Ca  Ca3  1  0.00000000  0.00000000  0.00000000  1
  Ca  Ca4  1  0.00611200  0.75000000  0.27256600  1
  Ca  Ca5  1  0.49388800  0.75000000  0.77256600  1
  Ca  Ca6  1  0.99388800  0.25000000  0.72743400  1
  Ca  Ca7  1  0.50611200  0.25000000  0.22743400  1
  Si  Si8  1  0.59099800  0.75000000  0.09371400  1
  Si  Si9  1  0.90900200  0.75000000  0.59371400  1
  Si  Si10  1  0.40900200  0.25000000  0.90628600  1
  Si  Si11  1  0.09099800  0.25000000  0.40628600  1
  S  S12  1  0.72957100  0.95837700  0.16543800  1
  S  S13  1  0.77042900  0.54162300  0.66543800  1
  S  S14  1  0.27042900  0.45837700  0.83456200  1
  S  S15  1  0.22957100  0.04162300  0.33456200  1
  S  S16  1  0.27042900  0.04162300  0.83456200  1
  S  S17  1  0.22957100  0.45837700  0.33456200  1
  S  S18  1  0.72957100  0.54162300  0.16543800  1
  S  S19  1  0.77042900  0.95837700  0.66543800  1
  S  S20  1  0.25174700  0.75000000  0.09525800  1
  S  S21  1  0.24825300  0.75000000  0.59525800  1
  S  S22  1  0.74825300  0.25000000  0.90474200  1
  S  S23  1  0.75174700  0.25000000  0.40474200  1
  S  S24  1  0.71974200  0.75000000  0.94863400  1
  S  S25  1  0.78025800  0.75000000  0.44863400  1
  S  S26  1  0.28025800  0.25000000  0.05136600  1
  S  S27  1  0.21974200  0.25000000  0.55136600  1
