# generated using pymatgen
data_NdH11S3O16
_symmetry_space_group_name_H-M   'P 1'
_cell_length_a   7.16468000
_cell_length_b   11.69124600
_cell_length_c   18.72725856
_cell_angle_alpha   58.11879645
_cell_angle_beta   90.00000000
_cell_angle_gamma   90.00000000
_symmetry_Int_Tables_number   1
_chemical_formula_structural   NdH11S3O16
_chemical_formula_sum   'Nd4 H44 S12 O64'
_cell_volume   1332.02894141
_cell_formula_units_Z   4
loop_
 _symmetry_equiv_pos_site_id
 _symmetry_equiv_pos_as_xyz
  1  'x, y, z'
loop_
 _atom_site_type_symbol
 _atom_site_label
 _atom_site_symmetry_multiplicity
 _atom_site_fract_x
 _atom_site_fract_y
 _atom_site_fract_z
 _atom_site_occupancy
  Nd  Nd0  1  0.55713900  0.39802800  0.67943400  1
  Nd  Nd1  1  0.94286100  0.39802800  0.17943400  1
  Nd  Nd2  1  0.44286100  0.60197200  0.32056600  1
  Nd  Nd3  1  0.05713900  0.60197200  0.82056600  1
  H  H4  1  0.33672500  0.88247400  0.58310800  1
  H  H5  1  0.16327500  0.88247400  0.08310800  1
  H  H6  1  0.66327500  0.11752600  0.41689200  1
  H  H7  1  0.83672500  0.11752600  0.91689200  1
  H  H8  1  0.48978500  0.75178400  0.62663200  1
  H  H9  1  0.01021500  0.75178400  0.12663200  1
  H  H10  1  0.51021500  0.24821600  0.37336800  1
  H  H11  1  0.98978500  0.24821600  0.87336800  1
  H  H12  1  0.43858700  0.83218000  0.52353500  1
  H  H13  1  0.06141300  0.83218000  0.02353500  1
  H  H14  1  0.56141300  0.16782000  0.47646500  1
  H  H15  1  0.93858700  0.16782000  0.97646500  1
  H  H16  1  0.94023800  0.34529100  0.55058300  1
  H  H17  1  0.55976200  0.34529100  0.05058300  1
  H  H18  1  0.05976200  0.65470900  0.44941700  1
  H  H19  1  0.44023800  0.65470900  0.94941700  1
  H  H20  1  0.17230200  0.32997700  0.56831600  1
  H  H21  1  0.32769800  0.32997700  0.06831600  1
  H  H22  1  0.82769800  0.67002300  0.43168400  1
  H  H23  1  0.67230200  0.67002300  0.93168400  1
  H  H24  1  0.08815400  0.28547300  0.50081700  1
  H  H25  1  0.41184600  0.28547300  0.00081700  1
  H  H26  1  0.91184600  0.71452700  0.49918300  1
  H  H27  1  0.58815400  0.71452700  0.99918300  1
  H  H28  1  0.73787100  0.89272900  0.70325300  1
  H  H29  1  0.76212900  0.89272900  0.20325300  1
  H  H30  1  0.26212900  0.10727100  0.29674700  1
  H  H31  1  0.23787100  0.10727100  0.79674700  1
  H  H32  1  0.58517300  0.94471300  0.75329700  1
  H  H33  1  0.91482700  0.94471300  0.25329700  1
  H  H34  1  0.41482700  0.05528700  0.24670300  1
  H  H35  1  0.08517300  0.05528700  0.74670300  1
  H  H36  1  0.60037800  0.02913400  0.64858500  1
  H  H37  1  0.89962200  0.02913400  0.14858500  1
  H  H38  1  0.39962200  0.97086600  0.35141500  1
  H  H39  1  0.10037800  0.97086600  0.85141500  1
  H  H40  1  0.38318600  0.11371000  0.00567100  1
  H  H41  1  0.11681400  0.11371000  0.50567100  1
  H  H42  1  0.61681400  0.88629000  0.99432900  1
  H  H43  1  0.88318600  0.88629000  0.49432900  1
  H  H44  1  0.43282200  0.24548700  0.91372100  1
  H  H45  1  0.06717800  0.24548700  0.41372100  1
  H  H46  1  0.56717800  0.75451300  0.08627900  1
  H  H47  1  0.93282200  0.75451300  0.58627900  1
  S  S48  1  0.55679800  0.52794400  0.79130600  1
  S  S49  1  0.94320200  0.52794400  0.29130600  1
  S  S50  1  0.44320200  0.47205600  0.20869400  1
  S  S51  1  0.05679800  0.47205600  0.70869400  1
  S  S52  1  0.55013200  0.30520200  0.54640400  1
  S  S53  1  0.94986800  0.30520200  0.04640400  1
  S  S54  1  0.44986800  0.69479800  0.45359600  1
  S  S55  1  0.05013200  0.69479800  0.95359600  1
  S  S56  1  0.58616400  0.08827000  0.82651800  1
  S  S57  1  0.91383600  0.08827000  0.32651800  1
  S  S58  1  0.41383600  0.91173000  0.17348200  1
  S  S59  1  0.08616400  0.91173000  0.67348200  1
  O  O60  1  0.21936200  0.42519100  0.68281700  1
  O  O61  1  0.28063800  0.42519100  0.18281700  1
  O  O62  1  0.78063800  0.57480900  0.31718300  1
  O  O63  1  0.71936200  0.57480900  0.81718300  1
  O  O64  1  0.50553600  0.60134800  0.54147200  1
  O  O65  1  0.99446400  0.60134800  0.04147200  1
  O  O66  1  0.49446400  0.39865200  0.45852800  1
  O  O67  1  0.00553600  0.39865200  0.95852800  1
  O  O68  1  0.54392500  0.60186100  0.69638300  1
  O  O69  1  0.95607500  0.60186100  0.19638300  1
  O  O70  1  0.45607500  0.39813900  0.30361700  1
  O  O71  1  0.04392500  0.39813900  0.80361700  1
  O  O72  1  0.57863800  0.38295300  0.81761700  1
  O  O73  1  0.92136200  0.38295300  0.31761700  1
  O  O74  1  0.42136200  0.61704700  0.18238300  1
  O  O75  1  0.07863800  0.61704700  0.68238300  1
  O  O76  1  0.72409400  0.17944500  0.76248400  1
  O  O77  1  0.77590600  0.17944500  0.26248400  1
  O  O78  1  0.27590600  0.82055500  0.23751600  1
  O  O79  1  0.22409400  0.82055500  0.73751600  1
  O  O80  1  0.39943500  0.29179000  0.60611800  1
  O  O81  1  0.10056500  0.29179000  0.10611800  1
  O  O82  1  0.60056500  0.70821000  0.39388200  1
  O  O83  1  0.89943500  0.70821000  0.89388200  1
  O  O84  1  0.58989200  0.17098800  0.55711000  1
  O  O85  1  0.91010800  0.17098800  0.05711000  1
  O  O86  1  0.41010800  0.82901200  0.44289000  1
  O  O87  1  0.08989200  0.82901200  0.94289000  1
  O  O88  1  0.45687000  0.84329400  0.57429100  1
  O  O89  1  0.04313000  0.84329400  0.07429100  1
  O  O90  1  0.54313000  0.15670600  0.42570900  1
  O  O91  1  0.95687000  0.15670600  0.92570900  1
  O  O92  1  0.06843000  0.35082900  0.52743800  1
  O  O93  1  0.43157000  0.35082900  0.02743800  1
  O  O94  1  0.93157000  0.64917100  0.47256200  1
  O  O95  1  0.56843000  0.64917100  0.97256200  1
  O  O96  1  0.40687300  0.17028900  0.80282000  1
  O  O97  1  0.09312700  0.17028900  0.30282000  1
  O  O98  1  0.59312700  0.82971100  0.19718000  1
  O  O99  1  0.90687300  0.82971100  0.69718000  1
  O  O100  1  0.71661200  0.35418100  0.57075100  1
  O  O101  1  0.78338800  0.35418100  0.07075100  1
  O  O102  1  0.28338800  0.64581900  0.42924900  1
  O  O103  1  0.21661200  0.64581900  0.92924900  1
  O  O104  1  0.38566600  0.54619900  0.82760400  1
  O  O105  1  0.11433400  0.54619900  0.32760400  1
  O  O106  1  0.61433400  0.45380100  0.17239600  1
  O  O107  1  0.88566600  0.45380100  0.67239600  1
  O  O108  1  0.60879500  0.93696600  0.70174900  1
  O  O109  1  0.89120500  0.93696600  0.20174900  1
  O  O110  1  0.39120500  0.06303400  0.29825100  1
  O  O111  1  0.10879500  0.06303400  0.79825100  1
  O  O112  1  0.64728400  0.05487900  0.91208500  1
  O  O113  1  0.85271600  0.05487900  0.41208500  1
  O  O114  1  0.35271600  0.94512100  0.08791500  1
  O  O115  1  0.14728400  0.94512100  0.58791500  1
  O  O116  1  0.55356500  0.96266300  0.82791300  1
  O  O117  1  0.94643500  0.96266300  0.32791300  1
  O  O118  1  0.44643500  0.03733700  0.17208700  1
  O  O119  1  0.05356500  0.03733700  0.67208700  1
  O  O120  1  0.37030300  0.21296200  0.96785300  1
  O  O121  1  0.12969700  0.21296200  0.46785300  1
  O  O122  1  0.62969700  0.78703800  0.03214700  1
  O  O123  1  0.87030300  0.78703800  0.53214700  1
