# generated using pymatgen
data_Na3AlP8O23
_symmetry_space_group_name_H-M   'P 1'
_cell_length_a   12.09100700
_cell_length_b   12.09100700
_cell_length_c   12.09100700
_cell_angle_alpha   90.00000000
_cell_angle_beta   90.00000000
_cell_angle_gamma   90.00000000
_symmetry_Int_Tables_number   1
_chemical_formula_structural   Na3AlP8O23
_chemical_formula_sum   'Na12 Al4 P32 O92'
_cell_volume   1767.61393961
_cell_formula_units_Z   4
loop_
 _symmetry_equiv_pos_site_id
 _symmetry_equiv_pos_as_xyz
  1  'x, y, z'
loop_
 _atom_site_type_symbol
 _atom_site_label
 _atom_site_symmetry_multiplicity
 _atom_site_fract_x
 _atom_site_fract_y
 _atom_site_fract_z
 _atom_site_occupancy
  Na  Na0  1  0.37500000  0.95607600  0.79392400  1
  Na  Na1  1  0.29392400  0.12500000  0.04392400  1
  Na  Na2  1  0.45607600  0.70607600  0.62500000  1
  Na  Na3  1  0.54392400  0.20607600  0.87500000  1
  Na  Na4  1  0.87500000  0.54392400  0.20607600  1
  Na  Na5  1  0.12500000  0.04392400  0.29392400  1
  Na  Na6  1  0.62500000  0.45607600  0.70607600  1
  Na  Na7  1  0.95607600  0.79392400  0.37500000  1
  Na  Na8  1  0.04392400  0.29392400  0.12500000  1
  Na  Na9  1  0.70607600  0.62500000  0.45607600  1
  Na  Na10  1  0.79392400  0.37500000  0.95607600  1
  Na  Na11  1  0.20607600  0.87500000  0.54392400  1
  Al  Al12  1  0.12500000  0.62500000  0.87500000  1
  Al  Al13  1  0.37500000  0.37500000  0.37500000  1
  Al  Al14  1  0.87500000  0.12500000  0.62500000  1
  Al  Al15  1  0.62500000  0.87500000  0.12500000  1
  P  P16  1  0.63537400  0.35449200  0.43084400  1
  P  P17  1  0.64550800  0.93084400  0.86462600  1
  P  P18  1  0.43084400  0.63537400  0.35449200  1
  P  P19  1  0.93084400  0.86462600  0.64550800  1
  P  P20  1  0.85449200  0.06915600  0.36462600  1
  P  P21  1  0.06915600  0.36462600  0.85449200  1
  P  P22  1  0.35449200  0.43084400  0.63537400  1
  P  P23  1  0.14550800  0.56915600  0.13537400  1
  P  P24  1  0.56915600  0.13537400  0.14550800  1
  P  P25  1  0.39550800  0.11462600  0.31915600  1
  P  P26  1  0.10449200  0.88537400  0.81915600  1
  P  P27  1  0.68084400  0.89550800  0.38537400  1
  P  P28  1  0.31915600  0.39550800  0.11462600  1
  P  P29  1  0.88537400  0.81915600  0.10449200  1
  P  P30  1  0.38537400  0.68084400  0.89550800  1
  P  P31  1  0.13537400  0.14550800  0.56915600  1
  P  P32  1  0.86462600  0.64550800  0.93084400  1
  P  P33  1  0.36462600  0.85449200  0.06915600  1
  P  P34  1  0.89550800  0.38537400  0.68084400  1
  P  P35  1  0.60449200  0.61462600  0.18084400  1
  P  P36  1  0.81915600  0.10449200  0.88537400  1
  P  P37  1  0.18084400  0.60449200  0.61462600  1
  P  P38  1  0.11462600  0.31915600  0.39550800  1
  P  P39  1  0.61462600  0.18084400  0.60449200  1
  P  P40  1  0.01774900  0.01774900  0.01774900  1
  P  P41  1  0.26774900  0.23225100  0.76774900  1
  P  P42  1  0.76774900  0.26774900  0.23225100  1
  P  P43  1  0.23225100  0.76774900  0.26774900  1
  P  P44  1  0.48225100  0.98225100  0.51774900  1
  P  P45  1  0.51774900  0.48225100  0.98225100  1
  P  P46  1  0.98225100  0.51774900  0.48225100  1
  P  P47  1  0.73225100  0.73225100  0.73225100  1
  O  O48  1  0.66146700  0.66146700  0.66146700  1
  O  O49  1  0.91146700  0.58853300  0.41146700  1
  O  O50  1  0.58853300  0.41146700  0.91146700  1
  O  O51  1  0.41146700  0.91146700  0.58853300  1
  O  O52  1  0.16146700  0.83853300  0.33853300  1
  O  O53  1  0.83853300  0.33853300  0.16146700  1
  O  O54  1  0.33853300  0.16146700  0.83853300  1
  O  O55  1  0.08853300  0.08853300  0.08853300  1
  O  O56  1  0.43738800  0.51107800  0.67748800  1
  O  O57  1  0.93738800  0.98892200  0.32251200  1
  O  O58  1  0.51107800  0.67748800  0.43738800  1
  O  O59  1  0.48892200  0.17748800  0.06261200  1
  O  O60  1  0.67748800  0.43738800  0.51107800  1
  O  O61  1  0.82251200  0.56261200  0.01107800  1
  O  O62  1  0.18738800  0.92748800  0.73892200  1
  O  O63  1  0.68738800  0.57251200  0.26107800  1
  O  O64  1  0.81261200  0.42748800  0.76107800  1
  O  O65  1  0.57251200  0.26107800  0.68738800  1
  O  O66  1  0.76107800  0.81261200  0.42748800  1
  O  O67  1  0.26107800  0.68738800  0.57251200  1
  O  O68  1  0.92748800  0.73892200  0.18738800  1
  O  O69  1  0.73892200  0.18738800  0.92748800  1
  O  O70  1  0.42748800  0.76107800  0.81261200  1
  O  O71  1  0.07251200  0.23892200  0.31261200  1
  O  O72  1  0.23892200  0.31261200  0.07251200  1
  O  O73  1  0.32251200  0.93738800  0.98892200  1
  O  O74  1  0.17748800  0.06261200  0.48892200  1
  O  O75  1  0.01107800  0.82251200  0.56261200  1
  O  O76  1  0.98892200  0.32251200  0.93738800  1
  O  O77  1  0.06261200  0.48892200  0.17748800  1
  O  O78  1  0.56261200  0.01107800  0.82251200  1
  O  O79  1  0.31261200  0.07251200  0.23892200  1
  O  O80  1  0.37500000  0.73242000  0.01758000  1
  O  O81  1  0.51758000  0.12500000  0.26758000  1
  O  O82  1  0.73434300  0.32978100  0.34188400  1
  O  O83  1  0.23242000  0.48242000  0.62500000  1
  O  O84  1  0.98242000  0.87500000  0.76758000  1
  O  O85  1  0.01758000  0.37500000  0.73242000  1
  O  O86  1  0.48242000  0.62500000  0.23242000  1
  O  O87  1  0.26758000  0.51758000  0.12500000  1
  O  O88  1  0.73242000  0.01758000  0.37500000  1
  O  O89  1  0.62500000  0.23242000  0.48242000  1
  O  O90  1  0.12500000  0.26758000  0.51758000  1
  O  O91  1  0.87500000  0.76758000  0.98242000  1
  O  O92  1  0.32978100  0.34188400  0.73434300  1
  O  O93  1  0.82978100  0.15811600  0.26565700  1
  O  O94  1  0.34188400  0.73434300  0.32978100  1
  O  O95  1  0.65811600  0.23434300  0.17021900  1
  O  O96  1  0.03185900  0.12246000  0.63345500  1
  O  O97  1  0.28185900  0.61654500  0.87246000  1
  O  O98  1  0.78185900  0.88345500  0.12754000  1
  O  O99  1  0.38345500  0.37246000  0.21814100  1
  O  O100  1  0.61654500  0.87246000  0.28185900  1
  O  O101  1  0.12754000  0.78185900  0.88345500  1
  O  O102  1  0.37246000  0.21814100  0.38345500  1
  O  O103  1  0.63345500  0.03185900  0.12246000  1
  O  O104  1  0.12246000  0.63345500  0.03185900  1
  O  O105  1  0.37754000  0.36654500  0.53185900  1
  O  O106  1  0.13345500  0.46814100  0.87754000  1
  O  O107  1  0.87754000  0.13345500  0.46814100  1
  O  O108  1  0.86654500  0.96814100  0.62246000  1
  O  O109  1  0.36654500  0.53185900  0.37754000  1
  O  O110  1  0.62246000  0.86654500  0.96814100  1
  O  O111  1  0.53185900  0.37754000  0.36654500  1
  O  O112  1  0.96814100  0.62246000  0.86654500  1
  O  O113  1  0.46814100  0.87754000  0.13345500  1
  O  O114  1  0.87246000  0.28185900  0.61654500  1
  O  O115  1  0.62754000  0.71814100  0.11654500  1
  O  O116  1  0.88345500  0.12754000  0.78185900  1
  O  O117  1  0.11654500  0.62754000  0.71814100  1
  O  O118  1  0.21814100  0.38345500  0.37246000  1
  O  O119  1  0.71814100  0.11654500  0.62754000  1
  O  O120  1  0.42021900  0.01565700  0.40811600  1
  O  O121  1  0.67021900  0.84188400  0.76565700  1
  O  O122  1  0.17021900  0.65811600  0.23434300  1
  O  O123  1  0.15811600  0.26565700  0.82978100  1
  O  O124  1  0.84188400  0.76565700  0.67021900  1
  O  O125  1  0.23434300  0.17021900  0.65811600  1
  O  O126  1  0.26565700  0.82978100  0.15811600  1
  O  O127  1  0.40811600  0.42021900  0.01565700  1
  O  O128  1  0.01565700  0.40811600  0.42021900  1
  O  O129  1  0.48434300  0.59188400  0.92021900  1
  O  O130  1  0.90811600  0.07978100  0.98434300  1
  O  O131  1  0.98434300  0.90811600  0.07978100  1
  O  O132  1  0.09188400  0.57978100  0.51565700  1
  O  O133  1  0.59188400  0.92021900  0.48434300  1
  O  O134  1  0.51565700  0.09188400  0.57978100  1
  O  O135  1  0.92021900  0.48434300  0.59188400  1
  O  O136  1  0.57978100  0.51565700  0.09188400  1
  O  O137  1  0.07978100  0.98434300  0.90811600  1
  O  O138  1  0.76565700  0.67021900  0.84188400  1
  O  O139  1  0.76758000  0.98242000  0.87500000  1
