# generated using pymatgen
data_Nd4CdNi
_symmetry_space_group_name_H-M   'P 1'
_cell_length_a   9.82602937
_cell_length_b   9.82602937
_cell_length_c   9.82602937
_cell_angle_alpha   60.00000000
_cell_angle_beta   60.00000000
_cell_angle_gamma   60.00000000
_symmetry_Int_Tables_number   1
_chemical_formula_structural   Nd4CdNi
_chemical_formula_sum   'Nd16 Cd4 Ni4'
_cell_volume   670.84034860
_cell_formula_units_Z   4
loop_
 _symmetry_equiv_pos_site_id
 _symmetry_equiv_pos_as_xyz
  1  'x, y, z'
loop_
 _atom_site_type_symbol
 _atom_site_label
 _atom_site_symmetry_multiplicity
 _atom_site_fract_x
 _atom_site_fract_y
 _atom_site_fract_z
 _atom_site_occupancy
  Nd  Nd0  1  0.59650700  0.59650700  0.59650700  1
  Nd  Nd1  1  0.59650700  0.59650700  0.21047900  1
  Nd  Nd2  1  0.59650700  0.21047900  0.59650700  1
  Nd  Nd3  1  0.21047900  0.59650700  0.59650700  1
  Nd  Nd4  1  0.05938500  0.44061500  0.44061500  1
  Nd  Nd5  1  0.44061500  0.05938500  0.05938500  1
  Nd  Nd6  1  0.44061500  0.05938500  0.44061500  1
  Nd  Nd7  1  0.05938500  0.44061500  0.05938500  1
  Nd  Nd8  1  0.44061500  0.44061500  0.05938500  1
  Nd  Nd9  1  0.05938500  0.05938500  0.44061500  1
  Nd  Nd10  1  0.18573100  0.81426900  0.81426900  1
  Nd  Nd11  1  0.81426900  0.18573100  0.18573100  1
  Nd  Nd12  1  0.81426900  0.18573100  0.81426900  1
  Nd  Nd13  1  0.18573100  0.81426900  0.18573100  1
  Nd  Nd14  1  0.81426900  0.81426900  0.18573100  1
  Nd  Nd15  1  0.18573100  0.18573100  0.81426900  1
  Cd  Cd16  1  0.82920000  0.82920000  0.82920000  1
  Cd  Cd17  1  0.82920000  0.82920000  0.51240000  1
  Cd  Cd18  1  0.82920000  0.51240000  0.82920000  1
  Cd  Cd19  1  0.51240000  0.82920000  0.82920000  1
  Ni  Ni20  1  0.39146500  0.39146500  0.39146500  1
  Ni  Ni21  1  0.39146500  0.39146500  0.82560500  1
  Ni  Ni22  1  0.39146500  0.82560500  0.39146500  1
  Ni  Ni23  1  0.82560500  0.39146500  0.39146500  1
