# generated using pymatgen
data_Mn2Tl2(MoO4)3
_symmetry_space_group_name_H-M   'P 1'
_cell_length_a   11.15984200
_cell_length_b   11.15984200
_cell_length_c   11.15984200
_cell_angle_alpha   90.00000000
_cell_angle_beta   90.00000000
_cell_angle_gamma   90.00000000
_symmetry_Int_Tables_number   1
_chemical_formula_structural   Mn2Tl2(MoO4)3
_chemical_formula_sum   'Mn8 Tl8 Mo12 O48'
_cell_volume   1389.86986222
_cell_formula_units_Z   4
loop_
 _symmetry_equiv_pos_site_id
 _symmetry_equiv_pos_as_xyz
  1  'x, y, z'
loop_
 _atom_site_type_symbol
 _atom_site_label
 _atom_site_symmetry_multiplicity
 _atom_site_fract_x
 _atom_site_fract_y
 _atom_site_fract_z
 _atom_site_occupancy
  Mn  Mn0  1  0.33557200  0.33557200  0.33557200  1
  Mn  Mn1  1  0.16442800  0.66442800  0.83557200  1
  Mn  Mn2  1  0.66442800  0.83557200  0.16442800  1
  Mn  Mn3  1  0.83557200  0.16442800  0.66442800  1
  Mn  Mn4  1  0.60600500  0.60600500  0.60600500  1
  Mn  Mn5  1  0.89399500  0.39399500  0.10600500  1
  Mn  Mn6  1  0.39399500  0.10600500  0.89399500  1
  Mn  Mn7  1  0.10600500  0.89399500  0.39399500  1
  Tl  Tl8  1  0.05929200  0.05929200  0.05929200  1
  Tl  Tl9  1  0.44070800  0.94070800  0.55929200  1
  Tl  Tl10  1  0.94070800  0.55929200  0.44070800  1
  Tl  Tl11  1  0.55929200  0.44070800  0.94070800  1
  Tl  Tl12  1  0.82422500  0.82422500  0.82422500  1
  Tl  Tl13  1  0.67577500  0.17577500  0.32422500  1
  Tl  Tl14  1  0.17577500  0.32422500  0.67577500  1
  Tl  Tl15  1  0.32422500  0.67577500  0.17577500  1
  Mo  Mo16  1  0.02183100  0.21013800  0.37695900  1
  Mo  Mo17  1  0.47816900  0.78986200  0.87695900  1
  Mo  Mo18  1  0.97816900  0.71013800  0.12304100  1
  Mo  Mo19  1  0.37695900  0.02183100  0.21013800  1
  Mo  Mo20  1  0.52183100  0.28986200  0.62304100  1
  Mo  Mo21  1  0.87695900  0.47816900  0.78986200  1
  Mo  Mo22  1  0.12304100  0.97816900  0.71013800  1
  Mo  Mo23  1  0.62304100  0.52183100  0.28986200  1
  Mo  Mo24  1  0.21013800  0.37695900  0.02183100  1
  Mo  Mo25  1  0.71013800  0.12304100  0.97816900  1
  Mo  Mo26  1  0.28986200  0.62304100  0.52183100  1
  Mo  Mo27  1  0.78986200  0.87695900  0.47816900  1
  O  O28  1  0.01924600  0.05760100  0.32181700  1
  O  O29  1  0.48075400  0.94239900  0.82181700  1
  O  O30  1  0.98075400  0.55760100  0.17818300  1
  O  O31  1  0.32181700  0.01924600  0.05760100  1
  O  O32  1  0.51924600  0.44239900  0.67818300  1
  O  O33  1  0.82181700  0.48075400  0.94239900  1
  O  O34  1  0.17818300  0.98075400  0.55760100  1
  O  O35  1  0.67818300  0.51924600  0.44239900  1
  O  O36  1  0.05760100  0.32181700  0.01924600  1
  O  O37  1  0.55760100  0.17818300  0.98075400  1
  O  O38  1  0.44239900  0.67818300  0.51924600  1
  O  O39  1  0.94239900  0.82181700  0.48075400  1
  O  O40  1  0.27498600  0.48699200  0.43859600  1
  O  O41  1  0.22501400  0.51300800  0.93859600  1
  O  O42  1  0.72501400  0.98699200  0.06140400  1
  O  O43  1  0.43859600  0.27498600  0.48699200  1
  O  O44  1  0.77498600  0.01300800  0.56140400  1
  O  O45  1  0.93859600  0.22501400  0.51300800  1
  O  O46  1  0.06140400  0.72501400  0.98699200  1
  O  O47  1  0.56140400  0.77498600  0.01300800  1
  O  O48  1  0.48699200  0.43859600  0.27498600  1
  O  O49  1  0.98699200  0.06140400  0.72501400  1
  O  O50  1  0.01300800  0.56140400  0.77498600  1
  O  O51  1  0.51300800  0.93859600  0.22501400  1
  O  O52  1  0.04932800  0.80524200  0.23142500  1
  O  O53  1  0.45067200  0.19475800  0.73142500  1
  O  O54  1  0.95067200  0.30524200  0.26857500  1
  O  O55  1  0.23142500  0.04932800  0.80524200  1
  O  O56  1  0.54932800  0.69475800  0.76857500  1
  O  O57  1  0.73142500  0.45067200  0.19475800  1
  O  O58  1  0.26857500  0.95067200  0.30524200  1
  O  O59  1  0.76857500  0.54932800  0.69475800  1
  O  O60  1  0.80524200  0.23142500  0.04932800  1
  O  O61  1  0.30524200  0.26857500  0.95067200  1
  O  O62  1  0.69475800  0.76857500  0.54932800  1
  O  O63  1  0.19475800  0.73142500  0.45067200  1
  O  O64  1  0.17318500  0.25654100  0.40623800  1
  O  O65  1  0.32681500  0.74345900  0.90623800  1
  O  O66  1  0.82681500  0.75654100  0.09376200  1
  O  O67  1  0.40623800  0.17318500  0.25654100  1
  O  O68  1  0.67318500  0.24345900  0.59376200  1
  O  O69  1  0.90623800  0.32681500  0.74345900  1
  O  O70  1  0.09376200  0.82681500  0.75654100  1
  O  O71  1  0.59376200  0.67318500  0.24345900  1
  O  O72  1  0.25654100  0.40623800  0.17318500  1
  O  O73  1  0.75654100  0.09376200  0.82681500  1
  O  O74  1  0.24345900  0.59376200  0.67318500  1
  O  O75  1  0.74345900  0.90623800  0.32681500  1
