# generated using pymatgen
data_Sr2Ti2Sb2OF2
_symmetry_space_group_name_H-M   'P 1'
_cell_length_a   11.06611313
_cell_length_b   11.06611313
_cell_length_c   11.06611313
_cell_angle_alpha   158.58056444
_cell_angle_beta   158.58056444
_cell_angle_gamma   30.47348073
_symmetry_Int_Tables_number   1
_chemical_formula_structural   Sr2Ti2Sb2OF2
_chemical_formula_sum   'Sr2 Ti2 Sb2 O1 F2'
_cell_volume   180.61392413
_cell_formula_units_Z   1
loop_
 _symmetry_equiv_pos_site_id
 _symmetry_equiv_pos_as_xyz
  1  'x, y, z'
loop_
 _atom_site_type_symbol
 _atom_site_label
 _atom_site_symmetry_multiplicity
 _atom_site_fract_x
 _atom_site_fract_y
 _atom_site_fract_z
 _atom_site_occupancy
  Sr  Sr0  1  0.31695500  0.31695500  0.00000000  1
  Sr  Sr1  1  0.68304500  0.68304500  0.00000000  1
  Ti  Ti2  1  0.50000000  0.00000000  0.50000000  1
  Ti  Ti3  1  0.00000000  0.50000000  0.50000000  1
  Sb  Sb4  1  0.90453200  0.90453200  0.00000000  1
  Sb  Sb5  1  0.09546800  0.09546800  0.00000000  1
  O  O6  1  0.50000000  0.50000000  0.00000000  1
  F  F7  1  0.25000000  0.75000000  0.50000000  1
  F  F8  1  0.75000000  0.25000000  0.50000000  1
