# generated using pymatgen
data_GaNi10P3
_symmetry_space_group_name_H-M   'P 1'
_cell_length_a   7.61904430
_cell_length_b   7.61904430
_cell_length_c   9.42113100
_cell_angle_alpha   90.00000000
_cell_angle_beta   90.00000000
_cell_angle_gamma   120.00000258
_symmetry_Int_Tables_number   1
_chemical_formula_structural   GaNi10P3
_chemical_formula_sum   'Ga3 Ni30 P9'
_cell_volume   473.62504574
_cell_formula_units_Z   3
loop_
 _symmetry_equiv_pos_site_id
 _symmetry_equiv_pos_as_xyz
  1  'x, y, z'
loop_
 _atom_site_type_symbol
 _atom_site_label
 _atom_site_symmetry_multiplicity
 _atom_site_fract_x
 _atom_site_fract_y
 _atom_site_fract_z
 _atom_site_occupancy
  Ga  Ga0  1  0.33333300  0.66666700  0.36038600  1
  Ga  Ga1  1  0.66666700  0.33333300  0.63961400  1
  Ga  Ga2  1  0.00000000  0.00000000  0.00000000  1
  Ni  Ni3  1  0.33987600  0.00000000  0.50000000  1
  Ni  Ni4  1  0.66012400  0.00000000  0.50000000  1
  Ni  Ni5  1  0.00000000  0.33987600  0.50000000  1
  Ni  Ni6  1  0.00000000  0.66012400  0.50000000  1
  Ni  Ni7  1  0.66012400  0.66012400  0.50000000  1
  Ni  Ni8  1  0.33987600  0.33987600  0.50000000  1
  Ni  Ni9  1  0.00000000  0.00000000  0.38011600  1
  Ni  Ni10  1  0.00000000  0.00000000  0.61988400  1
  Ni  Ni11  1  0.81494600  0.18505400  0.06754500  1
  Ni  Ni12  1  0.18505400  0.81494600  0.93245500  1
  Ni  Ni13  1  0.81494600  0.62989200  0.06754500  1
  Ni  Ni14  1  0.18505400  0.37010800  0.93245500  1
  Ni  Ni15  1  0.37010800  0.18505400  0.06754500  1
  Ni  Ni16  1  0.62989200  0.81494600  0.93245500  1
  Ni  Ni17  1  0.33333300  0.66666700  0.10111500  1
  Ni  Ni18  1  0.66666700  0.33333300  0.89888500  1
  Ni  Ni19  1  0.50598100  0.49401900  0.24352800  1
  Ni  Ni20  1  0.49401900  0.50598100  0.75647200  1
  Ni  Ni21  1  0.50598100  0.01196100  0.24352800  1
  Ni  Ni22  1  0.49401900  0.98803900  0.75647200  1
  Ni  Ni23  1  0.98803900  0.49401900  0.24352800  1
  Ni  Ni24  1  0.01196100  0.50598100  0.75647200  1
  Ni  Ni25  1  0.33333300  0.66666700  0.61019700  1
  Ni  Ni26  1  0.66666700  0.33333300  0.38980300  1
  Ni  Ni27  1  0.13539900  0.86460100  0.19914700  1
  Ni  Ni28  1  0.86460100  0.13539900  0.80085300  1
  Ni  Ni29  1  0.13539900  0.27079700  0.19914700  1
  Ni  Ni30  1  0.86460100  0.72920300  0.80085300  1
  Ni  Ni31  1  0.72920300  0.86460100  0.19914700  1
  Ni  Ni32  1  0.27079700  0.13539900  0.80085300  1
  P  P33  1  0.50000000  0.00000000  0.00000000  1
  P  P34  1  0.00000000  0.50000000  0.00000000  1
  P  P35  1  0.50000000  0.50000000  0.00000000  1
  P  P36  1  0.83456800  0.16543200  0.30909600  1
  P  P37  1  0.16543200  0.83456800  0.69090400  1
  P  P38  1  0.83456800  0.66913700  0.30909600  1
  P  P39  1  0.16543200  0.33086300  0.69090400  1
  P  P40  1  0.33086300  0.16543200  0.30909600  1
  P  P41  1  0.66913700  0.83456800  0.69090400  1
