# generated using pymatgen
data_TlPt3O4
_symmetry_space_group_name_H-M   'P 1'
_cell_length_a   6.94247903
_cell_length_b   6.94247903
_cell_length_c   6.94247903
_cell_angle_alpha   60.00000000
_cell_angle_beta   60.00000000
_cell_angle_gamma   60.00000000
_symmetry_Int_Tables_number   1
_chemical_formula_structural   TlPt3O4
_chemical_formula_sum   'Tl2 Pt6 O8'
_cell_volume   236.60762266
_cell_formula_units_Z   2
loop_
 _symmetry_equiv_pos_site_id
 _symmetry_equiv_pos_as_xyz
  1  'x, y, z'
loop_
 _atom_site_type_symbol
 _atom_site_label
 _atom_site_symmetry_multiplicity
 _atom_site_fract_x
 _atom_site_fract_y
 _atom_site_fract_z
 _atom_site_occupancy
  Tl  Tl0  1  0.50000000  0.50000000  0.50000000  1
  Tl  Tl1  1  0.00000000  0.00000000  0.00000000  1
  Pt  Pt2  1  0.50000000  0.00000000  0.00000000  1
  Pt  Pt3  1  0.00000000  0.50000000  0.50000000  1
  Pt  Pt4  1  0.00000000  0.50000000  0.00000000  1
  Pt  Pt5  1  0.50000000  0.00000000  0.50000000  1
  Pt  Pt6  1  0.00000000  0.00000000  0.50000000  1
  Pt  Pt7  1  0.50000000  0.50000000  0.00000000  1
  O  O8  1  0.14244700  0.14244700  0.14244700  1
  O  O9  1  0.85755300  0.85755300  0.85755300  1
  O  O10  1  0.14244700  0.14244700  0.57265900  1
  O  O11  1  0.14244700  0.57265900  0.14244700  1
  O  O12  1  0.85755300  0.85755300  0.42734100  1
  O  O13  1  0.85755300  0.42734100  0.85755300  1
  O  O14  1  0.57265900  0.14244700  0.14244700  1
  O  O15  1  0.42734100  0.85755300  0.85755300  1
