# generated using pymatgen
data_CsInHgS3
_symmetry_space_group_name_H-M   'P 1'
_cell_length_a   8.24053410
_cell_length_b   8.24053410
_cell_length_c   22.43219546
_cell_angle_alpha   84.73495290
_cell_angle_beta   84.73495290
_cell_angle_gamma   89.98638141
_symmetry_Int_Tables_number   1
_chemical_formula_structural   CsInHgS3
_chemical_formula_sum   'Cs8 In8 Hg8 S24'
_cell_volume   1510.41143606
_cell_formula_units_Z   8
loop_
 _symmetry_equiv_pos_site_id
 _symmetry_equiv_pos_as_xyz
  1  'x, y, z'
loop_
 _atom_site_type_symbol
 _atom_site_label
 _atom_site_symmetry_multiplicity
 _atom_site_fract_x
 _atom_site_fract_y
 _atom_site_fract_z
 _atom_site_occupancy
  Cs  Cs0  1  0.10512300  0.23111300  0.07712700  1
  Cs  Cs1  1  0.76888700  0.89487700  0.42287300  1
  Cs  Cs2  1  0.89487700  0.76888700  0.92287300  1
  Cs  Cs3  1  0.23111300  0.10512300  0.57712700  1
  Cs  Cs4  1  0.60604500  0.23056400  0.07723700  1
  Cs  Cs5  1  0.76943600  0.39395500  0.42276300  1
  Cs  Cs6  1  0.39395500  0.76943600  0.92276300  1
  Cs  Cs7  1  0.23056400  0.60604500  0.57723700  1
  In  In8  1  0.28005700  0.65542200  0.37798000  1
  In  In9  1  0.34457800  0.71994300  0.12202000  1
  In  In10  1  0.71994300  0.34457800  0.62202000  1
  In  In11  1  0.65542200  0.28005700  0.87798000  1
  In  In12  1  0.84435800  0.71894700  0.12280100  1
  In  In13  1  0.28105300  0.15564200  0.37719900  1
  In  In14  1  0.15564200  0.28105300  0.87719900  1
  In  In15  1  0.71894600  0.84435800  0.62280100  1
  Hg  Hg16  1  0.06561100  0.43974400  0.25000200  1
  Hg  Hg17  1  0.56025600  0.93438900  0.24999800  1
  Hg  Hg18  1  0.93438900  0.56025600  0.74999800  1
  Hg  Hg19  1  0.43974400  0.06561100  0.75000200  1
  Hg  Hg20  1  0.06447300  0.93552700  0.25000000  1
  Hg  Hg21  1  0.93552700  0.06447300  0.75000000  1
  Hg  Hg22  1  0.55960800  0.44039200  0.25000000  1
  Hg  Hg23  1  0.44039200  0.55960800  0.75000000  1
  S  S24  1  0.11052400  0.73557500  0.05650800  1
  S  S25  1  0.26442500  0.88947600  0.44349200  1
  S  S26  1  0.88947600  0.26442500  0.94349200  1
  S  S27  1  0.73557500  0.11052400  0.55650800  1
  S  S28  1  0.33047900  0.44462600  0.17849800  1
  S  S29  1  0.55537400  0.66952100  0.32150200  1
  S  S30  1  0.66952100  0.55537400  0.82150200  1
  S  S31  1  0.44462600  0.33047900  0.67849800  1
  S  S32  1  0.03349700  0.66981200  0.32120600  1
  S  S33  1  0.33018800  0.96650300  0.17879400  1
  S  S34  1  0.96650300  0.33018800  0.67879400  1
  S  S35  1  0.66981200  0.03349700  0.82120600  1
  S  S36  1  0.26365000  0.38878500  0.44351400  1
  S  S37  1  0.61121500  0.73635000  0.05648600  1
  S  S38  1  0.73635000  0.61121500  0.55648600  1
  S  S39  1  0.38878500  0.26365000  0.94351400  1
  S  S40  1  0.83002900  0.44477300  0.18001800  1
  S  S41  1  0.55522700  0.16997100  0.31998200  1
  S  S42  1  0.16997100  0.55522700  0.81998200  1
  S  S43  1  0.44477300  0.83002900  0.68001800  1
  S  S44  1  0.03472400  0.17005100  0.32027300  1
  S  S45  1  0.82994900  0.96527600  0.17972700  1
  S  S46  1  0.96527600  0.82994900  0.67972700  1
  S  S47  1  0.17005100  0.03472400  0.82027300  1
