# generated using pymatgen
data_CeZn3
_symmetry_space_group_name_H-M   'P 1'
_cell_length_a   4.53656900
_cell_length_b   6.72616000
_cell_length_c   10.12228700
_cell_angle_alpha   90.00000000
_cell_angle_beta   90.00000000
_cell_angle_gamma   90.00000000
_symmetry_Int_Tables_number   1
_chemical_formula_structural   CeZn3
_chemical_formula_sum   'Ce4 Zn12'
_cell_volume   308.86831693
_cell_formula_units_Z   4
loop_
 _symmetry_equiv_pos_site_id
 _symmetry_equiv_pos_as_xyz
  1  'x, y, z'
loop_
 _atom_site_type_symbol
 _atom_site_label
 _atom_site_symmetry_multiplicity
 _atom_site_fract_x
 _atom_site_fract_y
 _atom_site_fract_z
 _atom_site_occupancy
  Ce  Ce0  1  0.25000000  0.27968600  0.65544700  1
  Ce  Ce1  1  0.25000000  0.77968600  0.84455300  1
  Ce  Ce2  1  0.75000000  0.72031400  0.34455300  1
  Ce  Ce3  1  0.75000000  0.22031400  0.15544700  1
  Zn  Zn4  1  0.25000000  0.53725800  0.11045700  1
  Zn  Zn5  1  0.25000000  0.03725800  0.38954300  1
  Zn  Zn6  1  0.75000000  0.46274200  0.88954300  1
  Zn  Zn7  1  0.75000000  0.96274200  0.61045700  1
  Zn  Zn8  1  0.25000000  0.91848300  0.14557900  1
  Zn  Zn9  1  0.25000000  0.41848300  0.35442100  1
  Zn  Zn10  1  0.75000000  0.08151700  0.85442100  1
  Zn  Zn11  1  0.75000000  0.58151700  0.64557900  1
  Zn  Zn12  1  0.25000000  0.21970400  0.95588500  1
  Zn  Zn13  1  0.25000000  0.71970400  0.54411500  1
  Zn  Zn14  1  0.75000000  0.78029600  0.04411500  1
  Zn  Zn15  1  0.75000000  0.28029600  0.45588500  1
