# generated using pymatgen
data_Ti5Al2C3
_symmetry_space_group_name_H-M   'P 1'
_cell_length_a   16.30310730
_cell_length_b   16.30310730
_cell_length_c   16.30310750
_cell_angle_alpha   10.81631159
_cell_angle_beta   10.81631159
_cell_angle_gamma   10.81630955
_symmetry_Int_Tables_number   1
_chemical_formula_structural   Ti5Al2C3
_chemical_formula_sum   'Ti5 Al2 C3'
_cell_volume   132.54929731
_cell_formula_units_Z   1
loop_
 _symmetry_equiv_pos_site_id
 _symmetry_equiv_pos_as_xyz
  1  'x, y, z'
loop_
 _atom_site_type_symbol
 _atom_site_label
 _atom_site_symmetry_multiplicity
 _atom_site_fract_x
 _atom_site_fract_y
 _atom_site_fract_z
 _atom_site_occupancy
  Ti  Ti0  1  0.50000000  0.50000000  0.50000000  1
  Ti  Ti1  1  0.21519400  0.21519400  0.21519400  1
  Ti  Ti2  1  0.30984900  0.30984900  0.30984900  1
  Ti  Ti3  1  0.69015100  0.69015100  0.69015100  1
  Ti  Ti4  1  0.78480600  0.78480600  0.78480600  1
  Al  Al5  1  0.40390200  0.40390200  0.40390200  1
  Al  Al6  1  0.59609800  0.59609800  0.59609800  1
  C  C7  1  0.13997800  0.13997800  0.13997800  1
  C  C8  1  0.86002200  0.86002200  0.86002200  1
  C  C9  1  0.00000000  0.00000000  0.00000000  1
