# generated using pymatgen
data_Ca21(Cd2Bi9)2
_symmetry_space_group_name_H-M   'P 1'
_cell_length_a   12.42880169
_cell_length_b   12.42880169
_cell_length_c   17.72765183
_cell_angle_alpha   88.35196403
_cell_angle_beta   88.35196403
_cell_angle_gamma   87.43274754
_symmetry_Int_Tables_number   1
_chemical_formula_structural   Ca21(Cd2Bi9)2
_chemical_formula_sum   'Ca42 Cd8 Bi36'
_cell_volume   2733.56584233
_cell_formula_units_Z   2
loop_
 _symmetry_equiv_pos_site_id
 _symmetry_equiv_pos_as_xyz
  1  'x, y, z'
loop_
 _atom_site_type_symbol
 _atom_site_label
 _atom_site_symmetry_multiplicity
 _atom_site_fract_x
 _atom_site_fract_y
 _atom_site_fract_z
 _atom_site_occupancy
  Ca  Ca0  1  0.73430700  0.73430700  0.09230600  1
  Ca  Ca1  1  0.26569300  0.26569300  0.90769400  1
  Ca  Ca2  1  0.74978700  0.07683500  0.14508600  1
  Ca  Ca3  1  0.25021300  0.92316500  0.85491400  1
  Ca  Ca4  1  0.92316500  0.25021300  0.85491400  1
  Ca  Ca5  1  0.07683500  0.74978700  0.14508600  1
  Ca  Ca6  1  0.40383900  0.74006300  0.15390900  1
  Ca  Ca7  1  0.59616100  0.25993700  0.84609100  1
  Ca  Ca8  1  0.25993700  0.59616100  0.84609100  1
  Ca  Ca9  1  0.74006300  0.40383900  0.15390900  1
  Ca  Ca10  1  0.75660300  0.07286300  0.35276300  1
  Ca  Ca11  1  0.24339700  0.92713700  0.64723700  1
  Ca  Ca12  1  0.92713700  0.24339700  0.64723700  1
  Ca  Ca13  1  0.07286300  0.75660300  0.35276300  1
  Ca  Ca14  1  0.51107900  0.25792400  0.05604200  1
  Ca  Ca15  1  0.48892100  0.74207600  0.94395800  1
  Ca  Ca16  1  0.74207600  0.48892100  0.94395800  1
  Ca  Ca17  1  0.25792400  0.51107900  0.05604200  1
  Ca  Ca18  1  0.26991400  0.00325000  0.06063500  1
  Ca  Ca19  1  0.73008600  0.99675000  0.93936500  1
  Ca  Ca20  1  0.99675000  0.73008600  0.93936500  1
  Ca  Ca21  1  0.00325000  0.26991400  0.06063500  1
  Ca  Ca22  1  0.42926000  0.67752600  0.38450600  1
  Ca  Ca23  1  0.57074000  0.32247400  0.61549400  1
  Ca  Ca24  1  0.32247400  0.57074000  0.61549400  1
  Ca  Ca25  1  0.67752600  0.42926000  0.38450600  1
  Ca  Ca26  1  0.76987600  0.00774100  0.57548600  1
  Ca  Ca27  1  0.23012400  0.99225900  0.42451400  1
  Ca  Ca28  1  0.99225900  0.23012400  0.42451400  1
  Ca  Ca29  1  0.00774100  0.76987600  0.57548600  1
  Ca  Ca30  1  0.42475000  0.07015500  0.24304900  1
  Ca  Ca31  1  0.57525000  0.92984500  0.75695100  1
  Ca  Ca32  1  0.92984500  0.57525000  0.75695100  1
  Ca  Ca33  1  0.07015500  0.42475000  0.24304900  1
  Ca  Ca34  1  0.40415700  0.40415700  0.25471700  1
  Ca  Ca35  1  0.59584300  0.59584300  0.74528300  1
  Ca  Ca36  1  0.50633300  0.18139500  0.43507500  1
  Ca  Ca37  1  0.49366700  0.81860500  0.56492500  1
  Ca  Ca38  1  0.81860500  0.49366700  0.56492500  1
  Ca  Ca39  1  0.18139500  0.50633300  0.43507500  1
  Ca  Ca40  1  0.74678300  0.74678300  0.42054300  1
  Ca  Ca41  1  0.25321700  0.25321700  0.57945700  1
  Cd  Cd42  1  0.84081300  0.84081300  0.75415600  1
  Cd  Cd43  1  0.15918700  0.15918700  0.24584400  1
  Cd  Cd44  1  0.99411600  0.99411600  0.79679300  1
  Cd  Cd45  1  0.00588400  0.00588400  0.20320700  1
  Cd  Cd46  1  0.60712500  0.85376900  0.24650100  1
  Cd  Cd47  1  0.39287500  0.14623100  0.75349900  1
  Cd  Cd48  1  0.14623100  0.39287500  0.75349900  1
  Cd  Cd49  1  0.85376900  0.60712500  0.24650100  1
  Bi  Bi50  1  0.74897600  0.74897600  0.61896800  1
  Bi  Bi51  1  0.25102400  0.25102400  0.38103200  1
  Bi  Bi52  1  0.53713800  0.53713800  0.07834000  1
  Bi  Bi53  1  0.46286200  0.46286200  0.92166000  1
  Bi  Bi54  1  0.84733300  0.84733300  0.25830800  1
  Bi  Bi55  1  0.15266700  0.15266700  0.74169200  1
  Bi  Bi56  1  0.57665600  0.57665600  0.53693900  1
  Bi  Bi57  1  0.42334400  0.42334400  0.46306100  1
  Bi  Bi58  1  0.22538000  0.91518100  0.24421700  1
  Bi  Bi59  1  0.77462000  0.08481900  0.75578300  1
  Bi  Bi60  1  0.08481900  0.77462000  0.75578300  1
  Bi  Bi61  1  0.91518100  0.22538000  0.24421700  1
  Bi  Bi62  1  0.53298800  0.92907400  0.39678500  1
  Bi  Bi63  1  0.46701200  0.07092600  0.60321500  1
  Bi  Bi64  1  0.07092600  0.46701200  0.60321500  1
  Bi  Bi65  1  0.92907400  0.53298800  0.39678500  1
  Bi  Bi66  1  0.75551300  0.24448700  0.50000000  1
  Bi  Bi67  1  0.24448700  0.75551300  0.50000000  1
  Bi  Bi68  1  0.93348300  0.93348300  0.05561100  1
  Bi  Bi69  1  0.06651700  0.06651700  0.94438900  1
  Bi  Bi70  1  0.26330000  0.26330000  0.10957000  1
  Bi  Bi71  1  0.73670000  0.73670000  0.89043000  1
  Bi  Bi72  1  0.75658900  0.24341100  0.00000000  1
  Bi  Bi73  1  0.24341100  0.75658900  0.00000000  1
  Bi  Bi74  1  0.54373600  0.94273300  0.09038100  1
  Bi  Bi75  1  0.45626400  0.05726700  0.90961900  1
  Bi  Bi76  1  0.05726700  0.45626400  0.90961900  1
  Bi  Bi77  1  0.94273300  0.54373600  0.09038100  1
  Bi  Bi78  1  0.60814400  0.60814400  0.25804500  1
  Bi  Bi79  1  0.39185600  0.39185600  0.74195500  1
  Bi  Bi80  1  0.94979800  0.94979800  0.43199200  1
  Bi  Bi81  1  0.05020200  0.05020200  0.56800800  1
  Bi  Bi82  1  0.60232600  0.23985800  0.25563100  1
  Bi  Bi83  1  0.39767400  0.76014200  0.74436900  1
  Bi  Bi84  1  0.76014200  0.39767400  0.74436900  1
  Bi  Bi85  1  0.23985800  0.60232600  0.25563100  1
