# generated using pymatgen
data_Rb2B2Se7
_symmetry_space_group_name_H-M   'P 1'
_cell_length_a   9.01827741
_cell_length_b   9.01827741
_cell_length_c   13.06497539
_cell_angle_alpha   59.92911791
_cell_angle_beta   59.92911791
_cell_angle_gamma   49.30028155
_symmetry_Int_Tables_number   1
_chemical_formula_structural   Rb2B2Se7
_chemical_formula_sum   'Rb4 B4 Se14'
_cell_volume   672.08757198
_cell_formula_units_Z   2
loop_
 _symmetry_equiv_pos_site_id
 _symmetry_equiv_pos_as_xyz
  1  'x, y, z'
loop_
 _atom_site_type_symbol
 _atom_site_label
 _atom_site_symmetry_multiplicity
 _atom_site_fract_x
 _atom_site_fract_y
 _atom_site_fract_z
 _atom_site_occupancy
  Rb  Rb0  1  0.11870200  0.67336300  0.52360600  1
  Rb  Rb1  1  0.32663700  0.88129800  0.97639400  1
  Rb  Rb2  1  0.88129800  0.32663700  0.47639400  1
  Rb  Rb3  1  0.67336300  0.11870200  0.02360600  1
  B  B4  1  0.61496900  0.15380300  0.34910900  1
  B  B5  1  0.84619700  0.38503100  0.15089100  1
  B  B6  1  0.38503100  0.84619700  0.65089100  1
  B  B7  1  0.15380300  0.61496900  0.84910900  1
  Se  Se8  1  0.16744600  0.56948700  0.01546700  1
  Se  Se9  1  0.43051300  0.83255500  0.48453300  1
  Se  Se10  1  0.83255500  0.43051300  0.98453300  1
  Se  Se11  1  0.56948700  0.16744500  0.51546700  1
  Se  Se12  1  0.14664500  0.40186600  0.83637800  1
  Se  Se13  1  0.59813400  0.85335500  0.66362200  1
  Se  Se14  1  0.85335500  0.59813400  0.16362200  1
  Se  Se15  1  0.40186600  0.14664500  0.33637800  1
  Se  Se16  1  0.93799600  0.89953600  0.77209100  1
  Se  Se17  1  0.10046400  0.06200400  0.72790900  1
  Se  Se18  1  0.06200400  0.10046400  0.22790900  1
  Se  Se19  1  0.89953600  0.93799600  0.27209100  1
  Se  Se20  1  0.44637300  0.55362700  0.75000000  1
  Se  Se21  1  0.55362700  0.44637300  0.25000000  1
