# generated using pymatgen
data_Mg3ScZn8
_symmetry_space_group_name_H-M   'P 1'
_cell_length_a   5.18408566
_cell_length_b   5.18368069
_cell_length_c   8.66893517
_cell_angle_alpha   89.94908538
_cell_angle_beta   90.05288023
_cell_angle_gamma   119.86335786
_symmetry_Int_Tables_number   1
_chemical_formula_structural   Mg3ScZn8
_chemical_formula_sum   'Mg3 Sc1 Zn8'
_cell_volume   202.02396607
_cell_formula_units_Z   1
loop_
 _symmetry_equiv_pos_site_id
 _symmetry_equiv_pos_as_xyz
  1  'x, y, z'
loop_
 _atom_site_type_symbol
 _atom_site_label
 _atom_site_symmetry_multiplicity
 _atom_site_fract_x
 _atom_site_fract_y
 _atom_site_fract_z
 _atom_site_occupancy
  Mg  Mg0  1  0.33321200  0.66679400  0.43879200  1
  Mg  Mg1  1  0.33333800  0.66666300  0.06044200  1
  Mg  Mg2  1  0.66673300  0.33327800  0.93434300  1
  Sc  Sc3  1  0.66668700  0.33331500  0.56065500  1
  Zn  Zn4  1  0.16937800  0.33879300  0.74951000  1
  Zn  Zn5  1  0.16948900  0.83048100  0.74942400  1
  Zn  Zn6  1  0.66121200  0.83064800  0.74951200  1
  Zn  Zn7  1  0.82969700  0.65938800  0.25034700  1
  Zn  Zn8  1  0.82961500  0.17041300  0.25034600  1
  Zn  Zn9  1  0.34059600  0.17026300  0.25034700  1
  Zn  Zn10  1  0.00012000  0.99989500  0.50149600  1
  Zn  Zn11  1  0.99992200  0.00006600  0.00478400  1
