# generated using pymatgen
data_Ba(MnAs)2
_symmetry_space_group_name_H-M   'P 1'
_cell_length_a   4.12183401
_cell_length_b   4.12182401
_cell_length_c   7.28079744
_cell_angle_alpha   73.55183411
_cell_angle_beta   73.55165285
_cell_angle_gamma   89.99216004
_symmetry_Int_Tables_number   1
_chemical_formula_structural   Ba(MnAs)2
_chemical_formula_sum   'Ba1 Mn2 As2'
_cell_volume   113.34815685
_cell_formula_units_Z   1
loop_
 _symmetry_equiv_pos_site_id
 _symmetry_equiv_pos_as_xyz
  1  'x, y, z'
loop_
 _atom_site_type_symbol
 _atom_site_label
 _atom_site_symmetry_multiplicity
 _atom_site_fract_x
 _atom_site_fract_y
 _atom_site_fract_z
 _atom_site_occupancy
  Ba  Ba0  1  0.99999800  0.99999800  0.00000100  1
  Mn  Mn1  1  0.25007600  0.74997300  0.49998500  1
  Mn  Mn2  1  0.74993000  0.25003300  0.50001100  1
  As  As3  1  0.64203000  0.64202900  0.71576400  1
  As  As4  1  0.35796600  0.35796700  0.28423900  1
