# generated using pymatgen
data_Ba6Gd2Al4O15
_symmetry_space_group_name_H-M   'P 1'
_cell_length_a   5.99818700
_cell_length_b   7.98704500
_cell_length_c   18.60767197
_cell_angle_alpha   88.52891081
_cell_angle_beta   90.00000000
_cell_angle_gamma   90.00000000
_symmetry_Int_Tables_number   1
_chemical_formula_structural   Ba6Gd2Al4O15
_chemical_formula_sum   'Ba12 Gd4 Al8 O30'
_cell_volume   891.15861455
_cell_formula_units_Z   2
loop_
 _symmetry_equiv_pos_site_id
 _symmetry_equiv_pos_as_xyz
  1  'x, y, z'
loop_
 _atom_site_type_symbol
 _atom_site_label
 _atom_site_symmetry_multiplicity
 _atom_site_fract_x
 _atom_site_fract_y
 _atom_site_fract_z
 _atom_site_occupancy
  Ba  Ba0  1  0.75738300  0.50163900  0.08238500  1
  Ba  Ba1  1  0.24261700  0.49836100  0.91761500  1
  Ba  Ba2  1  0.75738300  0.49836100  0.41761500  1
  Ba  Ba3  1  0.24261700  0.50163900  0.58238500  1
  Ba  Ba4  1  0.74468200  0.96910700  0.09008100  1
  Ba  Ba5  1  0.25531800  0.03089300  0.90991900  1
  Ba  Ba6  1  0.74468200  0.03089300  0.40991900  1
  Ba  Ba7  1  0.25531800  0.96910700  0.59008100  1
  Ba  Ba8  1  0.72409800  0.00000000  0.75000000  1
  Ba  Ba9  1  0.27590200  0.00000000  0.25000000  1
  Ba  Ba10  1  0.66990800  0.50000000  0.75000000  1
  Ba  Ba11  1  0.33009200  0.50000000  0.25000000  1
  Gd  Gd12  1  0.74599800  0.75221300  0.90999600  1
  Gd  Gd13  1  0.25400200  0.24778700  0.09000400  1
  Gd  Gd14  1  0.74599800  0.24778700  0.59000400  1
  Gd  Gd15  1  0.25400200  0.75221300  0.40999600  1
  Al  Al16  1  0.75151700  0.75262000  0.55683700  1
  Al  Al17  1  0.24848300  0.24738000  0.44316300  1
  Al  Al18  1  0.75151700  0.24738000  0.94316300  1
  Al  Al19  1  0.24848300  0.75262000  0.05683700  1
  Al  Al20  1  0.77268100  0.77979200  0.26670000  1
  Al  Al21  1  0.22731900  0.22020800  0.73330000  1
  Al  Al22  1  0.77268100  0.22020800  0.23330000  1
  Al  Al23  1  0.22731900  0.77979200  0.76670000  1
  O  O24  1  0.21054500  0.00000000  0.75000000  1
  O  O25  1  0.78945500  0.00000000  0.25000000  1
  O  O26  1  0.49260700  0.76393900  0.00090100  1
  O  O27  1  0.50739300  0.23606100  0.99909900  1
  O  O28  1  0.49260700  0.23606100  0.49909900  1
  O  O29  1  0.50739300  0.76393900  0.50090100  1
  O  O30  1  0.75936000  0.94249500  0.60705400  1
  O  O31  1  0.24064000  0.05750500  0.39294600  1
  O  O32  1  0.75936000  0.05750500  0.89294600  1
  O  O33  1  0.24064000  0.94249500  0.10705400  1
  O  O34  1  0.00858500  0.76206800  0.99796800  1
  O  O35  1  0.99141500  0.23793200  0.00203200  1
  O  O36  1  0.00858500  0.23793200  0.50203200  1
  O  O37  1  0.99141500  0.76206800  0.49796800  1
  O  O38  1  0.31378300  0.69372400  0.68588800  1
  O  O39  1  0.68621700  0.30627600  0.31411200  1
  O  O40  1  0.31378300  0.30627600  0.81411200  1
  O  O41  1  0.68621700  0.69372400  0.18588800  1
  O  O42  1  0.44507600  0.75192700  0.83248200  1
  O  O43  1  0.55492400  0.24807300  0.16751800  1
  O  O44  1  0.44507600  0.24807300  0.66751800  1
  O  O45  1  0.55492400  0.75192700  0.33248200  1
  O  O46  1  0.96845500  0.73023000  0.80858100  1
  O  O47  1  0.03154500  0.26977000  0.19141900  1
  O  O48  1  0.96845500  0.26977000  0.69141900  1
  O  O49  1  0.03154500  0.73023000  0.30858100  1
  O  O50  1  0.75444700  0.54169200  0.59323900  1
  O  O51  1  0.24555300  0.45830800  0.40676100  1
  O  O52  1  0.75444700  0.45830800  0.90676100  1
  O  O53  1  0.24555300  0.54169200  0.09323900  1
