# generated using pymatgen
data_Ge3BH4NO8
_symmetry_space_group_name_H-M   'P 1'
_cell_length_a   7.12579333
_cell_length_b   7.57394936
_cell_length_c   7.84659400
_cell_angle_alpha   103.25554817
_cell_angle_beta   102.79201314
_cell_angle_gamma   104.51755754
_symmetry_Int_Tables_number   1
_chemical_formula_structural   Ge3BH4NO8
_chemical_formula_sum   'Ge6 B2 H8 N2 O16'
_cell_volume   381.16096629
_cell_formula_units_Z   2
loop_
 _symmetry_equiv_pos_site_id
 _symmetry_equiv_pos_as_xyz
  1  'x, y, z'
loop_
 _atom_site_type_symbol
 _atom_site_label
 _atom_site_symmetry_multiplicity
 _atom_site_fract_x
 _atom_site_fract_y
 _atom_site_fract_z
 _atom_site_occupancy
  Ge  Ge0  1  0.22730800  0.21642100  0.30257500  1
  Ge  Ge1  1  0.77269200  0.78357900  0.69742500  1
  Ge  Ge2  1  0.74883200  0.15482700  0.23297300  1
  Ge  Ge3  1  0.25116800  0.84517300  0.76702700  1
  Ge  Ge4  1  0.65413700  0.33376300  0.60585100  1
  Ge  Ge5  1  0.34586300  0.66623700  0.39414900  1
  B  B6  1  0.65147700  0.10527100  0.85595700  1
  B  B7  1  0.34852300  0.89472900  0.14404300  1
  H  H8  1  0.04453000  0.27704200  0.81142300  1
  H  H9  1  0.95547000  0.72295800  0.18857700  1
  H  H10  1  0.24032700  0.48400300  0.90515200  1
  H  H11  1  0.75967300  0.51599700  0.09484800  1
  H  H12  1  0.27934700  0.26805000  0.90299200  1
  H  H13  1  0.72065300  0.73195000  0.09700800  1
  H  H14  1  0.23157500  0.32354300  0.71020600  1
  H  H15  1  0.76842500  0.67645700  0.28979400  1
  N  N16  1  0.19904700  0.33932600  0.83426200  1
  N  N17  1  0.80095300  0.66067400  0.16573800  1
  O  O18  1  0.74633900  0.19278700  0.73019800  1
  O  O19  1  0.25366100  0.80721300  0.26980200  1
  O  O20  1  0.29154300  0.06842200  0.13523600  1
  O  O21  1  0.70845700  0.93157700  0.86476400  1
  O  O22  1  0.56997300  0.93787900  0.20803300  1
  O  O23  1  0.43002700  0.06212100  0.79196700  1
  O  O24  1  0.38451900  0.27683200  0.53244400  1
  O  O25  1  0.61548100  0.72316800  0.46755600  1
  O  O26  1  0.75220700  0.57002900  0.76050700  1
  O  O27  1  0.24779300  0.42997100  0.23949300  1
  O  O28  1  0.73344600  0.24591200  0.04441500  1
  O  O29  1  0.26655400  0.75408800  0.95558500  1
  O  O30  1  0.74929400  0.34435800  0.41751900  1
  O  O31  1  0.25070600  0.65564200  0.58248100  1
  O  O32  1  0.98163600  0.11008500  0.31109000  1
  O  O33  1  0.01836400  0.88991500  0.68891000  1
