# generated using pymatgen
data_Th2Pd
_symmetry_space_group_name_H-M   'P 1'
_cell_length_a   5.98858956
_cell_length_b   5.98858956
_cell_length_c   5.98858956
_cell_angle_alpha   104.30871784
_cell_angle_beta   104.30871784
_cell_angle_gamma   120.37830242
_symmetry_Int_Tables_number   1
_chemical_formula_structural   Th2Pd
_chemical_formula_sum   'Th4 Pd2'
_cell_volume   160.76493658
_cell_formula_units_Z   2
loop_
 _symmetry_equiv_pos_site_id
 _symmetry_equiv_pos_as_xyz
  1  'x, y, z'
loop_
 _atom_site_type_symbol
 _atom_site_label
 _atom_site_symmetry_multiplicity
 _atom_site_fract_x
 _atom_site_fract_y
 _atom_site_fract_z
 _atom_site_occupancy
  Th  Th0  1  0.16173400  0.66173400  0.82346900  1
  Th  Th1  1  0.33826600  0.16173400  0.50000000  1
  Th  Th2  1  0.66173400  0.83826600  0.50000000  1
  Th  Th3  1  0.83826600  0.33826600  0.17653100  1
  Pd  Pd4  1  0.25000000  0.25000000  0.00000000  1
  Pd  Pd5  1  0.75000000  0.75000000  0.00000000  1
