# generated using pymatgen
data_Cs2CaF4
_symmetry_space_group_name_H-M   'P 1'
_cell_length_a   8.19643427
_cell_length_b   8.19643427
_cell_length_c   8.19643427
_cell_angle_alpha   147.67980673
_cell_angle_beta   147.67980673
_cell_angle_gamma   46.35826096
_symmetry_Int_Tables_number   1
_chemical_formula_structural   Cs2CaF4
_chemical_formula_sum   'Cs2 Ca1 F4'
_cell_volume   156.84762434
_cell_formula_units_Z   1
loop_
 _symmetry_equiv_pos_site_id
 _symmetry_equiv_pos_as_xyz
  1  'x, y, z'
loop_
 _atom_site_type_symbol
 _atom_site_label
 _atom_site_symmetry_multiplicity
 _atom_site_fract_x
 _atom_site_fract_y
 _atom_site_fract_z
 _atom_site_occupancy
  Cs  Cs0  1  0.64927200  0.64927200  0.00000000  1
  Cs  Cs1  1  0.35072800  0.35072800  0.00000000  1
  Ca  Ca2  1  0.00000000  0.00000000  0.00000000  1
  F  F3  1  0.00000000  0.50000000  0.50000000  1
  F  F4  1  0.50000000  0.00000000  0.50000000  1
  F  F5  1  0.84845500  0.84845500  0.00000000  1
  F  F6  1  0.15154500  0.15154500  0.00000000  1
