# generated using pymatgen
data_RbAlF4
_symmetry_space_group_name_H-M   'P 1'
_cell_length_a   10.55471704
_cell_length_b   10.55471704
_cell_length_c   10.55471704
_cell_angle_alpha   111.52294142
_cell_angle_beta   111.52294142
_cell_angle_gamma   105.44139108
_symmetry_Int_Tables_number   1
_chemical_formula_structural   RbAlF4
_chemical_formula_sum   'Rb10 Al10 F40'
_cell_volume   901.81700689
_cell_formula_units_Z   10
loop_
 _symmetry_equiv_pos_site_id
 _symmetry_equiv_pos_as_xyz
  1  'x, y, z'
loop_
 _atom_site_type_symbol
 _atom_site_label
 _atom_site_symmetry_multiplicity
 _atom_site_fract_x
 _atom_site_fract_y
 _atom_site_fract_z
 _atom_site_occupancy
  Rb  Rb0  1  0.02977200  0.84654600  0.50000000  1
  Rb  Rb1  1  0.34654600  0.52977200  0.50000000  1
  Rb  Rb2  1  0.15345400  0.65345400  0.18322600  1
  Rb  Rb3  1  0.47022800  0.97022800  0.81677400  1
  Rb  Rb4  1  0.84654600  0.34654600  0.81677400  1
  Rb  Rb5  1  0.65345400  0.47022800  0.50000000  1
  Rb  Rb6  1  0.97022800  0.15345400  0.50000000  1
  Rb  Rb7  1  0.52977200  0.02977200  0.18322600  1
  Rb  Rb8  1  0.75000000  0.75000000  0.00000000  1
  Rb  Rb9  1  0.25000000  0.25000000  0.00000000  1
  Al  Al10  1  0.57656400  0.70753700  0.28410100  1
  Al  Al11  1  0.42343600  0.29246300  0.71589900  1
  Al  Al12  1  0.29246300  0.57656400  0.86902700  1
  Al  Al13  1  0.70753700  0.42343600  0.13097300  1
  Al  Al14  1  0.92343600  0.20753700  0.13097300  1
  Al  Al15  1  0.79246300  0.92343600  0.71589900  1
  Al  Al16  1  0.20753700  0.07656400  0.28410100  1
  Al  Al17  1  0.07656400  0.79246300  0.86902700  1
  Al  Al18  1  0.50000000  0.00000000  0.50000000  1
  Al  Al19  1  0.00000000  0.50000000  0.50000000  1
  F  F20  1  0.13845300  0.63845300  0.50000000  1
  F  F21  1  0.36154700  0.86154700  0.50000000  1
  F  F22  1  0.86154700  0.36154700  0.50000000  1
  F  F23  1  0.63845300  0.13845300  0.50000000  1
  F  F24  1  0.78141400  0.28141400  0.06282700  1
  F  F25  1  0.71858600  0.78141400  0.50000000  1
  F  F26  1  0.28141400  0.21858600  0.50000000  1
  F  F27  1  0.21858600  0.71858600  0.93717300  1
  F  F28  1  0.15221200  0.44031400  0.87071700  1
  F  F29  1  0.56959700  0.28149500  0.12928300  1
  F  F30  1  0.55968600  0.43040300  0.71189800  1
  F  F31  1  0.71850500  0.84778800  0.28810200  1
  F  F32  1  0.06959700  0.94031400  0.28810200  1
  F  F33  1  0.05968600  0.34778800  0.12928300  1
  F  F34  1  0.93040300  0.05968600  0.71189800  1
  F  F35  1  0.21850500  0.93040300  0.87071700  1
  F  F36  1  0.84778800  0.55968600  0.12928300  1
  F  F37  1  0.43040300  0.71850500  0.87071700  1
  F  F38  1  0.44031400  0.56959700  0.28810200  1
  F  F39  1  0.28149500  0.15221200  0.71189800  1
  F  F40  1  0.00126400  0.34428200  0.34554500  1
  F  F41  1  0.65571800  0.00126400  0.65698200  1
  F  F42  1  0.34428200  0.99873600  0.34301800  1
  F  F43  1  0.99873600  0.65571800  0.65445500  1
  F  F44  1  0.15571800  0.49873600  0.65445500  1
  F  F45  1  0.84428200  0.50126400  0.34554500  1
  F  F46  1  0.49873600  0.84428200  0.34301800  1
  F  F47  1  0.50126400  0.15571800  0.65698200  1
  F  F48  1  0.06673100  0.14230800  0.20903900  1
  F  F49  1  0.85769200  0.06673100  0.92442300  1
  F  F50  1  0.14230800  0.93326900  0.07557700  1
  F  F51  1  0.93326900  0.85769200  0.79096100  1
  F  F52  1  0.35769200  0.43326900  0.79096100  1
  F  F53  1  0.64230800  0.56673100  0.20903900  1
  F  F54  1  0.43326900  0.64230800  0.07557700  1
  F  F55  1  0.56673100  0.35769200  0.92442300  1
  F  F56  1  0.34778800  0.21850500  0.28810200  1
  F  F57  1  0.78149500  0.06959700  0.12928300  1
  F  F58  1  0.94031400  0.65221200  0.87071700  1
  F  F59  1  0.65221200  0.78149500  0.71189800  1
