# generated using pymatgen
data_Tb3Pt4
_symmetry_space_group_name_H-M   'P 1'
_cell_length_a   7.91518885
_cell_length_b   7.91518885
_cell_length_c   7.91518903
_cell_angle_alpha   114.35782555
_cell_angle_beta   114.35782555
_cell_angle_gamma   114.35782837
_symmetry_Int_Tables_number   1
_chemical_formula_structural   Tb3Pt4
_chemical_formula_sum   'Tb6 Pt8'
_cell_volume   293.11279916
_cell_formula_units_Z   2
loop_
 _symmetry_equiv_pos_site_id
 _symmetry_equiv_pos_as_xyz
  1  'x, y, z'
loop_
 _atom_site_type_symbol
 _atom_site_label
 _atom_site_symmetry_multiplicity
 _atom_site_fract_x
 _atom_site_fract_y
 _atom_site_fract_z
 _atom_site_occupancy
  Tb  Tb0  1  0.02679000  0.28069000  0.40390600  1
  Tb  Tb1  1  0.28069000  0.40390600  0.02679000  1
  Tb  Tb2  1  0.40390600  0.02679000  0.28069000  1
  Tb  Tb3  1  0.97321000  0.71931000  0.59609400  1
  Tb  Tb4  1  0.71931000  0.59609400  0.97321000  1
  Tb  Tb5  1  0.59609400  0.97321000  0.71931000  1
  Pt  Pt6  1  0.00000000  0.00000000  0.00000000  1
  Pt  Pt7  1  0.50000000  0.50000000  0.50000000  1
  Pt  Pt8  1  0.06075100  0.55253300  0.22472300  1
  Pt  Pt9  1  0.55253300  0.22472300  0.06075100  1
  Pt  Pt10  1  0.22472300  0.06075100  0.55253300  1
  Pt  Pt11  1  0.93924900  0.44746700  0.77527700  1
  Pt  Pt12  1  0.44746700  0.77527700  0.93924900  1
  Pt  Pt13  1  0.77527700  0.93924900  0.44746700  1
