# generated using pymatgen
data_KTm2F7
_symmetry_space_group_name_H-M   'P 1'
_cell_length_a   8.16866100
_cell_length_b   8.16866100
_cell_length_c   11.86300203
_cell_angle_alpha   59.80498330
_cell_angle_beta   59.80498330
_cell_angle_gamma   58.16627404
_symmetry_Int_Tables_number   1
_chemical_formula_structural   KTm2F7
_chemical_formula_sum   'K4 Tm8 F28'
_cell_volume   549.98026787
_cell_formula_units_Z   4
loop_
 _symmetry_equiv_pos_site_id
 _symmetry_equiv_pos_as_xyz
  1  'x, y, z'
loop_
 _atom_site_type_symbol
 _atom_site_label
 _atom_site_symmetry_multiplicity
 _atom_site_fract_x
 _atom_site_fract_y
 _atom_site_fract_z
 _atom_site_occupancy
  K  K0  1  0.76158600  0.76158600  0.48076300  1
  K  K1  1  0.26787800  0.26787800  0.15414000  1
  K  K2  1  0.73212200  0.73212200  0.84586000  1
  K  K3  1  0.23841400  0.23841400  0.51923700  1
  Tm  Tm4  1  0.24077600  0.75922400  0.50000000  1
  Tm  Tm5  1  0.75922400  0.24077600  0.50000000  1
  Tm  Tm6  1  0.74174300  0.74174300  0.17938100  1
  Tm  Tm7  1  0.25825700  0.25825700  0.82061900  1
  Tm  Tm8  1  0.26433100  0.73944700  0.81976500  1
  Tm  Tm9  1  0.73944700  0.26433100  0.81976500  1
  Tm  Tm10  1  0.26055300  0.73566900  0.18023500  1
  Tm  Tm11  1  0.73566900  0.26055300  0.18023500  1
  F  F12  1  0.37899800  0.85687600  0.26314700  1
  F  F13  1  0.85687600  0.37899800  0.26314700  1
  F  F14  1  0.36640900  0.83140200  0.58620500  1
  F  F15  1  0.83140200  0.36640900  0.58620500  1
  F  F16  1  0.99483000  0.99483000  0.22977400  1
  F  F17  1  0.60344400  0.60344400  0.75301400  1
  F  F18  1  0.89480100  0.89480100  0.57589100  1
  F  F19  1  0.00423500  0.67297500  0.00095100  1
  F  F20  1  0.67297500  0.00423500  0.00095100  1
  F  F21  1  0.39655600  0.39655600  0.24698600  1
  F  F22  1  0.99576500  0.32702500  0.99904900  1
  F  F23  1  0.32702500  0.99576500  0.99904900  1
  F  F24  1  0.14312400  0.62100200  0.73685300  1
  F  F25  1  0.62100200  0.14312400  0.73685300  1
  F  F26  1  0.31999600  0.68000400  0.00000000  1
  F  F27  1  0.68000400  0.31999600  0.00000000  1
  F  F28  1  0.00517000  0.00517000  0.77022600  1
  F  F29  1  0.60378600  0.60378600  0.41248600  1
  F  F30  1  0.99980500  0.65521800  0.23870700  1
  F  F31  1  0.65521800  0.99980500  0.23870700  1
  F  F32  1  0.00019500  0.34478200  0.76129300  1
  F  F33  1  0.34478200  0.00019500  0.76129300  1
  F  F34  1  0.38737400  0.38737400  0.88280900  1
  F  F35  1  0.10519900  0.10519900  0.42410900  1
  F  F36  1  0.39621400  0.39621400  0.58751400  1
  F  F37  1  0.16859800  0.63359100  0.41379500  1
  F  F38  1  0.63359100  0.16859800  0.41379500  1
  F  F39  1  0.61262600  0.61262600  0.11719100  1
