# generated using pymatgen
data_Tb2Ga3Cu
_symmetry_space_group_name_H-M   'P 1'
_cell_length_a   4.38391002
_cell_length_b   4.38397083
_cell_length_c   7.23250000
_cell_angle_alpha   89.99951591
_cell_angle_beta   90.00053400
_cell_angle_gamma   120.01420680
_symmetry_Int_Tables_number   1
_chemical_formula_structural   Tb2Ga3Cu
_chemical_formula_sum   'Tb2 Ga3 Cu1'
_cell_volume   120.36110623
_cell_formula_units_Z   1
loop_
 _symmetry_equiv_pos_site_id
 _symmetry_equiv_pos_as_xyz
  1  'x, y, z'
loop_
 _atom_site_type_symbol
 _atom_site_label
 _atom_site_symmetry_multiplicity
 _atom_site_fract_x
 _atom_site_fract_y
 _atom_site_fract_z
 _atom_site_occupancy
  Tb  Tb0  1  0.99999400  0.00000500  0.73160800  1
  Tb  Tb1  1  0.99999200  0.00000600  0.26043900  1
  Ga  Ga2  1  0.33337400  0.66663000  0.47555400  1
  Ga  Ga3  1  0.33334200  0.66666300  0.04586200  1
  Ga  Ga4  1  0.66665500  0.33334300  0.95067800  1
  Cu  Cu5  1  0.66664400  0.33335300  0.53585800  1
