# generated using pymatgen
data_Li2Eu5O8
_symmetry_space_group_name_H-M   'P 1'
_cell_length_a   7.00946584
_cell_length_b   7.00946584
_cell_length_c   9.78461935
_cell_angle_alpha   61.31108619
_cell_angle_beta   61.31108619
_cell_angle_gamma   29.12801274
_symmetry_Int_Tables_number   1
_chemical_formula_structural   Li2Eu5O8
_chemical_formula_sum   'Li2 Eu5 O8'
_cell_volume   203.19567876
_cell_formula_units_Z   1
loop_
 _symmetry_equiv_pos_site_id
 _symmetry_equiv_pos_as_xyz
  1  'x, y, z'
loop_
 _atom_site_type_symbol
 _atom_site_label
 _atom_site_symmetry_multiplicity
 _atom_site_fract_x
 _atom_site_fract_y
 _atom_site_fract_z
 _atom_site_occupancy
  Li  Li0  1  0.19136700  0.19136700  0.73625200  1
  Li  Li1  1  0.80863300  0.80863300  0.26374800  1
  Eu  Eu2  1  0.50000000  0.50000000  0.00000000  1
  Eu  Eu3  1  0.60928900  0.60928900  0.56630000  1
  Eu  Eu4  1  0.39071100  0.39071100  0.43370000  1
  Eu  Eu5  1  0.16718300  0.16718300  0.18576000  1
  Eu  Eu6  1  0.83281700  0.83281700  0.81424000  1
  O  O7  1  0.04039100  0.04039100  0.77373900  1
  O  O8  1  0.95960900  0.95960900  0.22626100  1
  O  O9  1  0.23571800  0.23571800  0.38190000  1
  O  O10  1  0.76428200  0.76428200  0.61810000  1
  O  O11  1  0.82233700  0.82233700  0.06311000  1
  O  O12  1  0.17766300  0.17766300  0.93689000  1
  O  O13  1  0.58214500  0.58214500  0.34311600  1
  O  O14  1  0.41785500  0.41785500  0.65688400  1
