# generated using pymatgen
data_Sc2(MoO4)3
_symmetry_space_group_name_H-M   'P 1'
_cell_length_a   9.72376100
_cell_length_b   9.82123500
_cell_length_c   13.59425000
_cell_angle_alpha   90.00000000
_cell_angle_beta   90.00000000
_cell_angle_gamma   90.00000000
_symmetry_Int_Tables_number   1
_chemical_formula_structural   Sc2(MoO4)3
_chemical_formula_sum   'Sc8 Mo12 O48'
_cell_volume   1298.24192815
_cell_formula_units_Z   4
loop_
 _symmetry_equiv_pos_site_id
 _symmetry_equiv_pos_as_xyz
  1  'x, y, z'
loop_
 _atom_site_type_symbol
 _atom_site_label
 _atom_site_symmetry_multiplicity
 _atom_site_fract_x
 _atom_site_fract_y
 _atom_site_fract_z
 _atom_site_occupancy
  Sc  Sc0  1  0.25051800  0.46690900  0.11789300  1
  Sc  Sc1  1  0.25051800  0.03309100  0.88210700  1
  Sc  Sc2  1  0.24948200  0.96690900  0.38210700  1
  Sc  Sc3  1  0.24948200  0.53309100  0.61789300  1
  Sc  Sc4  1  0.74948200  0.53309100  0.88210700  1
  Sc  Sc5  1  0.74948200  0.96690900  0.11789300  1
  Sc  Sc6  1  0.75051800  0.03309100  0.61789300  1
  Sc  Sc7  1  0.75051800  0.46690900  0.38210700  1
  Mo  Mo8  1  0.39264500  0.88517800  0.64420800  1
  Mo  Mo9  1  0.39264500  0.61482200  0.35579200  1
  Mo  Mo10  1  0.10735500  0.38517800  0.85579200  1
  Mo  Mo11  1  0.10735500  0.11482200  0.14420800  1
  Mo  Mo12  1  0.89264500  0.88517800  0.85579200  1
  Mo  Mo13  1  0.89264500  0.61482200  0.14420800  1
  Mo  Mo14  1  0.60735500  0.38517800  0.64420800  1
  Mo  Mo15  1  0.60735500  0.11482200  0.35579200  1
  Mo  Mo16  1  0.02689300  0.25000000  0.50000000  1
  Mo  Mo17  1  0.47310700  0.75000000  0.00000000  1
  Mo  Mo18  1  0.97310700  0.75000000  0.50000000  1
  Mo  Mo19  1  0.52689300  0.25000000  0.00000000  1
  O  O20  1  0.13316100  0.13079800  0.43555700  1
  O  O21  1  0.13316100  0.36920200  0.56444300  1
  O  O22  1  0.36683900  0.63079800  0.06444300  1
  O  O23  1  0.36683900  0.86920200  0.93555700  1
  O  O24  1  0.86683900  0.86920200  0.56444300  1
  O  O25  1  0.86683900  0.63079800  0.43555700  1
  O  O26  1  0.63316100  0.36920200  0.93555700  1
  O  O27  1  0.63316100  0.13079800  0.06444300  1
  O  O28  1  0.91973800  0.33732400  0.41319400  1
  O  O29  1  0.91973800  0.16267600  0.58680600  1
  O  O30  1  0.58026200  0.83732400  0.08680600  1
  O  O31  1  0.58026200  0.66267600  0.91319400  1
  O  O32  1  0.08026200  0.66267600  0.58680600  1
  O  O33  1  0.08026200  0.83732400  0.41319400  1
  O  O34  1  0.41973800  0.16267600  0.91319400  1
  O  O35  1  0.41973800  0.33732400  0.08680600  1
  O  O36  1  0.18083400  0.06643700  0.02887000  1
  O  O37  1  0.18083400  0.43356300  0.97113000  1
  O  O38  1  0.31916600  0.56643700  0.47113000  1
  O  O39  1  0.31916600  0.93356300  0.52887000  1
  O  O40  1  0.81916600  0.93356300  0.97113000  1
  O  O41  1  0.81916600  0.56643700  0.02887000  1
  O  O42  1  0.68083400  0.43356300  0.52887000  1
  O  O43  1  0.68083400  0.06643700  0.47113000  1
  O  O44  1  0.92513400  0.08762100  0.14062400  1
  O  O45  1  0.92513400  0.41237900  0.85937600  1
  O  O46  1  0.57486600  0.58762100  0.35937600  1
  O  O47  1  0.57486600  0.91237900  0.64062400  1
  O  O48  1  0.07486600  0.91237900  0.85937600  1
  O  O49  1  0.07486600  0.58762100  0.14062400  1
  O  O50  1  0.42513400  0.41237900  0.64062400  1
  O  O51  1  0.42513400  0.08762100  0.35937600  1
  O  O52  1  0.18203700  0.01379700  0.24045100  1
  O  O53  1  0.18203700  0.48620300  0.75954900  1
  O  O54  1  0.31796300  0.51379700  0.25954900  1
  O  O55  1  0.31796300  0.98620300  0.74045100  1
  O  O56  1  0.81796300  0.98620300  0.75954900  1
  O  O57  1  0.81796300  0.51379700  0.24045100  1
  O  O58  1  0.68203700  0.48620300  0.74045100  1
  O  O59  1  0.68203700  0.01379700  0.25954900  1
  O  O60  1  0.14096900  0.29221300  0.16443500  1
  O  O61  1  0.14096900  0.20778700  0.83556500  1
  O  O62  1  0.35903100  0.79221300  0.33556500  1
  O  O63  1  0.35903100  0.70778700  0.66443500  1
  O  O64  1  0.85903100  0.70778700  0.83556500  1
  O  O65  1  0.85903100  0.79221300  0.16443500  1
  O  O66  1  0.64096900  0.20778700  0.66443500  1
  O  O67  1  0.64096900  0.29221300  0.33556500  1
