# generated using pymatgen
data_Mn2AsO5
_symmetry_space_group_name_H-M   'P 1'
_cell_length_a   6.14899800
_cell_length_b   8.77037000
_cell_length_c   8.62459100
_cell_angle_alpha   90.00000000
_cell_angle_beta   90.00000000
_cell_angle_gamma   90.00000000
_symmetry_Int_Tables_number   1
_chemical_formula_structural   Mn2AsO5
_chemical_formula_sum   'Mn8 As4 O20'
_cell_volume   465.11546100
_cell_formula_units_Z   4
loop_
 _symmetry_equiv_pos_site_id
 _symmetry_equiv_pos_as_xyz
  1  'x, y, z'
loop_
 _atom_site_type_symbol
 _atom_site_label
 _atom_site_symmetry_multiplicity
 _atom_site_fract_x
 _atom_site_fract_y
 _atom_site_fract_z
 _atom_site_occupancy
  Mn  Mn0  1  0.74033400  0.50000000  0.50000000  1
  Mn  Mn1  1  0.75966600  0.00000000  0.00000000  1
  Mn  Mn2  1  0.25966600  0.50000000  0.50000000  1
  Mn  Mn3  1  0.24033400  0.00000000  0.00000000  1
  Mn  Mn4  1  0.00000000  0.86977100  0.35134000  1
  Mn  Mn5  1  0.00000000  0.13022900  0.64866000  1
  Mn  Mn6  1  0.50000000  0.36977100  0.14866000  1
  Mn  Mn7  1  0.50000000  0.63022900  0.85134000  1
  As  As8  1  0.50000000  0.74314400  0.23772800  1
  As  As9  1  0.50000000  0.25685600  0.76227200  1
  As  As10  1  0.00000000  0.24314400  0.26227200  1
  As  As11  1  0.00000000  0.75685600  0.73772800  1
  O  O12  1  0.00000000  0.92819900  0.12632500  1
  O  O13  1  0.00000000  0.07180100  0.87367500  1
  O  O14  1  0.50000000  0.42819900  0.37367500  1
  O  O15  1  0.50000000  0.57180100  0.62632500  1
  O  O16  1  0.50000000  0.91717100  0.13333300  1
  O  O17  1  0.50000000  0.08282900  0.86666700  1
  O  O18  1  0.00000000  0.41717100  0.36666700  1
  O  O19  1  0.00000000  0.58282900  0.63333300  1
  O  O20  1  0.50000000  0.60681600  0.09574100  1
  O  O21  1  0.50000000  0.39318400  0.90425900  1
  O  O22  1  0.00000000  0.10681600  0.40425900  1
  O  O23  1  0.00000000  0.89318400  0.59574100  1
  O  O24  1  0.72774200  0.72886600  0.35193600  1
  O  O25  1  0.72774200  0.27113400  0.64806400  1
  O  O26  1  0.77225800  0.22886600  0.14806400  1
  O  O27  1  0.77225800  0.77113400  0.85193600  1
  O  O28  1  0.27225800  0.27113400  0.64806400  1
  O  O29  1  0.27225800  0.72886600  0.35193600  1
  O  O30  1  0.22774200  0.77113400  0.85193600  1
  O  O31  1  0.22774200  0.22886600  0.14806400  1
