# generated using pymatgen
data_NdPt
_symmetry_space_group_name_H-M   'P 1'
_cell_length_a   4.66106000
_cell_length_b   5.71214000
_cell_length_c   7.33255200
_cell_angle_alpha   90.00000000
_cell_angle_beta   90.00000000
_cell_angle_gamma   90.00000000
_symmetry_Int_Tables_number   1
_chemical_formula_structural   NdPt
_chemical_formula_sum   'Nd4 Pt4'
_cell_volume   195.22646393
_cell_formula_units_Z   4
loop_
 _symmetry_equiv_pos_site_id
 _symmetry_equiv_pos_as_xyz
  1  'x, y, z'
loop_
 _atom_site_type_symbol
 _atom_site_label
 _atom_site_symmetry_multiplicity
 _atom_site_fract_x
 _atom_site_fract_y
 _atom_site_fract_z
 _atom_site_occupancy
  Nd  Nd0  1  0.25000000  0.36320600  0.68084000  1
  Nd  Nd1  1  0.25000000  0.13679400  0.18084000  1
  Nd  Nd2  1  0.75000000  0.63679400  0.31916000  1
  Nd  Nd3  1  0.75000000  0.86320600  0.81916000  1
  Pt  Pt4  1  0.25000000  0.84963300  0.54510100  1
  Pt  Pt5  1  0.25000000  0.65036700  0.04510100  1
  Pt  Pt6  1  0.75000000  0.15036700  0.45489900  1
  Pt  Pt7  1  0.75000000  0.34963300  0.95489900  1
