# generated using pymatgen
data_K3Cd16
_symmetry_space_group_name_H-M   'P 1'
_cell_length_a   9.49295700
_cell_length_b   9.49295700
_cell_length_c   11.57259000
_cell_angle_alpha   90.00000000
_cell_angle_beta   90.00000000
_cell_angle_gamma   90.00000000
_symmetry_Int_Tables_number   1
_chemical_formula_structural   K3Cd16
_chemical_formula_sum   'K6 Cd32'
_cell_volume   1042.87821227
_cell_formula_units_Z   2
loop_
 _symmetry_equiv_pos_site_id
 _symmetry_equiv_pos_as_xyz
  1  'x, y, z'
loop_
 _atom_site_type_symbol
 _atom_site_label
 _atom_site_symmetry_multiplicity
 _atom_site_fract_x
 _atom_site_fract_y
 _atom_site_fract_z
 _atom_site_occupancy
  K  K0  1  0.50000000  0.50000000  0.50000000  1
  K  K1  1  0.00000000  0.00000000  0.00000000  1
  K  K2  1  0.50000000  0.50000000  0.16216700  1
  K  K3  1  0.50000000  0.50000000  0.83783300  1
  K  K4  1  0.00000000  0.00000000  0.33783300  1
  K  K5  1  0.00000000  0.00000000  0.66216700  1
  Cd  Cd6  1  0.15525800  0.35982500  0.68737100  1
  Cd  Cd7  1  0.84474200  0.64017500  0.68737100  1
  Cd  Cd8  1  0.84474200  0.35982500  0.31262900  1
  Cd  Cd9  1  0.15525800  0.64017500  0.31262900  1
  Cd  Cd10  1  0.34474200  0.14017500  0.81262900  1
  Cd  Cd11  1  0.65525800  0.85982500  0.81262900  1
  Cd  Cd12  1  0.65525800  0.14017500  0.18737100  1
  Cd  Cd13  1  0.34474200  0.85982500  0.18737100  1
  Cd  Cd14  1  0.35982500  0.15525800  0.31262900  1
  Cd  Cd15  1  0.64017500  0.84474200  0.31262900  1
  Cd  Cd16  1  0.35982500  0.84474200  0.68737100  1
  Cd  Cd17  1  0.64017500  0.15525800  0.68737100  1
  Cd  Cd18  1  0.14017500  0.34474200  0.18737100  1
  Cd  Cd19  1  0.85982500  0.65525800  0.18737100  1
  Cd  Cd20  1  0.14017500  0.65525800  0.81262900  1
  Cd  Cd21  1  0.85982500  0.34474200  0.81262900  1
  Cd  Cd22  1  0.64873000  0.85502500  0.56259400  1
  Cd  Cd23  1  0.35127000  0.14497500  0.56259400  1
  Cd  Cd24  1  0.35127000  0.85502500  0.43740600  1
  Cd  Cd25  1  0.64873000  0.14497500  0.43740600  1
  Cd  Cd26  1  0.85127000  0.64497500  0.93740600  1
  Cd  Cd27  1  0.14873000  0.35502500  0.93740600  1
  Cd  Cd28  1  0.14873000  0.64497500  0.06259400  1
  Cd  Cd29  1  0.85127000  0.35502500  0.06259400  1
  Cd  Cd30  1  0.85502500  0.64873000  0.43740600  1
  Cd  Cd31  1  0.14497500  0.35127000  0.43740600  1
  Cd  Cd32  1  0.85502500  0.35127000  0.56259400  1
  Cd  Cd33  1  0.14497500  0.64873000  0.56259400  1
  Cd  Cd34  1  0.64497500  0.85127000  0.06259400  1
  Cd  Cd35  1  0.35502500  0.14873000  0.06259400  1
  Cd  Cd36  1  0.64497500  0.14873000  0.93740600  1
  Cd  Cd37  1  0.35502500  0.85127000  0.93740600  1
