# generated using pymatgen
data_K3SbSe3
_symmetry_space_group_name_H-M   'P 1'
_cell_length_a   9.98064000
_cell_length_b   9.98064000
_cell_length_c   9.98064000
_cell_angle_alpha   90.00000000
_cell_angle_beta   90.00000000
_cell_angle_gamma   90.00000000
_symmetry_Int_Tables_number   1
_chemical_formula_structural   K3SbSe3
_chemical_formula_sum   'K12 Sb4 Se12'
_cell_volume   994.20323703
_cell_formula_units_Z   4
loop_
 _symmetry_equiv_pos_site_id
 _symmetry_equiv_pos_as_xyz
  1  'x, y, z'
loop_
 _atom_site_type_symbol
 _atom_site_label
 _atom_site_symmetry_multiplicity
 _atom_site_fract_x
 _atom_site_fract_y
 _atom_site_fract_z
 _atom_site_occupancy
  K  K0  1  0.81737600  0.18262400  0.68262400  1
  K  K1  1  0.18785900  0.31214100  0.68785900  1
  K  K2  1  0.31214100  0.68785900  0.18785900  1
  K  K3  1  0.68785900  0.18785900  0.31214100  1
  K  K4  1  0.81214100  0.81214100  0.81214100  1
  K  K5  1  0.42165500  0.07834500  0.92165500  1
  K  K6  1  0.07834500  0.92165500  0.42165500  1
  K  K7  1  0.92165500  0.42165500  0.07834500  1
  K  K8  1  0.57834500  0.57834500  0.57834500  1
  K  K9  1  0.68262400  0.81737600  0.18262400  1
  K  K10  1  0.18262400  0.68262400  0.81737600  1
  K  K11  1  0.31737600  0.31737600  0.31737600  1
  Sb  Sb12  1  0.02770900  0.02770900  0.02770900  1
  Sb  Sb13  1  0.47229100  0.97229100  0.52770900  1
  Sb  Sb14  1  0.52770900  0.47229100  0.97229100  1
  Sb  Sb15  1  0.97229100  0.52770900  0.47229100  1
  Se  Se16  1  0.22084000  0.60239200  0.49737500  1
  Se  Se17  1  0.77916000  0.10239200  0.00262500  1
  Se  Se18  1  0.99737500  0.27916000  0.39760800  1
  Se  Se19  1  0.72084000  0.89760800  0.50262500  1
  Se  Se20  1  0.10239200  0.00262500  0.77916000  1
  Se  Se21  1  0.50262500  0.72084000  0.89760800  1
  Se  Se22  1  0.00262500  0.77916000  0.10239200  1
  Se  Se23  1  0.39760800  0.99737500  0.27916000  1
  Se  Se24  1  0.49737500  0.22084000  0.60239200  1
  Se  Se25  1  0.89760800  0.50262500  0.72084000  1
  Se  Se26  1  0.60239200  0.49737500  0.22084000  1
  Se  Se27  1  0.27916000  0.39760800  0.99737500  1
