# generated using pymatgen
data_Ba(YSe2)2
_symmetry_space_group_name_H-M   'P 1'
_cell_length_a   4.21040800
_cell_length_b   12.90460300
_cell_length_c   15.20759500
_cell_angle_alpha   90.00000000
_cell_angle_beta   90.00000000
_cell_angle_gamma   90.00000000
_symmetry_Int_Tables_number   1
_chemical_formula_structural   Ba(YSe2)2
_chemical_formula_sum   'Ba4 Y8 Se16'
_cell_volume   826.28404839
_cell_formula_units_Z   4
loop_
 _symmetry_equiv_pos_site_id
 _symmetry_equiv_pos_as_xyz
  1  'x, y, z'
loop_
 _atom_site_type_symbol
 _atom_site_label
 _atom_site_symmetry_multiplicity
 _atom_site_fract_x
 _atom_site_fract_y
 _atom_site_fract_z
 _atom_site_occupancy
  Ba  Ba0  1  0.25000000  0.24094700  0.33553300  1
  Ba  Ba1  1  0.25000000  0.74094700  0.16446700  1
  Ba  Ba2  1  0.75000000  0.75905300  0.66446700  1
  Ba  Ba3  1  0.75000000  0.25905300  0.83553300  1
  Y  Y4  1  0.25000000  0.07903900  0.59956900  1
  Y  Y5  1  0.25000000  0.57903900  0.90043100  1
  Y  Y6  1  0.75000000  0.92096100  0.40043100  1
  Y  Y7  1  0.75000000  0.42096100  0.09956900  1
  Y  Y8  1  0.25000000  0.56434400  0.39138700  1
  Y  Y9  1  0.25000000  0.06434400  0.10861300  1
  Y  Y10  1  0.75000000  0.43565600  0.60861300  1
  Y  Y11  1  0.75000000  0.93565600  0.89138700  1
  Se  Se12  1  0.25000000  0.08484400  0.92306400  1
  Se  Se13  1  0.25000000  0.58484400  0.57693600  1
  Se  Se14  1  0.75000000  0.91515600  0.07693600  1
  Se  Se15  1  0.75000000  0.41515600  0.42306400  1
  Se  Se16  1  0.25000000  0.29376700  0.66373100  1
  Se  Se17  1  0.25000000  0.79376700  0.83626900  1
  Se  Se18  1  0.75000000  0.70623300  0.33626900  1
  Se  Se19  1  0.75000000  0.20623300  0.16373100  1
  Se  Se20  1  0.25000000  0.37404200  0.97523800  1
  Se  Se21  1  0.25000000  0.87404200  0.52476200  1
  Se  Se22  1  0.75000000  0.62595800  0.02476200  1
  Se  Se23  1  0.75000000  0.12595800  0.47523800  1
  Se  Se24  1  0.25000000  0.47576700  0.21659200  1
  Se  Se25  1  0.25000000  0.97576700  0.28340800  1
  Se  Se26  1  0.75000000  0.52423300  0.78340800  1
  Se  Se27  1  0.75000000  0.02423300  0.71659200  1
