# generated using pymatgen
data_BaCr(Si2O5)2
_symmetry_space_group_name_H-M   'P 1'
_cell_length_a   7.64082800
_cell_length_b   7.64082800
_cell_length_c   16.43155800
_cell_angle_alpha   90.00000000
_cell_angle_beta   90.00000000
_cell_angle_gamma   90.00000000
_symmetry_Int_Tables_number   1
_chemical_formula_structural   BaCr(Si2O5)2
_chemical_formula_sum   'Ba4 Cr4 Si16 O40'
_cell_volume   959.31136854
_cell_formula_units_Z   4
loop_
 _symmetry_equiv_pos_site_id
 _symmetry_equiv_pos_as_xyz
  1  'x, y, z'
loop_
 _atom_site_type_symbol
 _atom_site_label
 _atom_site_symmetry_multiplicity
 _atom_site_fract_x
 _atom_site_fract_y
 _atom_site_fract_z
 _atom_site_occupancy
  Ba  Ba0  1  0.50000000  0.50000000  0.50000000  1
  Ba  Ba1  1  0.00000000  0.00000000  0.50000000  1
  Ba  Ba2  1  0.00000000  0.00000000  0.00000000  1
  Ba  Ba3  1  0.50000000  0.50000000  0.00000000  1
  Cr  Cr4  1  0.50000000  0.00000000  0.59433100  1
  Cr  Cr5  1  0.00000000  0.50000000  0.90566900  1
  Cr  Cr6  1  0.00000000  0.50000000  0.40566900  1
  Cr  Cr7  1  0.50000000  0.00000000  0.09433100  1
  Si  Si8  1  0.18218100  0.26718400  0.65513000  1
  Si  Si9  1  0.81781900  0.73281600  0.65513000  1
  Si  Si10  1  0.26718400  0.18218100  0.84487000  1
  Si  Si11  1  0.76718400  0.31781900  0.65513000  1
  Si  Si12  1  0.23281600  0.68218100  0.65513000  1
  Si  Si13  1  0.31781900  0.76718400  0.84487000  1
  Si  Si14  1  0.68218100  0.23281600  0.84487000  1
  Si  Si15  1  0.73281600  0.81781900  0.84487000  1
  Si  Si16  1  0.31781900  0.23281600  0.34487000  1
  Si  Si17  1  0.68218100  0.76718400  0.34487000  1
  Si  Si18  1  0.23281600  0.31781900  0.15513000  1
  Si  Si19  1  0.73281600  0.18218100  0.34487000  1
  Si  Si20  1  0.26718400  0.81781900  0.34487000  1
  Si  Si21  1  0.18218100  0.73281600  0.15513000  1
  Si  Si22  1  0.81781900  0.26718400  0.15513000  1
  Si  Si23  1  0.76718400  0.68218100  0.15513000  1
  O  O24  1  0.27087400  0.13602200  0.59118900  1
  O  O25  1  0.72912600  0.86397800  0.59118900  1
  O  O26  1  0.13602200  0.27087400  0.90881100  1
  O  O27  1  0.63602200  0.22912600  0.59118900  1
  O  O28  1  0.36397800  0.77087400  0.59118900  1
  O  O29  1  0.22912600  0.63602200  0.90881100  1
  O  O30  1  0.77087400  0.36397800  0.90881100  1
  O  O31  1  0.86397800  0.72912600  0.90881100  1
  O  O32  1  0.22912600  0.36397800  0.40881100  1
  O  O33  1  0.77087400  0.63602200  0.40881100  1
  O  O34  1  0.36397800  0.22912600  0.09118900  1
  O  O35  1  0.86397800  0.27087400  0.40881100  1
  O  O36  1  0.13602200  0.72912600  0.40881100  1
  O  O37  1  0.27087400  0.86397800  0.09118900  1
  O  O38  1  0.72912600  0.13602200  0.09118900  1
  O  O39  1  0.25434100  0.03029600  0.36225000  1
  O  O40  1  0.63602200  0.77087400  0.09118900  1
  O  O41  1  0.75434100  0.53029600  0.63775000  1
  O  O42  1  0.46970400  0.24565900  0.86225000  1
  O  O43  1  0.96970400  0.25434100  0.63775000  1
  O  O44  1  0.03029600  0.74565900  0.63775000  1
  O  O45  1  0.25434100  0.96970400  0.86225000  1
  O  O46  1  0.74565900  0.03029600  0.86225000  1
  O  O47  1  0.53029600  0.75434100  0.86225000  1
  O  O48  1  0.72084700  0.72084700  0.25000000  1
  O  O49  1  0.77915300  0.22084700  0.25000000  1
  O  O50  1  0.22084700  0.77915300  0.25000000  1
  O  O51  1  0.27915300  0.27915300  0.25000000  1
  O  O52  1  0.77915300  0.77915300  0.75000000  1
  O  O53  1  0.72084700  0.27915300  0.75000000  1
  O  O54  1  0.27915300  0.72084700  0.75000000  1
  O  O55  1  0.22084700  0.22084700  0.75000000  1
  O  O56  1  0.96970400  0.74565900  0.13775000  1
  O  O57  1  0.75434100  0.46970400  0.13775000  1
  O  O58  1  0.24565900  0.53029600  0.13775000  1
  O  O59  1  0.46970400  0.75434100  0.36225000  1
  O  O60  1  0.53029600  0.24565900  0.36225000  1
  O  O61  1  0.03029600  0.25434100  0.13775000  1
  O  O62  1  0.74565900  0.96970400  0.36225000  1
  O  O63  1  0.24565900  0.46970400  0.63775000  1
