# generated using pymatgen
data_Zr4Ni(PO4)6
_symmetry_space_group_name_H-M   'P 1'
_cell_length_a   9.11851900
_cell_length_b   8.97233500
_cell_length_c   15.40829721
_cell_angle_alpha   54.97679650
_cell_angle_beta   90.00000000
_cell_angle_gamma   90.00000000
_symmetry_Int_Tables_number   1
_chemical_formula_structural   Zr4Ni(PO4)6
_chemical_formula_sum   'Zr8 Ni2 P12 O48'
_cell_volume   1032.34711637
_cell_formula_units_Z   2
loop_
 _symmetry_equiv_pos_site_id
 _symmetry_equiv_pos_as_xyz
  1  'x, y, z'
loop_
 _atom_site_type_symbol
 _atom_site_label
 _atom_site_symmetry_multiplicity
 _atom_site_fract_x
 _atom_site_fract_y
 _atom_site_fract_z
 _atom_site_occupancy
  Zr  Zr0  1  0.72134300  0.64630100  0.10493400  1
  Zr  Zr1  1  0.27865700  0.64630100  0.60493400  1
  Zr  Zr2  1  0.80607000  0.36057100  0.88501000  1
  Zr  Zr3  1  0.19393000  0.36057100  0.38501000  1
  Zr  Zr4  1  0.72239100  0.87251200  0.38146100  1
  Zr  Zr5  1  0.27760900  0.87251200  0.88146100  1
  Zr  Zr6  1  0.77776100  0.12960400  0.62301300  1
  Zr  Zr7  1  0.22223900  0.12960400  0.12301300  1
  Ni  Ni8  1  0.53126600  0.45715600  0.32432600  1
  Ni  Ni9  1  0.46873400  0.45715600  0.82432600  1
  P  P10  1  0.37444000  0.74494600  0.35246100  1
  P  P11  1  0.62556000  0.74494600  0.85246100  1
  P  P12  1  0.13432700  0.25004700  0.64562400  1
  P  P13  1  0.86567300  0.25004700  0.14562400  1
  P  P14  1  0.50000200  0.04154500  0.99423400  1
  P  P15  1  0.49999800  0.04154500  0.49423400  1
  P  P16  1  0.00173400  0.95976100  0.00735900  1
  P  P17  1  0.99826600  0.95976100  0.50735900  1
  P  P18  1  0.35329600  0.46989800  0.14682600  1
  P  P19  1  0.64670400  0.46989800  0.64682600  1
  P  P20  1  0.15367700  0.53029900  0.85836000  1
  P  P21  1  0.84632300  0.53029900  0.35836000  1
  O  O22  1  0.53579000  0.80090100  0.33153700  1
  O  O23  1  0.46421000  0.80090100  0.83153700  1
  O  O24  1  0.96932600  0.20382200  0.66442800  1
  O  O25  1  0.03067400  0.20382200  0.16442800  1
  O  O26  1  0.61355700  0.88945700  0.05718600  1
  O  O27  1  0.38644300  0.88945700  0.55718600  1
  O  O28  1  0.89262300  0.11755800  0.93633600  1
  O  O29  1  0.10737700  0.11755800  0.43633600  1
  O  O30  1  0.27089000  0.89820300  0.27367800  1
  O  O31  1  0.72911000  0.89820300  0.77367800  1
  O  O32  1  0.22873100  0.08514100  0.72632000  1
  O  O33  1  0.77126900  0.08514100  0.22632000  1
  O  O34  1  0.31563700  0.64414700  0.03970200  1
  O  O35  1  0.68436300  0.64414700  0.53970200  1
  O  O36  1  0.20634700  0.35849100  0.96243500  1
  O  O37  1  0.79365300  0.35849100  0.46243500  1
  O  O38  1  0.58185000  0.23198000  0.92604300  1
  O  O39  1  0.41815000  0.23198000  0.42604300  1
  O  O40  1  0.91329000  0.78045700  0.07145600  1
  O  O41  1  0.08671000  0.78045700  0.57145600  1
  O  O42  1  0.24622200  0.43429200  0.23445000  1
  O  O43  1  0.75377800  0.43429200  0.73445000  1
  O  O44  1  0.26921300  0.55993600  0.77211700  1
  O  O45  1  0.73078700  0.55993600  0.27211700  1
  O  O46  1  0.32947600  0.67895100  0.46604400  1
  O  O47  1  0.67052400  0.67895100  0.96604400  1
  O  O48  1  0.17383300  0.31155400  0.53150600  1
  O  O49  1  0.82616700  0.31155400  0.03150600  1
  O  O50  1  0.51016300  0.49744700  0.18184900  1
  O  O51  1  0.48983700  0.49744700  0.68184900  1
  O  O52  1  0.99952600  0.50415300  0.82786100  1
  O  O53  1  0.00047400  0.50415300  0.32786100  1
  O  O54  1  0.35584700  0.30294800  0.14233800  1
  O  O55  1  0.64415300  0.30294800  0.64233800  1
  O  O56  1  0.15355800  0.69762200  0.86087000  1
  O  O57  1  0.84644200  0.69762200  0.36087000  1
  O  O58  1  0.41726400  0.01972000  0.91524600  1
  O  O59  1  0.58273600  0.01972000  0.41524600  1
  O  O60  1  0.08227800  0.99059200  0.08270100  1
  O  O61  1  0.91772200  0.99059200  0.58270100  1
  O  O62  1  0.35934200  0.57883600  0.34346800  1
  O  O63  1  0.64065800  0.57883600  0.84346800  1
  O  O64  1  0.16996300  0.40903700  0.65475400  1
  O  O65  1  0.83003700  0.40903700  0.15475400  1
  O  O66  1  0.39564600  0.04941600  0.06920800  1
  O  O67  1  0.60435400  0.04941600  0.56920800  1
  O  O68  1  0.10548600  0.94899900  0.93316000  1
  O  O69  1  0.89451400  0.94899900  0.43316000  1
