# generated using pymatgen
data_Th2Si3Au
_symmetry_space_group_name_H-M   'P 1'
_cell_length_a   4.24699900
_cell_length_b   4.25468600
_cell_length_c   7.72034437
_cell_angle_alpha   74.00519048
_cell_angle_beta   74.03486503
_cell_angle_gamma   90.00000000
_symmetry_Int_Tables_number   1
_chemical_formula_structural   Th2Si3Au
_chemical_formula_sum   'Th2 Si3 Au1'
_cell_volume   128.49651369
_cell_formula_units_Z   1
loop_
 _symmetry_equiv_pos_site_id
 _symmetry_equiv_pos_as_xyz
  1  'x, y, z'
loop_
 _atom_site_type_symbol
 _atom_site_label
 _atom_site_symmetry_multiplicity
 _atom_site_fract_x
 _atom_site_fract_y
 _atom_site_fract_z
 _atom_site_occupancy
  Th  Th0  1  0.74111500  0.24111500  0.51777100  1
  Th  Th1  1  0.00706500  0.00706500  0.98587000  1
  Si  Si2  1  0.41960100  0.41960100  0.16079800  1
  Si  Si3  1  0.16235000  0.66235000  0.67530100  1
  Si  Si4  1  0.58557600  0.58557600  0.82884900  1
  Au  Au5  1  0.33429400  0.83429400  0.33141100  1
