# generated using pymatgen
data_Mg3B7BrO13
_symmetry_space_group_name_H-M   'P 1'
_cell_length_a   8.62188450
_cell_length_b   8.62188450
_cell_length_c   8.62188450
_cell_angle_alpha   60.00000000
_cell_angle_beta   60.00000000
_cell_angle_gamma   60.00000000
_symmetry_Int_Tables_number   1
_chemical_formula_structural   Mg3B7BrO13
_chemical_formula_sum   'Mg6 B14 Br2 O26'
_cell_volume   453.20177794
_cell_formula_units_Z   2
loop_
 _symmetry_equiv_pos_site_id
 _symmetry_equiv_pos_as_xyz
  1  'x, y, z'
loop_
 _atom_site_type_symbol
 _atom_site_label
 _atom_site_symmetry_multiplicity
 _atom_site_fract_x
 _atom_site_fract_y
 _atom_site_fract_z
 _atom_site_occupancy
  Mg  Mg0  1  0.50000000  0.00000000  0.00000000  1
  Mg  Mg1  1  0.00000000  0.50000000  0.50000000  1
  Mg  Mg2  1  0.00000000  0.50000000  0.00000000  1
  Mg  Mg3  1  0.50000000  0.00000000  0.50000000  1
  Mg  Mg4  1  0.00000000  0.00000000  0.50000000  1
  Mg  Mg5  1  0.50000000  0.50000000  0.00000000  1
  B  B6  1  0.08043800  0.08043800  0.08043800  1
  B  B7  1  0.08043800  0.08043800  0.75868500  1
  B  B8  1  0.08043800  0.75868500  0.08043800  1
  B  B9  1  0.58043800  0.58043800  0.58043800  1
  B  B10  1  0.75868500  0.08043800  0.08043800  1
  B  B11  1  0.58043800  0.58043800  0.25868500  1
  B  B12  1  0.25868500  0.58043800  0.58043800  1
  B  B13  1  0.58043800  0.25868500  0.58043800  1
  B  B14  1  0.75000000  0.25000000  0.25000000  1
  B  B15  1  0.25000000  0.75000000  0.75000000  1
  B  B16  1  0.25000000  0.75000000  0.25000000  1
  B  B17  1  0.75000000  0.25000000  0.75000000  1
  B  B18  1  0.25000000  0.25000000  0.75000000  1
  B  B19  1  0.75000000  0.75000000  0.25000000  1
  Br  Br20  1  0.25000000  0.25000000  0.25000000  1
  Br  Br21  1  0.75000000  0.75000000  0.75000000  1
  O  O22  1  0.25788500  0.10387800  0.93712700  1
  O  O23  1  0.10387800  0.25788500  0.70111000  1
  O  O24  1  0.93712700  0.70111000  0.25788500  1
  O  O25  1  0.93712700  0.25788500  0.10387800  1
  O  O26  1  0.60387800  0.75788500  0.43712700  1
  O  O27  1  0.70111000  0.93712700  0.10387800  1
  O  O28  1  0.70111000  0.10387800  0.25788500  1
  O  O29  1  0.75788500  0.60387800  0.20111000  1
  O  O30  1  0.25788500  0.93712700  0.70111000  1
  O  O31  1  0.20111000  0.43712700  0.75788500  1
  O  O32  1  0.10387800  0.70111000  0.93712700  1
  O  O33  1  0.43712700  0.20111000  0.60387800  1
  O  O34  1  0.10387800  0.93712700  0.25788500  1
  O  O35  1  0.75788500  0.43712700  0.60387800  1
  O  O36  1  0.70111000  0.25788500  0.93712700  1
  O  O37  1  0.43712700  0.75788500  0.20111000  1
  O  O38  1  0.93712700  0.10387800  0.70111000  1
  O  O39  1  0.20111000  0.60387800  0.43712700  1
  O  O40  1  0.25788500  0.70111000  0.10387800  1
  O  O41  1  0.60387800  0.20111000  0.75788500  1
  O  O42  1  0.43712700  0.60387800  0.75788500  1
  O  O43  1  0.20111000  0.75788500  0.60387800  1
  O  O44  1  0.60387800  0.43712700  0.20111000  1
  O  O45  1  0.75788500  0.20111000  0.43712700  1
  O  O46  1  0.00000000  0.00000000  0.00000000  1
  O  O47  1  0.50000000  0.50000000  0.50000000  1
