# generated using pymatgen
data_Mn4Be3Si3SeO12
_symmetry_space_group_name_H-M   'P 1'
_cell_length_a   8.44491300
_cell_length_b   8.44491300
_cell_length_c   8.44491300
_cell_angle_alpha   90.00000000
_cell_angle_beta   90.00000000
_cell_angle_gamma   90.00000000
_symmetry_Int_Tables_number   1
_chemical_formula_structural   Mn4Be3Si3SeO12
_chemical_formula_sum   'Mn8 Be6 Si6 Se2 O24'
_cell_volume   602.26210731
_cell_formula_units_Z   2
loop_
 _symmetry_equiv_pos_site_id
 _symmetry_equiv_pos_as_xyz
  1  'x, y, z'
loop_
 _atom_site_type_symbol
 _atom_site_label
 _atom_site_symmetry_multiplicity
 _atom_site_fract_x
 _atom_site_fract_y
 _atom_site_fract_z
 _atom_site_occupancy
  Mn  Mn0  1  0.67795200  0.67795200  0.67795200  1
  Mn  Mn1  1  0.17795200  0.17795200  0.17795200  1
  Mn  Mn2  1  0.32204800  0.67795200  0.32204800  1
  Mn  Mn3  1  0.32204800  0.32204800  0.67795200  1
  Mn  Mn4  1  0.67795200  0.32204800  0.32204800  1
  Mn  Mn5  1  0.82204800  0.17795200  0.82204800  1
  Mn  Mn6  1  0.17795200  0.82204800  0.82204800  1
  Mn  Mn7  1  0.82204800  0.82204800  0.17795200  1
  Be  Be8  1  0.25000000  0.50000000  0.00000000  1
  Be  Be9  1  0.50000000  0.00000000  0.75000000  1
  Be  Be10  1  0.50000000  0.00000000  0.25000000  1
  Be  Be11  1  0.00000000  0.25000000  0.50000000  1
  Be  Be12  1  0.00000000  0.75000000  0.50000000  1
  Be  Be13  1  0.75000000  0.50000000  0.00000000  1
  Si  Si14  1  0.75000000  0.00000000  0.50000000  1
  Si  Si15  1  0.25000000  0.00000000  0.50000000  1
  Si  Si16  1  0.00000000  0.50000000  0.75000000  1
  Si  Si17  1  0.00000000  0.50000000  0.25000000  1
  Si  Si18  1  0.50000000  0.25000000  0.00000000  1
  Si  Si19  1  0.50000000  0.75000000  0.00000000  1
  Se  Se20  1  0.00000000  0.00000000  0.00000000  1
  Se  Se21  1  0.50000000  0.50000000  0.50000000  1
  O  O22  1  0.14277900  0.85716500  0.57810100  1
  O  O23  1  0.64277900  0.07810100  0.35716500  1
  O  O24  1  0.92189900  0.64283500  0.64277900  1
  O  O25  1  0.07810100  0.64283500  0.35722100  1
  O  O26  1  0.64283500  0.64277900  0.92189900  1
  O  O27  1  0.35716500  0.35722100  0.92189900  1
  O  O28  1  0.85722100  0.85716500  0.42189900  1
  O  O29  1  0.85722100  0.14283500  0.57810100  1
  O  O30  1  0.64277900  0.92189900  0.64283500  1
  O  O31  1  0.14283500  0.57810100  0.85722100  1
  O  O32  1  0.57810100  0.14277900  0.85716500  1
  O  O33  1  0.57810100  0.85722100  0.14283500  1
  O  O34  1  0.85716500  0.42189900  0.85722100  1
  O  O35  1  0.42189900  0.85722100  0.85716500  1
  O  O36  1  0.14277900  0.14283500  0.42189900  1
  O  O37  1  0.35722100  0.92189900  0.35716500  1
  O  O38  1  0.35722100  0.07810100  0.64283500  1
  O  O39  1  0.85716500  0.57810100  0.14277900  1
  O  O40  1  0.92189900  0.35716500  0.35722100  1
  O  O41  1  0.64283500  0.35722100  0.07810100  1
  O  O42  1  0.35716500  0.64277900  0.07810100  1
  O  O43  1  0.42189900  0.14277900  0.14283500  1
  O  O44  1  0.14283500  0.42189900  0.14277900  1
  O  O45  1  0.07810100  0.35716500  0.64277900  1
