# generated using pymatgen
data_Tb3Rh2
_symmetry_space_group_name_H-M   'P 1'
_cell_length_a   14.99700529
_cell_length_b   14.99700529
_cell_length_c   14.99700529
_cell_angle_alpha   135.75895450
_cell_angle_beta   135.75895450
_cell_angle_gamma   64.35321624
_symmetry_Int_Tables_number   1
_chemical_formula_structural   Tb3Rh2
_chemical_formula_sum   'Tb42 Rh28'
_cell_volume   1619.25089770
_cell_formula_units_Z   14
loop_
 _symmetry_equiv_pos_site_id
 _symmetry_equiv_pos_as_xyz
  1  'x, y, z'
loop_
 _atom_site_type_symbol
 _atom_site_label
 _atom_site_symmetry_multiplicity
 _atom_site_fract_x
 _atom_site_fract_y
 _atom_site_fract_z
 _atom_site_occupancy
  Tb  Tb0  1  0.63256000  0.50432100  0.27952500  1
  Tb  Tb1  1  0.22479500  0.35303500  0.72047500  1
  Tb  Tb2  1  0.13256000  0.85303500  0.12823900  1
  Tb  Tb3  1  0.72479500  0.00432100  0.87176100  1
  Tb  Tb4  1  0.35303500  0.63256000  0.12823900  1
  Tb  Tb5  1  0.50432100  0.22479500  0.87176100  1
  Tb  Tb6  1  0.00432100  0.13256000  0.27952500  1
  Tb  Tb7  1  0.85303500  0.72479500  0.72047500  1
  Tb  Tb8  1  0.36744000  0.49567900  0.72047500  1
  Tb  Tb9  1  0.77520500  0.64696500  0.27952500  1
  Tb  Tb10  1  0.86744000  0.14696500  0.87176100  1
  Tb  Tb11  1  0.27520500  0.99567900  0.12823900  1
  Tb  Tb12  1  0.64696500  0.36744000  0.87176100  1
  Tb  Tb13  1  0.49567900  0.77520500  0.12823900  1
  Tb  Tb14  1  0.99567900  0.86744000  0.72047500  1
  Tb  Tb15  1  0.14696500  0.27520500  0.27952500  1
  Tb  Tb16  1  0.38684900  0.51657400  0.28972900  1
  Tb  Tb17  1  0.22684500  0.09712000  0.71027100  1
  Tb  Tb18  1  0.88684900  0.59712100  0.87027500  1
  Tb  Tb19  1  0.72684500  0.01657400  0.12972500  1
  Tb  Tb20  1  0.09712000  0.38684900  0.87027500  1
  Tb  Tb21  1  0.51657400  0.22684500  0.12972500  1
  Tb  Tb22  1  0.01657400  0.88684900  0.28972900  1
  Tb  Tb23  1  0.59712100  0.72684500  0.71027100  1
  Tb  Tb24  1  0.61315100  0.48342600  0.71027100  1
  Tb  Tb25  1  0.77315500  0.90288000  0.28972900  1
  Tb  Tb26  1  0.11315100  0.40288000  0.12972500  1
  Tb  Tb27  1  0.27315500  0.98342600  0.87027500  1
  Tb  Tb28  1  0.90288000  0.61315100  0.12972500  1
  Tb  Tb29  1  0.48342600  0.77315500  0.87027500  1
  Tb  Tb30  1  0.98342600  0.11315100  0.71027100  1
  Tb  Tb31  1  0.40287900  0.27315500  0.28972900  1
  Tb  Tb32  1  0.85110800  0.35110800  0.20221500  1
  Tb  Tb33  1  0.14889200  0.64889200  0.79778500  1
  Tb  Tb34  1  0.35110800  0.14889200  0.50000000  1
  Tb  Tb35  1  0.64889200  0.85110800  0.50000000  1
  Tb  Tb36  1  0.38728200  0.88728200  0.50000000  1
  Tb  Tb37  1  0.88728200  0.38728200  0.50000000  1
  Tb  Tb38  1  0.61271800  0.11271800  0.50000000  1
  Tb  Tb39  1  0.11271800  0.61271800  0.50000000  1
  Tb  Tb40  1  0.25000000  0.75000000  0.50000000  1
  Tb  Tb41  1  0.75000000  0.25000000  0.50000000  1
  Rh  Rh42  1  0.71512400  0.21512400  0.14233100  1
  Rh  Rh43  1  0.07279200  0.57279200  0.85766900  1
  Rh  Rh44  1  0.21512400  0.07279200  0.50000000  1
  Rh  Rh45  1  0.57279200  0.71512400  0.50000000  1
  Rh  Rh46  1  0.28487600  0.78487600  0.85766900  1
  Rh  Rh47  1  0.92720800  0.42720800  0.14233100  1
  Rh  Rh48  1  0.78487600  0.92720800  0.50000000  1
  Rh  Rh49  1  0.42720800  0.28487600  0.50000000  1
  Rh  Rh50  1  0.46496100  0.96496100  0.80636200  1
  Rh  Rh51  1  0.15859900  0.65859900  0.19363800  1
  Rh  Rh52  1  0.96496100  0.15859900  0.50000000  1
  Rh  Rh53  1  0.65859900  0.46496100  0.50000000  1
  Rh  Rh54  1  0.53503900  0.03503900  0.19363800  1
  Rh  Rh55  1  0.84140100  0.34140100  0.80636200  1
  Rh  Rh56  1  0.03503900  0.84140100  0.50000000  1
  Rh  Rh57  1  0.34140100  0.53503900  0.50000000  1
  Rh  Rh58  1  0.59801600  0.09801600  0.69603200  1
  Rh  Rh59  1  0.40198400  0.90198400  0.30396800  1
  Rh  Rh60  1  0.09801600  0.40198400  0.50000000  1
  Rh  Rh61  1  0.90198400  0.59801600  0.50000000  1
  Rh  Rh62  1  0.36784200  0.36784200  0.00000000  1
  Rh  Rh63  1  0.86784200  0.86784200  0.00000000  1
  Rh  Rh64  1  0.63215800  0.63215800  0.00000000  1
  Rh  Rh65  1  0.13215800  0.13215800  0.00000000  1
  Rh  Rh66  1  0.50000000  0.50000000  0.00000000  1
  Rh  Rh67  1  0.00000000  0.00000000  0.00000000  1
  Rh  Rh68  1  0.25000000  0.25000000  0.00000000  1
  Rh  Rh69  1  0.75000000  0.75000000  0.00000000  1
