# generated using pymatgen
data_BaUTe6
_symmetry_space_group_name_H-M   'P 1'
_cell_length_a   15.28142700
_cell_length_b   8.16330100
_cell_length_c   9.01940266
_cell_angle_alpha   88.47570235
_cell_angle_beta   90.00000000
_cell_angle_gamma   90.00000000
_symmetry_Int_Tables_number   1
_chemical_formula_structural   BaUTe6
_chemical_formula_sum   'Ba4 U4 Te24'
_cell_volume   1124.74426660
_cell_formula_units_Z   4
loop_
 _symmetry_equiv_pos_site_id
 _symmetry_equiv_pos_as_xyz
  1  'x, y, z'
loop_
 _atom_site_type_symbol
 _atom_site_label
 _atom_site_symmetry_multiplicity
 _atom_site_fract_x
 _atom_site_fract_y
 _atom_site_fract_z
 _atom_site_occupancy
  Ba  Ba0  1  0.09049800  0.23016300  0.23646600  1
  Ba  Ba1  1  0.59049800  0.26983700  0.76353400  1
  Ba  Ba2  1  0.90950200  0.76983700  0.76353400  1
  Ba  Ba3  1  0.40950200  0.73016300  0.23646600  1
  U  U4  1  0.75059900  0.39182300  0.27389900  1
  U  U5  1  0.25059900  0.10817700  0.72610100  1
  U  U6  1  0.24940100  0.60817700  0.72610100  1
  U  U7  1  0.74940100  0.89182300  0.27389900  1
  Te  Te8  1  0.76390600  0.14813100  0.00553800  1
  Te  Te9  1  0.26390600  0.35186900  0.99446200  1
  Te  Te10  1  0.23609400  0.85186900  0.99446200  1
  Te  Te11  1  0.73609400  0.64813100  0.00553800  1
  Te  Te12  1  0.89886300  0.39132000  0.02990100  1
  Te  Te13  1  0.39886300  0.10868000  0.97009900  1
  Te  Te14  1  0.10113700  0.60868000  0.97009900  1
  Te  Te15  1  0.60113700  0.89132000  0.02990100  1
  Te  Te16  1  0.55309200  0.38778900  0.17338500  1
  Te  Te17  1  0.05309200  0.11221100  0.82661500  1
  Te  Te18  1  0.44690800  0.61221100  0.82661500  1
  Te  Te19  1  0.94690800  0.88778900  0.17338500  1
  Te  Te20  1  0.60639600  0.13680200  0.38936400  1
  Te  Te21  1  0.10639600  0.36319800  0.61063600  1
  Te  Te22  1  0.39360400  0.86319800  0.61063600  1
  Te  Te23  1  0.89360400  0.63680200  0.38936400  1
  Te  Te24  1  0.88336800  0.13214600  0.42104300  1
  Te  Te25  1  0.38336800  0.36785400  0.57895700  1
  Te  Te26  1  0.11663200  0.86785400  0.57895700  1
  Te  Te27  1  0.61663200  0.63214600  0.42104300  1
  Te  Te28  1  0.80551600  0.37867600  0.60952300  1
  Te  Te29  1  0.30551600  0.12132400  0.39047700  1
  Te  Te30  1  0.19448400  0.62132400  0.39047700  1
  Te  Te31  1  0.69448400  0.87867600  0.60952300  1
