# generated using pymatgen
data_Rb3GdV2O8
_symmetry_space_group_name_H-M   'P 1'
_cell_length_a   6.13734106
_cell_length_b   6.13734106
_cell_length_c   7.90922300
_cell_angle_alpha   90.00000000
_cell_angle_beta   90.00000000
_cell_angle_gamma   119.99998988
_symmetry_Int_Tables_number   1
_chemical_formula_structural   Rb3GdV2O8
_chemical_formula_sum   'Rb3 Gd1 V2 O8'
_cell_volume   258.00315294
_cell_formula_units_Z   1
loop_
 _symmetry_equiv_pos_site_id
 _symmetry_equiv_pos_as_xyz
  1  'x, y, z'
loop_
 _atom_site_type_symbol
 _atom_site_label
 _atom_site_symmetry_multiplicity
 _atom_site_fract_x
 _atom_site_fract_y
 _atom_site_fract_z
 _atom_site_occupancy
  Rb  Rb0  1  0.66666700  0.33333300  0.30954700  1
  Rb  Rb1  1  0.33333300  0.66666700  0.69045300  1
  Rb  Rb2  1  0.00000000  0.00000000  0.00000000  1
  Gd  Gd3  1  0.00000000  0.00000000  0.50000000  1
  V  V4  1  0.66666700  0.33333300  0.74818600  1
  V  V5  1  0.33333300  0.66666700  0.25181400  1
  O  O6  1  0.66666700  0.33333300  0.96091200  1
  O  O7  1  0.33333300  0.66666700  0.03908800  1
  O  O8  1  0.82316500  0.64632900  0.67150800  1
  O  O9  1  0.17683500  0.35367100  0.32849200  1
  O  O10  1  0.82316500  0.17683500  0.67150800  1
  O  O11  1  0.17683500  0.82316500  0.32849200  1
  O  O12  1  0.35367100  0.17683500  0.67150800  1
  O  O13  1  0.64632900  0.82316500  0.32849200  1
