# generated using pymatgen
data_Tb2Mo2C3
_symmetry_space_group_name_H-M   'P 1'
_cell_length_a   6.15875494
_cell_length_b   6.15875494
_cell_length_c   5.75162493
_cell_angle_alpha   67.95958246
_cell_angle_beta   67.95958246
_cell_angle_gamma   31.67193342
_symmetry_Int_Tables_number   1
_chemical_formula_structural   Tb2Mo2C3
_chemical_formula_sum   'Tb2 Mo2 C3'
_cell_volume   105.47279080
_cell_formula_units_Z   1
loop_
 _symmetry_equiv_pos_site_id
 _symmetry_equiv_pos_as_xyz
  1  'x, y, z'
loop_
 _atom_site_type_symbol
 _atom_site_label
 _atom_site_symmetry_multiplicity
 _atom_site_fract_x
 _atom_site_fract_y
 _atom_site_fract_z
 _atom_site_occupancy
  Tb  Tb0  1  0.60965000  0.60965000  0.17734600  1
  Tb  Tb1  1  0.39035000  0.39035000  0.82265400  1
  Mo  Mo2  1  0.84218300  0.84218300  0.32508700  1
  Mo  Mo3  1  0.15781700  0.15781700  0.67491300  1
  C  C4  1  0.75116100  0.75116100  0.73232900  1
  C  C5  1  0.24883900  0.24883900  0.26767100  1
  C  C6  1  0.00000000  0.00000000  0.00000000  1
