# generated using pymatgen
data_BaGePbO4
_symmetry_space_group_name_H-M   'P 1'
_cell_length_a   6.29304700
_cell_length_b   7.74832200
_cell_length_c   10.36706700
_cell_angle_alpha   90.00000000
_cell_angle_beta   90.00000000
_cell_angle_gamma   90.00000000
_symmetry_Int_Tables_number   1
_chemical_formula_structural   BaGePbO4
_chemical_formula_sum   'Ba4 Ge4 Pb4 O16'
_cell_volume   505.50393564
_cell_formula_units_Z   4
loop_
 _symmetry_equiv_pos_site_id
 _symmetry_equiv_pos_as_xyz
  1  'x, y, z'
loop_
 _atom_site_type_symbol
 _atom_site_label
 _atom_site_symmetry_multiplicity
 _atom_site_fract_x
 _atom_site_fract_y
 _atom_site_fract_z
 _atom_site_occupancy
  Ba  Ba0  1  0.47875500  0.75106200  0.78855700  1
  Ba  Ba1  1  0.97875500  0.74893800  0.21144300  1
  Ba  Ba2  1  0.02124500  0.24893800  0.28855700  1
  Ba  Ba3  1  0.52124500  0.25106200  0.71144300  1
  Ge  Ge4  1  0.51843800  0.95986700  0.08990200  1
  Ge  Ge5  1  0.01843800  0.54013300  0.91009800  1
  Ge  Ge6  1  0.98156200  0.04013300  0.58990200  1
  Ge  Ge7  1  0.48156200  0.45986700  0.41009800  1
  Pb  Pb8  1  0.43189300  0.94953700  0.40772000  1
  Pb  Pb9  1  0.93189300  0.55046300  0.59228000  1
  Pb  Pb10  1  0.06810700  0.05046300  0.90772000  1
  Pb  Pb11  1  0.56810700  0.44953700  0.09228000  1
  O  O12  1  0.43829000  0.05480500  0.93994500  1
  O  O13  1  0.93829000  0.44519500  0.06005500  1
  O  O14  1  0.06171000  0.94519500  0.43994500  1
  O  O15  1  0.56171000  0.55480500  0.56005500  1
  O  O16  1  0.74446800  0.04759400  0.16519200  1
  O  O17  1  0.24446800  0.45240600  0.83480800  1
  O  O18  1  0.75553200  0.95240600  0.66519200  1
  O  O19  1  0.25553200  0.54759400  0.33480800  1
  O  O20  1  0.58216100  0.73883000  0.05464200  1
  O  O21  1  0.08216100  0.76117000  0.94535800  1
  O  O22  1  0.91783900  0.26117000  0.55464200  1
  O  O23  1  0.41783900  0.23883000  0.44535800  1
  O  O24  1  0.29799500  0.98575500  0.19827200  1
  O  O25  1  0.79799500  0.51424500  0.80172800  1
  O  O26  1  0.20200500  0.01424500  0.69827200  1
  O  O27  1  0.70200500  0.48575500  0.30172800  1
