# generated using pymatgen
data_Yb2Ge2Ir
_symmetry_space_group_name_H-M   'P 1'
_cell_length_a   5.87360609
_cell_length_b   5.87360609
_cell_length_c   10.31633654
_cell_angle_alpha   62.99144111
_cell_angle_beta   62.99144111
_cell_angle_gamma   43.15752045
_symmetry_Int_Tables_number   1
_chemical_formula_structural   Yb2Ge2Ir
_chemical_formula_sum   'Yb4 Ge4 Ir2'
_cell_volume   212.43896228
_cell_formula_units_Z   2
loop_
 _symmetry_equiv_pos_site_id
 _symmetry_equiv_pos_as_xyz
  1  'x, y, z'
loop_
 _atom_site_type_symbol
 _atom_site_label
 _atom_site_symmetry_multiplicity
 _atom_site_fract_x
 _atom_site_fract_y
 _atom_site_fract_z
 _atom_site_occupancy
  Yb  Yb0  1  0.81607300  0.81607300  0.11040500  1
  Yb  Yb1  1  0.00315000  0.00315000  0.32534400  1
  Yb  Yb2  1  0.18392700  0.18392700  0.88959500  1
  Yb  Yb3  1  0.99685000  0.99685000  0.67465600  1
  Ge  Ge4  1  0.49035800  0.49035800  0.87884900  1
  Ge  Ge5  1  0.35208900  0.35208900  0.56276300  1
  Ge  Ge6  1  0.50964200  0.50964200  0.12115100  1
  Ge  Ge7  1  0.64791100  0.64791100  0.43723700  1
  Ir  Ir8  1  0.72432300  0.72432300  0.63097000  1
  Ir  Ir9  1  0.27567700  0.27567700  0.36903000  1
