# generated using pymatgen
data_Ca4Sb2O
_symmetry_space_group_name_H-M   'P 1'
_cell_length_a   8.84472544
_cell_length_b   8.84472544
_cell_length_c   8.84472544
_cell_angle_alpha   149.11173981
_cell_angle_beta   149.11173981
_cell_angle_gamma   44.24685678
_symmetry_Int_Tables_number   1
_chemical_formula_structural   Ca4Sb2O
_chemical_formula_sum   'Ca4 Sb2 O1'
_cell_volume   181.81826836
_cell_formula_units_Z   1
loop_
 _symmetry_equiv_pos_site_id
 _symmetry_equiv_pos_as_xyz
  1  'x, y, z'
loop_
 _atom_site_type_symbol
 _atom_site_label
 _atom_site_symmetry_multiplicity
 _atom_site_fract_x
 _atom_site_fract_y
 _atom_site_fract_z
 _atom_site_occupancy
  Ca  Ca0  1  0.66530400  0.66530400  0.00000000  1
  Ca  Ca1  1  0.33469600  0.33469600  0.00000000  1
  Ca  Ca2  1  0.00000000  0.50000000  0.50000000  1
  Ca  Ca3  1  0.50000000  0.00000000  0.50000000  1
  Sb  Sb4  1  0.86046200  0.86046200  0.00000000  1
  Sb  Sb5  1  0.13953800  0.13953800  0.00000000  1
  O  O6  1  0.50000000  0.50000000  0.00000000  1
