# generated using pymatgen
data_K2CN2
_symmetry_space_group_name_H-M   'P 1'
_cell_length_a   4.09726656
_cell_length_b   4.09726656
_cell_length_c   5.91792972
_cell_angle_alpha   76.25820959
_cell_angle_beta   76.25820959
_cell_angle_gamma   89.51484818
_symmetry_Int_Tables_number   1
_chemical_formula_structural   K2CN2
_chemical_formula_sum   'K2 C1 N2'
_cell_volume   93.62058104
_cell_formula_units_Z   1
loop_
 _symmetry_equiv_pos_site_id
 _symmetry_equiv_pos_as_xyz
  1  'x, y, z'
loop_
 _atom_site_type_symbol
 _atom_site_label
 _atom_site_symmetry_multiplicity
 _atom_site_fract_x
 _atom_site_fract_y
 _atom_site_fract_z
 _atom_site_occupancy
  K  K0  1  0.67526600  0.67526600  0.70809300  1
  K  K1  1  0.32473400  0.32473400  0.29190700  1
  C  C2  1  0.00000000  0.00000000  0.00000000  1
  N  N3  1  0.84761000  0.84761000  0.20645300  1
  N  N4  1  0.15239000  0.15239000  0.79354700  1
