# generated using pymatgen
data_Dy2(MoO4)3
_symmetry_space_group_name_H-M   'P 1'
_cell_length_a   7.45377200
_cell_length_b   7.45377200
_cell_length_c   10.72951200
_cell_angle_alpha   90.00000000
_cell_angle_beta   90.00000000
_cell_angle_gamma   90.00000000
_symmetry_Int_Tables_number   1
_chemical_formula_structural   Dy2(MoO4)3
_chemical_formula_sum   'Dy4 Mo6 O24'
_cell_volume   596.11792106
_cell_formula_units_Z   2
loop_
 _symmetry_equiv_pos_site_id
 _symmetry_equiv_pos_as_xyz
  1  'x, y, z'
loop_
 _atom_site_type_symbol
 _atom_site_label
 _atom_site_symmetry_multiplicity
 _atom_site_fract_x
 _atom_site_fract_y
 _atom_site_fract_z
 _atom_site_occupancy
  Dy  Dy0  1  0.18786700  0.68786700  0.73800000  1
  Dy  Dy1  1  0.81213300  0.31213300  0.73800000  1
  Dy  Dy2  1  0.68786700  0.81213300  0.26200000  1
  Dy  Dy3  1  0.31213300  0.18786700  0.26200000  1
  Mo  Mo4  1  0.20721800  0.70721800  0.35713800  1
  Mo  Mo5  1  0.79278200  0.29278200  0.35713800  1
  Mo  Mo6  1  0.70721800  0.79278200  0.64286200  1
  Mo  Mo7  1  0.29278200  0.20721800  0.64286200  1
  Mo  Mo8  1  0.00000000  0.00000000  0.00000000  1
  Mo  Mo9  1  0.50000000  0.50000000  0.00000000  1
  O  O10  1  0.00595900  0.22445900  0.29864900  1
  O  O11  1  0.99404100  0.77554100  0.29864900  1
  O  O12  1  0.22445900  0.99404100  0.70135100  1
  O  O13  1  0.49404100  0.72445900  0.70135100  1
  O  O14  1  0.77554100  0.00595900  0.70135100  1
  O  O15  1  0.50595900  0.27554100  0.70135100  1
  O  O16  1  0.27554100  0.49404100  0.29864900  1
  O  O17  1  0.72445900  0.50595900  0.29864900  1
  O  O18  1  0.18930900  0.04304200  0.09833000  1
  O  O19  1  0.81069100  0.95695800  0.09833000  1
  O  O20  1  0.04304200  0.81069100  0.90167000  1
  O  O21  1  0.31069100  0.54304200  0.90167000  1
  O  O22  1  0.95695800  0.18930900  0.90167000  1
  O  O23  1  0.68930900  0.45695800  0.90167000  1
  O  O24  1  0.45695800  0.31069100  0.09833000  1
  O  O25  1  0.54304200  0.68930900  0.09833000  1
  O  O26  1  0.62558500  0.12558500  0.30969400  1
  O  O27  1  0.37441500  0.87441500  0.30969400  1
  O  O28  1  0.12558500  0.37441500  0.69030600  1
  O  O29  1  0.87441500  0.62558500  0.69030600  1
  O  O30  1  0.19516900  0.69516900  0.52259100  1
  O  O31  1  0.80483100  0.30483100  0.52259100  1
  O  O32  1  0.69516900  0.80483100  0.47740900  1
  O  O33  1  0.30483100  0.19516900  0.47740900  1
