# generated using pymatgen
data_K8Tl10Zn
_symmetry_space_group_name_H-M   'P 1'
_cell_length_a   10.47830500
_cell_length_b   10.47830500
_cell_length_c   14.17355200
_cell_angle_alpha   90.00000000
_cell_angle_beta   90.00000000
_cell_angle_gamma   90.00000000
_symmetry_Int_Tables_number   1
_chemical_formula_structural   K8Tl10Zn
_chemical_formula_sum   'K16 Tl20 Zn2'
_cell_volume   1556.18337969
_cell_formula_units_Z   2
loop_
 _symmetry_equiv_pos_site_id
 _symmetry_equiv_pos_as_xyz
  1  'x, y, z'
loop_
 _atom_site_type_symbol
 _atom_site_label
 _atom_site_symmetry_multiplicity
 _atom_site_fract_x
 _atom_site_fract_y
 _atom_site_fract_z
 _atom_site_occupancy
  K  K0  1  0.70388100  0.07314000  0.14489100  1
  K  K1  1  0.29611900  0.92686000  0.14489100  1
  K  K2  1  0.29611900  0.07314000  0.85510900  1
  K  K3  1  0.70388100  0.92686000  0.85510900  1
  K  K4  1  0.79611900  0.42686000  0.35510900  1
  K  K5  1  0.20388100  0.57314000  0.35510900  1
  K  K6  1  0.20388100  0.42686000  0.64489100  1
  K  K7  1  0.79611900  0.57314000  0.64489100  1
  K  K8  1  0.07314000  0.70388100  0.85510900  1
  K  K9  1  0.92686000  0.29611900  0.85510900  1
  K  K10  1  0.07314000  0.29611900  0.14489100  1
  K  K11  1  0.92686000  0.70388100  0.14489100  1
  K  K12  1  0.42686000  0.79611900  0.64489100  1
  K  K13  1  0.57314000  0.20388100  0.64489100  1
  K  K14  1  0.42686000  0.20388100  0.35510900  1
  K  K15  1  0.57314000  0.79611900  0.35510900  1
  Tl  Tl16  1  0.76061800  0.09534900  0.41024600  1
  Tl  Tl17  1  0.23938200  0.90465100  0.41024600  1
  Tl  Tl18  1  0.23938200  0.09534900  0.58975400  1
  Tl  Tl19  1  0.76061800  0.90465100  0.58975400  1
  Tl  Tl20  1  0.73938200  0.40465100  0.08975400  1
  Tl  Tl21  1  0.26061800  0.59534900  0.08975400  1
  Tl  Tl22  1  0.26061800  0.40465100  0.91024600  1
  Tl  Tl23  1  0.73938200  0.59534900  0.91024600  1
  Tl  Tl24  1  0.09534900  0.76061800  0.58975400  1
  Tl  Tl25  1  0.90465100  0.23938200  0.58975400  1
  Tl  Tl26  1  0.09534900  0.23938200  0.41024600  1
  Tl  Tl27  1  0.90465100  0.76061800  0.41024600  1
  Tl  Tl28  1  0.40465100  0.73938200  0.91024600  1
  Tl  Tl29  1  0.59534900  0.26061800  0.91024600  1
  Tl  Tl30  1  0.40465100  0.26061800  0.08975400  1
  Tl  Tl31  1  0.59534900  0.73938200  0.08975400  1
  Tl  Tl32  1  0.50000000  0.50000000  0.20968000  1
  Tl  Tl33  1  0.50000000  0.50000000  0.79032000  1
  Tl  Tl34  1  0.00000000  0.00000000  0.29032000  1
  Tl  Tl35  1  0.00000000  0.00000000  0.70968000  1
  Zn  Zn36  1  0.50000000  0.50000000  0.00000000  1
  Zn  Zn37  1  0.00000000  0.00000000  0.50000000  1
