# generated using pymatgen
data_HfPRu
_symmetry_space_group_name_H-M   'P 1'
_cell_length_a   6.43576526
_cell_length_b   6.43576526
_cell_length_c   3.79275000
_cell_angle_alpha   90.00000000
_cell_angle_beta   90.00000000
_cell_angle_gamma   119.99999244
_symmetry_Int_Tables_number   1
_chemical_formula_structural   HfPRu
_chemical_formula_sum   'Hf3 P3 Ru3'
_cell_volume   136.04584195
_cell_formula_units_Z   3
loop_
 _symmetry_equiv_pos_site_id
 _symmetry_equiv_pos_as_xyz
  1  'x, y, z'
loop_
 _atom_site_type_symbol
 _atom_site_label
 _atom_site_symmetry_multiplicity
 _atom_site_fract_x
 _atom_site_fract_y
 _atom_site_fract_z
 _atom_site_occupancy
  Hf  Hf0  1  0.00000000  0.58372700  0.50000000  1
  Hf  Hf1  1  0.41627300  0.41627300  0.50000000  1
  Hf  Hf2  1  0.58372700  0.00000000  0.50000000  1
  P  P3  1  0.66666700  0.33333300  0.00000000  1
  P  P4  1  0.33333300  0.66666700  0.00000000  1
  P  P5  1  0.00000000  0.00000000  0.50000000  1
  Ru  Ru6  1  0.24663900  0.00000000  0.00000000  1
  Ru  Ru7  1  0.75336100  0.75336100  0.00000000  1
  Ru  Ru8  1  0.00000000  0.24663900  0.00000000  1
