# generated using pymatgen
data_Cu4AsClO6
_symmetry_space_group_name_H-M   'P 1'
_cell_length_a   5.50402100
_cell_length_b   10.30608000
_cell_length_c   11.33269300
_cell_angle_alpha   90.00000000
_cell_angle_beta   90.00000000
_cell_angle_gamma   90.00000000
_symmetry_Int_Tables_number   1
_chemical_formula_structural   Cu4AsClO6
_chemical_formula_sum   'Cu16 As4 Cl4 O24'
_cell_volume   642.84565898
_cell_formula_units_Z   4
loop_
 _symmetry_equiv_pos_site_id
 _symmetry_equiv_pos_as_xyz
  1  'x, y, z'
loop_
 _atom_site_type_symbol
 _atom_site_label
 _atom_site_symmetry_multiplicity
 _atom_site_fract_x
 _atom_site_fract_y
 _atom_site_fract_z
 _atom_site_occupancy
  Cu  Cu0  1  0.23481900  0.54383600  0.05328700  1
  Cu  Cu1  1  0.76518100  0.45616400  0.94671300  1
  Cu  Cu2  1  0.76518100  0.04383600  0.94671300  1
  Cu  Cu3  1  0.76518100  0.95616400  0.55328700  1
  Cu  Cu4  1  0.23481900  0.95616400  0.05328700  1
  Cu  Cu5  1  0.23481900  0.04383600  0.44671300  1
  Cu  Cu6  1  0.23481900  0.45616400  0.44671300  1
  Cu  Cu7  1  0.76518100  0.54383600  0.55328700  1
  Cu  Cu8  1  0.03273000  0.75000000  0.85315500  1
  Cu  Cu9  1  0.96727000  0.25000000  0.14684500  1
  Cu  Cu10  1  0.96727000  0.75000000  0.35315500  1
  Cu  Cu11  1  0.03273000  0.25000000  0.64684500  1
  Cu  Cu12  1  0.14509300  0.75000000  0.58710800  1
  Cu  Cu13  1  0.85490700  0.25000000  0.41289200  1
  Cu  Cu14  1  0.85490700  0.75000000  0.08710800  1
  Cu  Cu15  1  0.14509300  0.25000000  0.91289200  1
  As  As16  1  0.32475900  0.50000000  0.75000000  1
  As  As17  1  0.67524100  0.50000000  0.25000000  1
  As  As18  1  0.67524100  0.00000000  0.25000000  1
  As  As19  1  0.32475900  0.00000000  0.75000000  1
  Cl  Cl20  1  0.61918700  0.75000000  0.59867800  1
  Cl  Cl21  1  0.38081300  0.25000000  0.40132200  1
  Cl  Cl22  1  0.38081300  0.75000000  0.09867800  1
  Cl  Cl23  1  0.61918700  0.25000000  0.90132200  1
  O  O24  1  0.12330000  0.62871700  0.72445600  1
  O  O25  1  0.87670000  0.37128300  0.27554400  1
  O  O26  1  0.87670000  0.12871700  0.27554400  1
  O  O27  1  0.87670000  0.87128300  0.22445600  1
  O  O28  1  0.12330000  0.87128300  0.72445600  1
  O  O29  1  0.12330000  0.12871700  0.77554400  1
  O  O30  1  0.12330000  0.37128300  0.77554400  1
  O  O31  1  0.87670000  0.62871700  0.22445600  1
  O  O32  1  0.04643400  0.11895600  0.02974700  1
  O  O33  1  0.95356600  0.88104400  0.97025300  1
  O  O34  1  0.95356600  0.61895600  0.97025300  1
  O  O35  1  0.95356600  0.38104400  0.52974700  1
  O  O36  1  0.04643400  0.38104400  0.02974700  1
  O  O37  1  0.04643400  0.61895600  0.47025300  1
  O  O38  1  0.04643400  0.88104400  0.47025300  1
  O  O39  1  0.95356600  0.11895600  0.52974700  1
  O  O40  1  0.48585800  0.53863800  0.87496400  1
  O  O41  1  0.51414200  0.46136200  0.12503600  1
  O  O42  1  0.51414200  0.03863800  0.12503600  1
  O  O43  1  0.51414200  0.96136200  0.37496400  1
  O  O44  1  0.48585800  0.96136200  0.87496400  1
  O  O45  1  0.48585800  0.03863800  0.62503600  1
  O  O46  1  0.48585800  0.46136200  0.62503600  1
  O  O47  1  0.51414200  0.53863800  0.37496400  1
