# generated using pymatgen
data_Gd2GeMoO8
_symmetry_space_group_name_H-M   'P 1'
_cell_length_a   6.73859832
_cell_length_b   6.73859832
_cell_length_c   6.73859832
_cell_angle_alpha   134.64093333
_cell_angle_beta   134.64093333
_cell_angle_gamma   66.08862287
_symmetry_Int_Tables_number   1
_chemical_formula_structural   Gd2GeMoO8
_chemical_formula_sum   'Gd2 Ge1 Mo1 O8'
_cell_volume   152.53266518
_cell_formula_units_Z   1
loop_
 _symmetry_equiv_pos_site_id
 _symmetry_equiv_pos_as_xyz
  1  'x, y, z'
loop_
 _atom_site_type_symbol
 _atom_site_label
 _atom_site_symmetry_multiplicity
 _atom_site_fract_x
 _atom_site_fract_y
 _atom_site_fract_z
 _atom_site_occupancy
  Gd  Gd0  1  0.75000000  0.25000000  0.50000000  1
  Gd  Gd1  1  0.50000000  0.50000000  0.00000000  1
  Ge  Ge2  1  0.25000000  0.75000000  0.50000000  1
  Mo  Mo3  1  0.00000000  0.00000000  0.00000000  1
  O  O4  1  0.40758100  0.50076400  0.57909000  1
  O  O5  1  0.92167400  0.82849100  0.42091000  1
  O  O6  1  0.07204100  0.17768000  0.41176500  1
  O  O7  1  0.76591600  0.66027600  0.58823500  1
  O  O8  1  0.82232000  0.23408400  0.89436000  1
  O  O9  1  0.33972400  0.92795900  0.10564000  1
  O  O10  1  0.17150900  0.59241900  0.09318400  1
  O  O11  1  0.49923600  0.07832600  0.90681600  1
