# generated using pymatgen
data_NaCr12Si8BrO28
_symmetry_space_group_name_H-M   'P 1'
_cell_length_a   9.91302228
_cell_length_b   9.91302228
_cell_length_c   9.91302228
_cell_angle_alpha   116.38801056
_cell_angle_beta   116.38801056
_cell_angle_gamma   96.37899054
_symmetry_Int_Tables_number   1
_chemical_formula_structural   NaCr12Si8BrO28
_chemical_formula_sum   'Na1 Cr12 Si8 Br1 O28'
_cell_volume   721.57838097
_cell_formula_units_Z   1
loop_
 _symmetry_equiv_pos_site_id
 _symmetry_equiv_pos_as_xyz
  1  'x, y, z'
loop_
 _atom_site_type_symbol
 _atom_site_label
 _atom_site_symmetry_multiplicity
 _atom_site_fract_x
 _atom_site_fract_y
 _atom_site_fract_z
 _atom_site_occupancy
  Na  Na0  1  0.03845700  0.03845700  0.00000000  1
  Cr  Cr1  1  0.28506500  0.05524000  0.77017500  1
  Cr  Cr2  1  0.28506500  0.51489000  0.22982500  1
  Cr  Cr3  1  0.51489000  0.28506500  0.22982500  1
  Cr  Cr4  1  0.05524000  0.28506500  0.77017500  1
  Cr  Cr5  1  0.71598800  0.94639900  0.23041100  1
  Cr  Cr6  1  0.71598800  0.48557600  0.76958900  1
  Cr  Cr7  1  0.48557600  0.71598800  0.76958900  1
  Cr  Cr8  1  0.94639900  0.71598800  0.23041100  1
  Cr  Cr9  1  0.49980900  0.17461600  0.67480700  1
  Cr  Cr10  1  0.49980900  0.82500300  0.32519300  1
  Cr  Cr11  1  0.82500300  0.49980900  0.32519300  1
  Cr  Cr12  1  0.17461600  0.49980900  0.67480700  1
  Si  Si13  1  0.89358600  0.89358600  0.56445000  1
  Si  Si14  1  0.32913600  0.32913600  0.43555000  1
  Si  Si15  1  0.32913600  0.89358600  0.00000000  1
  Si  Si16  1  0.89358600  0.32913600  0.00000000  1
  Si  Si17  1  0.10543100  0.10543100  0.43349900  1
  Si  Si18  1  0.67193200  0.67193200  0.56650100  1
  Si  Si19  1  0.67193200  0.10543100  0.00000000  1
  Si  Si20  1  0.10543100  0.67193200  0.00000000  1
  Br  Br21  1  0.47575000  0.47575000  0.00000000  1
  O  O22  1  0.06020800  0.06020800  0.71631900  1
  O  O23  1  0.34389000  0.34389000  0.28368100  1
  O  O24  1  0.34389000  0.06020800  0.00000000  1
  O  O25  1  0.06020800  0.34389000  0.00000000  1
  O  O26  1  0.93922900  0.93922900  0.28521500  1
  O  O27  1  0.65401300  0.65401300  0.71478500  1
  O  O28  1  0.65401300  0.93922900  0.00000000  1
  O  O29  1  0.93922900  0.65401300  0.00000000  1
  O  O30  1  0.25403100  0.06827700  0.55664800  1
  O  O31  1  0.51162900  0.69738300  0.44335200  1
  O  O32  1  0.51162900  0.06827700  0.81424600  1
  O  O33  1  0.25403100  0.69738300  0.18575400  1
  O  O34  1  0.69738300  0.25403100  0.18575400  1
  O  O35  1  0.06827700  0.51162900  0.81424600  1
  O  O36  1  0.06827700  0.25403100  0.55664800  1
  O  O37  1  0.69738300  0.51162900  0.44335200  1
  O  O38  1  0.74536500  0.93121100  0.44206300  1
  O  O39  1  0.48914900  0.30330200  0.55793700  1
  O  O40  1  0.48914900  0.93121100  0.18584600  1
  O  O41  1  0.74536500  0.30330200  0.81415400  1
  O  O42  1  0.30330200  0.74536500  0.81415400  1
  O  O43  1  0.93121100  0.48914900  0.18584600  1
  O  O44  1  0.93121100  0.74536500  0.44206300  1
  O  O45  1  0.30330200  0.48914900  0.55793700  1
  O  O46  1  0.83725600  0.83725600  0.67386200  1
  O  O47  1  0.16339300  0.16339300  0.32613800  1
  O  O48  1  0.16339300  0.83725600  0.00000000  1
  O  O49  1  0.83725600  0.16339300  0.00000000  1
