# generated using pymatgen
data_SmSnF7
_symmetry_space_group_name_H-M   'P 1'
_cell_length_a   5.74959500
_cell_length_b   9.15795600
_cell_length_c   12.30934160
_cell_angle_alpha   62.23823466
_cell_angle_beta   90.00000000
_cell_angle_gamma   90.00000000
_symmetry_Int_Tables_number   1
_chemical_formula_structural   SmSnF7
_chemical_formula_sum   'Sm4 Sn4 F28'
_cell_volume   573.53629089
_cell_formula_units_Z   4
loop_
 _symmetry_equiv_pos_site_id
 _symmetry_equiv_pos_as_xyz
  1  'x, y, z'
loop_
 _atom_site_type_symbol
 _atom_site_label
 _atom_site_symmetry_multiplicity
 _atom_site_fract_x
 _atom_site_fract_y
 _atom_site_fract_z
 _atom_site_occupancy
  Sm  Sm0  1  0.75796900  0.81234300  0.26543200  1
  Sm  Sm1  1  0.25796900  0.18765700  0.23456800  1
  Sm  Sm2  1  0.24203100  0.18765700  0.73456800  1
  Sm  Sm3  1  0.74203100  0.81234300  0.76543200  1
  Sn  Sn4  1  0.24399300  0.72708500  0.54296200  1
  Sn  Sn5  1  0.74399300  0.27291500  0.95703800  1
  Sn  Sn6  1  0.75600700  0.27291500  0.45703800  1
  Sn  Sn7  1  0.25600700  0.72708500  0.04296200  1
  F  F8  1  0.95491600  0.71689600  0.45478900  1
  F  F9  1  0.45491600  0.28310400  0.04521100  1
  F  F10  1  0.04508400  0.28310400  0.54521100  1
  F  F11  1  0.54508400  0.71689600  0.95478900  1
  F  F12  1  0.04769300  0.70852100  0.91989700  1
  F  F13  1  0.54769300  0.29147900  0.58010300  1
  F  F14  1  0.95230700  0.29147900  0.08010300  1
  F  F15  1  0.45230700  0.70852100  0.41989700  1
  F  F16  1  0.73136400  0.51811800  0.85967700  1
  F  F17  1  0.23136400  0.48188200  0.64032300  1
  F  F18  1  0.26863600  0.48188200  0.14032300  1
  F  F19  1  0.76863600  0.51811800  0.35967700  1
  F  F20  1  0.74018000  0.02723900  0.05354000  1
  F  F21  1  0.24018000  0.97276100  0.44646000  1
  F  F22  1  0.25982000  0.97276100  0.94646000  1
  F  F23  1  0.75982000  0.02723900  0.55354000  1
  F  F24  1  0.04373800  0.74432800  0.67028200  1
  F  F25  1  0.54373800  0.25567200  0.82971800  1
  F  F26  1  0.95626200  0.25567200  0.32971800  1
  F  F27  1  0.45626200  0.74432800  0.17028200  1
  F  F28  1  0.01936600  0.26953700  0.85874100  1
  F  F29  1  0.51936600  0.73046300  0.64125900  1
  F  F30  1  0.98063400  0.73046300  0.14125900  1
  F  F31  1  0.48063400  0.26953700  0.35874100  1
  F  F32  1  0.08106200  0.96987000  0.23328500  1
  F  F33  1  0.58106200  0.03013000  0.26671500  1
  F  F34  1  0.91893800  0.03013000  0.76671500  1
  F  F35  1  0.41893800  0.96987000  0.73328500  1
