# generated using pymatgen
data_RbPSe6
_symmetry_space_group_name_H-M   'P 1'
_cell_length_a   7.06010900
_cell_length_b   11.78553500
_cell_length_c   12.37850200
_cell_angle_alpha   90.00000000
_cell_angle_beta   90.00000000
_cell_angle_gamma   90.00000000
_symmetry_Int_Tables_number   1
_chemical_formula_structural   RbPSe6
_chemical_formula_sum   'Rb4 P4 Se24'
_cell_volume   1029.98001781
_cell_formula_units_Z   4
loop_
 _symmetry_equiv_pos_site_id
 _symmetry_equiv_pos_as_xyz
  1  'x, y, z'
loop_
 _atom_site_type_symbol
 _atom_site_label
 _atom_site_symmetry_multiplicity
 _atom_site_fract_x
 _atom_site_fract_y
 _atom_site_fract_z
 _atom_site_occupancy
  Rb  Rb0  1  0.68191900  0.63349900  0.37380600  1
  Rb  Rb1  1  0.31808100  0.13349900  0.62619400  1
  Rb  Rb2  1  0.31808100  0.63349900  0.87380600  1
  Rb  Rb3  1  0.68191900  0.13349900  0.12619400  1
  P  P4  1  0.28763100  0.81326500  0.16759100  1
  P  P5  1  0.28763100  0.31326500  0.33240900  1
  P  P6  1  0.71236900  0.81326500  0.66759100  1
  P  P7  1  0.71236900  0.31326500  0.83240900  1
  Se  Se8  1  0.08427300  0.17606200  0.35557900  1
  Se  Se9  1  0.08427300  0.67606200  0.14442100  1
  Se  Se10  1  0.91572700  0.17606200  0.85557900  1
  Se  Se11  1  0.91572700  0.67606200  0.64442100  1
  Se  Se12  1  0.18828400  0.98349100  0.08894400  1
  Se  Se13  1  0.81171600  0.48349100  0.91105600  1
  Se  Se14  1  0.81171600  0.98349100  0.58894400  1
  Se  Se15  1  0.18828400  0.48349100  0.41105600  1
  Se  Se16  1  0.24023400  0.94280600  0.90413700  1
  Se  Se17  1  0.75976600  0.44280600  0.09586300  1
  Se  Se18  1  0.75976600  0.94280600  0.40413700  1
  Se  Se19  1  0.24023400  0.44280600  0.59586300  1
  Se  Se20  1  0.55634700  0.02028700  0.86852900  1
  Se  Se21  1  0.44365300  0.52028700  0.13147100  1
  Se  Se22  1  0.44365300  0.02028700  0.36852900  1
  Se  Se23  1  0.55634700  0.52028700  0.63147100  1
  Se  Se24  1  0.74887400  0.85199800  0.84742400  1
  Se  Se25  1  0.25112600  0.35199800  0.15257600  1
  Se  Se26  1  0.25112600  0.85199800  0.34742400  1
  Se  Se27  1  0.74887400  0.35199800  0.65257600  1
  Se  Se28  1  0.58050600  0.78050200  0.12277200  1
  Se  Se29  1  0.41949400  0.28050200  0.87722800  1
  Se  Se30  1  0.41949400  0.78050200  0.62277200  1
  Se  Se31  1  0.58050600  0.28050200  0.37722800  1
