# generated using pymatgen
data_Nd14Au51
_symmetry_space_group_name_H-M   'P 1'
_cell_length_a   12.99840307
_cell_length_b   12.99840307
_cell_length_c   9.44644100
_cell_angle_alpha   90.00000000
_cell_angle_beta   90.00000000
_cell_angle_gamma   119.99999527
_symmetry_Int_Tables_number   1
_chemical_formula_structural   Nd14Au51
_chemical_formula_sum   'Nd14 Au51'
_cell_volume   1382.22539820
_cell_formula_units_Z   1
loop_
 _symmetry_equiv_pos_site_id
 _symmetry_equiv_pos_as_xyz
  1  'x, y, z'
loop_
 _atom_site_type_symbol
 _atom_site_label
 _atom_site_symmetry_multiplicity
 _atom_site_fract_x
 _atom_site_fract_y
 _atom_site_fract_z
 _atom_site_occupancy
  Nd  Nd0  1  0.19251700  0.99046200  0.50000000  1
  Nd  Nd1  1  0.00953800  0.20205500  0.50000000  1
  Nd  Nd2  1  0.79794500  0.80748300  0.50000000  1
  Nd  Nd3  1  0.47578800  0.34239900  0.50000000  1
  Nd  Nd4  1  0.65760100  0.13338900  0.50000000  1
  Nd  Nd5  1  0.86661100  0.52421200  0.50000000  1
  Nd  Nd6  1  0.94958700  0.39732700  0.00000000  1
  Nd  Nd7  1  0.60267300  0.55226100  0.00000000  1
  Nd  Nd8  1  0.44773900  0.05041300  0.00000000  1
  Nd  Nd9  1  0.73415100  0.94935300  0.00000000  1
  Nd  Nd10  1  0.05064700  0.78479900  0.00000000  1
  Nd  Nd11  1  0.21520100  0.26584900  0.00000000  1
  Nd  Nd12  1  0.33333300  0.66666700  0.29704100  1
  Nd  Nd13  1  0.33333300  0.66666700  0.70295900  1
  Au  Au14  1  0.00000000  0.00000000  0.00000000  1
  Au  Au15  1  0.66666700  0.33333300  0.00000000  1
  Au  Au16  1  0.89244100  0.33098800  0.33491500  1
  Au  Au17  1  0.66901200  0.56145300  0.33491500  1
  Au  Au18  1  0.43854700  0.10755900  0.33491500  1
  Au  Au19  1  0.77629300  0.00465200  0.33638800  1
  Au  Au20  1  0.99534800  0.77164000  0.33638800  1
  Au  Au21  1  0.22836000  0.22370700  0.33638800  1
  Au  Au22  1  0.77629300  0.00465200  0.66361200  1
  Au  Au23  1  0.99534800  0.77164000  0.66361200  1
  Au  Au24  1  0.22836000  0.22370700  0.66361200  1
  Au  Au25  1  0.89244100  0.33098800  0.66508500  1
  Au  Au26  1  0.66901200  0.56145300  0.66508500  1
  Au  Au27  1  0.43854700  0.10755900  0.66508500  1
  Au  Au28  1  0.21821000  0.04463300  0.15268200  1
  Au  Au29  1  0.95536700  0.17357700  0.15268200  1
  Au  Au30  1  0.82642300  0.78179000  0.15268200  1
  Au  Au31  1  0.44977500  0.28572000  0.15045300  1
  Au  Au32  1  0.71428000  0.16405500  0.15045300  1
  Au  Au33  1  0.83594500  0.55022500  0.15045300  1
  Au  Au34  1  0.44977500  0.28572000  0.84954700  1
  Au  Au35  1  0.71428000  0.16405500  0.84954700  1
  Au  Au36  1  0.83594500  0.55022500  0.84954700  1
  Au  Au37  1  0.21821000  0.04463300  0.84731800  1
  Au  Au38  1  0.95536700  0.17357700  0.84731800  1
  Au  Au39  1  0.82642300  0.78179000  0.84731800  1
  Au  Au40  1  0.06219900  0.59117000  0.23661800  1
  Au  Au41  1  0.40883000  0.47102900  0.23661800  1
  Au  Au42  1  0.52897100  0.93780100  0.23661800  1
  Au  Au43  1  0.59910100  0.73901100  0.22929700  1
  Au  Au44  1  0.26098900  0.86009100  0.22929700  1
  Au  Au45  1  0.13990900  0.40089900  0.22929700  1
  Au  Au46  1  0.59910100  0.73901100  0.77070300  1
  Au  Au47  1  0.26098900  0.86009100  0.77070300  1
  Au  Au48  1  0.13990900  0.40089900  0.77070300  1
  Au  Au49  1  0.06219900  0.59117000  0.76338200  1
  Au  Au50  1  0.40883000  0.47102900  0.76338200  1
  Au  Au51  1  0.52897100  0.93780100  0.76338200  1
  Au  Au52  1  0.00000000  0.00000000  0.30599400  1
  Au  Au53  1  0.66666700  0.33333300  0.30587600  1
  Au  Au54  1  0.66666700  0.33333300  0.69412400  1
  Au  Au55  1  0.00000000  0.00000000  0.69400600  1
  Au  Au56  1  0.09538500  0.48902300  0.50000000  1
  Au  Au57  1  0.51097700  0.60636100  0.50000000  1
  Au  Au58  1  0.39363900  0.90461500  0.50000000  1
  Au  Au59  1  0.57301500  0.84504200  0.50000000  1
  Au  Au60  1  0.15495800  0.72797300  0.50000000  1
  Au  Au61  1  0.27202700  0.42698500  0.50000000  1
  Au  Au62  1  0.22074900  0.69232000  0.00000000  1
  Au  Au63  1  0.30768000  0.52842900  0.00000000  1
  Au  Au64  1  0.47157100  0.77925100  0.00000000  1
