# generated using pymatgen
data_Ga4Hg11(PCl4)4
_symmetry_space_group_name_H-M   'P 1'
_cell_length_a   7.66319271
_cell_length_b   7.66319271
_cell_length_c   22.57559522
_cell_angle_alpha   80.72528449
_cell_angle_beta   80.72528449
_cell_angle_gamma   59.94233105
_symmetry_Int_Tables_number   1
_chemical_formula_structural   Ga4Hg11(PCl4)4
_chemical_formula_sum   'Ga4 Hg11 P4 Cl16'
_cell_volume   1127.42399810
_cell_formula_units_Z   1
loop_
 _symmetry_equiv_pos_site_id
 _symmetry_equiv_pos_as_xyz
  1  'x, y, z'
loop_
 _atom_site_type_symbol
 _atom_site_label
 _atom_site_symmetry_multiplicity
 _atom_site_fract_x
 _atom_site_fract_y
 _atom_site_fract_z
 _atom_site_occupancy
  Ga  Ga0  1  0.63079800  0.63079800  0.61330000  1
  Ga  Ga1  1  0.36920200  0.36920200  0.38670000  1
  Ga  Ga2  1  0.21182000  0.21182000  0.88453900  1
  Ga  Ga3  1  0.78818000  0.78818000  0.11546100  1
  Hg  Hg4  1  0.52184500  0.52184500  0.93989000  1
  Hg  Hg5  1  0.47815500  0.47815500  0.06011000  1
  Hg  Hg6  1  0.96110000  0.96110000  0.62032100  1
  Hg  Hg7  1  0.03890000  0.03890000  0.37967900  1
  Hg  Hg8  1  0.00000000  0.00000000  0.50000000  1
  Hg  Hg9  1  0.74436800  0.74436800  0.78072800  1
  Hg  Hg10  1  0.25563200  0.25563200  0.21927200  1
  Hg  Hg11  1  0.24408800  0.74438600  0.77997600  1
  Hg  Hg12  1  0.74438600  0.24408800  0.77997600  1
  Hg  Hg13  1  0.75591200  0.25561400  0.22002400  1
  Hg  Hg14  1  0.25561400  0.75591200  0.22002400  1
  P  P15  1  0.56282000  0.56282000  0.82636700  1
  P  P16  1  0.43718000  0.43718000  0.17363300  1
  P  P17  1  0.92488100  0.92488100  0.73488300  1
  P  P18  1  0.07511900  0.07511900  0.26511700  1
  Cl  Cl19  1  0.24330700  0.24330700  0.78466000  1
  Cl  Cl20  1  0.75669300  0.75669300  0.21534000  1
  Cl  Cl21  1  0.04445800  0.04445800  0.91452600  1
  Cl  Cl22  1  0.95554200  0.95554200  0.08547400  1
  Cl  Cl23  1  0.46382500  0.92811400  0.65153200  1
  Cl  Cl24  1  0.92811400  0.46382500  0.65153200  1
  Cl  Cl25  1  0.53617500  0.07188600  0.34846800  1
  Cl  Cl26  1  0.07188600  0.53617500  0.34846800  1
  Cl  Cl27  1  0.46404900  0.46404900  0.65151600  1
  Cl  Cl28  1  0.53595100  0.53595100  0.34848400  1
  Cl  Cl29  1  0.04443800  0.51924100  0.91403400  1
  Cl  Cl30  1  0.51924100  0.04443800  0.91403400  1
  Cl  Cl31  1  0.95556200  0.48075900  0.08596600  1
  Cl  Cl32  1  0.48075900  0.95556200  0.08596600  1
  Cl  Cl33  1  0.66065200  0.66065200  0.51567400  1
  Cl  Cl34  1  0.33934800  0.33934800  0.48432600  1
