# generated using pymatgen
data_BaNaAlF6
_symmetry_space_group_name_H-M   'P 1'
_cell_length_a   5.52503700
_cell_length_b   10.03262600
_cell_length_c   18.96049400
_cell_angle_alpha   90.00000000
_cell_angle_beta   90.00000000
_cell_angle_gamma   90.00000000
_symmetry_Int_Tables_number   1
_chemical_formula_structural   BaNaAlF6
_chemical_formula_sum   'Ba8 Na8 Al8 F48'
_cell_volume   1050.99212482
_cell_formula_units_Z   8
loop_
 _symmetry_equiv_pos_site_id
 _symmetry_equiv_pos_as_xyz
  1  'x, y, z'
loop_
 _atom_site_type_symbol
 _atom_site_label
 _atom_site_symmetry_multiplicity
 _atom_site_fract_x
 _atom_site_fract_y
 _atom_site_fract_z
 _atom_site_occupancy
  Ba  Ba0  1  0.73667100  0.32920300  0.36222400  1
  Ba  Ba1  1  0.26332900  0.82920300  0.63777600  1
  Ba  Ba2  1  0.76332900  0.32920300  0.86222400  1
  Ba  Ba3  1  0.23667100  0.82920300  0.13777600  1
  Ba  Ba4  1  0.24180500  0.69837900  0.38878600  1
  Ba  Ba5  1  0.74180500  0.19837900  0.11121400  1
  Ba  Ba6  1  0.25819500  0.69837900  0.88878600  1
  Ba  Ba7  1  0.75819500  0.19837900  0.61121400  1
  Na  Na8  1  0.24063700  0.06458100  0.31384400  1
  Na  Na9  1  0.23610700  0.46269200  0.06679400  1
  Na  Na10  1  0.76389300  0.96269200  0.93320600  1
  Na  Na11  1  0.26389300  0.46269200  0.56679400  1
  Na  Na12  1  0.73610700  0.96269200  0.43320600  1
  Na  Na13  1  0.74063700  0.56458100  0.18615600  1
  Na  Na14  1  0.25936300  0.06458100  0.81384400  1
  Na  Na15  1  0.75936300  0.56458100  0.68615600  1
  Al  Al16  1  0.25138600  0.43641500  0.24293800  1
  Al  Al17  1  0.73081100  0.58984900  0.00779400  1
  Al  Al18  1  0.26918900  0.08984900  0.99220600  1
  Al  Al19  1  0.76918900  0.58984900  0.50779400  1
  Al  Al20  1  0.23081100  0.08984900  0.49220600  1
  Al  Al21  1  0.74861400  0.93641500  0.75706200  1
  Al  Al22  1  0.24861400  0.43641500  0.74293800  1
  Al  Al23  1  0.75138600  0.93641500  0.25706200  1
  F  F24  1  0.01125900  0.99875100  0.03007500  1
  F  F25  1  0.98874100  0.49875100  0.96992500  1
  F  F26  1  0.48874100  0.99875100  0.53007500  1
  F  F27  1  0.51125900  0.49875100  0.46992500  1
  F  F28  1  0.45392100  0.67534800  0.03669400  1
  F  F29  1  0.54607900  0.17534800  0.96330600  1
  F  F30  1  0.04607900  0.67534800  0.53669400  1
  F  F31  1  0.95392100  0.17534800  0.46330600  1
  F  F32  1  0.20613800  0.22846900  0.05193300  1
  F  F33  1  0.79386200  0.72846900  0.94806700  1
  F  F34  1  0.29386200  0.22846900  0.55193300  1
  F  F35  1  0.70613800  0.72846900  0.44806700  1
  F  F36  1  0.46087300  0.00779700  0.05927200  1
  F  F37  1  0.53912700  0.50779700  0.94072800  1
  F  F38  1  0.03912700  0.00779700  0.55927200  1
  F  F39  1  0.96087300  0.50779700  0.44072800  1
  F  F40  1  0.92262600  0.65498300  0.07762300  1
  F  F41  1  0.07737400  0.15498300  0.92237700  1
  F  F42  1  0.04727900  0.51881300  0.80778200  1
  F  F43  1  0.42262600  0.15498300  0.42237700  1
  F  F44  1  0.66038200  0.45010600  0.06786200  1
  F  F45  1  0.33961800  0.95010600  0.93213800  1
  F  F46  1  0.83961800  0.45010600  0.56786200  1
  F  F47  1  0.16038200  0.95010600  0.43213800  1
  F  F48  1  0.69617100  0.79864900  0.19619500  1
  F  F49  1  0.30382900  0.29864900  0.80380500  1
  F  F50  1  0.80382900  0.79864900  0.69619500  1
  F  F51  1  0.19617100  0.29864900  0.30380500  1
  F  F52  1  0.95272100  0.01881300  0.19221800  1
  F  F53  1  0.99714800  0.52722800  0.28235700  1
  F  F54  1  0.54727900  0.01881300  0.69221800  1
  F  F55  1  0.45272100  0.51881300  0.30778200  1
  F  F56  1  0.05302700  0.37064400  0.17519400  1
  F  F57  1  0.94697300  0.87064400  0.82480600  1
  F  F58  1  0.44697300  0.37064400  0.67519400  1
  F  F59  1  0.55302700  0.87064400  0.32480600  1
  F  F60  1  0.31472300  0.57613300  0.18211400  1
  F  F61  1  0.68527700  0.07613300  0.81788600  1
  F  F62  1  0.18527700  0.57613300  0.68211400  1
  F  F63  1  0.81472300  0.07613300  0.31788600  1
  F  F64  1  0.52397800  0.35050900  0.21135300  1
  F  F65  1  0.47602200  0.85050900  0.78864700  1
  F  F66  1  0.97602200  0.35050900  0.71135300  1
  F  F67  1  0.02397800  0.85050900  0.28864700  1
  F  F68  1  0.49714800  0.02722800  0.21764300  1
  F  F69  1  0.50285200  0.52722800  0.78235700  1
  F  F70  1  0.00285200  0.02722800  0.71764300  1
  F  F71  1  0.57737400  0.65498300  0.57762300  1
