# generated using pymatgen
data_AlCr4AgS8
_symmetry_space_group_name_H-M   'P 1'
_cell_length_a   7.16089017
_cell_length_b   7.16089017
_cell_length_c   7.16089017
_cell_angle_alpha   60.00000000
_cell_angle_beta   60.00000000
_cell_angle_gamma   60.00000000
_symmetry_Int_Tables_number   1
_chemical_formula_structural   AlCr4AgS8
_chemical_formula_sum   'Al1 Cr4 Ag1 S8'
_cell_volume   259.64863328
_cell_formula_units_Z   1
loop_
 _symmetry_equiv_pos_site_id
 _symmetry_equiv_pos_as_xyz
  1  'x, y, z'
loop_
 _atom_site_type_symbol
 _atom_site_label
 _atom_site_symmetry_multiplicity
 _atom_site_fract_x
 _atom_site_fract_y
 _atom_site_fract_z
 _atom_site_occupancy
  Al  Al0  1  0.00000000  0.00000000  0.00000000  1
  Cr  Cr1  1  0.62152200  0.62152200  0.13543300  1
  Cr  Cr2  1  0.62152200  0.13543300  0.62152200  1
  Cr  Cr3  1  0.13543300  0.62152200  0.62152200  1
  Cr  Cr4  1  0.62152200  0.62152200  0.62152200  1
  Ag  Ag5  1  0.25000000  0.25000000  0.25000000  1
  S  S6  1  0.86734400  0.86734400  0.39796900  1
  S  S7  1  0.86734400  0.39796900  0.86734400  1
  S  S8  1  0.39796900  0.86734400  0.86734400  1
  S  S9  1  0.86734400  0.86734400  0.86734400  1
  S  S10  1  0.38989000  0.38989000  0.83033000  1
  S  S11  1  0.38989000  0.83033000  0.38989000  1
  S  S12  1  0.83033000  0.38989000  0.38989000  1
  S  S13  1  0.38989000  0.38989000  0.38989000  1
