# generated using pymatgen
data_Ba6Gd2Ga4O15
_symmetry_space_group_name_H-M   'P 1'
_cell_length_a   6.08680800
_cell_length_b   8.10382417
_cell_length_c   18.74471232
_cell_angle_alpha   91.09233311
_cell_angle_beta   90.00000000
_cell_angle_gamma   90.00000000
_symmetry_Int_Tables_number   1
_chemical_formula_structural   Ba6Gd2Ga4O15
_chemical_formula_sum   'Ba12 Gd4 Ga8 O30'
_cell_volume   924.44155868
_cell_formula_units_Z   2
loop_
 _symmetry_equiv_pos_site_id
 _symmetry_equiv_pos_as_xyz
  1  'x, y, z'
loop_
 _atom_site_type_symbol
 _atom_site_label
 _atom_site_symmetry_multiplicity
 _atom_site_fract_x
 _atom_site_fract_y
 _atom_site_fract_z
 _atom_site_occupancy
  Ba  Ba0  1  0.75668800  0.49833700  0.42102700  1
  Ba  Ba1  1  0.24331200  0.50166300  0.57897300  1
  Ba  Ba2  1  0.75668800  0.50166300  0.07897300  1
  Ba  Ba3  1  0.24331200  0.49833700  0.92102700  1
  Ba  Ba4  1  0.74235200  0.97029300  0.40993600  1
  Ba  Ba5  1  0.25764800  0.02970700  0.59006400  1
  Ba  Ba6  1  0.74235200  0.02970700  0.09006400  1
  Ba  Ba7  1  0.25764800  0.97029300  0.90993600  1
  Ba  Ba8  1  0.72312200  0.00000000  0.75000000  1
  Ba  Ba9  1  0.27687800  0.00000000  0.25000000  1
  Ba  Ba10  1  0.66614500  0.50000000  0.75000000  1
  Ba  Ba11  1  0.33385500  0.50000000  0.25000000  1
  Gd  Gd12  1  0.74414800  0.75142700  0.59022300  1
  Gd  Gd13  1  0.25585200  0.24857300  0.40977700  1
  Gd  Gd14  1  0.74414800  0.24857300  0.90977700  1
  Gd  Gd15  1  0.25585200  0.75142700  0.09022300  1
  Ga  Ga16  1  0.75297300  0.75354000  0.94047700  1
  Ga  Ga17  1  0.24702700  0.24646000  0.05952300  1
  Ga  Ga18  1  0.75297300  0.24646000  0.55952300  1
  Ga  Ga19  1  0.24702700  0.75354000  0.44047700  1
  Ga  Ga20  1  0.77657200  0.77049400  0.23511000  1
  Ga  Ga21  1  0.22342800  0.22950600  0.76489000  1
  Ga  Ga22  1  0.77657200  0.22950600  0.26489000  1
  Ga  Ga23  1  0.22342800  0.77049400  0.73511000  1
  O  O24  1  0.20922000  0.00000000  0.75000000  1
  O  O25  1  0.79078000  0.00000000  0.25000000  1
  O  O26  1  0.49809100  0.76527000  0.49949200  1
  O  O27  1  0.50190900  0.23473000  0.50050800  1
  O  O28  1  0.49809100  0.23473000  0.00050800  1
  O  O29  1  0.50190900  0.76527000  0.99949200  1
  O  O30  1  0.76046800  0.95136700  0.89004000  1
  O  O31  1  0.23953200  0.04863400  0.10996000  1
  O  O32  1  0.76046800  0.04863400  0.60996000  1
  O  O33  1  0.23953200  0.95136700  0.39004000  1
  O  O34  1  0.00031800  0.76293400  0.50279000  1
  O  O35  1  0.99968200  0.23706600  0.49721000  1
  O  O36  1  0.00031800  0.23706600  0.99721000  1
  O  O37  1  0.99968200  0.76293400  0.00279000  1
  O  O38  1  0.32468500  0.68989700  0.81922200  1
  O  O39  1  0.67531500  0.31010300  0.18077800  1
  O  O40  1  0.32468500  0.31010300  0.68077800  1
  O  O41  1  0.67531500  0.68989700  0.31922200  1
  O  O42  1  0.44589700  0.74734300  0.66513000  1
  O  O43  1  0.55410300  0.25265700  0.33487000  1
  O  O44  1  0.44589700  0.25265700  0.83487000  1
  O  O45  1  0.55410300  0.74734300  0.16513000  1
  O  O46  1  0.95424900  0.72636100  0.69250600  1
  O  O47  1  0.04575100  0.27363900  0.30749400  1
  O  O48  1  0.95424900  0.27363900  0.80749400  1
  O  O49  1  0.04575100  0.72636100  0.19250600  1
  O  O50  1  0.75669000  0.53453900  0.90657100  1
  O  O51  1  0.24331100  0.46546100  0.09342900  1
  O  O52  1  0.75669000  0.46546100  0.59342900  1
  O  O53  1  0.24331100  0.53453900  0.40657100  1
