# generated using pymatgen
data_MgCoF6
_symmetry_space_group_name_H-M   'P 1'
_cell_length_a   5.39061582
_cell_length_b   5.39061582
_cell_length_c   5.39061555
_cell_angle_alpha   58.21051111
_cell_angle_beta   58.21051111
_cell_angle_gamma   58.21050547
_symmetry_Int_Tables_number   1
_chemical_formula_structural   MgCoF6
_chemical_formula_sum   'Mg1 Co1 F6'
_cell_volume   106.22282746
_cell_formula_units_Z   1
loop_
 _symmetry_equiv_pos_site_id
 _symmetry_equiv_pos_as_xyz
  1  'x, y, z'
loop_
 _atom_site_type_symbol
 _atom_site_label
 _atom_site_symmetry_multiplicity
 _atom_site_fract_x
 _atom_site_fract_y
 _atom_site_fract_z
 _atom_site_occupancy
  Mg  Mg0  1  0.50000000  0.50000000  0.50000000  1
  Co  Co1  1  0.00000000  0.00000000  0.00000000  1
  F  F2  1  0.67337800  0.84621300  0.23908200  1
  F  F3  1  0.84621300  0.23908200  0.67337800  1
  F  F4  1  0.76091800  0.32662200  0.15378700  1
  F  F5  1  0.15378700  0.76091800  0.32662200  1
  F  F6  1  0.32662200  0.15378700  0.76091800  1
  F  F7  1  0.23908200  0.67337800  0.84621300  1
