# generated using pymatgen
data_Nd(Co2B)6
_symmetry_space_group_name_H-M   'P 1'
_cell_length_a   5.97961587
_cell_length_b   5.97961587
_cell_length_c   5.97961575
_cell_angle_alpha   103.96244539
_cell_angle_beta   103.96244539
_cell_angle_gamma   103.96244970
_symmetry_Int_Tables_number   1
_chemical_formula_structural   Nd(Co2B)6
_chemical_formula_sum   'Nd1 Co12 B6'
_cell_volume   190.90474608
_cell_formula_units_Z   1
loop_
 _symmetry_equiv_pos_site_id
 _symmetry_equiv_pos_as_xyz
  1  'x, y, z'
loop_
 _atom_site_type_symbol
 _atom_site_label
 _atom_site_symmetry_multiplicity
 _atom_site_fract_x
 _atom_site_fract_y
 _atom_site_fract_z
 _atom_site_occupancy
  Nd  Nd0  1  0.00000000  0.00000000  0.00000000  1
  Co  Co1  1  0.54150000  0.81339700  0.54150000  1
  Co  Co2  1  0.54150000  0.54150000  0.81339700  1
  Co  Co3  1  0.81339700  0.54150000  0.54150000  1
  Co  Co4  1  0.45850000  0.18660300  0.45850000  1
  Co  Co5  1  0.45850000  0.45850000  0.18660300  1
  Co  Co6  1  0.18660300  0.45850000  0.45850000  1
  Co  Co7  1  0.13294900  0.86705100  0.50000000  1
  Co  Co8  1  0.50000000  0.13294900  0.86705100  1
  Co  Co9  1  0.86705100  0.50000000  0.13294900  1
  Co  Co10  1  0.50000000  0.86705100  0.13294900  1
  Co  Co11  1  0.13294900  0.50000000  0.86705100  1
  Co  Co12  1  0.86705100  0.13294900  0.50000000  1
  B  B13  1  0.76822700  0.32605100  0.76822700  1
  B  B14  1  0.76822700  0.76822700  0.32605100  1
  B  B15  1  0.32605100  0.76822700  0.76822700  1
  B  B16  1  0.23177300  0.67394900  0.23177300  1
  B  B17  1  0.23177300  0.23177300  0.67394900  1
  B  B18  1  0.67394900  0.23177300  0.23177300  1
