# generated using pymatgen
data_LuAl2Ni
_symmetry_space_group_name_H-M   'P 1'
_cell_length_a   5.33359331
_cell_length_b   5.33359331
_cell_length_c   6.86459600
_cell_angle_alpha   90.00000000
_cell_angle_beta   90.00000000
_cell_angle_gamma   135.64123448
_symmetry_Int_Tables_number   1
_chemical_formula_structural   LuAl2Ni
_chemical_formula_sum   'Lu2 Al4 Ni2'
_cell_volume   136.52887110
_cell_formula_units_Z   2
loop_
 _symmetry_equiv_pos_site_id
 _symmetry_equiv_pos_as_xyz
  1  'x, y, z'
loop_
 _atom_site_type_symbol
 _atom_site_label
 _atom_site_symmetry_multiplicity
 _atom_site_fract_x
 _atom_site_fract_y
 _atom_site_fract_z
 _atom_site_occupancy
  Lu  Lu0  1  0.56401600  0.43598400  0.25000000  1
  Lu  Lu1  1  0.43598400  0.56401600  0.75000000  1
  Al  Al2  1  0.84879700  0.15120300  0.05382600  1
  Al  Al3  1  0.15120300  0.84879700  0.94617400  1
  Al  Al4  1  0.15120300  0.84879700  0.55382600  1
  Al  Al5  1  0.84879700  0.15120300  0.44617400  1
  Ni  Ni6  1  0.28499200  0.71500800  0.25000000  1
  Ni  Ni7  1  0.71500800  0.28499200  0.75000000  1
