# generated using pymatgen
data_ThB4W
_symmetry_space_group_name_H-M   'P 1'
_cell_length_a   6.12589952
_cell_length_b   6.12589952
_cell_length_c   3.76641500
_cell_angle_alpha   90.00000000
_cell_angle_beta   90.00000000
_cell_angle_gamma   104.23198575
_symmetry_Int_Tables_number   1
_chemical_formula_structural   ThB4W
_chemical_formula_sum   'Th2 B8 W2'
_cell_volume   137.00291874
_cell_formula_units_Z   2
loop_
 _symmetry_equiv_pos_site_id
 _symmetry_equiv_pos_as_xyz
  1  'x, y, z'
loop_
 _atom_site_type_symbol
 _atom_site_label
 _atom_site_symmetry_multiplicity
 _atom_site_fract_x
 _atom_site_fract_y
 _atom_site_fract_z
 _atom_site_occupancy
  Th  Th0  1  0.30190500  0.69809500  0.00000000  1
  Th  Th1  1  0.69809500  0.30190500  0.00000000  1
  B  B2  1  0.37747400  0.06443400  0.50000000  1
  B  B3  1  0.62252600  0.93556600  0.50000000  1
  B  B4  1  0.06443400  0.37747400  0.50000000  1
  B  B5  1  0.93556600  0.62252600  0.50000000  1
  B  B6  1  0.37227900  0.37227900  0.50000000  1
  B  B7  1  0.62772100  0.62772100  0.50000000  1
  B  B8  1  0.09012600  0.90987400  0.50000000  1
  B  B9  1  0.90987400  0.09012600  0.50000000  1
  W  W10  1  0.17179900  0.17179900  0.00000000  1
  W  W11  1  0.82820100  0.82820100  0.00000000  1
