# generated using pymatgen
data_NdAlAu
_symmetry_space_group_name_H-M   'P 1'
_cell_length_a   4.62199800
_cell_length_b   7.55841000
_cell_length_c   7.75019400
_cell_angle_alpha   90.00000000
_cell_angle_beta   90.00000000
_cell_angle_gamma   90.00000000
_symmetry_Int_Tables_number   1
_chemical_formula_structural   NdAlAu
_chemical_formula_sum   'Nd4 Al4 Au4'
_cell_volume   270.75268563
_cell_formula_units_Z   4
loop_
 _symmetry_equiv_pos_site_id
 _symmetry_equiv_pos_as_xyz
  1  'x, y, z'
loop_
 _atom_site_type_symbol
 _atom_site_label
 _atom_site_symmetry_multiplicity
 _atom_site_fract_x
 _atom_site_fract_y
 _atom_site_fract_z
 _atom_site_occupancy
  Nd  Nd0  1  0.25000000  0.00859400  0.30686500  1
  Nd  Nd1  1  0.25000000  0.50859400  0.19313500  1
  Nd  Nd2  1  0.75000000  0.99140600  0.69313500  1
  Nd  Nd3  1  0.75000000  0.49140600  0.80686500  1
  Al  Al4  1  0.25000000  0.16969200  0.91911400  1
  Al  Al5  1  0.25000000  0.66969200  0.58088600  1
  Al  Al6  1  0.75000000  0.83030800  0.08088600  1
  Al  Al7  1  0.75000000  0.33030800  0.41911400  1
  Au  Au8  1  0.25000000  0.29781000  0.59216000  1
  Au  Au9  1  0.25000000  0.79781000  0.90784000  1
  Au  Au10  1  0.75000000  0.70219000  0.40784000  1
  Au  Au11  1  0.75000000  0.20219000  0.09216000  1
