# generated using pymatgen
data_Cs2TiCu3F12
_symmetry_space_group_name_H-M   'P 1'
_cell_length_a   7.08470400
_cell_length_b   8.02957800
_cell_length_c   12.33409284
_cell_angle_alpha   58.81752482
_cell_angle_beta   90.00000000
_cell_angle_gamma   90.00000000
_symmetry_Int_Tables_number   1
_chemical_formula_structural   Cs2TiCu3F12
_chemical_formula_sum   'Cs4 Ti2 Cu6 F24'
_cell_volume   600.27902014
_cell_formula_units_Z   2
loop_
 _symmetry_equiv_pos_site_id
 _symmetry_equiv_pos_as_xyz
  1  'x, y, z'
loop_
 _atom_site_type_symbol
 _atom_site_label
 _atom_site_symmetry_multiplicity
 _atom_site_fract_x
 _atom_site_fract_y
 _atom_site_fract_z
 _atom_site_occupancy
  Cs  Cs0  1  0.49783900  0.33750600  0.38662900  1
  Cs  Cs1  1  0.00216100  0.33750600  0.88662900  1
  Cs  Cs2  1  0.50216100  0.66249400  0.61337100  1
  Cs  Cs3  1  0.99783900  0.66249400  0.11337100  1
  Ti  Ti4  1  0.50000000  0.50000000  0.00000000  1
  Ti  Ti5  1  0.00000000  0.50000000  0.50000000  1
  Cu  Cu6  1  0.50000000  0.00000000  0.00000000  1
  Cu  Cu7  1  0.00000000  0.00000000  0.50000000  1
  Cu  Cu8  1  0.72880800  0.98884600  0.25802300  1
  Cu  Cu9  1  0.77119200  0.98884600  0.75802300  1
  Cu  Cu10  1  0.27119200  0.01115400  0.74197700  1
  Cu  Cu11  1  0.22880800  0.01115400  0.24197700  1
  F  F12  1  0.67442000  0.90874400  0.13841000  1
  F  F13  1  0.82558000  0.90874400  0.63841000  1
  F  F14  1  0.32558000  0.09125600  0.86159000  1
  F  F15  1  0.17442000  0.09125600  0.36159000  1
  F  F16  1  0.21690200  0.97155700  0.60347700  1
  F  F17  1  0.28309800  0.97155700  0.10347700  1
  F  F18  1  0.78309800  0.02844300  0.39652300  1
  F  F19  1  0.71690200  0.02844300  0.89652300  1
  F  F20  1  0.47208500  0.93782400  0.32043300  1
  F  F21  1  0.02791500  0.93782400  0.82043300  1
  F  F22  1  0.52791500  0.06217600  0.67956700  1
  F  F23  1  0.97208500  0.06217600  0.17956700  1
  F  F24  1  0.85039700  0.33613300  0.64437300  1
  F  F25  1  0.64960300  0.33613300  0.14437300  1
  F  F26  1  0.14960300  0.66386700  0.35562700  1
  F  F27  1  0.35039700  0.66386700  0.85562700  1
  F  F28  1  0.27938700  0.35799100  0.08519800  1
  F  F29  1  0.22061300  0.35799100  0.58519800  1
  F  F30  1  0.72061300  0.64200900  0.91480200  1
  F  F31  1  0.77938700  0.64200900  0.41480200  1
  F  F32  1  0.54443700  0.33635300  0.93352100  1
  F  F33  1  0.95556300  0.33635300  0.43352100  1
  F  F34  1  0.45556300  0.66364700  0.06647900  1
  F  F35  1  0.04443700  0.66364700  0.56647900  1
