# generated using pymatgen
data_Th2PNO
_symmetry_space_group_name_H-M   'P 1'
_cell_length_a   4.03717156
_cell_length_b   4.03717156
_cell_length_c   6.86415900
_cell_angle_alpha   90.00000000
_cell_angle_beta   90.00000000
_cell_angle_gamma   119.99999274
_symmetry_Int_Tables_number   1
_chemical_formula_structural   Th2PNO
_chemical_formula_sum   'Th2 P1 N1 O1'
_cell_volume   96.88853921
_cell_formula_units_Z   1
loop_
 _symmetry_equiv_pos_site_id
 _symmetry_equiv_pos_as_xyz
  1  'x, y, z'
loop_
 _atom_site_type_symbol
 _atom_site_label
 _atom_site_symmetry_multiplicity
 _atom_site_fract_x
 _atom_site_fract_y
 _atom_site_fract_z
 _atom_site_occupancy
  Th  Th0  1  0.33333300  0.66666700  0.27701400  1
  Th  Th1  1  0.66666700  0.33333300  0.72423500  1
  P  P2  1  0.00000000  0.00000000  0.00858600  1
  N  N3  1  0.33333300  0.66666700  0.62176700  1
  O  O4  1  0.66666700  0.33333300  0.36839900  1
