# generated using pymatgen
data_LuZn12
_symmetry_space_group_name_H-M   'P 1'
_cell_length_a   6.72665340
_cell_length_b   6.72665340
_cell_length_c   6.72665340
_cell_angle_alpha   99.27610149
_cell_angle_beta   99.27610149
_cell_angle_gamma   132.65760025
_symmetry_Int_Tables_number   1
_chemical_formula_structural   LuZn12
_chemical_formula_sum   'Lu1 Zn12'
_cell_volume   205.00365524
_cell_formula_units_Z   1
loop_
 _symmetry_equiv_pos_site_id
 _symmetry_equiv_pos_as_xyz
  1  'x, y, z'
loop_
 _atom_site_type_symbol
 _atom_site_label
 _atom_site_symmetry_multiplicity
 _atom_site_fract_x
 _atom_site_fract_y
 _atom_site_fract_z
 _atom_site_occupancy
  Lu  Lu0  1  0.00000000  0.00000000  0.00000000  1
  Zn  Zn1  1  0.00000000  0.00000000  0.50000000  1
  Zn  Zn2  1  0.50000000  0.50000000  0.50000000  1
  Zn  Zn3  1  0.50000000  0.00000000  0.00000000  1
  Zn  Zn4  1  0.00000000  0.50000000  0.00000000  1
  Zn  Zn5  1  0.00000000  0.35077600  0.35077600  1
  Zn  Zn6  1  0.00000000  0.64922400  0.64922400  1
  Zn  Zn7  1  0.64922400  0.00000000  0.64922400  1
  Zn  Zn8  1  0.35077600  0.00000000  0.35077600  1
  Zn  Zn9  1  0.50000000  0.28230900  0.78230900  1
  Zn  Zn10  1  0.50000000  0.71769100  0.21769100  1
  Zn  Zn11  1  0.71769100  0.50000000  0.21769100  1
  Zn  Zn12  1  0.28230900  0.50000000  0.78230900  1
