# generated using pymatgen
data_Ho3Ga2
_symmetry_space_group_name_H-M   'P 1'
_cell_length_a   11.04967683
_cell_length_b   11.04967683
_cell_length_c   11.04967683
_cell_angle_alpha   116.85837360
_cell_angle_beta   116.85837360
_cell_angle_gamma   95.53343691
_symmetry_Int_Tables_number   1
_chemical_formula_structural   Ho3Ga2
_chemical_formula_sum   'Ho24 Ga16'
_cell_volume   994.24866978
_cell_formula_units_Z   8
loop_
 _symmetry_equiv_pos_site_id
 _symmetry_equiv_pos_as_xyz
  1  'x, y, z'
loop_
 _atom_site_type_symbol
 _atom_site_label
 _atom_site_symmetry_multiplicity
 _atom_site_fract_x
 _atom_site_fract_y
 _atom_site_fract_z
 _atom_site_occupancy
  Ho  Ho0  1  0.14722500  0.64722500  0.50000000  1
  Ho  Ho1  1  0.64722500  0.14722500  0.50000000  1
  Ho  Ho2  1  0.85277500  0.35277500  0.50000000  1
  Ho  Ho3  1  0.35277500  0.85277500  0.50000000  1
  Ho  Ho4  1  0.66859900  0.16859900  0.83719800  1
  Ho  Ho5  1  0.33140100  0.83140100  0.16280200  1
  Ho  Ho6  1  0.16859900  0.33140100  0.50000000  1
  Ho  Ho7  1  0.83140100  0.66859900  0.50000000  1
  Ho  Ho8  1  0.06721100  0.93125700  0.27073200  1
  Ho  Ho9  1  0.66052500  0.79647900  0.72926800  1
  Ho  Ho10  1  0.56721100  0.29647900  0.13595400  1
  Ho  Ho11  1  0.16052500  0.43125700  0.86404600  1
  Ho  Ho12  1  0.79647900  0.06721100  0.13595400  1
  Ho  Ho13  1  0.93125700  0.66052500  0.86404600  1
  Ho  Ho14  1  0.43125700  0.56721100  0.27073200  1
  Ho  Ho15  1  0.29647900  0.16052500  0.72926800  1
  Ho  Ho16  1  0.93278900  0.06874300  0.72926800  1
  Ho  Ho17  1  0.33947500  0.20352100  0.27073200  1
  Ho  Ho18  1  0.43278900  0.70352100  0.86404600  1
  Ho  Ho19  1  0.83947500  0.56874300  0.13595400  1
  Ho  Ho20  1  0.20352100  0.93278900  0.86404600  1
  Ho  Ho21  1  0.06874300  0.33947500  0.13595400  1
  Ho  Ho22  1  0.56874300  0.43278900  0.72926800  1
  Ho  Ho23  1  0.70352100  0.83947500  0.27073200  1
  Ga  Ga24  1  0.75000000  0.75000000  0.00000000  1
  Ga  Ga25  1  0.25000000  0.25000000  0.00000000  1
  Ga  Ga26  1  0.00000000  0.00000000  0.00000000  1
  Ga  Ga27  1  0.50000000  0.50000000  0.00000000  1
  Ga  Ga28  1  0.11663300  0.61663300  0.73326500  1
  Ga  Ga29  1  0.88336700  0.38336700  0.26673500  1
  Ga  Ga30  1  0.61663300  0.88336700  0.50000000  1
  Ga  Ga31  1  0.38336700  0.11663300  0.50000000  1
  Ga  Ga32  1  0.87854100  0.37854100  0.85551100  1
  Ga  Ga33  1  0.52302900  0.02302900  0.14448900  1
  Ga  Ga34  1  0.37854100  0.52302900  0.50000000  1
  Ga  Ga35  1  0.02302900  0.87854100  0.50000000  1
  Ga  Ga36  1  0.12145900  0.62145900  0.14448900  1
  Ga  Ga37  1  0.47697100  0.97697100  0.85551100  1
  Ga  Ga38  1  0.62145900  0.47697100  0.50000000  1
  Ga  Ga39  1  0.97697100  0.12145900  0.50000000  1
