# generated using pymatgen
data_TmCrTeO6
_symmetry_space_group_name_H-M   'P 1'
_cell_length_a   5.17427763
_cell_length_b   5.17411609
_cell_length_c   9.65199600
_cell_angle_alpha   90.00126723
_cell_angle_beta   89.99937458
_cell_angle_gamma   119.99896251
_symmetry_Int_Tables_number   1
_chemical_formula_structural   TmCrTeO6
_chemical_formula_sum   'Tm2 Cr2 Te2 O12'
_cell_volume   223.78872449
_cell_formula_units_Z   2
loop_
 _symmetry_equiv_pos_site_id
 _symmetry_equiv_pos_as_xyz
  1  'x, y, z'
loop_
 _atom_site_type_symbol
 _atom_site_label
 _atom_site_symmetry_multiplicity
 _atom_site_fract_x
 _atom_site_fract_y
 _atom_site_fract_z
 _atom_site_occupancy
  Tm  Tm0  1  0.00000000  0.00000000  0.00000000  1
  Tm  Tm1  1  0.00000000  0.00000000  0.50000000  1
  Cr  Cr2  1  0.33309400  0.66654700  0.25000000  1
  Cr  Cr3  1  0.66690600  0.33345300  0.75000000  1
  Te  Te4  1  0.33331600  0.66665800  0.75000000  1
  Te  Te5  1  0.66668400  0.33334200  0.25000000  1
  O  O6  1  0.36192700  0.35170800  0.13800600  1
  O  O7  1  0.64829100  0.01019500  0.13799600  1
  O  O8  1  0.98981200  0.63808400  0.13800200  1
  O  O9  1  0.63807300  0.64829200  0.86199400  1
  O  O10  1  0.35170900  0.98980500  0.86200400  1
  O  O11  1  0.01018800  0.36191600  0.86199800  1
  O  O12  1  0.64829100  0.63809500  0.36200400  1
  O  O13  1  0.36192700  0.01021900  0.36199400  1
  O  O14  1  0.98981200  0.35172800  0.36199800  1
  O  O15  1  0.35170900  0.36190500  0.63799600  1
  O  O16  1  0.63807300  0.98978100  0.63800600  1
  O  O17  1  0.01018800  0.64827200  0.63800200  1
