# generated using pymatgen
data_Ti5InS8
_symmetry_space_group_name_H-M   'P 1'
_cell_length_a   9.10679489
_cell_length_b   9.10679489
_cell_length_c   8.87323030
_cell_angle_alpha   76.03199967
_cell_angle_beta   76.03199967
_cell_angle_gamma   21.57974522
_symmetry_Int_Tables_number   1
_chemical_formula_structural   Ti5InS8
_chemical_formula_sum   'Ti5 In1 S8'
_cell_volume   262.35884446
_cell_formula_units_Z   1
loop_
 _symmetry_equiv_pos_site_id
 _symmetry_equiv_pos_as_xyz
  1  'x, y, z'
loop_
 _atom_site_type_symbol
 _atom_site_label
 _atom_site_symmetry_multiplicity
 _atom_site_fract_x
 _atom_site_fract_y
 _atom_site_fract_z
 _atom_site_occupancy
  Ti  Ti0  1  0.50000000  0.50000000  0.50000000  1
  Ti  Ti1  1  0.20723100  0.20723100  0.15221400  1
  Ti  Ti2  1  0.79276900  0.79276900  0.84778600  1
  Ti  Ti3  1  0.84125200  0.84125200  0.49269400  1
  Ti  Ti4  1  0.15874800  0.15874800  0.50730600  1
  In  In5  1  0.00000000  0.00000000  0.00000000  1
  S  S6  1  0.33742000  0.33742000  0.99915200  1
  S  S7  1  0.66258000  0.66258000  0.00084800  1
  S  S8  1  0.74061100  0.74061100  0.33451200  1
  S  S9  1  0.25938900  0.25938900  0.66548800  1
  S  S10  1  0.41253200  0.41253200  0.32353400  1
  S  S11  1  0.58746800  0.58746800  0.67646600  1
  S  S12  1  0.07560200  0.07560200  0.33127700  1
  S  S13  1  0.92439800  0.92439800  0.66872300  1
