# generated using pymatgen
data_Na3Eu9B8O27
_symmetry_space_group_name_H-M   'P 1'
_cell_length_a   8.80928113
_cell_length_b   8.80928113
_cell_length_c   8.47210600
_cell_angle_alpha   90.00000000
_cell_angle_beta   90.00000000
_cell_angle_gamma   119.99999349
_symmetry_Int_Tables_number   1
_chemical_formula_structural   Na3Eu9B8O27
_chemical_formula_sum   'Na3 Eu9 B8 O27'
_cell_volume   569.38101333
_cell_formula_units_Z   1
loop_
 _symmetry_equiv_pos_site_id
 _symmetry_equiv_pos_as_xyz
  1  'x, y, z'
loop_
 _atom_site_type_symbol
 _atom_site_label
 _atom_site_symmetry_multiplicity
 _atom_site_fract_x
 _atom_site_fract_y
 _atom_site_fract_z
 _atom_site_occupancy
  Na  Na0  1  0.33543500  0.00000000  0.00000000  1
  Na  Na1  1  0.00000000  0.33543500  0.00000000  1
  Na  Na2  1  0.66456500  0.66456500  0.00000000  1
  Eu  Eu3  1  0.65138300  0.00000000  0.23704300  1
  Eu  Eu4  1  0.00000000  0.65138300  0.23704300  1
  Eu  Eu5  1  0.65138300  0.00000000  0.76295700  1
  Eu  Eu6  1  0.00000000  0.65138300  0.76295700  1
  Eu  Eu7  1  0.34861700  0.34861700  0.23704300  1
  Eu  Eu8  1  0.34861700  0.34861700  0.76295700  1
  Eu  Eu9  1  0.28130900  0.00000000  0.50000000  1
  Eu  Eu10  1  0.00000000  0.28130900  0.50000000  1
  Eu  Eu11  1  0.71869100  0.71869100  0.50000000  1
  B  B12  1  0.00000000  0.00000000  0.20982700  1
  B  B13  1  0.00000000  0.00000000  0.79017300  1
  B  B14  1  0.33333300  0.66666700  0.00000000  1
  B  B15  1  0.66666700  0.33333300  0.00000000  1
  B  B16  1  0.33333300  0.66666700  0.32516800  1
  B  B17  1  0.33333300  0.66666700  0.67483200  1
  B  B18  1  0.66666700  0.33333300  0.67483200  1
  B  B19  1  0.66666700  0.33333300  0.32516800  1
  O  O20  1  0.17741200  0.51130100  0.31897100  1
  O  O21  1  0.48869900  0.66611000  0.31897100  1
  O  O22  1  0.17741200  0.51130100  0.68102900  1
  O  O23  1  0.51130100  0.17741200  0.68102900  1
  O  O24  1  0.33389000  0.82258800  0.31897100  1
  O  O25  1  0.48869900  0.66611000  0.68102900  1
  O  O26  1  0.66611000  0.48869900  0.68102900  1
  O  O27  1  0.51130100  0.17741200  0.31897100  1
  O  O28  1  0.33389000  0.82258800  0.68102900  1
  O  O29  1  0.66611000  0.48869900  0.31897100  1
  O  O30  1  0.82258800  0.33389000  0.68102900  1
  O  O31  1  0.82258800  0.33389000  0.31897100  1
  O  O32  1  0.32216700  0.50337100  0.00000000  1
  O  O33  1  0.49662900  0.81879600  0.00000000  1
  O  O34  1  0.50337100  0.32216700  0.00000000  1
  O  O35  1  0.18120400  0.67783300  0.00000000  1
  O  O36  1  0.81879600  0.49662900  0.00000000  1
  O  O37  1  0.67783300  0.18120400  0.00000000  1
  O  O38  1  0.74586800  0.00000000  0.50000000  1
  O  O39  1  0.00000000  0.74586800  0.50000000  1
  O  O40  1  0.25413200  0.25413200  0.50000000  1
  O  O41  1  0.15665800  0.00000000  0.21207000  1
  O  O42  1  0.00000000  0.15665800  0.21207000  1
  O  O43  1  0.15665800  0.00000000  0.78793000  1
  O  O44  1  0.00000000  0.15665800  0.78793000  1
  O  O45  1  0.84334200  0.84334200  0.21207000  1
  O  O46  1  0.84334200  0.84334200  0.78793000  1
