# generated using pymatgen
data_K3Lu(BO3)2
_symmetry_space_group_name_H-M   'P 1'
_cell_length_a   5.51416400
_cell_length_b   6.78379200
_cell_length_c   9.33034400
_cell_angle_alpha   90.00000000
_cell_angle_beta   90.00000000
_cell_angle_gamma   90.00000000
_symmetry_Int_Tables_number   1
_chemical_formula_structural   K3Lu(BO3)2
_chemical_formula_sum   'K6 Lu2 B4 O12'
_cell_volume   349.01963339
_cell_formula_units_Z   2
loop_
 _symmetry_equiv_pos_site_id
 _symmetry_equiv_pos_as_xyz
  1  'x, y, z'
loop_
 _atom_site_type_symbol
 _atom_site_label
 _atom_site_symmetry_multiplicity
 _atom_site_fract_x
 _atom_site_fract_y
 _atom_site_fract_z
 _atom_site_occupancy
  K  K0  1  0.00000000  0.26736400  0.66769900  1
  K  K1  1  0.00000000  0.73263600  0.33230100  1
  K  K2  1  0.50000000  0.23263600  0.16769900  1
  K  K3  1  0.50000000  0.76736400  0.83230100  1
  K  K4  1  0.50000000  0.00000000  0.50000000  1
  K  K5  1  0.00000000  0.50000000  0.00000000  1
  Lu  Lu6  1  0.00000000  0.00000000  0.00000000  1
  Lu  Lu7  1  0.50000000  0.50000000  0.50000000  1
  B  B8  1  0.00000000  0.26398000  0.33402100  1
  B  B9  1  0.00000000  0.73602000  0.66597900  1
  B  B10  1  0.50000000  0.23602000  0.83402100  1
  B  B11  1  0.50000000  0.76398000  0.16597900  1
  O  O12  1  0.21880300  0.30253400  0.40399600  1
  O  O13  1  0.78119700  0.69746600  0.59600400  1
  O  O14  1  0.21880300  0.69746600  0.59600400  1
  O  O15  1  0.28119700  0.19746600  0.90399600  1
  O  O16  1  0.78119700  0.30253400  0.40399600  1
  O  O17  1  0.71880300  0.80253400  0.09600400  1
  O  O18  1  0.28119700  0.80253400  0.09600400  1
  O  O19  1  0.71880300  0.19746600  0.90399600  1
  O  O20  1  0.00000000  0.18952600  0.19440700  1
  O  O21  1  0.00000000  0.81047400  0.80559300  1
  O  O22  1  0.50000000  0.31047400  0.69440700  1
  O  O23  1  0.50000000  0.68952600  0.30559300  1
