# generated using pymatgen
data_NdAlGe
_symmetry_space_group_name_H-M   'P 1'
_cell_length_a   4.27474700
_cell_length_b   4.27474700
_cell_length_c   7.97195371
_cell_angle_alpha   105.55192492
_cell_angle_beta   105.55192492
_cell_angle_gamma   90.00000000
_symmetry_Int_Tables_number   1
_chemical_formula_structural   NdAlGe
_chemical_formula_sum   'Nd2 Al2 Ge2'
_cell_volume   134.79737139
_cell_formula_units_Z   2
loop_
 _symmetry_equiv_pos_site_id
 _symmetry_equiv_pos_as_xyz
  1  'x, y, z'
loop_
 _atom_site_type_symbol
 _atom_site_label
 _atom_site_symmetry_multiplicity
 _atom_site_fract_x
 _atom_site_fract_y
 _atom_site_fract_z
 _atom_site_occupancy
  Nd  Nd0  1  0.58153800  0.58153800  0.16307600  1
  Nd  Nd1  1  0.83153800  0.33153800  0.66307600  1
  Al  Al2  1  0.16587100  0.16587100  0.33174100  1
  Al  Al3  1  0.41587100  0.91587100  0.83174100  1
  Ge  Ge4  1  0.99959100  0.99959100  0.99918200  1
  Ge  Ge5  1  0.24959100  0.74959100  0.49918200  1
