# generated using pymatgen
data_SmSnIr
_symmetry_space_group_name_H-M   'P 1'
_cell_length_a   7.45824197
_cell_length_b   7.45824197
_cell_length_c   4.14575400
_cell_angle_alpha   90.00000000
_cell_angle_beta   90.00000000
_cell_angle_gamma   119.99999970
_symmetry_Int_Tables_number   1
_chemical_formula_structural   SmSnIr
_chemical_formula_sum   'Sm3 Sn3 Ir3'
_cell_volume   199.71335127
_cell_formula_units_Z   3
loop_
 _symmetry_equiv_pos_site_id
 _symmetry_equiv_pos_as_xyz
  1  'x, y, z'
loop_
 _atom_site_type_symbol
 _atom_site_label
 _atom_site_symmetry_multiplicity
 _atom_site_fract_x
 _atom_site_fract_y
 _atom_site_fract_z
 _atom_site_occupancy
  Sm  Sm0  1  0.59135400  0.00000000  0.00000000  1
  Sm  Sm1  1  0.00000000  0.59135400  0.00000000  1
  Sm  Sm2  1  0.40864600  0.40864600  0.00000000  1
  Sn  Sn3  1  0.25183100  0.00000000  0.50000000  1
  Sn  Sn4  1  0.00000000  0.25183100  0.50000000  1
  Sn  Sn5  1  0.74816900  0.74816900  0.50000000  1
  Ir  Ir6  1  0.33333300  0.66666700  0.50000000  1
  Ir  Ir7  1  0.66666700  0.33333300  0.50000000  1
  Ir  Ir8  1  0.00000000  0.00000000  0.00000000  1
