# generated using pymatgen
data_TaTlV2O8
_symmetry_space_group_name_H-M   'P 1'
_cell_length_a   5.67936700
_cell_length_b   9.12558800
_cell_length_c   15.13544600
_cell_angle_alpha   90.00000000
_cell_angle_beta   90.00000000
_cell_angle_gamma   90.00000000
_symmetry_Int_Tables_number   1
_chemical_formula_structural   TaTlV2O8
_chemical_formula_sum   'Ta4 Tl4 V8 O32'
_cell_volume   784.43328629
_cell_formula_units_Z   4
loop_
 _symmetry_equiv_pos_site_id
 _symmetry_equiv_pos_as_xyz
  1  'x, y, z'
loop_
 _atom_site_type_symbol
 _atom_site_label
 _atom_site_symmetry_multiplicity
 _atom_site_fract_x
 _atom_site_fract_y
 _atom_site_fract_z
 _atom_site_occupancy
  Ta  Ta0  1  0.25000000  0.99469500  0.65861900  1
  Ta  Ta1  1  0.25000000  0.50530500  0.15861900  1
  Ta  Ta2  1  0.75000000  0.00530500  0.34138100  1
  Ta  Ta3  1  0.75000000  0.49469500  0.84138100  1
  Tl  Tl4  1  0.25000000  0.44007300  0.60539500  1
  Tl  Tl5  1  0.25000000  0.05992700  0.10539500  1
  Tl  Tl6  1  0.75000000  0.55992700  0.39460500  1
  Tl  Tl7  1  0.75000000  0.94007300  0.89460500  1
  V  V8  1  0.25000000  0.24403300  0.84014600  1
  V  V9  1  0.25000000  0.25596700  0.34014600  1
  V  V10  1  0.75000000  0.75596700  0.15985400  1
  V  V11  1  0.75000000  0.74403300  0.65985400  1
  V  V12  1  0.25000000  0.81647300  0.43776800  1
  V  V13  1  0.25000000  0.68352700  0.93776800  1
  V  V14  1  0.75000000  0.18352700  0.56223200  1
  V  V15  1  0.75000000  0.31647300  0.06223200  1
  O  O16  1  0.99762000  0.34862200  0.81154700  1
  O  O17  1  0.50238000  0.15137800  0.31154700  1
  O  O18  1  0.49762000  0.65137800  0.18845300  1
  O  O19  1  0.00238000  0.84862200  0.68845300  1
  O  O20  1  0.00238000  0.65137800  0.18845300  1
  O  O21  1  0.49762000  0.84862200  0.68845300  1
  O  O22  1  0.50238000  0.34862200  0.81154700  1
  O  O23  1  0.99762000  0.15137800  0.31154700  1
  O  O24  1  0.99542200  0.85815300  0.37423900  1
  O  O25  1  0.50457800  0.64184700  0.87423900  1
  O  O26  1  0.49542200  0.14184700  0.62576100  1
  O  O27  1  0.00457800  0.35815300  0.12576100  1
  O  O28  1  0.00457800  0.14184700  0.62576100  1
  O  O29  1  0.49542200  0.35815300  0.12576100  1
  O  O30  1  0.50457800  0.85815300  0.37423900  1
  O  O31  1  0.99542200  0.64184700  0.87423900  1
  O  O32  1  0.25000000  0.07476500  0.78066300  1
  O  O33  1  0.25000000  0.42523500  0.28066300  1
  O  O34  1  0.75000000  0.92523500  0.21933700  1
  O  O35  1  0.75000000  0.57476500  0.71933700  1
  O  O36  1  0.25000000  0.92210700  0.53494500  1
  O  O37  1  0.25000000  0.57789300  0.03494500  1
  O  O38  1  0.75000000  0.07789300  0.46505500  1
  O  O39  1  0.75000000  0.42210700  0.96505500  1
  O  O40  1  0.25000000  0.20998600  0.94738200  1
  O  O41  1  0.25000000  0.29001400  0.44738200  1
  O  O42  1  0.75000000  0.79001400  0.05261800  1
  O  O43  1  0.75000000  0.70998600  0.55261800  1
  O  O44  1  0.25000000  0.63734300  0.46015600  1
  O  O45  1  0.25000000  0.86265700  0.96015600  1
  O  O46  1  0.75000000  0.36265700  0.53984400  1
  O  O47  1  0.75000000  0.13734300  0.03984400  1
