# generated using pymatgen
data_Sr2ScGaO5
_symmetry_space_group_name_H-M   'P 1'
_cell_length_a   5.75879100
_cell_length_b   5.98075600
_cell_length_c   8.69188640
_cell_angle_alpha   110.12335509
_cell_angle_beta   109.34611355
_cell_angle_gamma   90.00000000
_symmetry_Int_Tables_number   1
_chemical_formula_structural   Sr2ScGaO5
_chemical_formula_sum   'Sr4 Sc2 Ga2 O10'
_cell_volume   263.01458027
_cell_formula_units_Z   2
loop_
 _symmetry_equiv_pos_site_id
 _symmetry_equiv_pos_as_xyz
  1  'x, y, z'
loop_
 _atom_site_type_symbol
 _atom_site_label
 _atom_site_symmetry_multiplicity
 _atom_site_fract_x
 _atom_site_fract_y
 _atom_site_fract_z
 _atom_site_occupancy
  Sr  Sr0  1  0.11497400  0.63217700  0.22280200  1
  Sr  Sr1  1  0.89217200  0.36782300  0.77719800  1
  Sr  Sr2  1  0.39217200  0.90937500  0.77719800  1
  Sr  Sr3  1  0.61497400  0.09062500  0.22280200  1
  Sc  Sc4  1  0.49893300  0.50000000  0.00000000  1
  Sc  Sc5  1  0.99893300  0.00000000  0.00000000  1
  Ga  Ga6  1  0.28166800  0.32151300  0.50000000  1
  Ga  Ga7  1  0.78166800  0.67848700  0.50000000  1
  O  O8  1  0.23889900  0.74120200  0.97618000  1
  O  O9  1  0.26271900  0.25879800  0.02382000  1
  O  O10  1  0.76271900  0.26502200  0.02382000  1
  O  O11  1  0.73889900  0.73497800  0.97618000  1
  O  O12  1  0.62456900  0.71131200  0.28783400  1
  O  O13  1  0.33673600  0.28868800  0.71216600  1
  O  O14  1  0.83673600  0.92347900  0.71216600  1
  O  O15  1  0.12456900  0.07652100  0.28783400  1
  O  O16  1  0.10482900  0.59285600  0.50000000  1
  O  O17  1  0.60482900  0.40714400  0.50000000  1
