# generated using pymatgen
data_EuH2
_symmetry_space_group_name_H-M   'P 1'
_cell_length_a   3.72531600
_cell_length_b   6.11982700
_cell_length_c   7.05373700
_cell_angle_alpha   90.00000000
_cell_angle_beta   90.00000000
_cell_angle_gamma   90.00000000
_symmetry_Int_Tables_number   1
_chemical_formula_structural   EuH2
_chemical_formula_sum   'Eu4 H8'
_cell_volume   160.81313776
_cell_formula_units_Z   4
loop_
 _symmetry_equiv_pos_site_id
 _symmetry_equiv_pos_as_xyz
  1  'x, y, z'
loop_
 _atom_site_type_symbol
 _atom_site_label
 _atom_site_symmetry_multiplicity
 _atom_site_fract_x
 _atom_site_fract_y
 _atom_site_fract_z
 _atom_site_occupancy
  Eu  Eu0  1  0.25000000  0.24155700  0.88607400  1
  Eu  Eu1  1  0.25000000  0.74155700  0.61392600  1
  Eu  Eu2  1  0.75000000  0.75844300  0.11392600  1
  Eu  Eu3  1  0.75000000  0.25844300  0.38607400  1
  H  H4  1  0.25000000  0.35715600  0.56965500  1
  H  H5  1  0.25000000  0.85715600  0.93034500  1
  H  H6  1  0.75000000  0.64284400  0.43034500  1
  H  H7  1  0.75000000  0.14284400  0.06965500  1
  H  H8  1  0.25000000  0.97442400  0.32172500  1
  H  H9  1  0.25000000  0.47442400  0.17827500  1
  H  H10  1  0.75000000  0.02557600  0.67827500  1
  H  H11  1  0.75000000  0.52557600  0.82172500  1
