# generated using pymatgen
data_Dy3C4
_symmetry_space_group_name_H-M   'P 1'
_cell_length_a   8.12182300
_cell_length_b   8.12182300
_cell_length_c   15.98566700
_cell_angle_alpha   90.00000000
_cell_angle_beta   90.00000000
_cell_angle_gamma   90.00000000
_symmetry_Int_Tables_number   1
_chemical_formula_structural   Dy3C4
_chemical_formula_sum   'Dy30 C40'
_cell_volume   1054.47867935
_cell_formula_units_Z   10
loop_
 _symmetry_equiv_pos_site_id
 _symmetry_equiv_pos_as_xyz
  1  'x, y, z'
loop_
 _atom_site_type_symbol
 _atom_site_label
 _atom_site_symmetry_multiplicity
 _atom_site_fract_x
 _atom_site_fract_y
 _atom_site_fract_z
 _atom_site_occupancy
  Dy  Dy0  1  0.10060200  0.28836900  0.14678000  1
  Dy  Dy1  1  0.89939800  0.71163100  0.85322000  1
  Dy  Dy2  1  0.89939800  0.71163100  0.14678000  1
  Dy  Dy3  1  0.71163100  0.10060200  0.14678000  1
  Dy  Dy4  1  0.39939800  0.78836900  0.35322000  1
  Dy  Dy5  1  0.10060200  0.28836900  0.85322000  1
  Dy  Dy6  1  0.28836900  0.89939800  0.85322000  1
  Dy  Dy7  1  0.60060200  0.21163100  0.64678000  1
  Dy  Dy8  1  0.28836900  0.89939800  0.14678000  1
  Dy  Dy9  1  0.60060200  0.21163100  0.35322000  1
  Dy  Dy10  1  0.71163100  0.10060200  0.85322000  1
  Dy  Dy11  1  0.39939800  0.78836900  0.64678000  1
  Dy  Dy12  1  0.78836900  0.60060200  0.35322000  1
  Dy  Dy13  1  0.21163100  0.39939800  0.64678000  1
  Dy  Dy14  1  0.21163100  0.39939800  0.35322000  1
  Dy  Dy15  1  0.78836900  0.60060200  0.64678000  1
  Dy  Dy16  1  0.40471100  0.20288600  0.00000000  1
  Dy  Dy17  1  0.59528900  0.79711400  0.00000000  1
  Dy  Dy18  1  0.79711400  0.40471100  0.00000000  1
  Dy  Dy19  1  0.09528900  0.70288600  0.50000000  1
  Dy  Dy20  1  0.20288600  0.59528900  0.00000000  1
  Dy  Dy21  1  0.90471100  0.29711400  0.50000000  1
  Dy  Dy22  1  0.70288600  0.90471100  0.50000000  1
  Dy  Dy23  1  0.29711400  0.09528900  0.50000000  1
  Dy  Dy24  1  0.00000000  0.00000000  0.00000000  1
  Dy  Dy25  1  0.50000000  0.50000000  0.50000000  1
  Dy  Dy26  1  0.00000000  0.00000000  0.31245200  1
  Dy  Dy27  1  0.00000000  0.00000000  0.68754800  1
  Dy  Dy28  1  0.50000000  0.50000000  0.18754800  1
  Dy  Dy29  1  0.50000000  0.50000000  0.81245200  1
  C  C30  1  0.30779400  0.09939900  0.32761800  1
  C  C31  1  0.69220600  0.90060100  0.67238200  1
  C  C32  1  0.69220600  0.90060100  0.32761800  1
  C  C33  1  0.90060100  0.30779400  0.32761800  1
  C  C34  1  0.19220600  0.59939900  0.17238200  1
  C  C35  1  0.30779400  0.09939900  0.67238200  1
  C  C36  1  0.09939900  0.69220600  0.67238200  1
  C  C37  1  0.80779400  0.40060100  0.82761800  1
  C  C38  1  0.09939900  0.69220600  0.32761800  1
  C  C39  1  0.80779400  0.40060100  0.17238200  1
  C  C40  1  0.90060100  0.30779400  0.67238200  1
  C  C41  1  0.19220600  0.59939900  0.82761800  1
  C  C42  1  0.59939900  0.80779400  0.17238200  1
  C  C43  1  0.40060100  0.19220600  0.82761800  1
  C  C44  1  0.40060100  0.19220600  0.17238200  1
  C  C45  1  0.59939900  0.80779400  0.82761800  1
  C  C46  1  0.10640900  0.30357400  0.00000000  1
  C  C47  1  0.89359100  0.69642600  0.00000000  1
  C  C48  1  0.69642600  0.10640900  0.00000000  1
  C  C49  1  0.39359100  0.80357400  0.50000000  1
  C  C50  1  0.30357400  0.89359100  0.00000000  1
  C  C51  1  0.60640900  0.19642600  0.50000000  1
  C  C52  1  0.80357400  0.60640900  0.50000000  1
  C  C53  1  0.19642600  0.39359100  0.50000000  1
  C  C54  1  0.00000000  0.00000000  0.45912800  1
  C  C55  1  0.00000000  0.00000000  0.54087200  1
  C  C56  1  0.50000000  0.50000000  0.04087200  1
  C  C57  1  0.50000000  0.50000000  0.95912800  1
  C  C58  1  0.14973500  0.64973500  0.25000000  1
  C  C59  1  0.85026500  0.35026500  0.75000000  1
  C  C60  1  0.85026500  0.35026500  0.25000000  1
  C  C61  1  0.35026500  0.14973500  0.25000000  1
  C  C62  1  0.14973500  0.64973500  0.75000000  1
  C  C63  1  0.64973500  0.85026500  0.75000000  1
  C  C64  1  0.64973500  0.85026500  0.25000000  1
  C  C65  1  0.35026500  0.14973500  0.75000000  1
  C  C66  1  0.00000000  0.00000000  0.15617100  1
  C  C67  1  0.00000000  0.00000000  0.84382900  1
  C  C68  1  0.50000000  0.50000000  0.34382900  1
  C  C69  1  0.50000000  0.50000000  0.65617100  1
