# generated using pymatgen
data_Rb4BaV6O18
_symmetry_space_group_name_H-M   'P 1'
_cell_length_a   10.48209815
_cell_length_b   10.48209815
_cell_length_c   10.48209805
_cell_angle_alpha   83.92970425
_cell_angle_beta   83.92970425
_cell_angle_gamma   83.92970719
_symmetry_Int_Tables_number   1
_chemical_formula_structural   Rb4BaV6O18
_chemical_formula_sum   'Rb8 Ba2 V12 O36'
_cell_volume   1133.61479594
_cell_formula_units_Z   2
loop_
 _symmetry_equiv_pos_site_id
 _symmetry_equiv_pos_as_xyz
  1  'x, y, z'
loop_
 _atom_site_type_symbol
 _atom_site_label
 _atom_site_symmetry_multiplicity
 _atom_site_fract_x
 _atom_site_fract_y
 _atom_site_fract_z
 _atom_site_occupancy
  Rb  Rb0  1  0.49962400  0.49962400  0.49962400  1
  Rb  Rb1  1  0.99962400  0.99962400  0.99962400  1
  Rb  Rb2  1  0.91538600  0.08523500  0.49690100  1
  Rb  Rb3  1  0.49690100  0.91538600  0.08523500  1
  Rb  Rb4  1  0.08523500  0.49690100  0.91538600  1
  Rb  Rb5  1  0.99690100  0.58523500  0.41538600  1
  Rb  Rb6  1  0.41538600  0.99690100  0.58523500  1
  Rb  Rb7  1  0.58523500  0.41538600  0.99690100  1
  Ba  Ba8  1  0.26743300  0.26743300  0.26743300  1
  Ba  Ba9  1  0.76743300  0.76743300  0.76743300  1
  V  V10  1  0.79897500  0.66906000  0.10234600  1
  V  V11  1  0.10234600  0.79897500  0.66906000  1
  V  V12  1  0.66906000  0.10234600  0.79897500  1
  V  V13  1  0.60234600  0.16906000  0.29897500  1
  V  V14  1  0.29897500  0.60234600  0.16906000  1
  V  V15  1  0.16906000  0.29897500  0.60234600  1
  V  V16  1  0.70583600  0.83366800  0.38742500  1
  V  V17  1  0.38742500  0.70583600  0.83366800  1
  V  V18  1  0.83366800  0.38742500  0.70583600  1
  V  V19  1  0.88742500  0.33366800  0.20583600  1
  V  V20  1  0.20583600  0.88742500  0.33366800  1
  V  V21  1  0.33366800  0.20583600  0.88742500  1
  O  O22  1  0.00434100  0.34868600  0.65942400  1
  O  O23  1  0.65942400  0.00434100  0.34868600  1
  O  O24  1  0.34868600  0.65942400  0.00434100  1
  O  O25  1  0.15942400  0.84868600  0.50434100  1
  O  O26  1  0.50434100  0.15942400  0.84868600  1
  O  O27  1  0.84868600  0.50434100  0.15942400  1
  O  O28  1  0.17461900  0.16304600  0.52906000  1
  O  O29  1  0.52906000  0.17461900  0.16304600  1
  O  O30  1  0.16304600  0.52906000  0.17461900  1
  O  O31  1  0.02906000  0.66304600  0.67461900  1
  O  O32  1  0.67461900  0.02906000  0.66304600  1
  O  O33  1  0.66304600  0.67461900  0.02906000  1
  O  O34  1  0.77241700  0.76423600  0.23944600  1
  O  O35  1  0.23944600  0.77241700  0.76423600  1
  O  O36  1  0.76423600  0.23944600  0.77241700  1
  O  O37  1  0.73944600  0.26423600  0.27241700  1
  O  O38  1  0.27241700  0.73944600  0.26423600  1
  O  O39  1  0.26423600  0.27241700  0.73944600  1
  O  O40  1  0.91156500  0.72708000  0.99118300  1
  O  O41  1  0.99118300  0.91156500  0.72708000  1
  O  O42  1  0.72708000  0.99118300  0.91156500  1
  O  O43  1  0.49118300  0.22708000  0.41156500  1
  O  O44  1  0.41156500  0.49118300  0.22708000  1
  O  O45  1  0.22708000  0.41156500  0.49118300  1
  O  O46  1  0.99337400  0.31384100  0.31869600  1
  O  O47  1  0.31869600  0.99337400  0.31384100  1
  O  O48  1  0.31384100  0.31869600  0.99337400  1
  O  O49  1  0.81869600  0.81384100  0.49337400  1
  O  O50  1  0.49337400  0.81869600  0.81384100  1
  O  O51  1  0.81384100  0.49337400  0.81869600  1
  O  O52  1  0.57527900  0.76490400  0.45421600  1
  O  O53  1  0.45421600  0.57527900  0.76490400  1
  O  O54  1  0.76490400  0.45421600  0.57527900  1
  O  O55  1  0.95421600  0.26490400  0.07527900  1
  O  O56  1  0.07527900  0.95421600  0.26490400  1
  O  O57  1  0.26490400  0.07527900  0.95421600  1
