# generated using pymatgen
data_Pr2SbO2
_symmetry_space_group_name_H-M   'P 1'
_cell_length_a   7.53784227
_cell_length_b   7.53784227
_cell_length_c   7.53784227
_cell_angle_alpha   148.98081173
_cell_angle_beta   148.98081173
_cell_angle_gamma   44.43955107
_symmetry_Int_Tables_number   1
_chemical_formula_structural   Pr2SbO2
_chemical_formula_sum   'Pr2 Sb1 O2'
_cell_volume   113.39976311
_cell_formula_units_Z   1
loop_
 _symmetry_equiv_pos_site_id
 _symmetry_equiv_pos_as_xyz
  1  'x, y, z'
loop_
 _atom_site_type_symbol
 _atom_site_label
 _atom_site_symmetry_multiplicity
 _atom_site_fract_x
 _atom_site_fract_y
 _atom_site_fract_z
 _atom_site_occupancy
  Pr  Pr0  1  0.66299900  0.66299900  0.00000000  1
  Pr  Pr1  1  0.33700100  0.33700100  0.00000000  1
  Sb  Sb2  1  0.00000000  0.00000000  0.00000000  1
  O  O3  1  0.75000000  0.25000000  0.50000000  1
  O  O4  1  0.25000000  0.75000000  0.50000000  1
