# generated using pymatgen
data_Yb2(Ga3Rh)3
_symmetry_space_group_name_H-M   'P 1'
_cell_length_a   7.51054757
_cell_length_b   7.51054757
_cell_length_c   9.69493000
_cell_angle_alpha   90.00000000
_cell_angle_beta   90.00000000
_cell_angle_gamma   119.53578816
_symmetry_Int_Tables_number   1
_chemical_formula_structural   Yb2(Ga3Rh)3
_chemical_formula_sum   'Yb4 Ga18 Rh6'
_cell_volume   475.80726269
_cell_formula_units_Z   2
loop_
 _symmetry_equiv_pos_site_id
 _symmetry_equiv_pos_as_xyz
  1  'x, y, z'
loop_
 _atom_site_type_symbol
 _atom_site_label
 _atom_site_symmetry_multiplicity
 _atom_site_fract_x
 _atom_site_fract_y
 _atom_site_fract_z
 _atom_site_occupancy
  Yb  Yb0  1  0.99707000  0.66826100  0.25000000  1
  Yb  Yb1  1  0.00293000  0.33173900  0.75000000  1
  Yb  Yb2  1  0.66826100  0.99707000  0.25000000  1
  Yb  Yb3  1  0.33173900  0.00293000  0.75000000  1
  Ga  Ga4  1  0.12467600  0.12467600  0.25000000  1
  Ga  Ga5  1  0.87532400  0.87532400  0.75000000  1
  Ga  Ga6  1  0.00207300  0.33416100  0.07537000  1
  Ga  Ga7  1  0.99792700  0.66583900  0.92463000  1
  Ga  Ga8  1  0.99792700  0.66583900  0.57537000  1
  Ga  Ga9  1  0.33416100  0.00207300  0.42463000  1
  Ga  Ga10  1  0.00207300  0.33416100  0.42463000  1
  Ga  Ga11  1  0.66583900  0.99792700  0.57537000  1
  Ga  Ga12  1  0.66583900  0.99792700  0.92463000  1
  Ga  Ga13  1  0.33416100  0.00207300  0.07537000  1
  Ga  Ga14  1  0.33456900  0.33456900  0.56032900  1
  Ga  Ga15  1  0.66543100  0.66543100  0.43967100  1
  Ga  Ga16  1  0.66543100  0.66543100  0.06032900  1
  Ga  Ga17  1  0.33456900  0.33456900  0.93967100  1
  Ga  Ga18  1  0.33571000  0.54666100  0.25000000  1
  Ga  Ga19  1  0.66429000  0.45333900  0.75000000  1
  Ga  Ga20  1  0.54666100  0.33571000  0.25000000  1
  Ga  Ga21  1  0.45333900  0.66429000  0.75000000  1
  Rh  Rh22  1  0.67198900  0.32801100  0.00000000  1
  Rh  Rh23  1  0.32801100  0.67198900  0.00000000  1
  Rh  Rh24  1  0.32801100  0.67198900  0.50000000  1
  Rh  Rh25  1  0.67198900  0.32801100  0.50000000  1
  Rh  Rh26  1  0.00000000  0.00000000  0.00000000  1
  Rh  Rh27  1  0.00000000  0.00000000  0.50000000  1
