# generated using pymatgen
data_Nd2CdNi2
_symmetry_space_group_name_H-M   'P 1'
_cell_length_a   7.51427500
_cell_length_b   7.51427500
_cell_length_c   3.83894400
_cell_angle_alpha   90.00000000
_cell_angle_beta   90.00000000
_cell_angle_gamma   90.00000000
_symmetry_Int_Tables_number   1
_chemical_formula_structural   Nd2CdNi2
_chemical_formula_sum   'Nd4 Cd2 Ni4'
_cell_volume   216.76339617
_cell_formula_units_Z   2
loop_
 _symmetry_equiv_pos_site_id
 _symmetry_equiv_pos_as_xyz
  1  'x, y, z'
loop_
 _atom_site_type_symbol
 _atom_site_label
 _atom_site_symmetry_multiplicity
 _atom_site_fract_x
 _atom_site_fract_y
 _atom_site_fract_z
 _atom_site_occupancy
  Nd  Nd0  1  0.32270500  0.82270500  0.50000000  1
  Nd  Nd1  1  0.82270500  0.67729500  0.50000000  1
  Nd  Nd2  1  0.17729500  0.32270500  0.50000000  1
  Nd  Nd3  1  0.67729500  0.17729500  0.50000000  1
  Cd  Cd4  1  0.00000000  0.00000000  0.00000000  1
  Cd  Cd5  1  0.50000000  0.50000000  0.00000000  1
  Ni  Ni6  1  0.38346800  0.11653200  0.00000000  1
  Ni  Ni7  1  0.88346800  0.38346800  0.00000000  1
  Ni  Ni8  1  0.11653200  0.61653200  0.00000000  1
  Ni  Ni9  1  0.61653200  0.88346800  0.00000000  1
