# generated using pymatgen
data_DyVO4
_symmetry_space_group_name_H-M   'P 1'
_cell_length_a   6.00857045
_cell_length_b   6.00857045
_cell_length_c   6.00857045
_cell_angle_alpha   106.23687079
_cell_angle_beta   106.23687079
_cell_angle_gamma   116.15378478
_symmetry_Int_Tables_number   1
_chemical_formula_structural   DyVO4
_chemical_formula_sum   'Dy2 V2 O8'
_cell_volume   165.26744849
_cell_formula_units_Z   2
loop_
 _symmetry_equiv_pos_site_id
 _symmetry_equiv_pos_as_xyz
  1  'x, y, z'
loop_
 _atom_site_type_symbol
 _atom_site_label
 _atom_site_symmetry_multiplicity
 _atom_site_fract_x
 _atom_site_fract_y
 _atom_site_fract_z
 _atom_site_occupancy
  Dy  Dy0  1  0.25000000  0.75000000  0.50000000  1
  Dy  Dy1  1  0.00000000  0.00000000  0.00000000  1
  V  V2  1  0.50000000  0.50000000  0.00000000  1
  V  V3  1  0.75000000  0.25000000  0.50000000  1
  O  O4  1  0.32393600  0.50871000  0.18477300  1
  O  O5  1  0.32393600  0.13916300  0.81522700  1
  O  O6  1  0.49129000  0.67606400  0.81522700  1
  O  O7  1  0.92606400  0.61083700  0.68477300  1
  O  O8  1  0.92606400  0.24129000  0.31522700  1
  O  O9  1  0.86083700  0.67606400  0.18477300  1
  O  O10  1  0.38916300  0.07393600  0.31522700  1
  O  O11  1  0.75871000  0.07393600  0.68477300  1
