# generated using pymatgen
data_ErB2Os
_symmetry_space_group_name_H-M   'P 1'
_cell_length_a   5.30362400
_cell_length_b   5.87597700
_cell_length_c   6.34814700
_cell_angle_alpha   90.00000000
_cell_angle_beta   90.00000000
_cell_angle_gamma   90.00000000
_symmetry_Int_Tables_number   1
_chemical_formula_structural   ErB2Os
_chemical_formula_sum   'Er4 B8 Os4'
_cell_volume   197.83347943
_cell_formula_units_Z   4
loop_
 _symmetry_equiv_pos_site_id
 _symmetry_equiv_pos_as_xyz
  1  'x, y, z'
loop_
 _atom_site_type_symbol
 _atom_site_label
 _atom_site_symmetry_multiplicity
 _atom_site_fract_x
 _atom_site_fract_y
 _atom_site_fract_z
 _atom_site_occupancy
  Er  Er0  1  0.25000000  0.01032000  0.33429900  1
  Er  Er1  1  0.25000000  0.51032000  0.16570100  1
  Er  Er2  1  0.75000000  0.98968000  0.66570100  1
  Er  Er3  1  0.75000000  0.48968000  0.83429900  1
  B  B4  1  0.08247100  0.36167900  0.53761600  1
  B  B5  1  0.41752900  0.86167900  0.96238400  1
  B  B6  1  0.58247100  0.63832100  0.46238400  1
  B  B7  1  0.91752900  0.13832100  0.03761600  1
  B  B8  1  0.91752900  0.63832100  0.46238400  1
  B  B9  1  0.58247100  0.13832100  0.03761600  1
  B  B10  1  0.41752900  0.36167900  0.53761600  1
  B  B11  1  0.08247100  0.86167900  0.96238400  1
  Os  Os12  1  0.25000000  0.17646900  0.81917200  1
  Os  Os13  1  0.25000000  0.67646900  0.68082800  1
  Os  Os14  1  0.75000000  0.82353100  0.18082800  1
  Os  Os15  1  0.75000000  0.32353100  0.31917200  1
