# generated using pymatgen
data_Nd8(Ga16Cu)3
_symmetry_space_group_name_H-M   'P 1'
_cell_length_a   6.13854500
_cell_length_b   6.13854500
_cell_length_c   30.74488600
_cell_angle_alpha   90.00000000
_cell_angle_beta   90.00000000
_cell_angle_gamma   90.00000000
_symmetry_Int_Tables_number   1
_chemical_formula_structural   Nd8(Ga16Cu)3
_chemical_formula_sum   'Nd8 Ga48 Cu3'
_cell_volume   1158.52063816
_cell_formula_units_Z   1
loop_
 _symmetry_equiv_pos_site_id
 _symmetry_equiv_pos_as_xyz
  1  'x, y, z'
loop_
 _atom_site_type_symbol
 _atom_site_label
 _atom_site_symmetry_multiplicity
 _atom_site_fract_x
 _atom_site_fract_y
 _atom_site_fract_z
 _atom_site_occupancy
  Nd  Nd0  1  0.75000000  0.25000000  0.12392500  1
  Nd  Nd1  1  0.75000000  0.25000000  0.62301800  1
  Nd  Nd2  1  0.25000000  0.75000000  0.12363300  1
  Nd  Nd3  1  0.25000000  0.75000000  0.62296100  1
  Nd  Nd4  1  0.25000000  0.75000000  0.37703900  1
  Nd  Nd5  1  0.25000000  0.75000000  0.87636700  1
  Nd  Nd6  1  0.75000000  0.25000000  0.37698200  1
  Nd  Nd7  1  0.75000000  0.25000000  0.87607500  1
  Ga  Ga8  1  0.25000000  0.25000000  0.16840000  1
  Ga  Ga9  1  0.25000000  0.25000000  0.66844100  1
  Ga  Ga10  1  0.75000000  0.75000000  0.16840000  1
  Ga  Ga11  1  0.75000000  0.75000000  0.66844100  1
  Ga  Ga12  1  0.75000000  0.75000000  0.33155900  1
  Ga  Ga13  1  0.75000000  0.75000000  0.83160000  1
  Ga  Ga14  1  0.25000000  0.25000000  0.33155900  1
  Ga  Ga15  1  0.25000000  0.25000000  0.83160000  1
  Ga  Ga16  1  0.56736200  0.06736200  0.21304200  1
  Ga  Ga17  1  0.56794400  0.06794400  0.71302800  1
  Ga  Ga18  1  0.06782500  0.93217500  0.21306700  1
  Ga  Ga19  1  0.06800100  0.93199900  0.71303900  1
  Ga  Ga20  1  0.43217500  0.56782500  0.21306700  1
  Ga  Ga21  1  0.43199900  0.56800100  0.71303900  1
  Ga  Ga22  1  0.93263800  0.43263800  0.21304200  1
  Ga  Ga23  1  0.93205600  0.43205600  0.71302800  1
  Ga  Ga24  1  0.43199900  0.93199900  0.28696100  1
  Ga  Ga25  1  0.43217500  0.93217500  0.78693300  1
  Ga  Ga26  1  0.93205600  0.06794400  0.28697200  1
  Ga  Ga27  1  0.93263800  0.06736200  0.78695800  1
  Ga  Ga28  1  0.56794400  0.43205600  0.28697200  1
  Ga  Ga29  1  0.56736200  0.43263800  0.78695800  1
  Ga  Ga30  1  0.06800100  0.56800100  0.28696100  1
  Ga  Ga31  1  0.06782500  0.56782500  0.78693300  1
  Ga  Ga32  1  0.50086100  0.00086100  0.45744200  1
  Ga  Ga33  1  0.50650700  0.00650700  0.95858400  1
  Ga  Ga34  1  0.00079100  0.99920900  0.45744600  1
  Ga  Ga35  1  0.99576600  0.00423400  0.95846900  1
  Ga  Ga36  1  0.49920900  0.50079100  0.45744600  1
  Ga  Ga37  1  0.50423400  0.49576600  0.95846900  1
  Ga  Ga38  1  0.99913900  0.49913900  0.45744200  1
  Ga  Ga39  1  0.99349300  0.49349300  0.95858400  1
  Ga  Ga40  1  0.50423400  0.00423400  0.04153100  1
  Ga  Ga41  1  0.49920900  0.99920900  0.54255400  1
  Ga  Ga42  1  0.99349300  0.00650700  0.04141600  1
  Ga  Ga43  1  0.99913900  0.00086100  0.54255800  1
  Ga  Ga44  1  0.50650700  0.49349300  0.04141600  1
  Ga  Ga45  1  0.50086100  0.49913900  0.54255800  1
  Ga  Ga46  1  0.99576600  0.49576600  0.04153100  1
  Ga  Ga47  1  0.00079100  0.50079100  0.54255400  1
  Ga  Ga48  1  0.25000000  0.25000000  0.08855700  1
  Ga  Ga49  1  0.25000000  0.25000000  0.58896100  1
  Ga  Ga50  1  0.75000000  0.75000000  0.08855700  1
  Ga  Ga51  1  0.75000000  0.75000000  0.58896100  1
  Ga  Ga52  1  0.75000000  0.75000000  0.41103900  1
  Ga  Ga53  1  0.75000000  0.75000000  0.91144300  1
  Ga  Ga54  1  0.25000000  0.25000000  0.41103900  1
  Ga  Ga55  1  0.25000000  0.25000000  0.91144300  1
  Cu  Cu56  1  0.75000000  0.25000000  0.50000000  1
  Cu  Cu57  1  0.25000000  0.75000000  0.00000000  1
  Cu  Cu58  1  0.25000000  0.75000000  0.50000000  1
