# generated using pymatgen
data_Rb2PrBr5
_symmetry_space_group_name_H-M   'P 1'
_cell_length_a   8.78348700
_cell_length_b   9.45318800
_cell_length_c   14.10672000
_cell_angle_alpha   90.00000000
_cell_angle_beta   90.00000000
_cell_angle_gamma   90.00000000
_symmetry_Int_Tables_number   1
_chemical_formula_structural   Rb2PrBr5
_chemical_formula_sum   'Rb8 Pr4 Br20'
_cell_volume   1171.30852481
_cell_formula_units_Z   4
loop_
 _symmetry_equiv_pos_site_id
 _symmetry_equiv_pos_as_xyz
  1  'x, y, z'
loop_
 _atom_site_type_symbol
 _atom_site_label
 _atom_site_symmetry_multiplicity
 _atom_site_fract_x
 _atom_site_fract_y
 _atom_site_fract_z
 _atom_site_occupancy
  Rb  Rb0  1  0.94747700  0.00506000  0.82788800  1
  Rb  Rb1  1  0.05252300  0.99494000  0.17211200  1
  Rb  Rb2  1  0.44747700  0.99494000  0.67211200  1
  Rb  Rb3  1  0.05252300  0.50506000  0.17211200  1
  Rb  Rb4  1  0.55252300  0.00506000  0.32788800  1
  Rb  Rb5  1  0.94747700  0.49494000  0.82788800  1
  Rb  Rb6  1  0.55252300  0.49494000  0.32788800  1
  Rb  Rb7  1  0.44747700  0.50506000  0.67211200  1
  Pr  Pr8  1  0.92461800  0.75000000  0.50463400  1
  Pr  Pr9  1  0.07538200  0.25000000  0.49536600  1
  Pr  Pr10  1  0.42461800  0.25000000  0.99536600  1
  Pr  Pr11  1  0.57538200  0.75000000  0.00463400  1
  Br  Br12  1  0.12209600  0.75000000  0.67491600  1
  Br  Br13  1  0.87790400  0.25000000  0.32508400  1
  Br  Br14  1  0.62209600  0.25000000  0.82508400  1
  Br  Br15  1  0.37790400  0.75000000  0.17491600  1
  Br  Br16  1  0.83915800  0.04231800  0.57434600  1
  Br  Br17  1  0.16084200  0.95768200  0.42565400  1
  Br  Br18  1  0.33915800  0.95768200  0.92565400  1
  Br  Br19  1  0.16084200  0.54231800  0.42565400  1
  Br  Br20  1  0.66084200  0.04231800  0.07434600  1
  Br  Br21  1  0.83915800  0.45768200  0.57434600  1
  Br  Br22  1  0.66084200  0.45768200  0.07434600  1
  Br  Br23  1  0.33915800  0.54231800  0.92565400  1
  Br  Br24  1  0.58473000  0.75000000  0.50878300  1
  Br  Br25  1  0.41527000  0.25000000  0.49121700  1
  Br  Br26  1  0.08473000  0.25000000  0.99121700  1
  Br  Br27  1  0.91527000  0.75000000  0.00878300  1
  Br  Br28  1  0.66055100  0.75000000  0.80070900  1
  Br  Br29  1  0.33944900  0.25000000  0.19929100  1
  Br  Br30  1  0.16055100  0.25000000  0.69929100  1
  Br  Br31  1  0.83944900  0.75000000  0.30070900  1
