# generated using pymatgen
data_NaLi2B(PO4)2
_symmetry_space_group_name_H-M   'P 1'
_cell_length_a   5.50286800
_cell_length_b   7.48331182
_cell_length_c   8.11016794
_cell_angle_alpha   103.38545186
_cell_angle_beta   109.46941993
_cell_angle_gamma   87.31721742
_symmetry_Int_Tables_number   1
_chemical_formula_structural   NaLi2B(PO4)2
_chemical_formula_sum   'Na2 Li4 B2 P4 O16'
_cell_volume   306.15576988
_cell_formula_units_Z   2
loop_
 _symmetry_equiv_pos_site_id
 _symmetry_equiv_pos_as_xyz
  1  'x, y, z'
loop_
 _atom_site_type_symbol
 _atom_site_label
 _atom_site_symmetry_multiplicity
 _atom_site_fract_x
 _atom_site_fract_y
 _atom_site_fract_z
 _atom_site_occupancy
  Na  Na0  1  0.25369500  0.88073800  0.74104800  1
  Na  Na1  1  0.74630500  0.11926200  0.25895200  1
  Li  Li2  1  0.30952200  0.50135200  0.85803400  1
  Li  Li3  1  0.69047800  0.49864800  0.14196600  1
  Li  Li4  1  0.85509300  0.46982300  0.59777800  1
  Li  Li5  1  0.14490700  0.53017700  0.40222200  1
  B  B6  1  0.74871000  0.04602800  0.76590300  1
  B  B7  1  0.25129000  0.95397200  0.23409700  1
  P  P8  1  0.62154100  0.77383900  0.45284500  1
  P  P9  1  0.37845900  0.22616100  0.54715500  1
  P  P10  1  0.85488400  0.75155600  0.94574800  1
  P  P11  1  0.14511600  0.24844400  0.05425200  1
  O  O12  1  0.96721500  0.17987400  0.85174700  1
  O  O13  1  0.03278500  0.82012600  0.14825300  1
  O  O14  1  0.50194800  0.86218700  0.28349400  1
  O  O15  1  0.49805200  0.13781300  0.71650600  1
  O  O16  1  0.01292600  0.66585900  0.82588300  1
  O  O17  1  0.98707400  0.33414100  0.17411700  1
  O  O18  1  0.80021600  0.62392900  0.40387400  1
  O  O19  1  0.19978400  0.37607100  0.59612600  1
  O  O20  1  0.72316900  0.93404100  0.89043600  1
  O  O21  1  0.27683100  0.06595900  0.10956400  1
  O  O22  1  0.64584400  0.62695700  0.94570700  1
  O  O23  1  0.35415600  0.37304300  0.05429300  1
  O  O24  1  0.80121200  0.93258100  0.60627100  1
  O  O25  1  0.19878800  0.06741900  0.39372900  1
  O  O26  1  0.41435900  0.71278300  0.51375100  1
  O  O27  1  0.58564100  0.28721700  0.48624900  1
