# generated using pymatgen
data_Ba2Gd2Si4O13
_symmetry_space_group_name_H-M   'P 1'
_cell_length_a   7.04124757
_cell_length_b   7.04124757
_cell_length_c   17.71816054
_cell_angle_alpha   77.10269485
_cell_angle_beta   77.10269485
_cell_angle_gamma   43.99635324
_symmetry_Int_Tables_number   1
_chemical_formula_structural   Ba2Gd2Si4O13
_chemical_formula_sum   'Ba4 Gd4 Si8 O26'
_cell_volume   592.23929419
_cell_formula_units_Z   2
loop_
 _symmetry_equiv_pos_site_id
 _symmetry_equiv_pos_as_xyz
  1  'x, y, z'
loop_
 _atom_site_type_symbol
 _atom_site_label
 _atom_site_symmetry_multiplicity
 _atom_site_fract_x
 _atom_site_fract_y
 _atom_site_fract_z
 _atom_site_occupancy
  Ba  Ba0  1  0.33346500  0.34132100  0.83298100  1
  Ba  Ba1  1  0.65867900  0.66653500  0.66701900  1
  Ba  Ba2  1  0.66653500  0.65867900  0.16701900  1
  Ba  Ba3  1  0.34132100  0.33346500  0.33298100  1
  Gd  Gd4  1  0.39643300  0.37392700  0.58419900  1
  Gd  Gd5  1  0.62607300  0.60356700  0.91580100  1
  Gd  Gd6  1  0.60356700  0.62607300  0.41580100  1
  Gd  Gd7  1  0.37392700  0.39643300  0.08419900  1
  Si  Si8  1  0.98224700  0.89332800  0.68352600  1
  Si  Si9  1  0.10667200  0.01775300  0.81647400  1
  Si  Si10  1  0.01775300  0.10667200  0.31647400  1
  Si  Si11  1  0.89332800  0.98224700  0.18352600  1
  Si  Si12  1  0.08477100  0.15236200  0.54356300  1
  Si  Si13  1  0.84763800  0.91522900  0.95643700  1
  Si  Si14  1  0.91522900  0.84763800  0.45643700  1
  Si  Si15  1  0.15236200  0.08477100  0.04356300  1
  O  O16  1  0.66141000  0.17674400  0.68885600  1
  O  O17  1  0.82325600  0.33859000  0.81114400  1
  O  O18  1  0.33859000  0.82325600  0.31114400  1
  O  O19  1  0.17674400  0.66141000  0.18885600  1
  O  O20  1  0.06193300  0.60953900  0.69301200  1
  O  O21  1  0.39046100  0.93806700  0.80698800  1
  O  O22  1  0.93806700  0.39046100  0.30698800  1
  O  O23  1  0.60953900  0.06193300  0.19301200  1
  O  O24  1  0.14434300  0.85565700  0.75000000  1
  O  O25  1  0.85565700  0.14434300  0.25000000  1
  O  O26  1  0.16165400  0.87623400  0.59987500  1
  O  O27  1  0.12376600  0.83834600  0.90012500  1
  O  O28  1  0.83834600  0.12376600  0.40012500  1
  O  O29  1  0.87623400  0.16165400  0.09987500  1
  O  O30  1  0.25752500  0.05556300  0.45942500  1
  O  O31  1  0.94443700  0.74247500  0.04057500  1
  O  O32  1  0.74247500  0.94443700  0.54057500  1
  O  O33  1  0.05556300  0.25752500  0.95942500  1
  O  O34  1  0.16479500  0.24804800  0.59593600  1
  O  O35  1  0.75195200  0.83520500  0.90406400  1
  O  O36  1  0.83520500  0.75195200  0.40406400  1
  O  O37  1  0.24804800  0.16479500  0.09593600  1
  O  O38  1  0.74814200  0.39464600  0.53754000  1
  O  O39  1  0.60535400  0.25185800  0.96246000  1
  O  O40  1  0.25185800  0.60535400  0.46246000  1
  O  O41  1  0.39464600  0.74814200  0.03754000  1
