# generated using pymatgen
data_Th3TlF13
_symmetry_space_group_name_H-M   'P 1'
_cell_length_a   7.53805100
_cell_length_b   8.28206800
_cell_length_c   8.73659400
_cell_angle_alpha   90.00000000
_cell_angle_beta   90.00000000
_cell_angle_gamma   90.00000000
_symmetry_Int_Tables_number   1
_chemical_formula_structural   Th3TlF13
_chemical_formula_sum   'Th6 Tl2 F26'
_cell_volume   545.43125068
_cell_formula_units_Z   2
loop_
 _symmetry_equiv_pos_site_id
 _symmetry_equiv_pos_as_xyz
  1  'x, y, z'
loop_
 _atom_site_type_symbol
 _atom_site_label
 _atom_site_symmetry_multiplicity
 _atom_site_fract_x
 _atom_site_fract_y
 _atom_site_fract_z
 _atom_site_occupancy
  Th  Th0  1  0.89254000  0.50000000  0.08559500  1
  Th  Th1  1  0.10746000  0.50000000  0.58559500  1
  Th  Th2  1  0.60193900  0.24825500  0.75007900  1
  Th  Th3  1  0.60193900  0.75174500  0.75007900  1
  Th  Th4  1  0.39806100  0.75174500  0.25007900  1
  Th  Th5  1  0.39806100  0.24825500  0.25007900  1
  Tl  Tl6  1  0.89805200  0.00000000  0.38902100  1
  Tl  Tl7  1  0.10194800  0.00000000  0.88902100  1
  F  F8  1  0.76762900  0.00000000  0.71875500  1
  F  F9  1  0.23237100  0.00000000  0.21875500  1
  F  F10  1  0.45370600  0.19910200  0.98860200  1
  F  F11  1  0.45370600  0.80089800  0.98860200  1
  F  F12  1  0.54629400  0.80089800  0.48860200  1
  F  F13  1  0.54629400  0.19910200  0.48860200  1
  F  F14  1  0.64147700  0.50000000  0.90441000  1
  F  F15  1  0.35852300  0.50000000  0.40441000  1
  F  F16  1  0.03233900  0.50000000  0.84929900  1
  F  F17  1  0.96766100  0.50000000  0.34929900  1
  F  F18  1  0.59368400  0.50000000  0.62853800  1
  F  F19  1  0.40631600  0.50000000  0.12853800  1
  F  F20  1  0.30562100  0.32853000  0.72002700  1
  F  F21  1  0.30562100  0.67147000  0.72002700  1
  F  F22  1  0.69437900  0.67147000  0.22002700  1
  F  F23  1  0.69437900  0.32853000  0.22002700  1
  F  F24  1  0.82396200  0.24689800  0.94253500  1
  F  F25  1  0.82396200  0.75310200  0.94253500  1
  F  F26  1  0.17603800  0.75310200  0.44253500  1
  F  F27  1  0.17603800  0.24689800  0.44253500  1
  F  F28  1  0.43892800  0.00000000  0.73954500  1
  F  F29  1  0.56107200  0.00000000  0.23954500  1
  F  F30  1  0.11801300  0.69271900  0.12986600  1
  F  F31  1  0.11801300  0.30728100  0.12986600  1
  F  F32  1  0.88198700  0.30728100  0.62986600  1
  F  F33  1  0.88198700  0.69271900  0.62986600  1
