# generated using pymatgen
data_La2SiSeO4
_symmetry_space_group_name_H-M   'P 1'
_cell_length_a   6.34057100
_cell_length_b   7.37623800
_cell_length_c   11.28834100
_cell_angle_alpha   90.00000000
_cell_angle_beta   90.00000000
_cell_angle_gamma   90.00000000
_symmetry_Int_Tables_number   1
_chemical_formula_structural   La2SiSeO4
_chemical_formula_sum   'La8 Si4 Se4 O16'
_cell_volume   527.95075019
_cell_formula_units_Z   4
loop_
 _symmetry_equiv_pos_site_id
 _symmetry_equiv_pos_as_xyz
  1  'x, y, z'
loop_
 _atom_site_type_symbol
 _atom_site_label
 _atom_site_symmetry_multiplicity
 _atom_site_fract_x
 _atom_site_fract_y
 _atom_site_fract_z
 _atom_site_occupancy
  La  La0  1  0.39133100  0.75000000  0.50000000  1
  La  La1  1  0.39133100  0.75000000  0.00000000  1
  La  La2  1  0.60866900  0.25000000  0.50000000  1
  La  La3  1  0.60866900  0.25000000  0.00000000  1
  La  La4  1  0.87204200  0.96223700  0.75000000  1
  La  La5  1  0.87204200  0.53776300  0.25000000  1
  La  La6  1  0.12795800  0.46223700  0.75000000  1
  La  La7  1  0.12795800  0.03776300  0.25000000  1
  Si  Si8  1  0.11398000  0.25000000  0.00000000  1
  Si  Si9  1  0.88602000  0.75000000  0.00000000  1
  Si  Si10  1  0.88602000  0.75000000  0.50000000  1
  Si  Si11  1  0.11398000  0.25000000  0.50000000  1
  Se  Se12  1  0.57378400  0.61031400  0.75000000  1
  Se  Se13  1  0.57378400  0.88968600  0.25000000  1
  Se  Se14  1  0.42621600  0.11031400  0.75000000  1
  Se  Se15  1  0.42621600  0.38968600  0.25000000  1
  O  O16  1  0.26947200  0.07788000  0.46768200  1
  O  O17  1  0.26947200  0.42212000  0.53231800  1
  O  O18  1  0.73052800  0.57788000  0.03231800  1
  O  O19  1  0.73052800  0.92212000  0.96768200  1
  O  O20  1  0.73052800  0.92212000  0.53231800  1
  O  O21  1  0.73052800  0.57788000  0.46768200  1
  O  O22  1  0.26947200  0.42212000  0.96768200  1
  O  O23  1  0.26947200  0.07788000  0.03231800  1
  O  O24  1  0.04514400  0.76816700  0.38403200  1
  O  O25  1  0.04514400  0.76816700  0.11596800  1
  O  O26  1  0.95485600  0.26816700  0.11596800  1
  O  O27  1  0.95485600  0.23183300  0.88403200  1
  O  O28  1  0.95485600  0.23183300  0.61596800  1
  O  O29  1  0.95485600  0.26816700  0.38403200  1
  O  O30  1  0.04514400  0.73183300  0.88403200  1
  O  O31  1  0.04514400  0.73183300  0.61596800  1
