# generated using pymatgen
data_Mg2Be3Tl2F12
_symmetry_space_group_name_H-M   'P 1'
_cell_length_a   10.10416600
_cell_length_b   10.10416600
_cell_length_c   10.10416600
_cell_angle_alpha   90.00000000
_cell_angle_beta   90.00000000
_cell_angle_gamma   90.00000000
_symmetry_Int_Tables_number   1
_chemical_formula_structural   Mg2Be3Tl2F12
_chemical_formula_sum   'Mg8 Be12 Tl8 F48'
_cell_volume   1031.57644693
_cell_formula_units_Z   4
loop_
 _symmetry_equiv_pos_site_id
 _symmetry_equiv_pos_as_xyz
  1  'x, y, z'
loop_
 _atom_site_type_symbol
 _atom_site_label
 _atom_site_symmetry_multiplicity
 _atom_site_fract_x
 _atom_site_fract_y
 _atom_site_fract_z
 _atom_site_occupancy
  Mg  Mg0  1  0.33524500  0.33524500  0.33524500  1
  Mg  Mg1  1  0.16475500  0.66475500  0.83524500  1
  Mg  Mg2  1  0.66475500  0.83524500  0.16475500  1
  Mg  Mg3  1  0.83524500  0.16475500  0.66475500  1
  Mg  Mg4  1  0.59943600  0.59943600  0.59943600  1
  Mg  Mg5  1  0.90056400  0.40056400  0.09943600  1
  Mg  Mg6  1  0.40056400  0.09943600  0.90056400  1
  Mg  Mg7  1  0.09943600  0.90056400  0.40056400  1
  Be  Be8  1  0.01981900  0.21411900  0.37562600  1
  Be  Be9  1  0.48018100  0.78588100  0.87562600  1
  Be  Be10  1  0.98018100  0.71411900  0.12437400  1
  Be  Be11  1  0.37562600  0.01981900  0.21411900  1
  Be  Be12  1  0.51981900  0.28588100  0.62437400  1
  Be  Be13  1  0.87562600  0.48018100  0.78588100  1
  Be  Be14  1  0.12437400  0.98018100  0.71411900  1
  Be  Be15  1  0.62437400  0.51981900  0.28588100  1
  Be  Be16  1  0.21411900  0.37562600  0.01981900  1
  Be  Be17  1  0.71411900  0.12437400  0.98018100  1
  Be  Be18  1  0.28588100  0.62437400  0.51981900  1
  Be  Be19  1  0.78588100  0.87562600  0.48018100  1
  Tl  Tl20  1  0.04899100  0.04899100  0.04899100  1
  Tl  Tl21  1  0.45100900  0.95100900  0.54899100  1
  Tl  Tl22  1  0.95100900  0.54899100  0.45100900  1
  Tl  Tl23  1  0.54899100  0.45100900  0.95100900  1
  Tl  Tl24  1  0.81684200  0.81684200  0.81684200  1
  Tl  Tl25  1  0.68315800  0.18315800  0.31684200  1
  Tl  Tl26  1  0.18315800  0.31684200  0.68315800  1
  Tl  Tl27  1  0.31684200  0.68315800  0.18315800  1
  F  F28  1  0.01393000  0.06590100  0.33063500  1
  F  F29  1  0.48607000  0.93409900  0.83063500  1
  F  F30  1  0.98607000  0.56590100  0.16936500  1
  F  F31  1  0.33063500  0.01393000  0.06590100  1
  F  F32  1  0.51393000  0.43409900  0.66936500  1
  F  F33  1  0.83063500  0.48607000  0.93409900  1
  F  F34  1  0.16936500  0.98607000  0.56590100  1
  F  F35  1  0.66936500  0.51393000  0.43409900  1
  F  F36  1  0.06590100  0.33063500  0.01393000  1
  F  F37  1  0.56590100  0.16936500  0.98607000  1
  F  F38  1  0.43409900  0.66936500  0.51393000  1
  F  F39  1  0.93409900  0.83063500  0.48607000  1
  F  F40  1  0.26855300  0.49498700  0.43610400  1
  F  F41  1  0.23144700  0.50501300  0.93610400  1
  F  F42  1  0.73144700  0.99498700  0.06389600  1
  F  F43  1  0.43610400  0.26855300  0.49498700  1
  F  F44  1  0.76855300  0.00501300  0.56389600  1
  F  F45  1  0.93610400  0.23144700  0.50501300  1
  F  F46  1  0.06389600  0.73144700  0.99498700  1
  F  F47  1  0.56389600  0.76855300  0.00501300  1
  F  F48  1  0.49498700  0.43610400  0.26855300  1
  F  F49  1  0.99498700  0.06389600  0.73144700  1
  F  F50  1  0.00501300  0.56389600  0.76855300  1
  F  F51  1  0.50501300  0.93610400  0.23144700  1
  F  F52  1  0.04628200  0.80626300  0.23170800  1
  F  F53  1  0.45371800  0.19373700  0.73170800  1
  F  F54  1  0.95371800  0.30626300  0.26829200  1
  F  F55  1  0.23170800  0.04628200  0.80626300  1
  F  F56  1  0.54628200  0.69373700  0.76829200  1
  F  F57  1  0.73170800  0.45371800  0.19373700  1
  F  F58  1  0.26829200  0.95371800  0.30626300  1
  F  F59  1  0.76829200  0.54628200  0.69373700  1
  F  F60  1  0.80626300  0.23170800  0.04628200  1
  F  F61  1  0.30626300  0.26829200  0.95371800  1
  F  F62  1  0.69373700  0.76829200  0.54628200  1
  F  F63  1  0.19373700  0.73170800  0.45371800  1
  F  F64  1  0.16590900  0.25681900  0.39997800  1
  F  F65  1  0.33409100  0.74318100  0.89997800  1
  F  F66  1  0.83409100  0.75681900  0.10002200  1
  F  F67  1  0.39997800  0.16590900  0.25681900  1
  F  F68  1  0.66590900  0.24318100  0.60002200  1
  F  F69  1  0.89997800  0.33409100  0.74318100  1
  F  F70  1  0.10002200  0.83409100  0.75681900  1
  F  F71  1  0.60002200  0.66590900  0.24318100  1
  F  F72  1  0.25681900  0.39997800  0.16590900  1
  F  F73  1  0.75681900  0.10002200  0.83409100  1
  F  F74  1  0.24318100  0.60002200  0.66590900  1
  F  F75  1  0.74318100  0.89997800  0.33409100  1
