# generated using pymatgen
data_Y3Ga3(FeO6)2
_symmetry_space_group_name_H-M   'P 1'
_cell_length_a   10.80590992
_cell_length_b   10.80590992
_cell_length_c   10.80590992
_cell_angle_alpha   109.47122063
_cell_angle_beta   109.47122063
_cell_angle_gamma   109.47122063
_symmetry_Int_Tables_number   1
_chemical_formula_structural   Y3Ga3(FeO6)2
_chemical_formula_sum   'Y12 Ga12 Fe8 O48'
_cell_volume   971.31956702
_cell_formula_units_Z   4
loop_
 _symmetry_equiv_pos_site_id
 _symmetry_equiv_pos_as_xyz
  1  'x, y, z'
loop_
 _atom_site_type_symbol
 _atom_site_label
 _atom_site_symmetry_multiplicity
 _atom_site_fract_x
 _atom_site_fract_y
 _atom_site_fract_z
 _atom_site_occupancy
  Y  Y0  1  0.25000000  0.37500000  0.12500000  1
  Y  Y1  1  0.75000000  0.62500000  0.87500000  1
  Y  Y2  1  0.75000000  0.12500000  0.37500000  1
  Y  Y3  1  0.12500000  0.25000000  0.37500000  1
  Y  Y4  1  0.37500000  0.75000000  0.12500000  1
  Y  Y5  1  0.25000000  0.87500000  0.62500000  1
  Y  Y6  1  0.87500000  0.75000000  0.62500000  1
  Y  Y7  1  0.62500000  0.25000000  0.87500000  1
  Y  Y8  1  0.37500000  0.12500000  0.25000000  1
  Y  Y9  1  0.62500000  0.87500000  0.75000000  1
  Y  Y10  1  0.12500000  0.37500000  0.75000000  1
  Y  Y11  1  0.87500000  0.62500000  0.25000000  1
  Ga  Ga12  1  0.25000000  0.62500000  0.37500000  1
  Ga  Ga13  1  0.75000000  0.37500000  0.62500000  1
  Ga  Ga14  1  0.75000000  0.87500000  0.12500000  1
  Ga  Ga15  1  0.37500000  0.25000000  0.62500000  1
  Ga  Ga16  1  0.62500000  0.75000000  0.37500000  1
  Ga  Ga17  1  0.25000000  0.12500000  0.87500000  1
  Ga  Ga18  1  0.12500000  0.75000000  0.87500000  1
  Ga  Ga19  1  0.87500000  0.25000000  0.12500000  1
  Ga  Ga20  1  0.62500000  0.37500000  0.25000000  1
  Ga  Ga21  1  0.37500000  0.62500000  0.75000000  1
  Ga  Ga22  1  0.87500000  0.12500000  0.75000000  1
  Ga  Ga23  1  0.12500000  0.87500000  0.25000000  1
  Fe  Fe24  1  0.00000000  0.00000000  0.00000000  1
  Fe  Fe25  1  0.50000000  0.00000000  0.50000000  1
  Fe  Fe26  1  0.00000000  0.50000000  0.50000000  1
  Fe  Fe27  1  0.50000000  0.00000000  0.00000000  1
  Fe  Fe28  1  0.50000000  0.50000000  0.00000000  1
  Fe  Fe29  1  0.50000000  0.50000000  0.50000000  1
  Fe  Fe30  1  0.00000000  0.00000000  0.50000000  1
  Fe  Fe31  1  0.00000000  0.50000000  0.00000000  1
  O  O32  1  0.47099600  0.37626900  0.29197700  1
  O  O33  1  0.52900400  0.62373100  0.70802300  1
  O  O34  1  0.58429200  0.17901900  0.20802300  1
  O  O35  1  0.91570800  0.12373100  0.59472700  1
  O  O36  1  0.29197700  0.47099600  0.37626900  1
  O  O37  1  0.32098100  0.91570800  0.29197700  1
  O  O38  1  0.41570800  0.82098100  0.79197700  1
  O  O39  1  0.08429200  0.87626900  0.40527300  1
  O  O40  1  0.70802300  0.52900400  0.62373100  1
  O  O41  1  0.67901900  0.08429200  0.70802300  1
  O  O42  1  0.02900400  0.32098100  0.90527300  1
  O  O43  1  0.20802300  0.58429200  0.17901900  1
  O  O44  1  0.12373100  0.02900400  0.20802300  1
  O  O45  1  0.97099600  0.67901900  0.09472700  1
  O  O46  1  0.79197700  0.41570800  0.82098100  1
  O  O47  1  0.87626900  0.97099600  0.79197700  1
  O  O48  1  0.59472700  0.91570800  0.12373100  1
  O  O49  1  0.17901900  0.47099600  0.59472700  1
  O  O50  1  0.40527300  0.08429200  0.87626900  1
  O  O51  1  0.82098100  0.52900400  0.40527300  1
  O  O52  1  0.90527300  0.02900400  0.32098100  1
  O  O53  1  0.37626900  0.58429200  0.90527300  1
  O  O54  1  0.09472700  0.97099600  0.67901900  1
  O  O55  1  0.62373100  0.41570800  0.09472700  1
  O  O56  1  0.37626900  0.29197700  0.47099600  1
  O  O57  1  0.58429200  0.90527300  0.37626900  1
  O  O58  1  0.62373100  0.70802300  0.52900400  1
  O  O59  1  0.41570800  0.09472700  0.62373100  1
  O  O60  1  0.12373100  0.59472700  0.91570800  1
  O  O61  1  0.02900400  0.20802300  0.12373100  1
  O  O62  1  0.87626900  0.40527300  0.08429200  1
  O  O63  1  0.97099600  0.79197700  0.87626900  1
  O  O64  1  0.32098100  0.90527300  0.02900400  1
  O  O65  1  0.91570800  0.29197700  0.32098100  1
  O  O66  1  0.67901900  0.09472700  0.97099600  1
  O  O67  1  0.08429200  0.70802300  0.67901900  1
  O  O68  1  0.17901900  0.20802300  0.58429200  1
  O  O69  1  0.47099600  0.59472700  0.17901900  1
  O  O70  1  0.82098100  0.79197700  0.41570800  1
  O  O71  1  0.52900400  0.40527300  0.82098100  1
  O  O72  1  0.29197700  0.32098100  0.91570800  1
  O  O73  1  0.70802300  0.67901900  0.08429200  1
  O  O74  1  0.20802300  0.12373100  0.02900400  1
  O  O75  1  0.79197700  0.87626900  0.97099600  1
  O  O76  1  0.90527300  0.37626900  0.58429200  1
  O  O77  1  0.09472700  0.62373100  0.41570800  1
  O  O78  1  0.59472700  0.17901900  0.47099600  1
  O  O79  1  0.40527300  0.82098100  0.52900400  1
