# generated using pymatgen
data_Cs3AlTe3
_symmetry_space_group_name_H-M   'P 1'
_cell_length_a   14.76065000
_cell_length_b   9.27374300
_cell_length_c   12.12136115
_cell_angle_alpha   53.52407465
_cell_angle_beta   90.00000000
_cell_angle_gamma   90.00000000
_symmetry_Int_Tables_number   1
_chemical_formula_structural   Cs3AlTe3
_chemical_formula_sum   'Cs12 Al4 Te12'
_cell_volume   1334.21439904
_cell_formula_units_Z   4
loop_
 _symmetry_equiv_pos_site_id
 _symmetry_equiv_pos_as_xyz
  1  'x, y, z'
loop_
 _atom_site_type_symbol
 _atom_site_label
 _atom_site_symmetry_multiplicity
 _atom_site_fract_x
 _atom_site_fract_y
 _atom_site_fract_z
 _atom_site_occupancy
  Cs  Cs0  1  0.58164800  0.64701500  0.11239400  1
  Cs  Cs1  1  0.08164800  0.35298500  0.38760600  1
  Cs  Cs2  1  0.41835200  0.35298500  0.88760600  1
  Cs  Cs3  1  0.91835200  0.64701500  0.61239400  1
  Cs  Cs4  1  0.31081900  0.87340500  0.91347500  1
  Cs  Cs5  1  0.81081900  0.12659500  0.58652500  1
  Cs  Cs6  1  0.68918100  0.12659500  0.08652500  1
  Cs  Cs7  1  0.18918100  0.87340500  0.41347500  1
  Cs  Cs8  1  0.87512700  0.62298800  0.01446900  1
  Cs  Cs9  1  0.37512700  0.37701200  0.48553100  1
  Cs  Cs10  1  0.12487300  0.37701200  0.98553100  1
  Cs  Cs11  1  0.62487300  0.62298800  0.51446900  1
  Al  Al12  1  0.55921200  0.93290600  0.65866900  1
  Al  Al13  1  0.05921200  0.06709400  0.84133100  1
  Al  Al14  1  0.44078800  0.06709400  0.34133100  1
  Al  Al15  1  0.94078800  0.93290600  0.15866900  1
  Te  Te16  1  0.10665000  0.85801600  0.11174200  1
  Te  Te17  1  0.60665000  0.14198400  0.38825800  1
  Te  Te18  1  0.89335000  0.14198400  0.88825800  1
  Te  Te19  1  0.39335000  0.85801600  0.61174200  1
  Te  Te20  1  0.83415600  0.64879300  0.30590800  1
  Te  Te21  1  0.33415600  0.35120700  0.19409200  1
  Te  Te22  1  0.16584400  0.35120700  0.69409200  1
  Te  Te23  1  0.66584400  0.64879300  0.80590800  1
  Te  Te24  1  0.05752700  0.88651100  0.73704700  1
  Te  Te25  1  0.55752700  0.11348900  0.76295300  1
  Te  Te26  1  0.94247300  0.11348900  0.26295300  1
  Te  Te27  1  0.44247300  0.88651100  0.23704700  1
