# generated using pymatgen
data_Sc5(CoSn3)6
_symmetry_space_group_name_H-M   'P 1'
_cell_length_a   13.52167857
_cell_length_b   13.52167857
_cell_length_c   16.44555756
_cell_angle_alpha   114.27422352
_cell_angle_beta   114.27422352
_cell_angle_gamma   90.00000000
_symmetry_Int_Tables_number   1
_chemical_formula_structural   Sc5(CoSn3)6
_chemical_formula_sum   'Sc20 Co24 Sn72'
_cell_volume   2446.43900504
_cell_formula_units_Z   4
loop_
 _symmetry_equiv_pos_site_id
 _symmetry_equiv_pos_as_xyz
  1  'x, y, z'
loop_
 _atom_site_type_symbol
 _atom_site_label
 _atom_site_symmetry_multiplicity
 _atom_site_fract_x
 _atom_site_fract_y
 _atom_site_fract_z
 _atom_site_occupancy
  Sc  Sc0  1  0.62500000  0.87500000  0.25000000  1
  Sc  Sc1  1  0.12500000  0.37500000  0.25000000  1
  Sc  Sc2  1  0.37500000  0.12500000  0.75000000  1
  Sc  Sc3  1  0.87500000  0.62500000  0.75000000  1
  Sc  Sc4  1  0.05963977  0.80855178  0.38296876  1
  Sc  Sc5  1  0.82332899  0.30855178  0.38296876  1
  Sc  Sc6  1  0.30855178  0.55963977  0.88296876  1
  Sc  Sc7  1  0.07441699  0.05963977  0.88296876  1
  Sc  Sc8  1  0.94036023  0.19144822  0.61703124  1
  Sc  Sc9  1  0.17667101  0.69144822  0.61703124  1
  Sc  Sc10  1  0.69144822  0.44036023  0.11703124  1
  Sc  Sc11  1  0.92558301  0.94036023  0.11703124  1
  Sc  Sc12  1  0.55963977  0.57441699  0.38296876  1
  Sc  Sc13  1  0.32332899  0.07441699  0.38296876  1
  Sc  Sc14  1  0.80855178  0.32332899  0.88296876  1
  Sc  Sc15  1  0.57441699  0.82332899  0.88296876  1
  Sc  Sc16  1  0.44036023  0.42558301  0.61703124  1
  Sc  Sc17  1  0.67667101  0.92558301  0.61703124  1
  Sc  Sc18  1  0.19144822  0.67667101  0.11703124  1
  Sc  Sc19  1  0.42558301  0.17667101  0.11703124  1
  Co  Co20  1  0.36915382  0.87448974  0.25013943  1
  Co  Co21  1  0.38098562  0.37448974  0.25013943  1
  Co  Co22  1  0.37448974  0.86915382  0.75013943  1
  Co  Co23  1  0.87564969  0.36915382  0.75013943  1
  Co  Co24  1  0.63084618  0.12551026  0.74986057  1
  Co  Co25  1  0.61901438  0.62551026  0.74986057  1
  Co  Co26  1  0.62551026  0.13084618  0.24986057  1
  Co  Co27  1  0.12435031  0.63084618  0.24986057  1
  Co  Co28  1  0.86915382  0.37564969  0.25013943  1
  Co  Co29  1  0.88098562  0.87564969  0.25013943  1
  Co  Co30  1  0.87448974  0.88098562  0.75013943  1
  Co  Co31  1  0.37564969  0.38098562  0.75013943  1
  Co  Co32  1  0.13084618  0.62435031  0.74986057  1
  Co  Co33  1  0.11901438  0.12435031  0.74986057  1
  Co  Co34  1  0.12551026  0.11901438  0.24986057  1
  Co  Co35  1  0.62435031  0.61901438  0.24986057  1
  Co  Co36  1  0.24721495  0.99721495  0.49442989  1
  Co  Co37  1  0.74721495  0.49721495  0.49442989  1
  Co  Co38  1  0.49721495  0.74721495  0.99442989  1
  Co  Co39  1  0.99721495  0.24721495  0.99442989  1
  Co  Co40  1  0.75278505  0.00278505  0.50557011  1
  Co  Co41  1  0.25278505  0.50278505  0.50557011  1
  Co  Co42  1  0.50278505  0.25278505  0.00557011  1
  Co  Co43  1  0.00278505  0.75278505  0.00557011  1
  Sn  Sn44  1  0.29800145  0.54800145  0.25000000  1
  Sn  Sn45  1  0.45199855  0.04800145  0.25000000  1
  Sn  Sn46  1  0.04800145  0.79800145  0.75000000  1
  Sn  Sn47  1  0.20199855  0.29800145  0.75000000  1
  Sn  Sn48  1  0.70199855  0.45199855  0.75000000  1
  Sn  Sn49  1  0.54800145  0.95199855  0.75000000  1
  Sn  Sn50  1  0.95199855  0.20199855  0.25000000  1
  Sn  Sn51  1  0.79800145  0.70199855  0.25000000  1
  Sn  Sn52  1  0.36678726  0.79306148  0.07814363  1
  Sn  Sn53  1  0.21135637  0.29306148  0.07814363  1
  Sn  Sn54  1  0.29306148  0.86678726  0.57814363  1
  Sn  Sn55  1  0.78508214  0.36678726  0.57814363  1
  Sn  Sn56  1  0.63321274  0.20693852  0.92185637  1
  Sn  Sn57  1  0.78864363  0.70693852  0.92185637  1
  Sn  Sn58  1  0.70693852  0.13321274  0.42185637  1
  Sn  Sn59  1  0.21491786  0.63321274  0.42185637  1
  Sn  Sn60  1  0.86678726  0.28508214  0.07814363  1
  Sn  Sn61  1  0.71135637  0.78508214  0.07814363  1
  Sn  Sn62  1  0.79306148  0.71135637  0.57814363  1
  Sn  Sn63  1  0.28508214  0.21135637  0.57814363  1
  Sn  Sn64  1  0.13321274  0.71491786  0.92185637  1
  Sn  Sn65  1  0.28864363  0.21491786  0.92185637  1
  Sn  Sn66  1  0.20693852  0.28864363  0.42185637  1
  Sn  Sn67  1  0.71491786  0.78864363  0.42185637  1
  Sn  Sn68  1  0.53779055  0.95706738  0.42201202  1
  Sn  Sn69  1  0.38422146  0.45706738  0.42201202  1
  Sn  Sn70  1  0.45706738  0.03779055  0.92201202  1
  Sn  Sn71  1  0.96494464  0.53779055  0.92201202  1
  Sn  Sn72  1  0.46220945  0.04293262  0.57798798  1
  Sn  Sn73  1  0.61577854  0.54293262  0.57798798  1
  Sn  Sn74  1  0.54293262  0.96220945  0.07798798  1
  Sn  Sn75  1  0.03505536  0.46220945  0.07798798  1
  Sn  Sn76  1  0.03779055  0.46494464  0.42201202  1
  Sn  Sn77  1  0.88422146  0.96494464  0.42201202  1
  Sn  Sn78  1  0.95706738  0.88422146  0.92201202  1
  Sn  Sn79  1  0.46494464  0.38422146  0.92201202  1
  Sn  Sn80  1  0.96220945  0.53505536  0.57798798  1
  Sn  Sn81  1  0.11577854  0.03505536  0.57798798  1
  Sn  Sn82  1  0.04293262  0.11577854  0.07798798  1
  Sn  Sn83  1  0.53505536  0.61577854  0.07798798  1
  Sn  Sn84  1  0.45130879  0.70130879  0.25000000  1
  Sn  Sn85  1  0.29869121  0.20130879  0.25000000  1
  Sn  Sn86  1  0.20130879  0.95130879  0.75000000  1
  Sn  Sn87  1  0.04869121  0.45130879  0.75000000  1
  Sn  Sn88  1  0.54869121  0.29869121  0.75000000  1
  Sn  Sn89  1  0.70130879  0.79869121  0.75000000  1
  Sn  Sn90  1  0.79869121  0.04869121  0.25000000  1
  Sn  Sn91  1  0.95130879  0.54869121  0.25000000  1
  Sn  Sn92  1  0.25801367  0.83026926  0.33892577  1
  Sn  Sn93  1  0.58091211  0.33026926  0.33892577  1
  Sn  Sn94  1  0.33026926  0.75801367  0.83892577  1
  Sn  Sn95  1  0.00865651  0.25801367  0.83892577  1
  Sn  Sn96  1  0.74198633  0.16973074  0.66107423  1
  Sn  Sn97  1  0.41908789  0.66973074  0.66107423  1
  Sn  Sn98  1  0.66973074  0.24198633  0.16107423  1
  Sn  Sn99  1  0.99134349  0.74198633  0.16107423  1
  Sn  Sn100  1  0.75801367  0.50865651  0.33892577  1
  Sn  Sn101  1  0.08091211  0.00865651  0.33892577  1
  Sn  Sn102  1  0.83026926  0.08091211  0.83892577  1
  Sn  Sn103  1  0.50865651  0.58091211  0.83892577  1
  Sn  Sn104  1  0.24198633  0.49134349  0.66107423  1
  Sn  Sn105  1  0.91908789  0.99134349  0.66107423  1
  Sn  Sn106  1  0.16973074  0.91908789  0.16107423  1
  Sn  Sn107  1  0.49134349  0.41908789  0.16107423  1
  Sn  Sn108  1  0.25000000  0.96868019  0.00000000  1
  Sn  Sn109  1  0.25000000  0.46868019  0.00000000  1
  Sn  Sn110  1  0.46868019  0.75000000  0.50000000  1
  Sn  Sn111  1  0.53131981  0.25000000  0.50000000  1
  Sn  Sn112  1  0.75000000  0.03131981  0.00000000  1
  Sn  Sn113  1  0.75000000  0.53131981  0.00000000  1
  Sn  Sn114  1  0.96868019  0.75000000  0.50000000  1
  Sn  Sn115  1  0.03131981  0.25000000  0.50000000  1
