# generated using pymatgen
data_Tb3Ge3Ir2
_symmetry_space_group_name_H-M   'P 1'
_cell_length_a   5.69856921
_cell_length_b   5.69856921
_cell_length_c   14.33182000
_cell_angle_alpha   90.00000000
_cell_angle_beta   90.00000000
_cell_angle_gamma   135.46317866
_symmetry_Int_Tables_number   1
_chemical_formula_structural   Tb3Ge3Ir2
_chemical_formula_sum   'Tb6 Ge6 Ir4'
_cell_volume   326.42140678
_cell_formula_units_Z   2
loop_
 _symmetry_equiv_pos_site_id
 _symmetry_equiv_pos_as_xyz
  1  'x, y, z'
loop_
 _atom_site_type_symbol
 _atom_site_label
 _atom_site_symmetry_multiplicity
 _atom_site_fract_x
 _atom_site_fract_y
 _atom_site_fract_z
 _atom_site_occupancy
  Tb  Tb0  1  0.91666800  0.08333200  0.38925400  1
  Tb  Tb1  1  0.08333200  0.91666800  0.61074600  1
  Tb  Tb2  1  0.91666800  0.08333200  0.11074600  1
  Tb  Tb3  1  0.08333200  0.91666800  0.88925400  1
  Tb  Tb4  1  0.64014300  0.35985700  0.25000000  1
  Tb  Tb5  1  0.35985700  0.64014300  0.75000000  1
  Ge  Ge6  1  0.62329000  0.37671000  0.46490400  1
  Ge  Ge7  1  0.37671000  0.62329000  0.53509600  1
  Ge  Ge8  1  0.62329000  0.37671000  0.03509600  1
  Ge  Ge9  1  0.37671000  0.62329000  0.96490400  1
  Ge  Ge10  1  0.34225400  0.65774600  0.25000000  1
  Ge  Ge11  1  0.65774600  0.34225400  0.75000000  1
  Ir  Ir12  1  0.79918100  0.20081900  0.89845000  1
  Ir  Ir13  1  0.20081900  0.79918100  0.10155000  1
  Ir  Ir14  1  0.79918100  0.20081900  0.60155000  1
  Ir  Ir15  1  0.20081900  0.79918100  0.39845000  1
