# generated using pymatgen
data_Ca2MgReO6
_symmetry_space_group_name_H-M   'P 1'
_cell_length_a   5.57563700
_cell_length_b   5.46035800
_cell_length_c   9.48877315
_cell_angle_alpha   54.86829796
_cell_angle_beta   90.00000000
_cell_angle_gamma   90.00000000
_symmetry_Int_Tables_number   1
_chemical_formula_structural   Ca2MgReO6
_chemical_formula_sum   'Ca4 Mg2 Re2 O12'
_cell_volume   236.25960556
_cell_formula_units_Z   2
loop_
 _symmetry_equiv_pos_site_id
 _symmetry_equiv_pos_as_xyz
  1  'x, y, z'
loop_
 _atom_site_type_symbol
 _atom_site_label
 _atom_site_symmetry_multiplicity
 _atom_site_fract_x
 _atom_site_fract_y
 _atom_site_fract_z
 _atom_site_occupancy
  Ca  Ca0  1  0.04785700  0.75915200  0.24902700  1
  Ca  Ca1  1  0.45214300  0.75915200  0.74902700  1
  Ca  Ca2  1  0.95214300  0.24084800  0.75097300  1
  Ca  Ca3  1  0.54785700  0.24084800  0.25097300  1
  Mg  Mg4  1  0.50000000  0.00000000  0.00000000  1
  Mg  Mg5  1  0.00000000  0.00000000  0.50000000  1
  Re  Re6  1  0.50000000  0.50000000  0.50000000  1
  Re  Re7  1  0.00000000  0.50000000  0.00000000  1
  O  O8  1  0.21502300  0.26197800  0.54617700  1
  O  O9  1  0.28497700  0.26197800  0.04617700  1
  O  O10  1  0.78497700  0.73802200  0.45382300  1
  O  O11  1  0.71502300  0.73802200  0.95382300  1
  O  O12  1  0.69632200  0.16829600  0.54497100  1
  O  O13  1  0.80367800  0.16829600  0.04497100  1
  O  O14  1  0.30367800  0.83170400  0.45502900  1
  O  O15  1  0.19632200  0.83170400  0.95502900  1
  O  O16  1  0.47385100  0.65463700  0.25806700  1
  O  O17  1  0.02614900  0.65463700  0.75806700  1
  O  O18  1  0.52614900  0.34536300  0.74193300  1
  O  O19  1  0.97385100  0.34536300  0.24193300  1
