# generated using pymatgen
data_Fe3NiP4
_symmetry_space_group_name_H-M   'P 1'
_cell_length_a   3.24809800
_cell_length_b   5.04167200
_cell_length_c   5.64088288
_cell_angle_alpha   89.61723187
_cell_angle_beta   90.00000000
_cell_angle_gamma   90.00000000
_symmetry_Int_Tables_number   1
_chemical_formula_structural   Fe3NiP4
_chemical_formula_sum   'Fe3 Ni1 P4'
_cell_volume   92.37216085
_cell_formula_units_Z   1
loop_
 _symmetry_equiv_pos_site_id
 _symmetry_equiv_pos_as_xyz
  1  'x, y, z'
loop_
 _atom_site_type_symbol
 _atom_site_label
 _atom_site_symmetry_multiplicity
 _atom_site_fract_x
 _atom_site_fract_y
 _atom_site_fract_z
 _atom_site_occupancy
  Fe  Fe0  1  0.50000000  0.99998300  0.20060800  1
  Fe  Fe1  1  0.00000000  0.49785000  0.70337300  1
  Fe  Fe2  1  0.00000000  0.99674500  0.80004700  1
  Ni  Ni3  1  0.50000000  0.50148400  0.30138400  1
  P  P4  1  0.50000000  0.70000400  0.91295500  1
  P  P5  1  0.50000000  0.18515200  0.58148900  1
  P  P6  1  0.00000000  0.29857900  0.07337200  1
  P  P7  1  0.00000000  0.82020300  0.42677300  1
