# generated using pymatgen
data_Ba2Pd
_symmetry_space_group_name_H-M   'P 1'
_cell_length_a   5.30218400
_cell_length_b   8.44850600
_cell_length_c   10.49173000
_cell_angle_alpha   90.00000000
_cell_angle_beta   90.00000000
_cell_angle_gamma   90.00000000
_symmetry_Int_Tables_number   1
_chemical_formula_structural   Ba2Pd
_chemical_formula_sum   'Ba8 Pd4'
_cell_volume   469.98264098
_cell_formula_units_Z   4
loop_
 _symmetry_equiv_pos_site_id
 _symmetry_equiv_pos_as_xyz
  1  'x, y, z'
loop_
 _atom_site_type_symbol
 _atom_site_label
 _atom_site_symmetry_multiplicity
 _atom_site_fract_x
 _atom_site_fract_y
 _atom_site_fract_z
 _atom_site_occupancy
  Ba  Ba0  1  0.25000000  0.86048500  0.41370000  1
  Ba  Ba1  1  0.25000000  0.36048500  0.08630000  1
  Ba  Ba2  1  0.75000000  0.13951500  0.58630000  1
  Ba  Ba3  1  0.75000000  0.63951500  0.91370000  1
  Ba  Ba4  1  0.25000000  0.99727600  0.84393500  1
  Ba  Ba5  1  0.25000000  0.49727600  0.65606500  1
  Ba  Ba6  1  0.75000000  0.00272400  0.15606500  1
  Ba  Ba7  1  0.75000000  0.50272400  0.34393500  1
  Pd  Pd8  1  0.25000000  0.25862000  0.41251300  1
  Pd  Pd9  1  0.25000000  0.75862000  0.08748700  1
  Pd  Pd10  1  0.75000000  0.74138000  0.58748700  1
  Pd  Pd11  1  0.75000000  0.24138000  0.91251300  1
