# generated using pymatgen
data_Er3Pt4
_symmetry_space_group_name_H-M   'P 1'
_cell_length_a   7.81360735
_cell_length_b   7.81360735
_cell_length_c   7.81360816
_cell_angle_alpha   114.30716064
_cell_angle_beta   114.30716064
_cell_angle_gamma   114.30716041
_symmetry_Int_Tables_number   1
_chemical_formula_structural   Er3Pt4
_chemical_formula_sum   'Er6 Pt8'
_cell_volume   283.10454621
_cell_formula_units_Z   2
loop_
 _symmetry_equiv_pos_site_id
 _symmetry_equiv_pos_as_xyz
  1  'x, y, z'
loop_
 _atom_site_type_symbol
 _atom_site_label
 _atom_site_symmetry_multiplicity
 _atom_site_fract_x
 _atom_site_fract_y
 _atom_site_fract_z
 _atom_site_occupancy
  Er  Er0  1  0.02636200  0.28141500  0.40366600  1
  Er  Er1  1  0.28141500  0.40366600  0.02636200  1
  Er  Er2  1  0.40366600  0.02636200  0.28141500  1
  Er  Er3  1  0.97363800  0.71858500  0.59633400  1
  Er  Er4  1  0.71858500  0.59633400  0.97363800  1
  Er  Er5  1  0.59633400  0.97363800  0.71858500  1
  Pt  Pt6  1  0.00000000  0.00000000  0.00000000  1
  Pt  Pt7  1  0.50000000  0.50000000  0.50000000  1
  Pt  Pt8  1  0.06103400  0.55197500  0.22488600  1
  Pt  Pt9  1  0.55197500  0.22488600  0.06103400  1
  Pt  Pt10  1  0.22488600  0.06103400  0.55197500  1
  Pt  Pt11  1  0.93896600  0.44802500  0.77511400  1
  Pt  Pt12  1  0.44802500  0.77511400  0.93896600  1
  Pt  Pt13  1  0.77511400  0.93896600  0.44802500  1
