# generated using pymatgen
data_K5In3F14
_symmetry_space_group_name_H-M   'P 1'
_cell_length_a   8.05896800
_cell_length_b   8.05896800
_cell_length_c   12.13544000
_cell_angle_alpha   90.00000000
_cell_angle_beta   90.00000000
_cell_angle_gamma   90.00000000
_symmetry_Int_Tables_number   1
_chemical_formula_structural   K5In3F14
_chemical_formula_sum   'K10 In6 F28'
_cell_volume   788.15999967
_cell_formula_units_Z   2
loop_
 _symmetry_equiv_pos_site_id
 _symmetry_equiv_pos_as_xyz
  1  'x, y, z'
loop_
 _atom_site_type_symbol
 _atom_site_label
 _atom_site_symmetry_multiplicity
 _atom_site_fract_x
 _atom_site_fract_y
 _atom_site_fract_z
 _atom_site_occupancy
  K  K0  1  0.71437200  0.21437200  0.25000000  1
  K  K1  1  0.28562800  0.78562800  0.25000000  1
  K  K2  1  0.78562800  0.71437200  0.75000000  1
  K  K3  1  0.21437200  0.28562800  0.75000000  1
  K  K4  1  0.21437200  0.28562800  0.25000000  1
  K  K5  1  0.78562800  0.71437200  0.25000000  1
  K  K6  1  0.71437200  0.21437200  0.75000000  1
  K  K7  1  0.28562800  0.78562800  0.75000000  1
  K  K8  1  0.00000000  0.00000000  0.50000000  1
  K  K9  1  0.50000000  0.50000000  0.00000000  1
  In  In10  1  0.50000000  0.00000000  0.50000000  1
  In  In11  1  0.00000000  0.50000000  0.00000000  1
  In  In12  1  0.00000000  0.50000000  0.50000000  1
  In  In13  1  0.50000000  0.00000000  0.00000000  1
  In  In14  1  0.50000000  0.50000000  0.50000000  1
  In  In15  1  0.00000000  0.00000000  0.00000000  1
  F  F16  1  0.74852600  0.58751500  0.50000000  1
  F  F17  1  0.25147400  0.41248500  0.50000000  1
  F  F18  1  0.75147400  0.08751500  0.00000000  1
  F  F19  1  0.24852600  0.91248500  0.00000000  1
  F  F20  1  0.58751500  0.25147400  0.50000000  1
  F  F21  1  0.41248500  0.74852600  0.50000000  1
  F  F22  1  0.08751500  0.24852600  0.00000000  1
  F  F23  1  0.91248500  0.75147400  0.00000000  1
  F  F24  1  0.68077600  0.95349400  0.38000800  1
  F  F25  1  0.31922400  0.04650600  0.38000800  1
  F  F26  1  0.81922400  0.45349400  0.88000800  1
  F  F27  1  0.18077600  0.54650600  0.88000800  1
  F  F28  1  0.95349400  0.31922400  0.38000800  1
  F  F29  1  0.04650600  0.68077600  0.38000800  1
  F  F30  1  0.45349400  0.18077600  0.88000800  1
  F  F31  1  0.54650600  0.81922400  0.88000800  1
  F  F32  1  0.31922400  0.04650600  0.61999200  1
  F  F33  1  0.68077600  0.95349400  0.61999200  1
  F  F34  1  0.18077600  0.54650600  0.11999200  1
  F  F35  1  0.81922400  0.45349400  0.11999200  1
  F  F36  1  0.04650600  0.68077600  0.61999200  1
  F  F37  1  0.95349400  0.31922400  0.61999200  1
  F  F38  1  0.54650600  0.81922400  0.11999200  1
  F  F39  1  0.45349400  0.18077600  0.11999200  1
  F  F40  1  0.50000000  0.50000000  0.32802000  1
  F  F41  1  0.00000000  0.00000000  0.82802000  1
  F  F42  1  0.50000000  0.50000000  0.67198000  1
  F  F43  1  0.00000000  0.00000000  0.17198000  1
