# generated using pymatgen
data_Ca5(IO6)2
_symmetry_space_group_name_H-M   'P 1'
_cell_length_a   19.14996407
_cell_length_b   19.14996407
_cell_length_c   19.14996409
_cell_angle_alpha   29.57549311
_cell_angle_beta   29.57549311
_cell_angle_gamma   29.57549076
_symmetry_Int_Tables_number   1
_chemical_formula_structural   Ca5(IO6)2
_chemical_formula_sum   'Ca30 I12 O72'
_cell_volume   1514.45571036
_cell_formula_units_Z   6
loop_
 _symmetry_equiv_pos_site_id
 _symmetry_equiv_pos_as_xyz
  1  'x, y, z'
loop_
 _atom_site_type_symbol
 _atom_site_label
 _atom_site_symmetry_multiplicity
 _atom_site_fract_x
 _atom_site_fract_y
 _atom_site_fract_z
 _atom_site_occupancy
  Ca  Ca0  1  0.30581500  0.97471900  0.66090600  1
  Ca  Ca1  1  0.66090600  0.30581500  0.97471900  1
  Ca  Ca2  1  0.97471900  0.66090600  0.30581500  1
  Ca  Ca3  1  0.16090600  0.47471900  0.80581500  1
  Ca  Ca4  1  0.80581500  0.16090600  0.47471900  1
  Ca  Ca5  1  0.47471900  0.80581500  0.16090600  1
  Ca  Ca6  1  0.69418500  0.02528100  0.33909400  1
  Ca  Ca7  1  0.33909400  0.69418500  0.02528100  1
  Ca  Ca8  1  0.02528100  0.33909400  0.69418500  1
  Ca  Ca9  1  0.83909400  0.52528100  0.19418500  1
  Ca  Ca10  1  0.19418500  0.83909400  0.52528100  1
  Ca  Ca11  1  0.52528100  0.19418500  0.83909400  1
  Ca  Ca12  1  0.09817000  0.77104300  0.48239000  1
  Ca  Ca13  1  0.48239000  0.09817000  0.77104300  1
  Ca  Ca14  1  0.77104300  0.48239000  0.09817000  1
  Ca  Ca15  1  0.98239000  0.27104300  0.59817000  1
  Ca  Ca16  1  0.59817000  0.98239000  0.27104300  1
  Ca  Ca17  1  0.27104300  0.59817000  0.98239000  1
  Ca  Ca18  1  0.90183000  0.22895700  0.51761000  1
  Ca  Ca19  1  0.51761000  0.90183000  0.22895700  1
  Ca  Ca20  1  0.22895700  0.51761000  0.90183000  1
  Ca  Ca21  1  0.01761000  0.72895700  0.40183000  1
  Ca  Ca22  1  0.40183000  0.01761000  0.72895700  1
  Ca  Ca23  1  0.72895700  0.40183000  0.01761000  1
  Ca  Ca24  1  0.39678100  0.39678100  0.39678100  1
  Ca  Ca25  1  0.89678100  0.89678100  0.89678100  1
  Ca  Ca26  1  0.60321900  0.60321900  0.60321900  1
  Ca  Ca27  1  0.10321900  0.10321900  0.10321900  1
  Ca  Ca28  1  0.25000000  0.25000000  0.25000000  1
  Ca  Ca29  1  0.75000000  0.75000000  0.75000000  1
  I  I30  1  0.92314200  0.57685800  0.25000000  1
  I  I31  1  0.25000000  0.92314200  0.57685800  1
  I  I32  1  0.57685800  0.25000000  0.92314200  1
  I  I33  1  0.75000000  0.07685800  0.42314200  1
  I  I34  1  0.42314200  0.75000000  0.07685800  1
  I  I35  1  0.07685800  0.42314200  0.75000000  1
  I  I36  1  0.33915900  0.33915900  0.33915900  1
  I  I37  1  0.83915900  0.83915900  0.83915900  1
  I  I38  1  0.66084100  0.66084100  0.66084100  1
  I  I39  1  0.16084100  0.16084100  0.16084100  1
  I  I40  1  0.50000000  0.50000000  0.50000000  1
  I  I41  1  0.00000000  0.00000000  0.00000000  1
  O  O42  1  0.27212600  0.08690400  0.46678700  1
  O  O43  1  0.46678700  0.27212600  0.08690400  1
  O  O44  1  0.08690400  0.46678700  0.27212600  1
  O  O45  1  0.96678700  0.58690400  0.77212600  1
  O  O46  1  0.77212600  0.96678700  0.58690400  1
  O  O47  1  0.58690400  0.77212600  0.96678700  1
  O  O48  1  0.72787400  0.91309600  0.53321300  1
  O  O49  1  0.53321300  0.72787400  0.91309600  1
  O  O50  1  0.91309600  0.53321300  0.72787400  1
  O  O51  1  0.03321300  0.41309600  0.22787400  1
  O  O52  1  0.22787400  0.03321300  0.41309600  1
  O  O53  1  0.41309600  0.22787400  0.03321300  1
  O  O54  1  0.51081900  0.30546600  0.62684600  1
  O  O55  1  0.62684600  0.51081900  0.30546600  1
  O  O56  1  0.30546600  0.62684600  0.51081900  1
  O  O57  1  0.12684600  0.80546600  0.01081900  1
  O  O58  1  0.01081900  0.12684600  0.80546600  1
  O  O59  1  0.80546600  0.01081900  0.12684600  1
  O  O60  1  0.48918100  0.69453400  0.37315400  1
  O  O61  1  0.37315400  0.48918100  0.69453400  1
  O  O62  1  0.69453400  0.37315400  0.48918100  1
  O  O63  1  0.87315400  0.19453400  0.98918100  1
  O  O64  1  0.98918100  0.87315400  0.19453400  1
  O  O65  1  0.19453400  0.98918100  0.87315400  1
  O  O66  1  0.18950200  0.26813800  0.50636400  1
  O  O67  1  0.50636400  0.18950200  0.26813800  1
  O  O68  1  0.26813800  0.50636400  0.18950200  1
  O  O69  1  0.00636400  0.76813800  0.68950200  1
  O  O70  1  0.68950200  0.00636400  0.76813800  1
  O  O71  1  0.76813800  0.68950200  0.00636400  1
  O  O72  1  0.81049800  0.73186200  0.49363600  1
  O  O73  1  0.49363600  0.81049800  0.73186200  1
  O  O74  1  0.73186200  0.49363600  0.81049800  1
  O  O75  1  0.99363600  0.23186200  0.31049800  1
  O  O76  1  0.31049800  0.99363600  0.23186200  1
  O  O77  1  0.23186200  0.31049800  0.99363600  1
  O  O78  1  0.18016400  0.48054600  0.41893800  1
  O  O79  1  0.41893800  0.18016400  0.48054600  1
  O  O80  1  0.48054600  0.41893800  0.18016400  1
  O  O81  1  0.91893800  0.98054600  0.68016400  1
  O  O82  1  0.68016400  0.91893800  0.98054600  1
  O  O83  1  0.98054600  0.68016400  0.91893800  1
  O  O84  1  0.81983600  0.51945400  0.58106200  1
  O  O85  1  0.58106200  0.81983600  0.51945400  1
  O  O86  1  0.51945400  0.58106200  0.81983600  1
  O  O87  1  0.08106200  0.01945400  0.31983600  1
  O  O88  1  0.31983600  0.08106200  0.01945400  1
  O  O89  1  0.01945400  0.31983600  0.08106200  1
  O  O90  1  0.18944200  0.27296300  0.71313500  1
  O  O91  1  0.71313500  0.18944200  0.27296300  1
  O  O92  1  0.27296300  0.71313500  0.18944200  1
  O  O93  1  0.21313500  0.77296300  0.68944200  1
  O  O94  1  0.68944200  0.21313500  0.77296300  1
  O  O95  1  0.77296300  0.68944200  0.21313500  1
  O  O96  1  0.81055800  0.72703700  0.28686500  1
  O  O97  1  0.28686500  0.81055800  0.72703700  1
  O  O98  1  0.72703700  0.28686500  0.81055800  1
  O  O99  1  0.78686500  0.22703700  0.31055800  1
  O  O100  1  0.31055800  0.78686500  0.22703700  1
  O  O101  1  0.22703700  0.31055800  0.78686500  1
  O  O102  1  0.17069200  0.55454100  0.52528900  1
  O  O103  1  0.52528900  0.17069200  0.55454100  1
  O  O104  1  0.55454100  0.52528900  0.17069200  1
  O  O105  1  0.02528900  0.05454100  0.67069200  1
  O  O106  1  0.67069200  0.02528900  0.05454100  1
  O  O107  1  0.05454100  0.67069200  0.02528900  1
  O  O108  1  0.82930800  0.44545900  0.47471100  1
  O  O109  1  0.47471100  0.82930800  0.44545900  1
  O  O110  1  0.44545900  0.47471100  0.82930800  1
  O  O111  1  0.97471100  0.94545900  0.32930800  1
  O  O112  1  0.32930800  0.97471100  0.94545900  1
  O  O113  1  0.94545900  0.32930800  0.97471100  1
