# generated using pymatgen
data_Sr5As3O12F
_symmetry_space_group_name_H-M   'P 1'
_cell_length_a   10.16641641
_cell_length_b   10.16641641
_cell_length_c   7.49607000
_cell_angle_alpha   90.00000000
_cell_angle_beta   90.00000000
_cell_angle_gamma   120.00000270
_symmetry_Int_Tables_number   1
_chemical_formula_structural   Sr5As3O12F
_chemical_formula_sum   'Sr10 As6 O24 F2'
_cell_volume   670.96527140
_cell_formula_units_Z   2
loop_
 _symmetry_equiv_pos_site_id
 _symmetry_equiv_pos_as_xyz
  1  'x, y, z'
loop_
 _atom_site_type_symbol
 _atom_site_label
 _atom_site_symmetry_multiplicity
 _atom_site_fract_x
 _atom_site_fract_y
 _atom_site_fract_z
 _atom_site_occupancy
  Sr  Sr0  1  0.75202400  0.75860100  0.25000000  1
  Sr  Sr1  1  0.00657700  0.24797600  0.25000000  1
  Sr  Sr2  1  0.75860100  0.00657700  0.75000000  1
  Sr  Sr3  1  0.99342300  0.75202400  0.75000000  1
  Sr  Sr4  1  0.24797600  0.24139900  0.75000000  1
  Sr  Sr5  1  0.24139900  0.99342300  0.25000000  1
  Sr  Sr6  1  0.33333300  0.66666700  0.49941600  1
  Sr  Sr7  1  0.66666700  0.33333300  0.99941600  1
  Sr  Sr8  1  0.66666700  0.33333300  0.50058400  1
  Sr  Sr9  1  0.33333300  0.66666700  0.00058400  1
  As  As10  1  0.63087500  0.02989900  0.25000000  1
  As  As11  1  0.97010100  0.60097600  0.25000000  1
  As  As12  1  0.60097600  0.63087500  0.75000000  1
  As  As13  1  0.36912500  0.97010100  0.75000000  1
  As  As14  1  0.02989900  0.39902400  0.75000000  1
  As  As15  1  0.39902400  0.36912500  0.25000000  1
  O  O16  1  0.67835400  0.51414500  0.75000000  1
  O  O17  1  0.46993000  0.87466400  0.75000000  1
  O  O18  1  0.34249800  0.25155200  0.43357900  1
  O  O19  1  0.09094600  0.34249800  0.93357900  1
  O  O20  1  0.25155200  0.90905400  0.93357900  1
  O  O21  1  0.74844800  0.09094600  0.43357900  1
  O  O22  1  0.90905400  0.65750200  0.43357900  1
  O  O23  1  0.65750200  0.74844800  0.93357900  1
  O  O24  1  0.65750200  0.74844800  0.56642100  1
  O  O25  1  0.90905400  0.65750200  0.06642100  1
  O  O26  1  0.74844800  0.09094600  0.06642100  1
  O  O27  1  0.25155200  0.90905400  0.56642100  1
  O  O28  1  0.12533600  0.59526600  0.75000000  1
  O  O29  1  0.34249800  0.25155200  0.06642100  1
  O  O30  1  0.40473400  0.53007000  0.75000000  1
  O  O31  1  0.87466400  0.40473400  0.25000000  1
  O  O32  1  0.32164600  0.48585500  0.25000000  1
  O  O33  1  0.83579100  0.32164600  0.75000000  1
  O  O34  1  0.48585500  0.16420900  0.75000000  1
  O  O35  1  0.51414500  0.83579100  0.25000000  1
  O  O36  1  0.16420900  0.67835400  0.25000000  1
  O  O37  1  0.09094600  0.34249800  0.56642100  1
  O  O38  1  0.59526600  0.46993000  0.25000000  1
  O  O39  1  0.53007000  0.12533600  0.25000000  1
  F  F40  1  0.00000000  0.00000000  0.25000000  1
  F  F41  1  0.00000000  0.00000000  0.75000000  1
