# generated using pymatgen
data_RbAlCuF6
_symmetry_space_group_name_H-M   'P 1'
_cell_length_a   6.86211300
_cell_length_b   7.19376900
_cell_length_c   10.21936700
_cell_angle_alpha   90.00000000
_cell_angle_beta   90.00000000
_cell_angle_gamma   90.00000000
_symmetry_Int_Tables_number   1
_chemical_formula_structural   RbAlCuF6
_chemical_formula_sum   'Rb4 Al4 Cu4 F24'
_cell_volume   504.47349031
_cell_formula_units_Z   4
loop_
 _symmetry_equiv_pos_site_id
 _symmetry_equiv_pos_as_xyz
  1  'x, y, z'
loop_
 _atom_site_type_symbol
 _atom_site_label
 _atom_site_symmetry_multiplicity
 _atom_site_fract_x
 _atom_site_fract_y
 _atom_site_fract_z
 _atom_site_occupancy
  Rb  Rb0  1  0.01315000  0.25000000  0.62887700  1
  Rb  Rb1  1  0.98685000  0.75000000  0.37112300  1
  Rb  Rb2  1  0.48685000  0.75000000  0.12887700  1
  Rb  Rb3  1  0.51315000  0.25000000  0.87112300  1
  Al  Al4  1  0.00000000  0.00000000  0.00000000  1
  Al  Al5  1  0.50000000  0.00000000  0.50000000  1
  Al  Al6  1  0.00000000  0.50000000  0.00000000  1
  Al  Al7  1  0.50000000  0.50000000  0.50000000  1
  Cu  Cu8  1  0.21053700  0.25000000  0.25570900  1
  Cu  Cu9  1  0.78946300  0.75000000  0.74429100  1
  Cu  Cu10  1  0.28946300  0.75000000  0.75570900  1
  Cu  Cu11  1  0.71053700  0.25000000  0.24429100  1
  F  F12  1  0.28169200  0.04991900  0.40713500  1
  F  F13  1  0.71830800  0.95008100  0.59286500  1
  F  F14  1  0.21830800  0.95008100  0.90713500  1
  F  F15  1  0.71830800  0.54991900  0.59286500  1
  F  F16  1  0.78169200  0.04991900  0.09286500  1
  F  F17  1  0.28169200  0.45008100  0.40713500  1
  F  F18  1  0.78169200  0.45008100  0.09286500  1
  F  F19  1  0.21830800  0.54991900  0.90713500  1
  F  F20  1  0.54799300  0.25000000  0.52540900  1
  F  F21  1  0.45200700  0.75000000  0.47459100  1
  F  F22  1  0.95200700  0.75000000  0.02540900  1
  F  F23  1  0.04799300  0.25000000  0.97459100  1
  F  F24  1  0.14504600  0.49641700  0.14930700  1
  F  F25  1  0.85495400  0.50358300  0.85069300  1
  F  F26  1  0.35495400  0.50358300  0.64930700  1
  F  F27  1  0.85495400  0.99641700  0.85069300  1
  F  F28  1  0.64504600  0.49641700  0.35069300  1
  F  F29  1  0.14504600  0.00358300  0.14930700  1
  F  F30  1  0.64504600  0.00358300  0.35069300  1
  F  F31  1  0.35495400  0.99641700  0.64930700  1
  F  F32  1  0.45579900  0.25000000  0.16943600  1
  F  F33  1  0.54420100  0.75000000  0.83056400  1
  F  F34  1  0.04420100  0.75000000  0.66943600  1
  F  F35  1  0.95579900  0.25000000  0.33056400  1
