# generated using pymatgen
data_RbHoBeF6
_symmetry_space_group_name_H-M   'P 1'
_cell_length_a   5.87658300
_cell_length_b   6.54384500
_cell_length_c   7.19372468
_cell_angle_alpha   66.48037924
_cell_angle_beta   90.00000000
_cell_angle_gamma   90.00000000
_symmetry_Int_Tables_number   1
_chemical_formula_structural   RbHoBeF6
_chemical_formula_sum   'Rb2 Ho2 Be2 F12'
_cell_volume   253.65579013
_cell_formula_units_Z   2
loop_
 _symmetry_equiv_pos_site_id
 _symmetry_equiv_pos_as_xyz
  1  'x, y, z'
loop_
 _atom_site_type_symbol
 _atom_site_label
 _atom_site_symmetry_multiplicity
 _atom_site_fract_x
 _atom_site_fract_y
 _atom_site_fract_z
 _atom_site_occupancy
  Rb  Rb0  1  0.25000000  0.07637900  0.79025100  1
  Rb  Rb1  1  0.75000000  0.92362100  0.20974900  1
  Ho  Ho2  1  0.25000000  0.39029000  0.18128300  1
  Ho  Ho3  1  0.75000000  0.60971000  0.81871700  1
  Be  Be4  1  0.25000000  0.76601400  0.46612100  1
  Be  Be5  1  0.75000000  0.23398600  0.53387900  1
  F  F6  1  0.46533500  0.76075400  0.59642400  1
  F  F7  1  0.53466500  0.23924600  0.40357600  1
  F  F8  1  0.96533500  0.23924600  0.40357600  1
  F  F9  1  0.03466500  0.76075400  0.59642400  1
  F  F10  1  0.25000000  0.56496900  0.40145600  1
  F  F11  1  0.75000000  0.43503100  0.59854400  1
  F  F12  1  0.49911000  0.67309800  0.03251700  1
  F  F13  1  0.50089000  0.32690200  0.96748300  1
  F  F14  1  0.99911000  0.32690200  0.96748300  1
  F  F15  1  0.00089000  0.67309800  0.03251700  1
  F  F16  1  0.25000000  0.99320500  0.26812700  1
  F  F17  1  0.75000000  0.00679500  0.73187300  1
