# generated using pymatgen
data_Ba6Na2Ta2Mn2O17
_symmetry_space_group_name_H-M   'P 1'
_cell_length_a   5.98100365
_cell_length_b   5.98100365
_cell_length_c   30.38119500
_cell_angle_alpha   90.00000000
_cell_angle_beta   90.00000000
_cell_angle_gamma   119.99999613
_symmetry_Int_Tables_number   1
_chemical_formula_structural   Ba6Na2Ta2Mn2O17
_chemical_formula_sum   'Ba12 Na4 Ta4 Mn4 O34'
_cell_volume   941.20372158
_cell_formula_units_Z   2
loop_
 _symmetry_equiv_pos_site_id
 _symmetry_equiv_pos_as_xyz
  1  'x, y, z'
loop_
 _atom_site_type_symbol
 _atom_site_label
 _atom_site_symmetry_multiplicity
 _atom_site_fract_x
 _atom_site_fract_y
 _atom_site_fract_z
 _atom_site_occupancy
  Ba  Ba0  1  0.33333300  0.66666700  0.18026100  1
  Ba  Ba1  1  0.66666700  0.33333300  0.81973900  1
  Ba  Ba2  1  0.66666700  0.33333300  0.68026100  1
  Ba  Ba3  1  0.33333300  0.66666700  0.31973900  1
  Ba  Ba4  1  0.00000000  0.00000000  0.00000000  1
  Ba  Ba5  1  0.00000000  0.00000000  0.50000000  1
  Ba  Ba6  1  0.33333300  0.66666700  0.59014900  1
  Ba  Ba7  1  0.66666700  0.33333300  0.40985100  1
  Ba  Ba8  1  0.66666700  0.33333300  0.09014900  1
  Ba  Ba9  1  0.33333300  0.66666700  0.90985100  1
  Ba  Ba10  1  0.00000000  0.00000000  0.25000000  1
  Ba  Ba11  1  0.00000000  0.00000000  0.75000000  1
  Na  Na12  1  0.00000000  0.00000000  0.12490700  1
  Na  Na13  1  0.00000000  0.00000000  0.87509300  1
  Na  Na14  1  0.00000000  0.00000000  0.62490700  1
  Na  Na15  1  0.00000000  0.00000000  0.37509300  1
  Ta  Ta16  1  0.33333300  0.66666700  0.70167700  1
  Ta  Ta17  1  0.66666700  0.33333300  0.29832300  1
  Ta  Ta18  1  0.66666700  0.33333300  0.20167700  1
  Ta  Ta19  1  0.33333300  0.66666700  0.79832300  1
  Mn  Mn20  1  0.33333300  0.66666700  0.05202900  1
  Mn  Mn21  1  0.66666700  0.33333300  0.94797100  1
  Mn  Mn22  1  0.66666700  0.33333300  0.55202900  1
  Mn  Mn23  1  0.33333300  0.66666700  0.44797100  1
  O  O24  1  0.33333300  0.66666700  0.50384300  1
  O  O25  1  0.66666700  0.33333300  0.49615700  1
  O  O26  1  0.66666700  0.33333300  0.00384300  1
  O  O27  1  0.33333300  0.66666700  0.99615700  1
  O  O28  1  0.17490700  0.34981400  0.66980000  1
  O  O29  1  0.82509300  0.65018600  0.33020000  1
  O  O30  1  0.65018600  0.82509300  0.66980000  1
  O  O31  1  0.82509300  0.65018600  0.16980000  1
  O  O32  1  0.34981400  0.17490700  0.33020000  1
  O  O33  1  0.17490700  0.34981400  0.83020000  1
  O  O34  1  0.17490700  0.82509300  0.66980000  1
  O  O35  1  0.34981400  0.17490700  0.16980000  1
  O  O36  1  0.82509300  0.17490700  0.33020000  1
  O  O37  1  0.65018600  0.82509300  0.83020000  1
  O  O38  1  0.82509300  0.17490700  0.16980000  1
  O  O39  1  0.17490700  0.82509300  0.83020000  1
  O  O40  1  0.51551000  0.03102000  0.25000000  1
  O  O41  1  0.48449000  0.96898000  0.75000000  1
  O  O42  1  0.96898000  0.48449000  0.25000000  1
  O  O43  1  0.03102000  0.51551000  0.75000000  1
  O  O44  1  0.51551000  0.48449000  0.25000000  1
  O  O45  1  0.48449000  0.51551000  0.75000000  1
  O  O46  1  0.17760500  0.35521000  0.07250600  1
  O  O47  1  0.82239500  0.64479000  0.92749400  1
  O  O48  1  0.64479000  0.82239500  0.07250600  1
  O  O49  1  0.82239500  0.64479000  0.57250600  1
  O  O50  1  0.35521000  0.17760500  0.92749400  1
  O  O51  1  0.17760500  0.35521000  0.42749400  1
  O  O52  1  0.17760500  0.82239500  0.07250600  1
  O  O53  1  0.35521000  0.17760500  0.57250600  1
  O  O54  1  0.82239500  0.17760500  0.92749400  1
  O  O55  1  0.64479000  0.82239500  0.42749400  1
  O  O56  1  0.82239500  0.17760500  0.57250600  1
  O  O57  1  0.17760500  0.82239500  0.42749400  1
