# generated using pymatgen
data_Ga5Pt
_symmetry_space_group_name_H-M   'P 1'
_cell_length_a   15.83681800
_cell_length_b   6.49088400
_cell_length_c   9.05196236
_cell_angle_alpha   69.95490670
_cell_angle_beta   90.00000000
_cell_angle_gamma   90.00000000
_symmetry_Int_Tables_number   1
_chemical_formula_structural   Ga5Pt
_chemical_formula_sum   'Ga40 Pt8'
_cell_volume   874.12948892
_cell_formula_units_Z   8
loop_
 _symmetry_equiv_pos_site_id
 _symmetry_equiv_pos_as_xyz
  1  'x, y, z'
loop_
 _atom_site_type_symbol
 _atom_site_label
 _atom_site_symmetry_multiplicity
 _atom_site_fract_x
 _atom_site_fract_y
 _atom_site_fract_z
 _atom_site_occupancy
  Ga  Ga0  1  0.33545300  0.31077000  0.92118100  1
  Ga  Ga1  1  0.83545300  0.68923000  0.07881900  1
  Ga  Ga2  1  0.66454700  0.68923000  0.07881900  1
  Ga  Ga3  1  0.16454700  0.31077000  0.92118100  1
  Ga  Ga4  1  0.33722500  0.29888700  0.42781100  1
  Ga  Ga5  1  0.83722500  0.70111300  0.57218900  1
  Ga  Ga6  1  0.66277500  0.70111300  0.57218900  1
  Ga  Ga7  1  0.16277500  0.29888700  0.42781100  1
  Ga  Ga8  1  0.33320900  0.07538700  0.22463800  1
  Ga  Ga9  1  0.83320900  0.92461300  0.77536200  1
  Ga  Ga10  1  0.66679100  0.92461300  0.77536200  1
  Ga  Ga11  1  0.16679100  0.07538700  0.22463800  1
  Ga  Ga12  1  0.33385100  0.07746200  0.73569300  1
  Ga  Ga13  1  0.83385100  0.92253800  0.26430700  1
  Ga  Ga14  1  0.66614900  0.92253800  0.26430700  1
  Ga  Ga15  1  0.16614900  0.07746200  0.73569300  1
  Ga  Ga16  1  0.55674400  0.55002300  0.36154500  1
  Ga  Ga17  1  0.05674400  0.44997700  0.63845500  1
  Ga  Ga18  1  0.44325600  0.44997700  0.63845500  1
  Ga  Ga19  1  0.94325600  0.55002300  0.36154500  1
  Ga  Ga20  1  0.43951300  0.44324400  0.13668100  1
  Ga  Ga21  1  0.93951300  0.55675600  0.86331900  1
  Ga  Ga22  1  0.56048700  0.55675600  0.86331900  1
  Ga  Ga23  1  0.06048700  0.44324400  0.13668100  1
  Ga  Ga24  1  0.33013400  0.78249600  0.55248200  1
  Ga  Ga25  1  0.83013400  0.21750400  0.44751800  1
  Ga  Ga26  1  0.66986600  0.21750400  0.44751800  1
  Ga  Ga27  1  0.16986600  0.78249600  0.55248200  1
  Ga  Ga28  1  0.49963500  0.99860200  0.35773000  1
  Ga  Ga29  1  0.99963500  0.00139800  0.64227000  1
  Ga  Ga30  1  0.50036500  0.00139800  0.64227000  1
  Ga  Ga31  1  0.00036500  0.99860200  0.35773000  1
  Ga  Ga32  1  0.43061900  0.89897400  0.02626000  1
  Ga  Ga33  1  0.93061900  0.10102600  0.97374000  1
  Ga  Ga34  1  0.56938100  0.10102600  0.97374000  1
  Ga  Ga35  1  0.06938100  0.89897400  0.02626000  1
  Ga  Ga36  1  0.25000000  0.67941000  0.93988800  1
  Ga  Ga37  1  0.75000000  0.32059000  0.06011200  1
  Ga  Ga38  1  0.25000000  0.67546100  0.22199700  1
  Ga  Ga39  1  0.75000000  0.32453900  0.77800300  1
  Pt  Pt40  1  0.40434600  0.68765700  0.32544400  1
  Pt  Pt41  1  0.90434600  0.31234300  0.67455600  1
  Pt  Pt42  1  0.59565400  0.31234300  0.67455600  1
  Pt  Pt43  1  0.09565400  0.68765700  0.32544400  1
  Pt  Pt44  1  0.40499000  0.69225600  0.82856800  1
  Pt  Pt45  1  0.90499000  0.30774400  0.17143200  1
  Pt  Pt46  1  0.59501000  0.30774400  0.17143200  1
  Pt  Pt47  1  0.09501000  0.69225600  0.82856800  1
