# generated using pymatgen
data_LaTi6(PO4)9
_symmetry_space_group_name_H-M   'P 1'
_cell_length_a   8.98191200
_cell_length_b   12.29922859
_cell_length_c   14.54391463
_cell_angle_alpha   113.23290611
_cell_angle_beta   105.61465188
_cell_angle_gamma   95.26963750
_symmetry_Int_Tables_number   1
_chemical_formula_structural   LaTi6(PO4)9
_chemical_formula_sum   'La2 Ti12 P18 O72'
_cell_volume   1385.84876464
_cell_formula_units_Z   2
loop_
 _symmetry_equiv_pos_site_id
 _symmetry_equiv_pos_as_xyz
  1  'x, y, z'
loop_
 _atom_site_type_symbol
 _atom_site_label
 _atom_site_symmetry_multiplicity
 _atom_site_fract_x
 _atom_site_fract_y
 _atom_site_fract_z
 _atom_site_occupancy
  La  La0  1  0.66709600  0.66641200  0.83116900  1
  La  La1  1  0.33290400  0.33358800  0.16883100  1
  Ti  Ti2  1  0.71089800  0.64652400  0.50044500  1
  Ti  Ti3  1  0.37673200  0.30792900  0.82955500  1
  Ti  Ti4  1  0.04628100  0.97861400  0.16995400  1
  Ti  Ti5  1  0.28910200  0.35347600  0.49955500  1
  Ti  Ti6  1  0.95371900  0.02138600  0.83004600  1
  Ti  Ti7  1  0.62326800  0.69207100  0.17044500  1
  Ti  Ti8  1  0.03338600  0.48598100  0.16778600  1
  Ti  Ti9  1  0.71337300  0.14109500  0.50052300  1
  Ti  Ti10  1  0.36345900  0.81726200  0.83155300  1
  Ti  Ti11  1  0.96661400  0.51401900  0.83221400  1
  Ti  Ti12  1  0.63654100  0.18273800  0.16844700  1
  Ti  Ti13  1  0.28662700  0.85890500  0.49947700  1
  P  P14  1  0.06795500  0.82612000  0.64217400  1
  P  P15  1  0.73392700  0.49203400  0.97705300  1
  P  P16  1  0.40569800  0.15877300  0.31200600  1
  P  P17  1  0.73233400  0.48981800  0.26047900  1
  P  P18  1  0.40135300  0.15433400  0.59106000  1
  P  P19  1  0.06555600  0.82334000  0.92773600  1
  P  P20  1  0.68569600  0.43958600  0.59492300  1
  P  P21  1  0.35147100  0.10923800  0.93008400  1
  P  P22  1  0.01814300  0.77638200  0.26409200  1
  P  P23  1  0.93204500  0.17388000  0.35782600  1
  P  P24  1  0.59430200  0.84122700  0.68799400  1
  P  P25  1  0.26607300  0.50796600  0.02294700  1
  P  P26  1  0.26766600  0.51018200  0.73952100  1
  P  P27  1  0.93444400  0.17666000  0.07226400  1
  P  P28  1  0.59864700  0.84566600  0.40894000  1
  P  P29  1  0.31430400  0.56041400  0.40507700  1
  P  P30  1  0.98185700  0.22361800  0.73590800  1
  P  P31  1  0.64852900  0.89076200  0.06991600  1
  O  O32  1  0.15404500  0.24783700  0.73893300  1
  O  O33  1  0.81811400  0.90796300  0.06609400  1
  O  O34  1  0.48433800  0.57272800  0.39947600  1
  O  O35  1  0.29638500  0.38542400  0.95576100  1
  O  O36  1  0.95949900  0.05360800  0.28354600  1
  O  O37  1  0.62921200  0.71850200  0.62311600  1
  O  O38  1  0.37410700  0.46408000  0.81199400  1
  O  O39  1  0.04052000  0.12991000  0.14403400  1
  O  O40  1  0.69838300  0.79184700  0.47715500  1
  O  O41  1  0.84595500  0.75216300  0.26106700  1
  O  O42  1  0.51566200  0.42727200  0.60052400  1
  O  O43  1  0.18188600  0.09203700  0.93390600  1
  O  O44  1  0.70361500  0.61457600  0.04423900  1
  O  O45  1  0.37078800  0.28149800  0.37688400  1
  O  O46  1  0.04050100  0.94639200  0.71645400  1
  O  O47  1  0.62589300  0.53592000  0.18800600  1
  O  O48  1  0.30161700  0.20815300  0.52284500  1
  O  O49  1  0.95948000  0.87009000  0.85596600  1
  O  O50  1  0.20917300  0.79252000  0.70908300  1
  O  O51  1  0.87644500  0.45847800  0.03966200  1
  O  O52  1  0.54543700  0.12574900  0.37314900  1
  O  O53  1  0.88641200  0.46831500  0.23438800  1
  O  O54  1  0.55713100  0.13795900  0.56807500  1
  O  O55  1  0.22043400  0.80252200  0.90233800  1
  O  O56  1  0.73956600  0.32041200  0.55860800  1
  O  O57  1  0.40562100  0.98763800  0.89224500  1
  O  O58  1  0.06901700  0.65213800  0.22226600  1
  O  O59  1  0.79082700  0.20748000  0.29091700  1
  O  O60  1  0.45456300  0.87425100  0.62685100  1
  O  O61  1  0.12355500  0.54152200  0.96033800  1
  O  O62  1  0.11358800  0.53168500  0.76561200  1
  O  O63  1  0.77956600  0.19747800  0.09766200  1
  O  O64  1  0.44286900  0.86204100  0.43192500  1
  O  O65  1  0.26043400  0.67958800  0.44139200  1
  O  O66  1  0.93098300  0.34786200  0.77773400  1
  O  O67  1  0.59437900  0.01236200  0.10775500  1
  O  O68  1  0.77968400  0.57466000  0.37869300  1
  O  O69  1  0.44337000  0.24120000  0.71105100  1
  O  O70  1  0.11222000  0.90854300  0.04623800  1
  O  O71  1  0.70557000  0.50313200  0.52497000  1
  O  O72  1  0.37226300  0.16744200  0.85702800  1
  O  O73  1  0.03710700  0.83432700  0.19010200  1
  O  O74  1  0.92354800  0.72068800  0.59795300  1
  O  O75  1  0.58977800  0.38602000  0.93019000  1
  O  O76  1  0.25740700  0.05398700  0.26359000  1
  O  O77  1  0.22031600  0.42534000  0.62130700  1
  O  O78  1  0.88778000  0.09145700  0.95376200  1
  O  O79  1  0.55663000  0.75880000  0.28894900  1
  O  O80  1  0.29443000  0.49686800  0.47503000  1
  O  O81  1  0.96289300  0.16567300  0.80989800  1
  O  O82  1  0.62773700  0.83255800  0.14297200  1
  O  O83  1  0.07645200  0.27931200  0.40204700  1
  O  O84  1  0.74259300  0.94601300  0.73641000  1
  O  O85  1  0.41022200  0.61398000  0.06981000  1
  O  O86  1  0.88463500  0.16102300  0.44641300  1
  O  O87  1  0.55853400  0.82361400  0.78223400  1
  O  O88  1  0.22528400  0.49063200  0.11523300  1
  O  O89  1  0.36980500  0.63497400  0.76478800  1
  O  O90  1  0.03641200  0.30143800  0.09751900  1
  O  O91  1  0.69330000  0.96880700  0.43104100  1
  O  O92  1  0.20781100  0.47303900  0.28635700  1
  O  O93  1  0.87054800  0.14521100  0.62311700  1
  O  O94  1  0.54115600  0.80601100  0.95330400  1
  O  O95  1  0.11536500  0.83897700  0.55358700  1
  O  O96  1  0.77471600  0.50936800  0.88476700  1
  O  O97  1  0.44146600  0.17638600  0.21776600  1
  O  O98  1  0.63019500  0.36502600  0.23521200  1
  O  O99  1  0.30670000  0.03119300  0.56895900  1
  O  O100  1  0.96358800  0.69856200  0.90248100  1
  O  O101  1  0.79218900  0.52696100  0.71364300  1
  O  O102  1  0.45884400  0.19398900  0.04669600  1
  O  O103  1  0.12945200  0.85478900  0.37688300  1
