# generated using pymatgen
data_KY2Cl7
_symmetry_space_group_name_H-M   'P 1'
_cell_length_a   12.66592500
_cell_length_b   6.97549600
_cell_length_c   13.54983618
_cell_angle_alpha   89.14739703
_cell_angle_beta   90.00000000
_cell_angle_gamma   90.00000000
_symmetry_Int_Tables_number   1
_chemical_formula_structural   KY2Cl7
_chemical_formula_sum   'K4 Y8 Cl28'
_cell_volume   1197.01051306
_cell_formula_units_Z   4
loop_
 _symmetry_equiv_pos_site_id
 _symmetry_equiv_pos_as_xyz
  1  'x, y, z'
loop_
 _atom_site_type_symbol
 _atom_site_label
 _atom_site_symmetry_multiplicity
 _atom_site_fract_x
 _atom_site_fract_y
 _atom_site_fract_z
 _atom_site_occupancy
  K  K0  1  0.20043900  0.75140800  0.03746400  1
  K  K1  1  0.79956100  0.24859200  0.96253600  1
  K  K2  1  0.70043900  0.24859200  0.46253600  1
  K  K3  1  0.29956100  0.75140800  0.53746400  1
  Y  Y4  1  0.53831500  0.77609400  0.23772400  1
  Y  Y5  1  0.46168500  0.22390600  0.76227600  1
  Y  Y6  1  0.03831500  0.22390600  0.26227600  1
  Y  Y7  1  0.96168500  0.77609400  0.73772400  1
  Y  Y8  1  0.84058300  0.72759100  0.24820500  1
  Y  Y9  1  0.15941700  0.27240900  0.75179500  1
  Y  Y10  1  0.34058300  0.27240900  0.25179500  1
  Y  Y11  1  0.65941700  0.72759100  0.74820500  1
  Cl  Cl12  1  0.97450300  0.94572700  0.13601000  1
  Cl  Cl13  1  0.02549700  0.05427300  0.86399000  1
  Cl  Cl14  1  0.47450300  0.05427300  0.36399000  1
  Cl  Cl15  1  0.52549700  0.94572700  0.63601000  1
  Cl  Cl16  1  0.68596500  0.74713500  0.38862100  1
  Cl  Cl17  1  0.31403500  0.25286500  0.61137900  1
  Cl  Cl18  1  0.18596500  0.25286500  0.11137900  1
  Cl  Cl19  1  0.81403500  0.74713500  0.88862100  1
  Cl  Cl20  1  0.67947600  0.51674500  0.17483300  1
  Cl  Cl21  1  0.32052400  0.48325500  0.82516700  1
  Cl  Cl22  1  0.17947600  0.48325500  0.32516700  1
  Cl  Cl23  1  0.82052400  0.51674500  0.67483300  1
  Cl  Cl24  1  0.92553300  0.97829900  0.37621000  1
  Cl  Cl25  1  0.07446700  0.02170100  0.62379000  1
  Cl  Cl26  1  0.42553300  0.02170100  0.12379000  1
  Cl  Cl27  1  0.57446700  0.97829900  0.87621000  1
  Cl  Cl28  1  0.94289900  0.46532000  0.13185900  1
  Cl  Cl29  1  0.05710100  0.53468000  0.86814100  1
  Cl  Cl30  1  0.44289900  0.53468000  0.36814100  1
  Cl  Cl31  1  0.55710100  0.46532000  0.63185900  1
  Cl  Cl32  1  0.70362100  0.99754400  0.17552800  1
  Cl  Cl33  1  0.29637900  0.00245600  0.82447200  1
  Cl  Cl34  1  0.20362100  0.00245600  0.32447200  1
  Cl  Cl35  1  0.79637900  0.99754400  0.67552800  1
  Cl  Cl36  1  0.91232500  0.45702500  0.37526200  1
  Cl  Cl37  1  0.08767500  0.54297500  0.62473800  1
  Cl  Cl38  1  0.41232500  0.54297500  0.12473800  1
  Cl  Cl39  1  0.58767500  0.45702500  0.87526200  1
