# generated using pymatgen
data_Pr2Re3Si5
_symmetry_space_group_name_H-M   'P 1'
_cell_length_a   11.06116700
_cell_length_b   11.06116700
_cell_length_c   5.80299000
_cell_angle_alpha   90.00000000
_cell_angle_beta   90.00000000
_cell_angle_gamma   90.00000000
_symmetry_Int_Tables_number   1
_chemical_formula_structural   Pr2Re3Si5
_chemical_formula_sum   'Pr8 Re12 Si20'
_cell_volume   709.99243408
_cell_formula_units_Z   4
loop_
 _symmetry_equiv_pos_site_id
 _symmetry_equiv_pos_as_xyz
  1  'x, y, z'
loop_
 _atom_site_type_symbol
 _atom_site_label
 _atom_site_symmetry_multiplicity
 _atom_site_fract_x
 _atom_site_fract_y
 _atom_site_fract_z
 _atom_site_occupancy
  Pr  Pr0  1  0.57554400  0.73752900  0.50000000  1
  Pr  Pr1  1  0.42445600  0.26247100  0.50000000  1
  Pr  Pr2  1  0.07554400  0.76247100  0.00000000  1
  Pr  Pr3  1  0.92445600  0.23752900  0.00000000  1
  Pr  Pr4  1  0.26247100  0.57554400  0.50000000  1
  Pr  Pr5  1  0.73752900  0.42445600  0.50000000  1
  Pr  Pr6  1  0.23752900  0.07554400  0.00000000  1
  Pr  Pr7  1  0.76247100  0.92445600  0.00000000  1
  Re  Re8  1  0.87385800  0.85243000  0.50000000  1
  Re  Re9  1  0.12614200  0.14757000  0.50000000  1
  Re  Re10  1  0.37385800  0.64757000  0.00000000  1
  Re  Re11  1  0.62614200  0.35243000  0.00000000  1
  Re  Re12  1  0.14757000  0.87385800  0.50000000  1
  Re  Re13  1  0.85243000  0.12614200  0.50000000  1
  Re  Re14  1  0.35243000  0.37385800  0.00000000  1
  Re  Re15  1  0.64757000  0.62614200  0.00000000  1
  Re  Re16  1  0.50000000  0.00000000  0.25000000  1
  Re  Re17  1  0.00000000  0.50000000  0.75000000  1
  Re  Re18  1  0.00000000  0.50000000  0.25000000  1
  Re  Re19  1  0.50000000  0.00000000  0.75000000  1
  Si  Si20  1  0.67299400  0.17299400  0.25000000  1
  Si  Si21  1  0.32700600  0.82700600  0.25000000  1
  Si  Si22  1  0.17299400  0.32700600  0.75000000  1
  Si  Si23  1  0.82700600  0.67299400  0.75000000  1
  Si  Si24  1  0.82700600  0.67299400  0.25000000  1
  Si  Si25  1  0.17299400  0.32700600  0.25000000  1
  Si  Si26  1  0.67299400  0.17299400  0.75000000  1
  Si  Si27  1  0.32700600  0.82700600  0.75000000  1
  Si  Si28  1  0.50000000  0.50000000  0.23316000  1
  Si  Si29  1  0.00000000  0.00000000  0.73316000  1
  Si  Si30  1  0.50000000  0.50000000  0.76684000  1
  Si  Si31  1  0.00000000  0.00000000  0.26684000  1
  Si  Si32  1  0.68241100  0.97868400  0.50000000  1
  Si  Si33  1  0.31758900  0.02131600  0.50000000  1
  Si  Si34  1  0.18241100  0.52131600  0.00000000  1
  Si  Si35  1  0.81758900  0.47868400  0.00000000  1
  Si  Si36  1  0.02131600  0.68241100  0.50000000  1
  Si  Si37  1  0.97868400  0.31758900  0.50000000  1
  Si  Si38  1  0.47868400  0.18241100  0.00000000  1
  Si  Si39  1  0.52131600  0.81758900  0.00000000  1
