# generated using pymatgen
data_CsNd2Ag3Te5
_symmetry_space_group_name_H-M   'P 1'
_cell_length_a   8.57799514
_cell_length_b   8.57799514
_cell_length_c   18.99896100
_cell_angle_alpha   90.00000000
_cell_angle_beta   90.00000000
_cell_angle_gamma   148.43164766
_symmetry_Int_Tables_number   1
_chemical_formula_structural   CsNd2Ag3Te5
_chemical_formula_sum   'Cs2 Nd4 Ag6 Te10'
_cell_volume   731.86483251
_cell_formula_units_Z   2
loop_
 _symmetry_equiv_pos_site_id
 _symmetry_equiv_pos_as_xyz
  1  'x, y, z'
loop_
 _atom_site_type_symbol
 _atom_site_label
 _atom_site_symmetry_multiplicity
 _atom_site_fract_x
 _atom_site_fract_y
 _atom_site_fract_z
 _atom_site_occupancy
  Cs  Cs0  1  0.55921000  0.44079000  0.25000000  1
  Cs  Cs1  1  0.44079000  0.55921000  0.75000000  1
  Nd  Nd2  1  0.69056400  0.30943600  0.90693100  1
  Nd  Nd3  1  0.30943600  0.69056400  0.09306900  1
  Nd  Nd4  1  0.69056400  0.30943600  0.59306900  1
  Nd  Nd5  1  0.30943600  0.69056400  0.40693100  1
  Ag  Ag6  1  0.84046300  0.15953700  0.25000000  1
  Ag  Ag7  1  0.15953700  0.84046300  0.75000000  1
  Ag  Ag8  1  0.08607400  0.91392600  0.46966500  1
  Ag  Ag9  1  0.91392600  0.08607400  0.53033500  1
  Ag  Ag10  1  0.08607400  0.91392600  0.03033500  1
  Ag  Ag11  1  0.91392600  0.08607400  0.96966500  1
  Te  Te12  1  0.06076700  0.93923300  0.88084300  1
  Te  Te13  1  0.93923300  0.06076700  0.11915700  1
  Te  Te14  1  0.06076700  0.93923300  0.61915700  1
  Te  Te15  1  0.93923300  0.06076700  0.38084300  1
  Te  Te16  1  0.67359900  0.32640100  0.42718400  1
  Te  Te17  1  0.32640100  0.67359900  0.57281600  1
  Te  Te18  1  0.67359900  0.32640100  0.07281600  1
  Te  Te19  1  0.32640100  0.67359900  0.92718400  1
  Te  Te20  1  0.24654600  0.75345400  0.25000000  1
  Te  Te21  1  0.75345400  0.24654600  0.75000000  1
