# generated using pymatgen
data_Ba3Te2O9
_symmetry_space_group_name_H-M   'P 1'
_cell_length_a   5.95466374
_cell_length_b   5.95466374
_cell_length_c   14.62747200
_cell_angle_alpha   90.00000000
_cell_angle_beta   90.00000000
_cell_angle_gamma   119.99999716
_symmetry_Int_Tables_number   1
_chemical_formula_structural   Ba3Te2O9
_chemical_formula_sum   'Ba6 Te4 O18'
_cell_volume   449.17378737
_cell_formula_units_Z   2
loop_
 _symmetry_equiv_pos_site_id
 _symmetry_equiv_pos_as_xyz
  1  'x, y, z'
loop_
 _atom_site_type_symbol
 _atom_site_label
 _atom_site_symmetry_multiplicity
 _atom_site_fract_x
 _atom_site_fract_y
 _atom_site_fract_z
 _atom_site_occupancy
  Ba  Ba0  1  0.33333300  0.66666700  0.44024400  1
  Ba  Ba1  1  0.66666700  0.33333300  0.94024400  1
  Ba  Ba2  1  0.66666700  0.33333300  0.55975600  1
  Ba  Ba3  1  0.33333300  0.66666700  0.05975600  1
  Ba  Ba4  1  0.66666700  0.33333300  0.25000000  1
  Ba  Ba5  1  0.33333300  0.66666700  0.75000000  1
  Te  Te6  1  0.00000000  0.00000000  0.34984800  1
  Te  Te7  1  0.00000000  0.00000000  0.84984800  1
  Te  Te8  1  0.00000000  0.00000000  0.65015200  1
  Te  Te9  1  0.00000000  0.00000000  0.15015200  1
  O  O10  1  0.83629200  0.16370800  0.40811700  1
  O  O11  1  0.83629200  0.67258400  0.40811700  1
  O  O12  1  0.32741600  0.16370800  0.40811700  1
  O  O13  1  0.67258400  0.83629200  0.90811700  1
  O  O14  1  0.16370800  0.32741600  0.59188300  1
  O  O15  1  0.16370800  0.83629200  0.90811700  1
  O  O16  1  0.16370800  0.32741600  0.90811700  1
  O  O17  1  0.83629200  0.16370800  0.09188300  1
  O  O18  1  0.32741600  0.16370800  0.09188300  1
  O  O19  1  0.67258400  0.83629200  0.59188300  1
  O  O20  1  0.14303100  0.28606200  0.25000000  1
  O  O21  1  0.85696900  0.14303100  0.75000000  1
  O  O22  1  0.28606200  0.14303100  0.75000000  1
  O  O23  1  0.71393800  0.85696900  0.25000000  1
  O  O24  1  0.14303100  0.85696900  0.25000000  1
  O  O25  1  0.85696900  0.71393800  0.75000000  1
  O  O26  1  0.83629200  0.67258400  0.09188300  1
  O  O27  1  0.16370800  0.83629200  0.59188300  1
