# generated using pymatgen
data_Dy(Ni2B)6
_symmetry_space_group_name_H-M   'P 1'
_cell_length_a   6.03844104
_cell_length_b   6.03844104
_cell_length_c   10.94634800
_cell_angle_alpha   90.00000000
_cell_angle_beta   90.00000000
_cell_angle_gamma   104.87740748
_symmetry_Int_Tables_number   1
_chemical_formula_structural   Dy(Ni2B)6
_chemical_formula_sum   'Dy2 Ni24 B12'
_cell_volume   385.75415502
_cell_formula_units_Z   2
loop_
 _symmetry_equiv_pos_site_id
 _symmetry_equiv_pos_as_xyz
  1  'x, y, z'
loop_
 _atom_site_type_symbol
 _atom_site_label
 _atom_site_symmetry_multiplicity
 _atom_site_fract_x
 _atom_site_fract_y
 _atom_site_fract_z
 _atom_site_occupancy
  Dy  Dy0  1  0.83674000  0.83674000  0.49713700  1
  Dy  Dy1  1  0.16326000  0.16326000  0.99713700  1
  Ni  Ni2  1  0.56280600  0.56280600  0.92063300  1
  Ni  Ni3  1  0.43719400  0.43719400  0.42063300  1
  Ni  Ni4  1  0.78014900  0.78014900  0.09983500  1
  Ni  Ni5  1  0.21985100  0.21985100  0.59983500  1
  Ni  Ni6  1  0.54352900  0.80401100  0.73372900  1
  Ni  Ni7  1  0.80401100  0.54352900  0.73372900  1
  Ni  Ni8  1  0.45647100  0.19598900  0.23372900  1
  Ni  Ni9  1  0.19598900  0.45647100  0.23372900  1
  Ni  Ni10  1  0.14653200  0.88197700  0.75602800  1
  Ni  Ni11  1  0.88197700  0.14653200  0.75602800  1
  Ni  Ni12  1  0.85346800  0.11802300  0.25602800  1
  Ni  Ni13  1  0.11802300  0.85346800  0.25602800  1
  Ni  Ni14  1  0.66089600  0.27034600  0.56813100  1
  Ni  Ni15  1  0.27034600  0.66089600  0.56813100  1
  Ni  Ni16  1  0.33910400  0.72965400  0.06813100  1
  Ni  Ni17  1  0.72965400  0.33910400  0.06813100  1
  Ni  Ni18  1  0.62931200  0.99329700  0.93727700  1
  Ni  Ni19  1  0.99329700  0.62931200  0.93727700  1
  Ni  Ni20  1  0.37068800  0.00670300  0.43727700  1
  Ni  Ni21  1  0.00670300  0.37068800  0.43727700  1
  Ni  Ni22  1  0.47340700  0.21344400  0.77622800  1
  Ni  Ni23  1  0.21344400  0.47340700  0.77622800  1
  Ni  Ni24  1  0.52659300  0.78655600  0.27622800  1
  Ni  Ni25  1  0.78655600  0.52659300  0.27622800  1
  B  B26  1  0.83610100  0.83610100  0.83745900  1
  B  B27  1  0.16389900  0.16389900  0.33745900  1
  B  B28  1  0.49268700  0.49268700  0.64838000  1
  B  B29  1  0.50731300  0.50731300  0.14838000  1
  B  B30  1  0.32502200  0.75443200  0.88470900  1
  B  B31  1  0.75443200  0.32502200  0.88470900  1
  B  B32  1  0.67497800  0.24556800  0.38470900  1
  B  B33  1  0.24556800  0.67497800  0.38470900  1
  B  B34  1  0.40128400  0.99050800  0.62367500  1
  B  B35  1  0.99050800  0.40128400  0.62367500  1
  B  B36  1  0.59871600  0.00949200  0.12367500  1
  B  B37  1  0.00949200  0.59871600  0.12367500  1
