# generated using pymatgen
data_Sm(BRu)4
_symmetry_space_group_name_H-M   'P 1'
_cell_length_a   9.23877457
_cell_length_b   9.23877457
_cell_length_c   9.23877457
_cell_angle_alpha   131.86953350
_cell_angle_beta   131.86953350
_cell_angle_gamma   70.43516275
_symmetry_Int_Tables_number   1
_chemical_formula_structural   Sm(BRu)4
_chemical_formula_sum   'Sm4 B16 Ru16'
_cell_volume   428.50164042
_cell_formula_units_Z   4
loop_
 _symmetry_equiv_pos_site_id
 _symmetry_equiv_pos_as_xyz
  1  'x, y, z'
loop_
 _atom_site_type_symbol
 _atom_site_label
 _atom_site_symmetry_multiplicity
 _atom_site_fract_x
 _atom_site_fract_y
 _atom_site_fract_z
 _atom_site_occupancy
  Sm  Sm0  1  0.25000000  0.25000000  0.00000000  1
  Sm  Sm1  1  0.75000000  0.75000000  0.00000000  1
  Sm  Sm2  1  0.50000000  0.00000000  0.50000000  1
  Sm  Sm3  1  0.00000000  0.50000000  0.50000000  1
  B  B4  1  0.22276700  0.91414200  0.97322000  1
  B  B5  1  0.72276700  0.74954700  0.30862500  1
  B  B6  1  0.16414200  0.97276700  0.47322000  1
  B  B7  1  0.66414200  0.19092200  0.19137500  1
  B  B8  1  0.52723300  0.33585800  0.52678000  1
  B  B9  1  0.02723300  0.50045300  0.19137500  1
  B  B10  1  0.58585800  0.27723300  0.02678000  1
  B  B11  1  0.08585800  0.05907800  0.30862500  1
  B  B12  1  0.44092200  0.41414200  0.69137500  1
  B  B13  1  0.94092200  0.24954700  0.02678000  1
  B  B14  1  0.99954700  0.47276700  0.80862500  1
  B  B15  1  0.49954700  0.69092200  0.52678000  1
  B  B16  1  0.30907800  0.83585800  0.80862500  1
  B  B17  1  0.80907800  0.00045300  0.47322000  1
  B  B18  1  0.75045300  0.77723300  0.69137500  1
  B  B19  1  0.25045300  0.55907800  0.97322000  1
  Ru  Ru20  1  0.54162300  0.07277700  0.23793500  1
  Ru  Ru21  1  0.04162300  0.80368800  0.46884600  1
  Ru  Ru22  1  0.32277700  0.29162300  0.73793500  1
  Ru  Ru23  1  0.82277700  0.08484200  0.03115400  1
  Ru  Ru24  1  0.20837700  0.17722300  0.26206500  1
  Ru  Ru25  1  0.70837700  0.44631200  0.03115400  1
  Ru  Ru26  1  0.42722300  0.95837700  0.76206500  1
  Ru  Ru27  1  0.92722300  0.16515800  0.46884600  1
  Ru  Ru28  1  0.33484200  0.57277700  0.53115400  1
  Ru  Ru29  1  0.83484200  0.30368800  0.76206500  1
  Ru  Ru30  1  0.05368800  0.79162300  0.96884600  1
  Ru  Ru31  1  0.55368800  0.58484200  0.26206500  1
  Ru  Ru32  1  0.41515800  0.67722300  0.96884600  1
  Ru  Ru33  1  0.91515800  0.94631200  0.73793500  1
  Ru  Ru34  1  0.69631200  0.45837700  0.53115400  1
  Ru  Ru35  1  0.19631200  0.66515800  0.23793500  1
