# generated using pymatgen
data_Dy(CuS)3
_symmetry_space_group_name_H-M   'P 1'
_cell_length_a   7.42979941
_cell_length_b   7.42979941
_cell_length_c   7.42979949
_cell_angle_alpha   53.40710426
_cell_angle_beta   53.40710426
_cell_angle_gamma   53.40711237
_symmetry_Int_Tables_number   1
_chemical_formula_structural   Dy(CuS)3
_chemical_formula_sum   'Dy2 Cu6 S6'
_cell_volume   245.25791302
_cell_formula_units_Z   2
loop_
 _symmetry_equiv_pos_site_id
 _symmetry_equiv_pos_as_xyz
  1  'x, y, z'
loop_
 _atom_site_type_symbol
 _atom_site_label
 _atom_site_symmetry_multiplicity
 _atom_site_fract_x
 _atom_site_fract_y
 _atom_site_fract_z
 _atom_site_occupancy
  Dy  Dy0  1  0.83350100  0.83350100  0.83350100  1
  Dy  Dy1  1  0.16649900  0.16649900  0.16649900  1
  Cu  Cu2  1  0.96080300  0.62304600  0.28450500  1
  Cu  Cu3  1  0.28450500  0.96080300  0.62304600  1
  Cu  Cu4  1  0.62304600  0.28450500  0.96080300  1
  Cu  Cu5  1  0.37695400  0.71549500  0.03919700  1
  Cu  Cu6  1  0.71549500  0.03919700  0.37695400  1
  Cu  Cu7  1  0.03919700  0.37695400  0.71549500  1
  S  S8  1  0.74879300  0.41708500  0.08294200  1
  S  S9  1  0.41708500  0.08294200  0.74879300  1
  S  S10  1  0.08294200  0.74879300  0.41708500  1
  S  S11  1  0.91705800  0.25120700  0.58291500  1
  S  S12  1  0.58291500  0.91705800  0.25120700  1
  S  S13  1  0.25120700  0.58291500  0.91705800  1
