# generated using pymatgen
data_Mg149In
_symmetry_space_group_name_H-M   'P 1'
_cell_length_a   15.96523203
_cell_length_b   15.96531428
_cell_length_c   15.60860216
_cell_angle_alpha   90.00000367
_cell_angle_beta   89.99999309
_cell_angle_gamma   120.00035064
_symmetry_Int_Tables_number   1
_chemical_formula_structural   Mg149In
_chemical_formula_sum   'Mg149 In1'
_cell_volume   3445.44891574
_cell_formula_units_Z   1
loop_
 _symmetry_equiv_pos_site_id
 _symmetry_equiv_pos_as_xyz
  1  'x, y, z'
loop_
 _atom_site_type_symbol
 _atom_site_label
 _atom_site_symmetry_multiplicity
 _atom_site_fract_x
 _atom_site_fract_y
 _atom_site_fract_z
 _atom_site_occupancy
  Mg  Mg0  1  0.79981957  0.00065325  0.00000009  1
  Mg  Mg1  1  0.20083287  0.00065273  -0.00000007  1
  Mg  Mg2  1  0.20083306  0.20018001  -0.00000000  1
  Mg  Mg3  1  0.99934693  0.20018097  0.00000007  1
  Mg  Mg4  1  0.80003925  0.19996010  0.00000021  1
  Mg  Mg5  1  0.39991976  0.19996032  0.00000003  1
  Mg  Mg6  1  0.59998182  0.19996423  0.00000015  1
  Mg  Mg7  1  0.19970471  0.39941002  0.00000002  1
  Mg  Mg8  1  0.80003583  0.40001846  0.00000004  1
  Mg  Mg9  1  0.59998184  0.40001845  0.00000001  1
  Mg  Mg10  1  0.00006408  0.40022956  -0.00000022  1
  Mg  Mg11  1  0.40016435  0.40022897  -0.00000012  1
  Mg  Mg12  1  0.00006415  0.59983547  0.00000001  1
  Mg  Mg13  1  0.59977117  0.59983575  0.00000008  1
  Mg  Mg14  1  0.40003680  0.59996314  -0.00000000  1
  Mg  Mg15  1  0.19992647  0.59996375  0.00000004  1
  Mg  Mg16  1  0.80003927  0.60008016  -0.00000003  1
  Mg  Mg17  1  0.99934717  0.79916534  0.00000006  1
  Mg  Mg18  1  0.79981982  0.79916641  0.00000001  1
  Mg  Mg19  1  0.40003678  0.80007395  -0.00000001  1
  Mg  Mg20  1  0.19970463  0.80029486  0.00000007  1
  Mg  Mg21  1  0.60058972  0.80029475  -0.00000009  1
  Mg  Mg22  1  0.40016444  0.99993625  0.00000010  1
  Mg  Mg23  1  0.59977126  0.99993546  -0.00000004  1
  Mg  Mg24  1  0.06643363  0.33303682  0.16645245  1
  Mg  Mg25  1  0.26660395  0.33303760  0.16645252  1
  Mg  Mg26  1  0.06643353  0.73339592  0.16645261  1
  Mg  Mg27  1  0.66696259  0.73339606  0.16645241  1
  Mg  Mg28  1  0.26660383  0.93356743  0.16645258  1
  Mg  Mg29  1  0.66696252  0.93356644  0.16645253  1
  Mg  Mg30  1  0.66653066  0.13332044  0.16655040  1
  Mg  Mg31  1  0.46678977  0.13331987  0.16655043  1
  Mg  Mg32  1  0.46678947  0.33346871  0.16655052  1
  Mg  Mg33  1  0.86667993  0.33346951  0.16655042  1
  Mg  Mg34  1  0.86667975  0.53321029  0.16655069  1
  Mg  Mg35  1  0.66653076  0.53321130  0.16655058  1
  Mg  Mg36  1  0.66666536  0.33333269  0.16669068  1
  Mg  Mg37  1  0.46663215  0.53336899  0.16659884  1
  Mg  Mg38  1  0.06673719  0.53336906  0.16659899  1
  Mg  Mg39  1  0.46663218  0.93326424  0.16659844  1
  Mg  Mg40  1  0.26661325  0.53322591  0.16667846  1
  Mg  Mg41  1  0.26661316  0.73338737  0.16667863  1
  Mg  Mg42  1  0.46677368  0.73338716  0.16667803  1
  Mg  Mg43  1  0.06675458  0.13350899  0.16730729  1
  Mg  Mg44  1  0.86649113  0.93324555  0.16730705  1
  Mg  Mg45  1  0.06675459  0.93324643  0.16730715  1
  Mg  Mg46  1  0.26726041  0.13362948  0.16715761  1
  Mg  Mg47  1  0.86637023  0.13363045  0.16715727  1
  Mg  Mg48  1  0.86637011  0.73273973  0.16715718  1
  Mg  Mg49  1  0.19992306  0.39984701  0.33315821  1
  Mg  Mg50  1  0.60015321  0.80007698  0.33315819  1
  Mg  Mg51  1  0.19992318  0.80007689  0.33315824  1
  Mg  Mg52  1  0.60003591  0.20007204  0.33319534  1
  Mg  Mg53  1  0.60003593  0.39996405  0.33319538  1
  Mg  Mg54  1  0.79992745  0.39996387  0.33319583  1
  Mg  Mg55  1  0.60014078  0.00003827  0.33323846  1
  Mg  Mg56  1  0.39989745  0.00003845  0.33323847  1
  Mg  Mg57  1  0.99996113  0.39985841  0.33323809  1
  Mg  Mg58  1  0.39989747  0.39985968  0.33323854  1
  Mg  Mg59  1  0.60014072  0.60010214  0.33323862  1
  Mg  Mg60  1  0.99996094  0.60010229  0.33323828  1
  Mg  Mg61  1  0.99999996  0.00000010  0.33340120  1
  Mg  Mg62  1  0.79996330  0.20003676  0.33331457  1
  Mg  Mg63  1  0.40007425  0.20003657  0.33331501  1
  Mg  Mg64  1  0.79996335  0.59992552  0.33331437  1
  Mg  Mg65  1  0.39998830  0.60001187  0.33330120  1
  Mg  Mg66  1  0.20002335  0.60001151  0.33330097  1
  Mg  Mg67  1  0.39998833  0.79997658  0.33330110  1
  Mg  Mg68  1  0.80013900  0.00003510  0.33362581  1
  Mg  Mg69  1  0.19989698  0.00003627  0.33362551  1
  Mg  Mg70  1  0.99996423  0.19986021  0.33362531  1
  Mg  Mg71  1  0.19989685  0.19986080  0.33362542  1
  Mg  Mg72  1  0.99996425  0.80010345  0.33362550  1
  Mg  Mg73  1  0.80013878  0.80010404  0.33362580  1
  Mg  Mg74  1  0.06660512  0.13320922  0.50000009  1
  Mg  Mg75  1  0.86670014  0.13329918  0.49999962  1
  Mg  Mg76  1  0.26660028  0.13330015  0.49999999  1
  Mg  Mg77  1  0.46669007  0.13324125  0.50000004  1
  Mg  Mg78  1  0.66655090  0.13324113  0.50000005  1
  Mg  Mg79  1  0.06655866  0.33328320  0.50000008  1
  Mg  Mg80  1  0.26672432  0.33328312  0.50000017  1
  Mg  Mg81  1  0.66666620  0.33333311  0.49999991  1
  Mg  Mg82  1  0.46669009  0.33344992  0.49999985  1
  Mg  Mg83  1  0.86675903  0.33344964  0.49999993  1
  Mg  Mg84  1  0.66655047  0.53331046  0.49999989  1
  Mg  Mg85  1  0.86675912  0.53331047  0.49999985  1
  Mg  Mg86  1  0.46672083  0.53327854  0.50000015  1
  Mg  Mg87  1  0.06655739  0.53327892  0.50000002  1
  Mg  Mg88  1  0.26658612  0.53317217  0.49999987  1
  Mg  Mg89  1  0.66671695  0.73327565  0.49999996  1
  Mg  Mg90  1  0.06655867  0.73327564  0.50000005  1
  Mg  Mg91  1  0.86670031  0.73340015  0.50000003  1
  Mg  Mg92  1  0.26658613  0.73341420  0.49999990  1
  Mg  Mg93  1  0.46682814  0.73341411  0.50000016  1
  Mg  Mg94  1  0.06660527  0.93339599  0.50000005  1
  Mg  Mg95  1  0.86679062  0.93339573  0.50000016  1
  Mg  Mg96  1  0.66671692  0.93344117  0.50000015  1
  Mg  Mg97  1  0.26672439  0.93344123  0.50000010  1
  Mg  Mg98  1  0.46672100  0.93344224  0.49999997  1
  Mg  Mg99  1  0.80013894  0.00003495  0.66637444  1
  Mg  Mg100  1  0.19989688  0.00003619  0.66637451  1
  Mg  Mg101  1  0.99996438  0.19986016  0.66637464  1
  Mg  Mg102  1  0.19989699  0.19986072  0.66637444  1
  Mg  Mg103  1  0.99996409  0.80010305  0.66637476  1
  Mg  Mg104  1  0.80013885  0.80010380  0.66637433  1
  Mg  Mg105  1  0.39998856  0.60001187  0.66669786  1
  Mg  Mg106  1  0.20002351  0.60001162  0.66669794  1
  Mg  Mg107  1  0.39998847  0.79997670  0.66669780  1
  Mg  Mg108  1  0.79996323  0.20003686  0.66668558  1
  Mg  Mg109  1  0.40007412  0.20003652  0.66668507  1
  Mg  Mg110  1  0.79996320  0.59992550  0.66668548  1
  Mg  Mg111  1  0.99999987  0.99999994  0.66659895  1
  Mg  Mg112  1  0.60014061  0.00003843  0.66676158  1
  Mg  Mg113  1  0.39989766  0.00003872  0.66676174  1
  Mg  Mg114  1  0.99996094  0.39985849  0.66676173  1
  Mg  Mg115  1  0.39989767  0.39985996  0.66676162  1
  Mg  Mg116  1  0.60014077  0.60010236  0.66676165  1
  Mg  Mg117  1  0.99996118  0.60010287  0.66676173  1
  Mg  Mg118  1  0.60003593  0.20007198  0.66680455  1
  Mg  Mg119  1  0.60003592  0.39996374  0.66680447  1
  Mg  Mg120  1  0.79992743  0.39996376  0.66680420  1
  Mg  Mg121  1  0.19992337  0.39984728  0.66684201  1
  Mg  Mg122  1  0.60015319  0.80007707  0.66684164  1
  Mg  Mg123  1  0.19992317  0.80007702  0.66684172  1
  Mg  Mg124  1  0.26726038  0.13362960  0.83284238  1
  Mg  Mg125  1  0.86637020  0.13363045  0.83284268  1
  Mg  Mg126  1  0.86637016  0.73273969  0.83284261  1
  Mg  Mg127  1  0.06675462  0.13350912  0.83269271  1
  Mg  Mg128  1  0.86649115  0.93324555  0.83269279  1
  Mg  Mg129  1  0.06675472  0.93324661  0.83269267  1
  Mg  Mg130  1  0.26661343  0.53322612  0.83332146  1
  Mg  Mg131  1  0.26661307  0.73338737  0.83332151  1
  Mg  Mg132  1  0.46677345  0.73338722  0.83332182  1
  Mg  Mg133  1  0.46663219  0.53336904  0.83340128  1
  Mg  Mg134  1  0.06673695  0.53336878  0.83340109  1
  Mg  Mg135  1  0.46663223  0.93326405  0.83340129  1
  Mg  Mg136  1  0.66666546  0.33333267  0.83330928  1
  Mg  Mg137  1  0.66653057  0.13332013  0.83345044  1
  Mg  Mg138  1  0.46678961  0.13331978  0.83345053  1
  Mg  Mg139  1  0.46678949  0.33346892  0.83345053  1
  Mg  Mg140  1  0.86668010  0.33346974  0.83345035  1
  Mg  Mg141  1  0.86668005  0.53321063  0.83345035  1
  Mg  Mg142  1  0.66653073  0.53321139  0.83345034  1
  Mg  Mg143  1  0.06643364  0.33303678  0.83354747  1
  Mg  Mg144  1  0.26660398  0.33303760  0.83354752  1
  Mg  Mg145  1  0.06643349  0.73339593  0.83354734  1
  Mg  Mg146  1  0.66696254  0.73339605  0.83354752  1
  Mg  Mg147  1  0.26660399  0.93356715  0.83354748  1
  Mg  Mg148  1  0.66696255  0.93356651  0.83354745  1
  In  In149  1  0.99999887  0.99999934  0.00000005  1
