# generated using pymatgen
data_K2Li14Zr3O14
_symmetry_space_group_name_H-M   'P 1'
_cell_length_a   8.31551793
_cell_length_b   8.31551793
_cell_length_c   8.31551793
_cell_angle_alpha   127.47877281
_cell_angle_beta   123.25099623
_cell_angle_gamma   80.98023154
_symmetry_Int_Tables_number   1
_chemical_formula_structural   K2Li14Zr3O14
_chemical_formula_sum   'K2 Li14 Zr3 O14'
_cell_volume   367.80077591
_cell_formula_units_Z   1
loop_
 _symmetry_equiv_pos_site_id
 _symmetry_equiv_pos_as_xyz
  1  'x, y, z'
loop_
 _atom_site_type_symbol
 _atom_site_label
 _atom_site_symmetry_multiplicity
 _atom_site_fract_x
 _atom_site_fract_y
 _atom_site_fract_z
 _atom_site_occupancy
  K  K0  1  0.50000000  0.75922100  0.25922100  1
  K  K1  1  0.50000000  0.24077900  0.74077900  1
  Li  Li2  1  0.70576600  0.13622300  0.11294300  1
  Li  Li3  1  0.97672000  0.86377700  0.56954300  1
  Li  Li4  1  0.02328000  0.59282300  0.88705700  1
  Li  Li5  1  0.29423400  0.40717700  0.43045700  1
  Li  Li6  1  0.02328000  0.13622300  0.43045700  1
  Li  Li7  1  0.84555200  0.50000000  0.34555200  1
  Li  Li8  1  0.15444800  0.50000000  0.65444800  1
  Li  Li9  1  0.41345400  0.77092400  0.64253000  1
  Li  Li10  1  0.58654600  0.22907600  0.35747000  1
  Li  Li11  1  0.87160600  0.22907600  0.64253000  1
  Li  Li12  1  0.12839400  0.77092400  0.35747000  1
  Li  Li13  1  0.70576600  0.59282300  0.56954300  1
  Li  Li14  1  0.29423400  0.86377700  0.88705700  1
  Li  Li15  1  0.97672000  0.40717700  0.11294300  1
  Zr  Zr16  1  0.00000000  0.00000000  0.00000000  1
  Zr  Zr17  1  0.27214800  0.27214800  0.00000000  1
  Zr  Zr18  1  0.72785200  0.72785200  0.00000000  1
  O  O19  1  0.05172100  0.87243000  0.17929100  1
  O  O20  1  0.42065900  0.62933700  0.79132200  1
  O  O21  1  0.83801500  0.62933700  0.20867800  1
  O  O22  1  0.57934100  0.37066300  0.20867800  1
  O  O23  1  0.16198500  0.37066300  0.79132200  1
  O  O24  1  0.74466500  0.03041600  0.28575100  1
  O  O25  1  0.25533500  0.54108700  0.28575100  1
  O  O26  1  0.25533500  0.96958400  0.71424900  1
  O  O27  1  0.74466500  0.45891300  0.71424900  1
  O  O28  1  0.00000000  0.71225700  0.71225700  1
  O  O29  1  0.00000000  0.28774300  0.28774300  1
  O  O30  1  0.69313900  0.87243000  0.82070900  1
  O  O31  1  0.30686100  0.12757000  0.17929100  1
  O  O32  1  0.94827900  0.12757000  0.82070900  1
