# generated using pymatgen
data_Ce2Co3Ge5
_symmetry_space_group_name_H-M   'P 1'
_cell_length_a   5.83159100
_cell_length_b   8.15751727
_cell_length_c   8.15751727
_cell_angle_alpha   73.86183902
_cell_angle_beta   69.05714219
_cell_angle_gamma   69.05714219
_symmetry_Int_Tables_number   1
_chemical_formula_structural   Ce2Co3Ge5
_chemical_formula_sum   'Ce4 Co6 Ge10'
_cell_volume   333.42846286
_cell_formula_units_Z   2
loop_
 _symmetry_equiv_pos_site_id
 _symmetry_equiv_pos_as_xyz
  1  'x, y, z'
loop_
 _atom_site_type_symbol
 _atom_site_label
 _atom_site_symmetry_multiplicity
 _atom_site_fract_x
 _atom_site_fract_y
 _atom_site_fract_z
 _atom_site_occupancy
  Ce  Ce0  1  0.36668900  0.39467100  0.87195000  1
  Ce  Ce1  1  0.63331100  0.60532900  0.12805000  1
  Ce  Ce2  1  0.86668900  0.87195000  0.39467100  1
  Ce  Ce3  1  0.13331100  0.12805000  0.60532900  1
  Co  Co4  1  0.25000000  0.00000000  0.00000000  1
  Co  Co5  1  0.75000000  0.00000000  0.00000000  1
  Co  Co6  1  0.13621200  0.47794000  0.24963600  1
  Co  Co7  1  0.86378800  0.52206000  0.75036400  1
  Co  Co8  1  0.63621200  0.24963600  0.47794000  1
  Co  Co9  1  0.36378800  0.75036400  0.52206000  1
  Ge  Ge10  1  0.25000000  0.50000000  0.50000000  1
  Ge  Ge11  1  0.75000000  0.50000000  0.50000000  1
  Ge  Ge12  1  0.01293400  0.23706600  0.23706600  1
  Ge  Ge13  1  0.48706600  0.76293400  0.76293400  1
  Ge  Ge14  1  0.98706600  0.76293400  0.76293400  1
  Ge  Ge15  1  0.51293400  0.23706600  0.23706600  1
  Ge  Ge16  1  0.10031900  0.74569300  0.05367000  1
  Ge  Ge17  1  0.89968100  0.25430700  0.94633000  1
  Ge  Ge18  1  0.60031900  0.05367000  0.74569300  1
  Ge  Ge19  1  0.39968100  0.94633000  0.25430700  1
