# generated using pymatgen
data_BaNaB5O9
_symmetry_space_group_name_H-M   'P 1'
_cell_length_a   14.15302700
_cell_length_b   6.66767400
_cell_length_c   8.51597292
_cell_angle_alpha   74.82647041
_cell_angle_beta   90.00000000
_cell_angle_gamma   90.00000000
_symmetry_Int_Tables_number   1
_chemical_formula_structural   BaNaB5O9
_chemical_formula_sum   'Ba4 Na4 B20 O36'
_cell_volume   775.61672412
_cell_formula_units_Z   4
loop_
 _symmetry_equiv_pos_site_id
 _symmetry_equiv_pos_as_xyz
  1  'x, y, z'
loop_
 _atom_site_type_symbol
 _atom_site_label
 _atom_site_symmetry_multiplicity
 _atom_site_fract_x
 _atom_site_fract_y
 _atom_site_fract_z
 _atom_site_occupancy
  Ba  Ba0  1  0.21771300  0.41288500  0.56228000  1
  Ba  Ba1  1  0.71771300  0.58711500  0.93772000  1
  Ba  Ba2  1  0.78228700  0.58711500  0.43772000  1
  Ba  Ba3  1  0.28228700  0.41288500  0.06228000  1
  Na  Na4  1  0.08088200  0.95558000  0.85964200  1
  Na  Na5  1  0.58088200  0.04442000  0.64035800  1
  Na  Na6  1  0.91911800  0.04442000  0.14035800  1
  Na  Na7  1  0.41911800  0.95558000  0.35964200  1
  B  B8  1  0.25264200  0.92445600  0.61525000  1
  B  B9  1  0.75264200  0.07554400  0.88475000  1
  B  B10  1  0.74735800  0.07554400  0.38475000  1
  B  B11  1  0.24735800  0.92445600  0.11525000  1
  B  B12  1  0.94371100  0.69243700  0.74664500  1
  B  B13  1  0.44371100  0.30756300  0.75335500  1
  B  B14  1  0.05628900  0.30756300  0.25335500  1
  B  B15  1  0.55628900  0.69243700  0.24664500  1
  B  B16  1  0.84898800  0.03829600  0.64492000  1
  B  B17  1  0.34898800  0.96170400  0.85508000  1
  B  B18  1  0.15101200  0.96170400  0.35508000  1
  B  B19  1  0.65101200  0.03829600  0.14492000  1
  B  B20  1  0.11182800  0.68113700  0.22030100  1
  B  B21  1  0.61182800  0.31886300  0.27969900  1
  B  B22  1  0.88817200  0.31886300  0.77969900  1
  B  B23  1  0.38817200  0.68113700  0.72030100  1
  B  B24  1  0.05473800  0.40219700  0.84855200  1
  B  B25  1  0.55473800  0.59780300  0.65144800  1
  B  B26  1  0.94526200  0.59780300  0.15144800  1
  B  B27  1  0.44526200  0.40219700  0.34855200  1
  O  O28  1  0.35590100  0.33767400  0.37365400  1
  O  O29  1  0.85590100  0.66232600  0.12634600  1
  O  O30  1  0.64409900  0.66232600  0.62634600  1
  O  O31  1  0.14409900  0.33767400  0.87365400  1
  O  O32  1  0.17792800  0.99828900  0.51352800  1
  O  O33  1  0.67792800  0.00171100  0.98647200  1
  O  O34  1  0.82207200  0.00171100  0.48647200  1
  O  O35  1  0.32207200  0.99828900  0.01352800  1
  O  O36  1  0.26494200  0.01633400  0.74160200  1
  O  O37  1  0.76494200  0.98366600  0.75839800  1
  O  O38  1  0.73505800  0.98366600  0.25839800  1
  O  O39  1  0.23505800  0.01633400  0.24160200  1
  O  O40  1  0.12481700  0.74714400  0.36773100  1
  O  O41  1  0.62481700  0.25285600  0.13226900  1
  O  O42  1  0.87518300  0.25285600  0.63226900  1
  O  O43  1  0.37518300  0.74714400  0.86773100  1
  O  O44  1  0.03361900  0.61864100  0.80022200  1
  O  O45  1  0.53361900  0.38135900  0.69977800  1
  O  O46  1  0.96638100  0.38135900  0.19977800  1
  O  O47  1  0.46638100  0.61864100  0.30022200  1
  O  O48  1  0.98028600  0.26216100  0.85847900  1
  O  O49  1  0.48028600  0.73783900  0.64152100  1
  O  O50  1  0.01971400  0.73783900  0.14152100  1
  O  O51  1  0.51971400  0.26216100  0.35847900  1
  O  O52  1  0.18736600  0.76934100  0.09491400  1
  O  O53  1  0.68736600  0.23065900  0.40508600  1
  O  O54  1  0.81263400  0.23065900  0.90508600  1
  O  O55  1  0.31263400  0.76934100  0.59491400  1
  O  O56  1  0.93036200  0.90023600  0.71162500  1
  O  O57  1  0.43036200  0.09976400  0.78837500  1
  O  O58  1  0.06963800  0.09976400  0.28837500  1
  O  O59  1  0.56963800  0.90023600  0.21162500  1
  O  O60  1  0.87352000  0.55193000  0.73542100  1
  O  O61  1  0.37352000  0.44807000  0.76457900  1
  O  O62  1  0.12648000  0.44807000  0.26457900  1
  O  O63  1  0.62648000  0.55193000  0.23542100  1
