# generated using pymatgen
data_YbGd(PO4)2
_symmetry_space_group_name_H-M   'P 1'
_cell_length_a   5.81681708
_cell_length_b   5.81681708
_cell_length_c   5.81681708
_cell_angle_alpha   106.15509947
_cell_angle_beta   106.15509947
_cell_angle_gamma   116.32888264
_symmetry_Int_Tables_number   1
_chemical_formula_structural   YbGd(PO4)2
_chemical_formula_sum   'Yb1 Gd1 P2 O8'
_cell_volume   149.86096841
_cell_formula_units_Z   1
loop_
 _symmetry_equiv_pos_site_id
 _symmetry_equiv_pos_as_xyz
  1  'x, y, z'
loop_
 _atom_site_type_symbol
 _atom_site_label
 _atom_site_symmetry_multiplicity
 _atom_site_fract_x
 _atom_site_fract_y
 _atom_site_fract_z
 _atom_site_occupancy
  Yb  Yb0  1  0.25000000  0.75000000  0.50000000  1
  Gd  Gd1  1  0.00000000  0.00000000  0.00000000  1
  P  P2  1  0.75000000  0.25000000  0.50000000  1
  P  P3  1  0.50000000  0.50000000  0.00000000  1
  O  O4  1  0.90484700  0.57935400  0.67450700  1
  O  O5  1  0.48046700  0.65514000  0.82532700  1
  O  O6  1  0.82981300  0.65514000  0.17467300  1
  O  O7  1  0.90484700  0.23034000  0.32549300  1
  O  O8  1  0.34486000  0.17018700  0.82532700  1
  O  O9  1  0.76966000  0.09515300  0.67450700  1
  O  O10  1  0.42064600  0.09515300  0.32549300  1
  O  O11  1  0.34486000  0.51953300  0.17467300  1
