# generated using pymatgen
data_CsMn2(PO3)6
_symmetry_space_group_name_H-M   'P 1'
_cell_length_a   9.33080696
_cell_length_b   9.29382756
_cell_length_c   10.58800064
_cell_angle_alpha   106.79740979
_cell_angle_beta   108.58806283
_cell_angle_gamma   88.41963850
_symmetry_Int_Tables_number   1
_chemical_formula_structural   CsMn2(PO3)6
_chemical_formula_sum   'Cs2 Mn4 P12 O36'
_cell_volume   831.04004210
_cell_formula_units_Z   2
loop_
 _symmetry_equiv_pos_site_id
 _symmetry_equiv_pos_as_xyz
  1  'x, y, z'
loop_
 _atom_site_type_symbol
 _atom_site_label
 _atom_site_symmetry_multiplicity
 _atom_site_fract_x
 _atom_site_fract_y
 _atom_site_fract_z
 _atom_site_occupancy
  Cs  Cs0  1  0.99238300  0.48970800  0.99362000  1
  Cs  Cs1  1  0.99215000  0.48912500  0.49290600  1
  Mn  Mn2  1  0.49946200  0.49962300  0.99985600  1
  Mn  Mn3  1  0.99950900  0.99863400  0.49964500  1
  Mn  Mn4  1  0.49947100  0.49953200  0.49985700  1
  Mn  Mn5  1  0.99960500  0.99872000  0.99941100  1
  P  P6  1  0.45248600  0.70826100  0.79973200  1
  P  P7  1  0.45136100  0.70894800  0.30101200  1
  P  P8  1  0.54772100  0.28963300  0.69800300  1
  P  P9  1  0.54658500  0.29042400  0.19915400  1
  P  P10  1  0.74084300  0.75010700  0.74635200  1
  P  P11  1  0.73951200  0.75079400  0.24829200  1
  P  P12  1  0.25864800  0.24889100  0.25287100  1
  P  P13  1  0.25988000  0.24835700  0.75095300  1
  P  P14  1  0.77206700  0.04880800  0.69831800  1
  P  P15  1  0.77149200  0.04921000  0.19948300  1
  P  P16  1  0.22747400  0.95006600  0.79960100  1
  P  P17  1  0.22673100  0.95035100  0.30071000  1
  O  O18  1  0.44129400  0.67142900  0.92719300  1
  O  O19  1  0.43926700  0.67065100  0.42762500  1
  O  O20  1  0.56082000  0.32819000  0.57183600  1
  O  O21  1  0.55861400  0.32778000  0.07220300  1
  O  O22  1  0.62718900  0.75959000  0.83446500  1
  O  O23  1  0.62645100  0.75966500  0.33683000  1
  O  O24  1  0.37231400  0.24058500  0.66194700  1
  O  O25  1  0.37160500  0.24063400  0.16422700  1
  O  O26  1  0.69751900  0.88449400  0.18030400  1
  O  O27  1  0.69920900  0.88332100  0.67763600  1
  O  O28  1  0.30125500  0.11507300  0.32056300  1
  O  O29  1  0.30284700  0.11409500  0.81798800  1
  O  O30  1  0.70051400  0.60459100  0.12839600  1
  O  O31  1  0.70183400  0.60397900  0.62652900  1
  O  O32  1  0.29768600  0.39459400  0.37313900  1
  O  O33  1  0.29889000  0.39422900  0.87117200  1
  O  O34  1  0.89030700  0.10821300  0.83906800  1
  O  O35  1  0.89118200  0.10834600  0.33942100  1
  O  O36  1  0.10668200  0.89174800  0.66041900  1
  O  O37  1  0.10764900  0.89174300  0.16056700  1
  O  O38  1  0.89856500  0.77190200  0.84737600  1
  O  O39  1  0.89746700  0.77225700  0.34883000  1
  O  O40  1  0.10160600  0.22679700  0.65089500  1
  O  O41  1  0.10057100  0.22720700  0.15240900  1
  O  O42  1  0.39247000  0.59117300  0.66034100  1
  O  O43  1  0.39091300  0.59371300  0.16060000  1
  O  O44  1  0.60915800  0.40413600  0.83886100  1
  O  O45  1  0.60766900  0.40662800  0.33907500  1
  O  O46  1  0.61709300  0.13217300  0.69704300  1
  O  O47  1  0.61765900  0.13416800  0.20051800  1
  O  O48  1  0.38017600  0.86371000  0.79738800  1
  O  O49  1  0.38073100  0.86559700  0.30137600  1
  O  O50  1  0.80667400  0.04542400  0.56944700  1
  O  O51  1  0.80492300  0.04439600  0.06976800  1
  O  O52  1  0.19500400  0.95638100  0.93009000  1
  O  O53  1  0.19281000  0.95539400  0.43028400  1
