# generated using pymatgen
data_Cs2VHO4
_symmetry_space_group_name_H-M   'P 1'
_cell_length_a   6.96833402
_cell_length_b   6.96833402
_cell_length_c   9.04751200
_cell_angle_alpha   90.00000000
_cell_angle_beta   90.00000000
_cell_angle_gamma   133.54905497
_symmetry_Int_Tables_number   1
_chemical_formula_structural   Cs2VHO4
_chemical_formula_sum   'Cs4 V2 H2 O8'
_cell_volume   318.41692107
_cell_formula_units_Z   2
loop_
 _symmetry_equiv_pos_site_id
 _symmetry_equiv_pos_as_xyz
  1  'x, y, z'
loop_
 _atom_site_type_symbol
 _atom_site_label
 _atom_site_symmetry_multiplicity
 _atom_site_fract_x
 _atom_site_fract_y
 _atom_site_fract_z
 _atom_site_occupancy
  Cs  Cs0  1  0.61582200  0.38417800  0.05102700  1
  Cs  Cs1  1  0.38417800  0.61582200  0.55102700  1
  Cs  Cs2  1  0.05963700  0.94036300  0.39575600  1
  Cs  Cs3  1  0.94036300  0.05963700  0.89575600  1
  V  V4  1  0.69600500  0.30399500  0.62278300  1
  V  V5  1  0.30399500  0.69600500  0.12278300  1
  H  H6  1  0.16945400  0.83054600  0.72175300  1
  H  H7  1  0.83054600  0.16945400  0.22175300  1
  O  O8  1  0.37109700  0.62890300  0.95879700  1
  O  O9  1  0.94080500  0.61120200  0.71937700  1
  O  O10  1  0.05919500  0.38879800  0.21937700  1
  O  O11  1  0.62890300  0.37109700  0.45879700  1
  O  O12  1  0.61120200  0.94080500  0.21937700  1
  O  O13  1  0.38879800  0.05919500  0.71937700  1
  O  O14  1  0.17219500  0.82780500  0.09012900  1
  O  O15  1  0.82780500  0.17219500  0.59012900  1
