# generated using pymatgen
data_PrIn2Rh
_symmetry_space_group_name_H-M   'P 1'
_cell_length_a   5.64123359
_cell_length_b   5.64123359
_cell_length_c   8.05458000
_cell_angle_alpha   90.00000000
_cell_angle_beta   90.00000000
_cell_angle_gamma   133.41126996
_symmetry_Int_Tables_number   1
_chemical_formula_structural   PrIn2Rh
_chemical_formula_sum   'Pr2 In4 Rh2'
_cell_volume   186.20464939
_cell_formula_units_Z   2
loop_
 _symmetry_equiv_pos_site_id
 _symmetry_equiv_pos_as_xyz
  1  'x, y, z'
loop_
 _atom_site_type_symbol
 _atom_site_label
 _atom_site_symmetry_multiplicity
 _atom_site_fract_x
 _atom_site_fract_y
 _atom_site_fract_z
 _atom_site_occupancy
  Pr  Pr0  1  0.56754600  0.43245400  0.25000000  1
  Pr  Pr1  1  0.43245400  0.56754600  0.75000000  1
  In  In2  1  0.85381100  0.14618900  0.05135500  1
  In  In3  1  0.14618900  0.85381100  0.94864500  1
  In  In4  1  0.14618900  0.85381100  0.55135500  1
  In  In5  1  0.85381100  0.14618900  0.44864500  1
  Rh  Rh6  1  0.28313600  0.71686400  0.25000000  1
  Rh  Rh7  1  0.71686400  0.28313600  0.75000000  1
