# generated using pymatgen
data_YGeRh
_symmetry_space_group_name_H-M   'P 1'
_cell_length_a   4.32103900
_cell_length_b   6.95240000
_cell_length_c   7.61002100
_cell_angle_alpha   90.00000000
_cell_angle_beta   90.00000000
_cell_angle_gamma   90.00000000
_symmetry_Int_Tables_number   1
_chemical_formula_structural   YGeRh
_chemical_formula_sum   'Y4 Ge4 Rh4'
_cell_volume   228.61714252
_cell_formula_units_Z   4
loop_
 _symmetry_equiv_pos_site_id
 _symmetry_equiv_pos_as_xyz
  1  'x, y, z'
loop_
 _atom_site_type_symbol
 _atom_site_label
 _atom_site_symmetry_multiplicity
 _atom_site_fract_x
 _atom_site_fract_y
 _atom_site_fract_z
 _atom_site_occupancy
  Y  Y0  1  0.25000000  0.50374300  0.69594300  1
  Y  Y1  1  0.25000000  0.00374300  0.80405700  1
  Y  Y2  1  0.75000000  0.49625700  0.30405700  1
  Y  Y3  1  0.75000000  0.99625700  0.19594300  1
  Ge  Ge4  1  0.25000000  0.78877100  0.39543400  1
  Ge  Ge5  1  0.25000000  0.28877100  0.10456600  1
  Ge  Ge6  1  0.75000000  0.21122900  0.60456600  1
  Ge  Ge7  1  0.75000000  0.71122900  0.89543400  1
  Rh  Rh8  1  0.25000000  0.15655700  0.43139400  1
  Rh  Rh9  1  0.25000000  0.65655700  0.06860600  1
  Rh  Rh10  1  0.75000000  0.84344300  0.56860600  1
  Rh  Rh11  1  0.75000000  0.34344300  0.93139400  1
