# generated using pymatgen
data_CsTc3(Se2Br)2
_symmetry_space_group_name_H-M   'P 1'
_cell_length_a   19.35680000
_cell_length_b   6.66431000
_cell_length_c   10.30769899
_cell_angle_alpha   64.63158253
_cell_angle_beta   90.00000000
_cell_angle_gamma   90.00000000
_symmetry_Int_Tables_number   1
_chemical_formula_structural   CsTc3(Se2Br)2
_chemical_formula_sum   'Cs4 Tc12 Se16 Br8'
_cell_volume   1201.47032911
_cell_formula_units_Z   4
loop_
 _symmetry_equiv_pos_site_id
 _symmetry_equiv_pos_as_xyz
  1  'x, y, z'
loop_
 _atom_site_type_symbol
 _atom_site_label
 _atom_site_symmetry_multiplicity
 _atom_site_fract_x
 _atom_site_fract_y
 _atom_site_fract_z
 _atom_site_occupancy
  Cs  Cs0  1  0.80993300  0.04907500  0.94813800  1
  Cs  Cs1  1  0.69006700  0.04907500  0.44813800  1
  Cs  Cs2  1  0.19006700  0.95092500  0.05186200  1
  Cs  Cs3  1  0.30993300  0.95092500  0.55186200  1
  Tc  Tc4  1  0.57851300  0.85976100  0.10728900  1
  Tc  Tc5  1  0.92148700  0.85976100  0.60728900  1
  Tc  Tc6  1  0.42148700  0.14023900  0.89271100  1
  Tc  Tc7  1  0.07851300  0.14023900  0.39271100  1
  Tc  Tc8  1  0.55815700  0.17330200  0.84715400  1
  Tc  Tc9  1  0.94184300  0.17330200  0.34715400  1
  Tc  Tc10  1  0.44184300  0.82669800  0.15284600  1
  Tc  Tc11  1  0.05815700  0.82669800  0.65284600  1
  Tc  Tc12  1  0.50474000  0.21314100  0.07025600  1
  Tc  Tc13  1  0.99526000  0.21314100  0.57025600  1
  Tc  Tc14  1  0.49526000  0.78685900  0.92974400  1
  Tc  Tc15  1  0.00474000  0.78685900  0.42974400  1
  Se  Se16  1  0.63278900  0.23621100  0.02616600  1
  Se  Se17  1  0.86721100  0.23621100  0.52616600  1
  Se  Se18  1  0.36721100  0.76378900  0.97383400  1
  Se  Se19  1  0.13278900  0.76378900  0.47383400  1
  Se  Se20  1  0.62344700  0.82663300  0.88808600  1
  Se  Se21  1  0.87655300  0.82663300  0.38808600  1
  Se  Se22  1  0.37655300  0.17336700  0.11191400  1
  Se  Se23  1  0.12344700  0.17336700  0.61191400  1
  Se  Se24  1  0.51538300  0.49097300  0.19325600  1
  Se  Se25  1  0.98461700  0.49097300  0.69325600  1
  Se  Se26  1  0.48461700  0.50902700  0.80674400  1
  Se  Se27  1  0.01538300  0.50902700  0.30674400  1
  Se  Se28  1  0.52346800  0.90200600  0.31728100  1
  Se  Se29  1  0.97653200  0.90200600  0.81728100  1
  Se  Se30  1  0.47653200  0.09799400  0.68271900  1
  Se  Se31  1  0.02346800  0.09799400  0.18271900  1
  Br  Br32  1  0.69283800  0.68506500  0.24653100  1
  Br  Br33  1  0.80716200  0.68506500  0.74653100  1
  Br  Br34  1  0.30716200  0.31493500  0.75346900  1
  Br  Br35  1  0.19283800  0.31493500  0.25346900  1
  Br  Br36  1  0.64163400  0.40082800  0.63766200  1
  Br  Br37  1  0.85836600  0.40082800  0.13766200  1
  Br  Br38  1  0.35836600  0.59917200  0.36233800  1
  Br  Br39  1  0.14163400  0.59917200  0.86233800  1
