# generated using pymatgen
data_SmMg149
_symmetry_space_group_name_H-M   'P 1'
_cell_length_a   16.01104135
_cell_length_b   16.01104674
_cell_length_c   15.64395009
_cell_angle_alpha   90.00000000
_cell_angle_beta   90.00000000
_cell_angle_gamma   120.00001546
_symmetry_Int_Tables_number   1
_chemical_formula_structural   SmMg149
_chemical_formula_sum   'Sm1 Mg149'
_cell_volume   3473.09202059
_cell_formula_units_Z   1
loop_
 _symmetry_equiv_pos_site_id
 _symmetry_equiv_pos_as_xyz
  1  'x, y, z'
loop_
 _atom_site_type_symbol
 _atom_site_label
 _atom_site_symmetry_multiplicity
 _atom_site_fract_x
 _atom_site_fract_y
 _atom_site_fract_z
 _atom_site_occupancy
  Sm  Sm0  1  -0.00000000  -0.00000000  -0.00000000  1
  Mg  Mg1  1  0.60008737  0.20017573  -0.00000000  1
  Mg  Mg2  1  0.40143587  0.20071743  -0.00000000  1
  Mg  Mg3  1  0.79928257  0.20071843  -0.00000000  1
  Mg  Mg4  1  0.00319926  0.20587144  -0.00000000  1
  Mg  Mg5  1  0.20267218  0.20587244  -0.00000000  1
  Mg  Mg6  1  0.60008737  0.39991163  -0.00000000  1
  Mg  Mg7  1  0.79982427  0.39991263  -0.00000000  1
  Mg  Mg8  1  0.00018658  0.40040389  -0.00000000  1
  Mg  Mg9  1  0.40021731  0.40040389  -0.00000000  1
  Mg  Mg10  1  0.20172348  0.40344696  -0.00000000  1
  Mg  Mg11  1  0.79928257  0.59856413  -0.00000000  1
  Mg  Mg12  1  0.00018658  0.59978269  -0.00000000  1
  Mg  Mg13  1  0.59959711  0.59978369  -0.00000000  1
  Mg  Mg14  1  0.39969497  0.60030503  -0.00000000  1
  Mg  Mg15  1  0.20061007  0.60030503  -0.00000000  1
  Mg  Mg16  1  0.00319926  0.79732682  -0.00000000  1
  Mg  Mg17  1  0.79412756  0.79732682  -0.00000000  1
  Mg  Mg18  1  0.20172348  0.79827652  -0.00000000  1
  Mg  Mg19  1  0.59655304  0.79827652  -0.00000000  1
  Mg  Mg20  1  0.39969497  0.79938993  -0.00000000  1
  Mg  Mg21  1  0.79412756  0.99680074  -0.00000000  1
  Mg  Mg22  1  0.20267218  0.99680074  -0.00000000  1
  Mg  Mg23  1  0.40021731  0.99981342  -0.00000000  1
  Mg  Mg24  1  0.59959711  0.99981342  -0.00000000  1
  Mg  Mg25  1  0.86823728  0.13176272  0.16444975  1
  Mg  Mg26  1  0.26352544  0.13176272  0.16444975  1
  Mg  Mg27  1  0.86823728  0.73647456  0.16444975  1
  Mg  Mg28  1  0.66666600  0.33333300  0.16605087  1
  Mg  Mg29  1  0.66742949  0.13297022  0.16650195  1
  Mg  Mg30  1  0.46554173  0.13297022  0.16650195  1
  Mg  Mg31  1  0.86702978  0.33257051  0.16650195  1
  Mg  Mg32  1  0.46554173  0.33257151  0.16650195  1
  Mg  Mg33  1  0.86702978  0.53445927  0.16650195  1
  Mg  Mg34  1  0.66742949  0.53445927  0.16650195  1
  Mg  Mg35  1  0.46662840  0.53337160  0.16730449  1
  Mg  Mg36  1  0.06674319  0.53337160  0.16730449  1
  Mg  Mg37  1  0.46662840  0.93325681  0.16730449  1
  Mg  Mg38  1  0.26716927  0.53433855  0.16734627  1
  Mg  Mg39  1  0.26716927  0.73283073  0.16734627  1
  Mg  Mg40  1  0.46566045  0.73283073  0.16734627  1
  Mg  Mg41  1  0.26774360  0.33585864  0.16777611  1
  Mg  Mg42  1  0.06811404  0.33585864  0.16777611  1
  Mg  Mg43  1  0.66414136  0.73225640  0.16777611  1
  Mg  Mg44  1  0.06811404  0.73225640  0.16777611  1
  Mg  Mg45  1  0.66414136  0.93188496  0.16777611  1
  Mg  Mg46  1  0.26774360  0.93188496  0.16777611  1
  Mg  Mg47  1  0.06825740  0.13651380  0.17036078  1
  Mg  Mg48  1  0.86348620  0.93174360  0.17036078  1
  Mg  Mg49  1  0.06825740  0.93174360  0.17036078  1
  Mg  Mg50  1  0.39964176  0.19982088  0.33276017  1
  Mg  Mg51  1  0.80017912  0.19982188  0.33276017  1
  Mg  Mg52  1  0.80017912  0.60035724  0.33276017  1
  Mg  Mg53  1  0.59997942  0.19995884  0.33273813  1
  Mg  Mg54  1  0.59997942  0.40002058  0.33273813  1
  Mg  Mg55  1  0.80004216  0.40002058  0.33273813  1
  Mg  Mg56  1  0.79935495  0.00007084  0.33359272  1
  Mg  Mg57  1  0.20071589  0.00007084  0.33359272  1
  Mg  Mg58  1  0.20071589  0.20064505  0.33359272  1
  Mg  Mg59  1  0.99992916  0.20064505  0.33359272  1
  Mg  Mg60  1  0.99992916  0.79928411  0.33359272  1
  Mg  Mg61  1  0.79935495  0.79928411  0.33359272  1
  Mg  Mg62  1  0.59970049  0.00017448  0.33375353  1
  Mg  Mg63  1  0.40047400  0.00017448  0.33375353  1
  Mg  Mg64  1  0.99982552  0.40029951  0.33375353  1
  Mg  Mg65  1  0.40047400  0.40029951  0.33375353  1
  Mg  Mg66  1  0.59970049  0.59952600  0.33375353  1
  Mg  Mg67  1  0.99982552  0.59952600  0.33375353  1
  Mg  Mg68  1  0.40007445  0.59992555  0.33369356  1
  Mg  Mg69  1  0.19985110  0.59992555  0.33369356  1
  Mg  Mg70  1  0.40007445  0.80014890  0.33369356  1
  Mg  Mg71  1  0.20020543  0.40040987  0.33415885  1
  Mg  Mg72  1  0.20020543  0.79979557  0.33415885  1
  Mg  Mg73  1  0.59959013  0.79979557  0.33415885  1
  Mg  Mg74  1  -0.00000000  -0.00000000  0.33467443  1
  Mg  Mg75  1  0.86641989  0.13357911  0.50000000  1
  Mg  Mg76  1  0.26715921  0.13358011  0.50000000  1
  Mg  Mg77  1  0.06678835  0.13357771  0.50000000  1
  Mg  Mg78  1  0.46704356  0.13422267  0.50000000  1
  Mg  Mg79  1  0.66717911  0.13422267  0.50000000  1
  Mg  Mg80  1  0.86577833  0.33282189  0.50000000  1
  Mg  Mg81  1  0.46704356  0.33282189  0.50000000  1
  Mg  Mg82  1  0.66666600  0.33333300  0.50000000  1
  Mg  Mg83  1  0.26673711  0.33358978  0.50000000  1
  Mg  Mg84  1  0.06685268  0.33358978  0.50000000  1
  Mg  Mg85  1  0.86577833  0.53295644  0.50000000  1
  Mg  Mg86  1  0.66717911  0.53295644  0.50000000  1
  Mg  Mg87  1  0.46699945  0.53299955  0.50000000  1
  Mg  Mg88  1  0.06600010  0.53300055  0.50000000  1
  Mg  Mg89  1  0.26676860  0.53353821  0.50000000  1
  Mg  Mg90  1  0.86641989  0.73284079  0.50000000  1
  Mg  Mg91  1  0.06685268  0.73326289  0.50000000  1
  Mg  Mg92  1  0.66641022  0.73326289  0.50000000  1
  Mg  Mg93  1  0.26676860  0.73323140  0.50000000  1
  Mg  Mg94  1  0.46646279  0.73323140  0.50000000  1
  Mg  Mg95  1  0.06678835  0.93321165  0.50000000  1
  Mg  Mg96  1  0.86642229  0.93321165  0.50000000  1
  Mg  Mg97  1  0.26673711  0.93314832  0.50000000  1
  Mg  Mg98  1  0.66641022  0.93314832  0.50000000  1
  Mg  Mg99  1  0.46699945  0.93399990  0.50000000  1
  Mg  Mg100  1  -0.00000000  -0.00000000  0.66532557  1
  Mg  Mg101  1  0.20020543  0.40040987  0.66584115  1
  Mg  Mg102  1  0.20020543  0.79979557  0.66584115  1
  Mg  Mg103  1  0.59959013  0.79979557  0.66584115  1
  Mg  Mg104  1  0.40007445  0.59992555  0.66630644  1
  Mg  Mg105  1  0.19985110  0.59992555  0.66630644  1
  Mg  Mg106  1  0.40007445  0.80014890  0.66630644  1
  Mg  Mg107  1  0.59970049  0.00017448  0.66624647  1
  Mg  Mg108  1  0.40047400  0.00017448  0.66624647  1
  Mg  Mg109  1  0.99982552  0.40029951  0.66624647  1
  Mg  Mg110  1  0.40047400  0.40029951  0.66624647  1
  Mg  Mg111  1  0.59970049  0.59952600  0.66624647  1
  Mg  Mg112  1  0.99982552  0.59952600  0.66624647  1
  Mg  Mg113  1  0.79935495  0.00007084  0.66640728  1
  Mg  Mg114  1  0.20071589  0.00007084  0.66640728  1
  Mg  Mg115  1  0.20071589  0.20064505  0.66640728  1
  Mg  Mg116  1  0.99992916  0.20064505  0.66640728  1
  Mg  Mg117  1  0.99992916  0.79928411  0.66640728  1
  Mg  Mg118  1  0.79935495  0.79928411  0.66640728  1
  Mg  Mg119  1  0.59997942  0.19995884  0.66726187  1
  Mg  Mg120  1  0.59997942  0.40002058  0.66726187  1
  Mg  Mg121  1  0.80004216  0.40002058  0.66726187  1
  Mg  Mg122  1  0.39964176  0.19982088  0.66723983  1
  Mg  Mg123  1  0.80017912  0.19982188  0.66723983  1
  Mg  Mg124  1  0.80017912  0.60035724  0.66723983  1
  Mg  Mg125  1  0.06825740  0.13651380  0.82963922  1
  Mg  Mg126  1  0.86348620  0.93174360  0.82963922  1
  Mg  Mg127  1  0.06825740  0.93174360  0.82963922  1
  Mg  Mg128  1  0.26774360  0.33585864  0.83222389  1
  Mg  Mg129  1  0.06811404  0.33585864  0.83222389  1
  Mg  Mg130  1  0.66414136  0.73225640  0.83222389  1
  Mg  Mg131  1  0.06811404  0.73225640  0.83222389  1
  Mg  Mg132  1  0.66414136  0.93188496  0.83222389  1
  Mg  Mg133  1  0.26774360  0.93188496  0.83222389  1
  Mg  Mg134  1  0.26716927  0.53433855  0.83265373  1
  Mg  Mg135  1  0.26716927  0.73283073  0.83265373  1
  Mg  Mg136  1  0.46566045  0.73283073  0.83265373  1
  Mg  Mg137  1  0.46662840  0.53337160  0.83269551  1
  Mg  Mg138  1  0.06674319  0.53337160  0.83269551  1
  Mg  Mg139  1  0.46662840  0.93325681  0.83269551  1
  Mg  Mg140  1  0.66742949  0.13297022  0.83349805  1
  Mg  Mg141  1  0.46554173  0.13297022  0.83349805  1
  Mg  Mg142  1  0.86702978  0.33257051  0.83349805  1
  Mg  Mg143  1  0.46554173  0.33257151  0.83349805  1
  Mg  Mg144  1  0.86702978  0.53445927  0.83349805  1
  Mg  Mg145  1  0.66742949  0.53445927  0.83349805  1
  Mg  Mg146  1  0.66666600  0.33333300  0.83394913  1
  Mg  Mg147  1  0.86823728  0.13176272  0.83555025  1
  Mg  Mg148  1  0.26352544  0.13176272  0.83555025  1
  Mg  Mg149  1  0.86823728  0.73647456  0.83555025  1
