# generated using pymatgen
data_PrPOsO
_symmetry_space_group_name_H-M   'P 1'
_cell_length_a   4.07527900
_cell_length_b   4.07527900
_cell_length_c   8.35242700
_cell_angle_alpha   90.00000000
_cell_angle_beta   90.00000000
_cell_angle_gamma   90.00000000
_symmetry_Int_Tables_number   1
_chemical_formula_structural   PrPOsO
_chemical_formula_sum   'Pr2 P2 Os2 O2'
_cell_volume   138.71626342
_cell_formula_units_Z   2
loop_
 _symmetry_equiv_pos_site_id
 _symmetry_equiv_pos_as_xyz
  1  'x, y, z'
loop_
 _atom_site_type_symbol
 _atom_site_label
 _atom_site_symmetry_multiplicity
 _atom_site_fract_x
 _atom_site_fract_y
 _atom_site_fract_z
 _atom_site_occupancy
  Pr  Pr0  1  0.00000000  0.50000000  0.85663500  1
  Pr  Pr1  1  0.50000000  0.00000000  0.14336500  1
  P  P2  1  0.00000000  0.50000000  0.35827000  1
  P  P3  1  0.50000000  0.00000000  0.64173000  1
  Os  Os4  1  0.00000000  0.00000000  0.50000000  1
  Os  Os5  1  0.50000000  0.50000000  0.50000000  1
  O  O6  1  0.00000000  0.00000000  0.00000000  1
  O  O7  1  0.50000000  0.50000000  0.00000000  1
