# generated using pymatgen
data_TeS7Br2
_symmetry_space_group_name_H-M   'P 1'
_cell_length_a   9.29420300
_cell_length_b   10.12479400
_cell_length_c   13.92274000
_cell_angle_alpha   90.00000000
_cell_angle_beta   90.00000000
_cell_angle_gamma   90.00000000
_symmetry_Int_Tables_number   1
_chemical_formula_structural   TeS7Br2
_chemical_formula_sum   'Te4 S28 Br8'
_cell_volume   1310.15615869
_cell_formula_units_Z   4
loop_
 _symmetry_equiv_pos_site_id
 _symmetry_equiv_pos_as_xyz
  1  'x, y, z'
loop_
 _atom_site_type_symbol
 _atom_site_label
 _atom_site_symmetry_multiplicity
 _atom_site_fract_x
 _atom_site_fract_y
 _atom_site_fract_z
 _atom_site_occupancy
  Te  Te0  1  0.25000000  0.29880200  0.40921500  1
  Te  Te1  1  0.25000000  0.79880200  0.09078500  1
  Te  Te2  1  0.75000000  0.70119800  0.59078500  1
  Te  Te3  1  0.75000000  0.20119800  0.90921500  1
  S  S4  1  0.45995700  0.17578800  0.48249100  1
  S  S5  1  0.04004300  0.67578800  0.01750900  1
  S  S6  1  0.95995700  0.82421200  0.51750900  1
  S  S7  1  0.54004300  0.32421200  0.98249100  1
  S  S8  1  0.54004300  0.82421200  0.51750900  1
  S  S9  1  0.95995700  0.32421200  0.98249100  1
  S  S10  1  0.04004300  0.17578800  0.48249100  1
  S  S11  1  0.45995700  0.67578800  0.01750900  1
  S  S12  1  0.52217000  0.26094900  0.60633200  1
  S  S13  1  0.97783000  0.76094900  0.89366800  1
  S  S14  1  0.02217000  0.73905100  0.39366800  1
  S  S15  1  0.47783000  0.23905100  0.10633200  1
  S  S16  1  0.47783000  0.73905100  0.39366800  1
  S  S17  1  0.02217000  0.23905100  0.10633200  1
  S  S18  1  0.97783000  0.26094900  0.60633200  1
  S  S19  1  0.52217000  0.76094900  0.89366800  1
  S  S20  1  0.42867400  0.15626400  0.72005800  1
  S  S21  1  0.07132600  0.65626400  0.77994200  1
  S  S22  1  0.92867400  0.84373600  0.27994200  1
  S  S23  1  0.57132600  0.34373600  0.22005800  1
  S  S24  1  0.57132600  0.84373600  0.27994200  1
  S  S25  1  0.92867400  0.34373600  0.22005800  1
  S  S26  1  0.07132600  0.15626400  0.72005800  1
  S  S27  1  0.42867400  0.65626400  0.77994200  1
  S  S28  1  0.25000000  0.25539900  0.77002000  1
  S  S29  1  0.25000000  0.75539900  0.72998000  1
  S  S30  1  0.75000000  0.74460100  0.22998000  1
  S  S31  1  0.75000000  0.24460100  0.27002000  1
  Br  Br32  1  0.25000000  0.48724200  0.53718200  1
  Br  Br33  1  0.25000000  0.98724200  0.96281800  1
  Br  Br34  1  0.75000000  0.51275800  0.46281800  1
  Br  Br35  1  0.75000000  0.01275800  0.03718200  1
  Br  Br36  1  0.25000000  0.07924500  0.29686900  1
  Br  Br37  1  0.25000000  0.57924500  0.20313100  1
  Br  Br38  1  0.75000000  0.92075500  0.70313100  1
  Br  Br39  1  0.75000000  0.42075500  0.79686900  1
