# generated using pymatgen
data_Dy3Ge3Ru2
_symmetry_space_group_name_H-M   'P 1'
_cell_length_a   5.85226968
_cell_length_b   5.85226968
_cell_length_c   14.01583800
_cell_angle_alpha   90.00000000
_cell_angle_beta   90.00000000
_cell_angle_gamma   136.86953375
_symmetry_Int_Tables_number   1
_chemical_formula_structural   Dy3Ge3Ru2
_chemical_formula_sum   'Dy6 Ge6 Ru4'
_cell_volume   328.17774649
_cell_formula_units_Z   2
loop_
 _symmetry_equiv_pos_site_id
 _symmetry_equiv_pos_as_xyz
  1  'x, y, z'
loop_
 _atom_site_type_symbol
 _atom_site_label
 _atom_site_symmetry_multiplicity
 _atom_site_fract_x
 _atom_site_fract_y
 _atom_site_fract_z
 _atom_site_occupancy
  Dy  Dy0  1  0.92183600  0.07816400  0.38645800  1
  Dy  Dy1  1  0.07816400  0.92183600  0.61354200  1
  Dy  Dy2  1  0.92183600  0.07816400  0.11354200  1
  Dy  Dy3  1  0.07816400  0.92183600  0.88645800  1
  Dy  Dy4  1  0.64684500  0.35315500  0.25000000  1
  Dy  Dy5  1  0.35315500  0.64684500  0.75000000  1
  Ge  Ge6  1  0.61688000  0.38312000  0.45889000  1
  Ge  Ge7  1  0.38312000  0.61688000  0.54111000  1
  Ge  Ge8  1  0.61688000  0.38312000  0.04111000  1
  Ge  Ge9  1  0.38312000  0.61688000  0.95889000  1
  Ge  Ge10  1  0.33503500  0.66496500  0.25000000  1
  Ge  Ge11  1  0.66496500  0.33503500  0.75000000  1
  Ru  Ru12  1  0.78665700  0.21334300  0.91877700  1
  Ru  Ru13  1  0.21334300  0.78665700  0.08122300  1
  Ru  Ru14  1  0.78665700  0.21334300  0.58122300  1
  Ru  Ru15  1  0.21334300  0.78665700  0.41877700  1
