# generated using pymatgen
data_Ba3SrSi8(NO)8
_symmetry_space_group_name_H-M   'P 1'
_cell_length_a   4.85336917
_cell_length_b   5.52660773
_cell_length_c   14.47861146
_cell_angle_alpha   90.96789905
_cell_angle_beta   89.98276609
_cell_angle_gamma   90.02588723
_symmetry_Int_Tables_number   1
_chemical_formula_structural   Ba3SrSi8(NO)8
_chemical_formula_sum   'Ba3 Sr1 Si8 N8 O8'
_cell_volume   388.29951449
_cell_formula_units_Z   1
loop_
 _symmetry_equiv_pos_site_id
 _symmetry_equiv_pos_as_xyz
  1  'x, y, z'
loop_
 _atom_site_type_symbol
 _atom_site_label
 _atom_site_symmetry_multiplicity
 _atom_site_fract_x
 _atom_site_fract_y
 _atom_site_fract_z
 _atom_site_occupancy
  Ba  Ba0  1  0.70574600  0.74161100  0.47409300  1
  Ba  Ba1  1  0.20607900  0.25825100  0.52604800  1
  Ba  Ba2  1  0.20827600  0.75481100  0.97388000  1
  Sr  Sr3  1  0.71039900  0.23145800  0.02994300  1
  Si  Si4  1  0.75244500  0.44207100  0.70457300  1
  Si  Si5  1  0.25245500  0.56182000  0.29536000  1
  Si  Si6  1  0.25253400  0.05994800  0.20037900  1
  Si  Si7  1  0.75244600  0.94841000  0.79945800  1
  Si  Si8  1  0.25356700  0.25008600  0.80288200  1
  Si  Si9  1  0.75478700  0.74436000  0.19619800  1
  Si  Si10  1  0.75421600  0.25135500  0.29889500  1
  Si  Si11  1  0.25437400  0.74747000  0.70046300  1
  N  N12  1  0.10486400  0.27717500  0.27402000  1
  N  N13  1  0.60360600  0.72502400  0.72825400  1
  N  N14  1  0.60263700  0.22773600  0.77542600  1
  N  N15  1  0.10555200  0.77586400  0.22231400  1
  N  N16  1  0.10612200  0.46555700  0.72871900  1
  N  N17  1  0.60689100  0.53529400  0.27246600  1
  N  N18  1  0.60896200  0.03340200  0.22186000  1
  N  N19  1  0.10504300  0.96691900  0.77384700  1
  O  O20  1  0.70642200  0.37020600  0.59583400  1
  O  O21  1  0.20492200  0.63398600  0.40369700  1
  O  O22  1  0.20544500  0.13376900  0.09325300  1
  O  O23  1  0.70717600  0.89631700  0.90884200  1
  O  O24  1  0.20187600  0.30443600  0.91223000  1
  O  O25  1  0.70594000  0.66692500  0.08833300  1
  O  O26  1  0.70187000  0.19689200  0.40780400  1
  O  O27  1  0.20574800  0.79884700  0.59092800  1
