# generated using pymatgen
data_SrTaNO2
_symmetry_space_group_name_H-M   'P 1'
_cell_length_a   4.00750200
_cell_length_b   5.82405200
_cell_length_c   5.82408200
_cell_angle_alpha   90.00000000
_cell_angle_beta   90.00000000
_cell_angle_gamma   90.00000000
_symmetry_Int_Tables_number   1
_chemical_formula_structural   SrTaNO2
_chemical_formula_sum   'Sr2 Ta2 N2 O4'
_cell_volume   135.93349169
_cell_formula_units_Z   2
loop_
 _symmetry_equiv_pos_site_id
 _symmetry_equiv_pos_as_xyz
  1  'x, y, z'
loop_
 _atom_site_type_symbol
 _atom_site_label
 _atom_site_symmetry_multiplicity
 _atom_site_fract_x
 _atom_site_fract_y
 _atom_site_fract_z
 _atom_site_occupancy
  Sr  Sr0  1  0.50000000  0.76484100  0.51882100  1
  Sr  Sr1  1  0.50000000  0.23515900  0.01882100  1
  Ta  Ta2  1  0.00000000  0.73295500  0.01727000  1
  Ta  Ta3  1  0.00000000  0.26704500  0.51727000  1
  N  N4  1  0.00000000  0.48839900  0.75865700  1
  N  N5  1  0.00000000  0.51160100  0.25865700  1
  O  O6  1  0.50000000  0.76952800  0.98850500  1
  O  O7  1  0.00000000  0.98274100  0.71678800  1
  O  O8  1  0.00000000  0.01725900  0.21678800  1
  O  O9  1  0.50000000  0.23047200  0.48850500  1
