# generated using pymatgen
data_Ba(LuSe2)2
_symmetry_space_group_name_H-M   'P 1'
_cell_length_a   4.15493400
_cell_length_b   12.75008300
_cell_length_c   15.02669000
_cell_angle_alpha   90.00000000
_cell_angle_beta   90.00000000
_cell_angle_gamma   90.00000000
_symmetry_Int_Tables_number   1
_chemical_formula_structural   Ba(LuSe2)2
_chemical_formula_sum   'Ba4 Lu8 Se16'
_cell_volume   796.05022325
_cell_formula_units_Z   4
loop_
 _symmetry_equiv_pos_site_id
 _symmetry_equiv_pos_as_xyz
  1  'x, y, z'
loop_
 _atom_site_type_symbol
 _atom_site_label
 _atom_site_symmetry_multiplicity
 _atom_site_fract_x
 _atom_site_fract_y
 _atom_site_fract_z
 _atom_site_occupancy
  Ba  Ba0  1  0.25000000  0.76002500  0.33438000  1
  Ba  Ba1  1  0.25000000  0.26002500  0.16562000  1
  Ba  Ba2  1  0.75000000  0.23997500  0.66562000  1
  Ba  Ba3  1  0.75000000  0.73997500  0.83438000  1
  Lu  Lu4  1  0.25000000  0.43950300  0.38981400  1
  Lu  Lu5  1  0.25000000  0.93950300  0.11018600  1
  Lu  Lu6  1  0.75000000  0.56049700  0.61018600  1
  Lu  Lu7  1  0.75000000  0.06049700  0.88981400  1
  Lu  Lu8  1  0.25000000  0.41838400  0.90158800  1
  Lu  Lu9  1  0.25000000  0.91838400  0.59841200  1
  Lu  Lu10  1  0.75000000  0.58161600  0.09841200  1
  Lu  Lu11  1  0.75000000  0.08161600  0.40158800  1
  Se  Se12  1  0.25000000  0.20347100  0.83993300  1
  Se  Se13  1  0.25000000  0.70347100  0.66006700  1
  Se  Se14  1  0.75000000  0.79652900  0.16006700  1
  Se  Se15  1  0.75000000  0.29652900  0.33993300  1
  Se  Se16  1  0.25000000  0.12279600  0.52529400  1
  Se  Se17  1  0.25000000  0.62279600  0.97470600  1
  Se  Se18  1  0.75000000  0.87720400  0.47470600  1
  Se  Se19  1  0.75000000  0.37720400  0.02529400  1
  Se  Se20  1  0.25000000  0.52760000  0.21533400  1
  Se  Se21  1  0.25000000  0.02760000  0.28466600  1
  Se  Se22  1  0.75000000  0.47240000  0.78466600  1
  Se  Se23  1  0.75000000  0.97240000  0.71533400  1
  Se  Se24  1  0.25000000  0.41548600  0.57452800  1
  Se  Se25  1  0.25000000  0.91548600  0.92547200  1
  Se  Se26  1  0.75000000  0.58451400  0.42547200  1
  Se  Se27  1  0.75000000  0.08451400  0.07452800  1
