# generated using pymatgen
data_NaEu2AlP3
_symmetry_space_group_name_H-M   'P 1'
_cell_length_a   8.03650772
_cell_length_b   8.03650772
_cell_length_c   11.45077055
_cell_angle_alpha   74.36233700
_cell_angle_beta   74.36233700
_cell_angle_gamma   67.26485156
_symmetry_Int_Tables_number   1
_chemical_formula_structural   NaEu2AlP3
_chemical_formula_sum   'Na4 Eu8 Al4 P12'
_cell_volume   645.35633095
_cell_formula_units_Z   4
loop_
 _symmetry_equiv_pos_site_id
 _symmetry_equiv_pos_as_xyz
  1  'x, y, z'
loop_
 _atom_site_type_symbol
 _atom_site_label
 _atom_site_symmetry_multiplicity
 _atom_site_fract_x
 _atom_site_fract_y
 _atom_site_fract_z
 _atom_site_occupancy
  Na  Na0  1  0.69678500  0.30321500  0.50000000  1
  Na  Na1  1  0.30321500  0.69678500  0.50000000  1
  Na  Na2  1  0.52286000  0.52286000  0.73966600  1
  Na  Na3  1  0.47714000  0.47714000  0.26033400  1
  Eu  Eu4  1  0.04280100  0.58224100  0.81924600  1
  Eu  Eu5  1  0.58224100  0.04280100  0.81924600  1
  Eu  Eu6  1  0.95719900  0.41775900  0.18075400  1
  Eu  Eu7  1  0.41775900  0.95719900  0.18075400  1
  Eu  Eu8  1  0.75587300  0.24412700  0.00000000  1
  Eu  Eu9  1  0.24412700  0.75587300  0.00000000  1
  Eu  Eu10  1  0.00000000  0.50000000  0.50000000  1
  Eu  Eu11  1  0.50000000  0.00000000  0.50000000  1
  Al  Al12  1  0.03036600  0.03036600  0.61637500  1
  Al  Al13  1  0.96963400  0.96963400  0.38362500  1
  Al  Al14  1  0.16499600  0.16499600  0.76575400  1
  Al  Al15  1  0.83500400  0.83500400  0.23424600  1
  P  P16  1  0.85767300  0.27246100  0.72854400  1
  P  P17  1  0.27246100  0.85767300  0.72854400  1
  P  P18  1  0.14232700  0.72753900  0.27145600  1
  P  P19  1  0.72753900  0.14232700  0.27145600  1
  P  P20  1  0.14265400  0.14265400  0.39906700  1
  P  P21  1  0.85734600  0.85734600  0.60093300  1
  P  P22  1  0.17332500  0.17332500  0.97743800  1
  P  P23  1  0.82667500  0.82667500  0.02256200  1
  P  P24  1  0.33853600  0.33853600  0.62977500  1
  P  P25  1  0.66146400  0.66146400  0.37022500  1
  P  P26  1  0.34109300  0.34109300  0.99436900  1
  P  P27  1  0.65890700  0.65890700  0.00563100  1
