# generated using pymatgen
data_Mn(SbO2)2
_symmetry_space_group_name_H-M   'P 1'
_cell_length_a   6.17494900
_cell_length_b   8.86296400
_cell_length_c   8.86296400
_cell_angle_alpha   90.00000000
_cell_angle_beta   90.00000000
_cell_angle_gamma   90.00000000
_symmetry_Int_Tables_number   1
_chemical_formula_structural   Mn(SbO2)2
_chemical_formula_sum   'Mn4 Sb8 O16'
_cell_volume   485.05540193
_cell_formula_units_Z   4
loop_
 _symmetry_equiv_pos_site_id
 _symmetry_equiv_pos_as_xyz
  1  'x, y, z'
loop_
 _atom_site_type_symbol
 _atom_site_label
 _atom_site_symmetry_multiplicity
 _atom_site_fract_x
 _atom_site_fract_y
 _atom_site_fract_z
 _atom_site_occupancy
  Mn  Mn0  1  0.75000000  0.50000000  0.00000000  1
  Mn  Mn1  1  0.75000000  0.00000000  0.50000000  1
  Mn  Mn2  1  0.25000000  0.00000000  0.50000000  1
  Mn  Mn3  1  0.25000000  0.50000000  0.00000000  1
  Sb  Sb4  1  0.00000000  0.81913600  0.83089000  1
  Sb  Sb5  1  0.50000000  0.16911000  0.81913600  1
  Sb  Sb6  1  0.50000000  0.83089000  0.18086400  1
  Sb  Sb7  1  0.00000000  0.18086400  0.16911000  1
  Sb  Sb8  1  0.00000000  0.68086400  0.33089000  1
  Sb  Sb9  1  0.00000000  0.31913600  0.66911000  1
  Sb  Sb10  1  0.50000000  0.66911000  0.68086400  1
  Sb  Sb11  1  0.50000000  0.33089000  0.31913600  1
  O  O12  1  0.50000000  0.85914900  0.40025600  1
  O  O13  1  0.50000000  0.14085100  0.59974400  1
  O  O14  1  0.00000000  0.40025600  0.14085100  1
  O  O15  1  0.00000000  0.59974400  0.85914900  1
  O  O16  1  0.00000000  0.90025600  0.35914900  1
  O  O17  1  0.50000000  0.64085100  0.90025600  1
  O  O18  1  0.50000000  0.35914900  0.09974400  1
  O  O19  1  0.00000000  0.09974400  0.64085100  1
  O  O20  1  0.75000000  0.68058100  0.18058100  1
  O  O21  1  0.25000000  0.81941900  0.68058100  1
  O  O22  1  0.25000000  0.18058100  0.31941900  1
  O  O23  1  0.75000000  0.31941900  0.81941900  1
  O  O24  1  0.25000000  0.68058100  0.18058100  1
  O  O25  1  0.75000000  0.81941900  0.68058100  1
  O  O26  1  0.75000000  0.18058100  0.31941900  1
  O  O27  1  0.25000000  0.31941900  0.81941900  1
