# generated using pymatgen
data_KBa2Cd2Sb3
_symmetry_space_group_name_H-M   'P 1'
_cell_length_a   5.03329400
_cell_length_b   13.36270700
_cell_length_c   17.03458300
_cell_angle_alpha   90.00000000
_cell_angle_beta   90.00000000
_cell_angle_gamma   90.00000000
_symmetry_Int_Tables_number   1
_chemical_formula_structural   KBa2Cd2Sb3
_chemical_formula_sum   'K4 Ba8 Cd8 Sb12'
_cell_volume   1145.71935882
_cell_formula_units_Z   4
loop_
 _symmetry_equiv_pos_site_id
 _symmetry_equiv_pos_as_xyz
  1  'x, y, z'
loop_
 _atom_site_type_symbol
 _atom_site_label
 _atom_site_symmetry_multiplicity
 _atom_site_fract_x
 _atom_site_fract_y
 _atom_site_fract_z
 _atom_site_occupancy
  K  K0  1  0.25000000  0.39886300  0.44572500  1
  K  K1  1  0.25000000  0.89886300  0.05427500  1
  K  K2  1  0.75000000  0.60113700  0.55427500  1
  K  K3  1  0.75000000  0.10113700  0.94572500  1
  Ba  Ba4  1  0.25000000  0.09965500  0.57234600  1
  Ba  Ba5  1  0.25000000  0.59965500  0.92765400  1
  Ba  Ba6  1  0.75000000  0.90034500  0.42765400  1
  Ba  Ba7  1  0.75000000  0.40034500  0.07234600  1
  Ba  Ba8  1  0.25000000  0.37284600  0.71039400  1
  Ba  Ba9  1  0.25000000  0.87284600  0.78960600  1
  Ba  Ba10  1  0.75000000  0.62715400  0.28960600  1
  Ba  Ba11  1  0.75000000  0.12715400  0.21039400  1
  Cd  Cd12  1  0.25000000  0.30417600  0.91634800  1
  Cd  Cd13  1  0.25000000  0.80417600  0.58365200  1
  Cd  Cd14  1  0.75000000  0.69582400  0.08365200  1
  Cd  Cd15  1  0.75000000  0.19582400  0.41634800  1
  Cd  Cd16  1  0.25000000  0.36519100  0.21649900  1
  Cd  Cd17  1  0.25000000  0.86519100  0.28350100  1
  Cd  Cd18  1  0.75000000  0.63480900  0.78350100  1
  Cd  Cd19  1  0.75000000  0.13480900  0.71649900  1
  Sb  Sb20  1  0.25000000  0.07811300  0.36527200  1
  Sb  Sb21  1  0.25000000  0.57811300  0.13472800  1
  Sb  Sb22  1  0.75000000  0.92188700  0.63472800  1
  Sb  Sb23  1  0.75000000  0.42188700  0.86527200  1
  Sb  Sb24  1  0.25000000  0.13365800  0.80350000  1
  Sb  Sb25  1  0.25000000  0.63365800  0.69650000  1
  Sb  Sb26  1  0.75000000  0.86634200  0.19650000  1
  Sb  Sb27  1  0.75000000  0.36634200  0.30350000  1
  Sb  Sb28  1  0.25000000  0.71307700  0.42430000  1
  Sb  Sb29  1  0.25000000  0.21307700  0.07570000  1
  Sb  Sb30  1  0.75000000  0.28692300  0.57570000  1
  Sb  Sb31  1  0.75000000  0.78692300  0.92430000  1
