# generated using pymatgen
data_CsV(NO4)2
_symmetry_space_group_name_H-M   'P 1'
_cell_length_a   6.71202700
_cell_length_b   8.06422000
_cell_length_c   15.55790300
_cell_angle_alpha   90.00000000
_cell_angle_beta   90.00000000
_cell_angle_gamma   90.00000000
_symmetry_Int_Tables_number   1
_chemical_formula_structural   CsV(NO4)2
_chemical_formula_sum   'Cs4 V4 N8 O32'
_cell_volume   842.10669767
_cell_formula_units_Z   4
loop_
 _symmetry_equiv_pos_site_id
 _symmetry_equiv_pos_as_xyz
  1  'x, y, z'
loop_
 _atom_site_type_symbol
 _atom_site_label
 _atom_site_symmetry_multiplicity
 _atom_site_fract_x
 _atom_site_fract_y
 _atom_site_fract_z
 _atom_site_occupancy
  Cs  Cs0  1  0.75080900  0.64885200  0.34293100  1
  Cs  Cs1  1  0.74919100  0.35114800  0.84293100  1
  Cs  Cs2  1  0.25080900  0.85114800  0.65706900  1
  Cs  Cs3  1  0.24919100  0.14885200  0.15706900  1
  V  V4  1  0.35047000  0.31077900  0.47707100  1
  V  V5  1  0.14953000  0.68922100  0.97707100  1
  V  V6  1  0.85047000  0.18922100  0.52292900  1
  V  V7  1  0.64953000  0.81077900  0.02292900  1
  N  N8  1  0.13217100  0.62744600  0.15900700  1
  N  N9  1  0.36782900  0.37255400  0.65900700  1
  N  N10  1  0.63217100  0.87255400  0.84099300  1
  N  N11  1  0.86782900  0.12744600  0.34099300  1
  N  N12  1  0.37255200  0.98851300  0.39057000  1
  N  N13  1  0.12744800  0.01148700  0.89057000  1
  N  N14  1  0.87255200  0.51148700  0.60943000  1
  N  N15  1  0.62744800  0.48851300  0.10943000  1
  O  O16  1  0.31348000  0.46925300  0.41576300  1
  O  O17  1  0.18652000  0.53074700  0.91576300  1
  O  O18  1  0.81348000  0.03074700  0.58423700  1
  O  O19  1  0.68652000  0.96925300  0.08423700  1
  O  O20  1  0.61452600  0.28603500  0.48685300  1
  O  O21  1  0.88547400  0.71396500  0.98685300  1
  O  O22  1  0.11452600  0.21396500  0.51314700  1
  O  O23  1  0.38547400  0.78603500  0.01314700  1
  O  O24  1  0.83466800  0.04556600  0.41441500  1
  O  O25  1  0.66533200  0.95443400  0.91441500  1
  O  O26  1  0.33466800  0.45443400  0.58558500  1
  O  O27  1  0.16533200  0.54556600  0.08558500  1
  O  O28  1  0.09102300  0.77750100  0.15432900  1
  O  O29  1  0.40897700  0.22249900  0.65432900  1
  O  O30  1  0.59102300  0.72249900  0.84567100  1
  O  O31  1  0.90897700  0.27750100  0.34567100  1
  O  O32  1  0.14317700  0.54594500  0.22620600  1
  O  O33  1  0.35682300  0.45405500  0.72620600  1
  O  O34  1  0.64317700  0.95405500  0.77379400  1
  O  O35  1  0.85682300  0.04594500  0.27379400  1
  O  O36  1  0.65926200  0.64892300  0.12515100  1
  O  O37  1  0.84073800  0.35107700  0.62515100  1
  O  O38  1  0.15926200  0.85107700  0.87484900  1
  O  O39  1  0.34073800  0.14892300  0.37484900  1
  O  O40  1  0.40541500  0.94423400  0.46584700  1
  O  O41  1  0.09458500  0.05576600  0.96584700  1
  O  O42  1  0.90541500  0.55576600  0.53415300  1
  O  O43  1  0.59458500  0.44423400  0.03415300  1
  O  O44  1  0.36819700  0.89459900  0.32747700  1
  O  O45  1  0.13180300  0.10540100  0.82747700  1
  O  O46  1  0.86819700  0.60540100  0.67252300  1
  O  O47  1  0.63180300  0.39459900  0.17252300  1
