# generated using pymatgen
data_Ni3Se4
_symmetry_space_group_name_H-M   'P 1'
_cell_length_a   7.06502063
_cell_length_b   7.06502063
_cell_length_c   7.06502063
_cell_angle_alpha   60.00000000
_cell_angle_beta   60.00000000
_cell_angle_gamma   60.00000000
_symmetry_Int_Tables_number   1
_chemical_formula_structural   Ni3Se4
_chemical_formula_sum   'Ni6 Se8'
_cell_volume   249.35914837
_cell_formula_units_Z   2
loop_
 _symmetry_equiv_pos_site_id
 _symmetry_equiv_pos_as_xyz
  1  'x, y, z'
loop_
 _atom_site_type_symbol
 _atom_site_label
 _atom_site_symmetry_multiplicity
 _atom_site_fract_x
 _atom_site_fract_y
 _atom_site_fract_z
 _atom_site_occupancy
  Ni  Ni0  1  0.50000000  0.50000000  0.50000000  1
  Ni  Ni1  1  0.12500000  0.12500000  0.62500000  1
  Ni  Ni2  1  0.12500000  0.12500000  0.12500000  1
  Ni  Ni3  1  0.12500000  0.62500000  0.12500000  1
  Ni  Ni4  1  0.75000000  0.75000000  0.75000000  1
  Ni  Ni5  1  0.62500000  0.12500000  0.12500000  1
  Se  Se6  1  0.88401400  0.88401400  0.88401400  1
  Se  Se7  1  0.88401400  0.88401400  0.34795900  1
  Se  Se8  1  0.36598600  0.36598600  0.36598600  1
  Se  Se9  1  0.36598600  0.36598600  0.90204100  1
  Se  Se10  1  0.88401400  0.34795900  0.88401400  1
  Se  Se11  1  0.36598600  0.90204100  0.36598600  1
  Se  Se12  1  0.90204100  0.36598600  0.36598600  1
  Se  Se13  1  0.34795900  0.88401400  0.88401400  1
