# generated using pymatgen
data_Tl3GeTe3
_symmetry_space_group_name_H-M   'P 1'
_cell_length_a   9.84268600
_cell_length_b   10.00682088
_cell_length_c   10.73058187
_cell_angle_alpha   89.59538412
_cell_angle_beta   97.16444559
_cell_angle_gamma   100.84721650
_symmetry_Int_Tables_number   1
_chemical_formula_structural   Tl3GeTe3
_chemical_formula_sum   'Tl12 Ge4 Te12'
_cell_volume   1029.76322144
_cell_formula_units_Z   4
loop_
 _symmetry_equiv_pos_site_id
 _symmetry_equiv_pos_as_xyz
  1  'x, y, z'
loop_
 _atom_site_type_symbol
 _atom_site_label
 _atom_site_symmetry_multiplicity
 _atom_site_fract_x
 _atom_site_fract_y
 _atom_site_fract_z
 _atom_site_occupancy
  Tl  Tl0  1  0.18520600  0.83585500  0.83723200  1
  Tl  Tl1  1  0.81479400  0.16414500  0.16276800  1
  Tl  Tl2  1  0.30867300  0.71580400  0.24084400  1
  Tl  Tl3  1  0.69132700  0.28419600  0.75915600  1
  Tl  Tl4  1  0.51143000  0.63079400  0.65083500  1
  Tl  Tl5  1  0.48857000  0.36920600  0.34916500  1
  Tl  Tl6  1  0.87775400  0.95185500  0.65179100  1
  Tl  Tl7  1  0.12224600  0.04814500  0.34820900  1
  Tl  Tl8  1  0.90162300  0.57266400  0.34013800  1
  Tl  Tl9  1  0.09837700  0.42733600  0.65986200  1
  Tl  Tl10  1  0.64430100  0.77152600  0.08938200  1
  Tl  Tl11  1  0.35569900  0.22847400  0.91061800  1
  Ge  Ge12  1  0.57643000  0.01467800  0.41449200  1
  Ge  Ge13  1  0.90889500  0.57193500  0.98345700  1
  Ge  Ge14  1  0.09110500  0.42806500  0.01654300  1
  Ge  Ge15  1  0.42357000  0.98532200  0.58550800  1
  Te  Te16  1  0.12920300  0.38453000  0.25814600  1
  Te  Te17  1  0.68728300  0.44202100  0.07635900  1
  Te  Te18  1  0.99646700  0.79818200  0.11240900  1
  Te  Te19  1  0.31271700  0.55797900  0.92364100  1
  Te  Te20  1  0.67147900  0.78595200  0.40883600  1
  Te  Te21  1  0.32852100  0.21404800  0.59116400  1
  Te  Te22  1  0.57641100  0.93607700  0.79155900  1
  Te  Te23  1  0.42358900  0.06392300  0.20844100  1
  Te  Te24  1  0.87079700  0.61547000  0.74185400  1
  Te  Te25  1  0.78129300  0.22264500  0.47111900  1
  Te  Te26  1  0.21870700  0.77735500  0.52888100  1
  Te  Te27  1  0.00353300  0.20181800  0.88759100  1
