# generated using pymatgen
data_Ba6Gd(ReO6)3
_symmetry_space_group_name_H-M   'P 1'
_cell_length_a   10.22819230
_cell_length_b   10.22819230
_cell_length_c   10.10972700
_cell_angle_alpha   80.29700322
_cell_angle_beta   80.29700322
_cell_angle_gamma   119.99282195
_symmetry_Int_Tables_number   1
_chemical_formula_structural   Ba6Gd(ReO6)3
_chemical_formula_sum   'Ba12 Gd2 Re6 O36'
_cell_volume   862.41087562
_cell_formula_units_Z   2
loop_
 _symmetry_equiv_pos_site_id
 _symmetry_equiv_pos_as_xyz
  1  'x, y, z'
loop_
 _atom_site_type_symbol
 _atom_site_label
 _atom_site_symmetry_multiplicity
 _atom_site_fract_x
 _atom_site_fract_y
 _atom_site_fract_z
 _atom_site_occupancy
  Ba  Ba0  1  0.28022300  0.28022300  0.12468600  1
  Ba  Ba1  1  0.95859600  0.63694000  0.12428800  1
  Ba  Ba2  1  0.63694000  0.95859600  0.12428800  1
  Ba  Ba3  1  0.04140400  0.36306000  0.87571200  1
  Ba  Ba4  1  0.71977700  0.71977700  0.87531400  1
  Ba  Ba5  1  0.36306000  0.04140400  0.87571200  1
  Ba  Ba6  1  0.12928700  0.12928700  0.61409300  1
  Ba  Ba7  1  0.79783600  0.46380500  0.60618700  1
  Ba  Ba8  1  0.46380500  0.79783600  0.60618700  1
  Ba  Ba9  1  0.20216400  0.53619500  0.39381300  1
  Ba  Ba10  1  0.87071300  0.87071300  0.38590700  1
  Ba  Ba11  1  0.53619500  0.20216400  0.39381300  1
  Gd  Gd12  1  0.66677300  0.33322700  0.00000000  1
  Gd  Gd13  1  0.33322700  0.66677300  0.00000000  1
  Re  Re14  1  0.08919300  0.75925500  0.73145300  1
  Re  Re15  1  0.75925500  0.08919300  0.73145300  1
  Re  Re16  1  0.41978900  0.41978900  0.73163400  1
  Re  Re17  1  0.24074500  0.91080700  0.26854700  1
  Re  Re18  1  0.91080700  0.24074500  0.26854700  1
  Re  Re19  1  0.58021100  0.58021100  0.26836600  1
  O  O20  1  0.12091800  0.63071700  0.63801600  1
  O  O21  1  0.78884400  0.96701900  0.63032800  1
  O  O22  1  0.45702900  0.30074600  0.63132500  1
  O  O23  1  0.27936800  0.94456300  0.63136300  1
  O  O24  1  0.94456300  0.27936800  0.63136300  1
  O  O25  1  0.61072000  0.61072000  0.63715400  1
  O  O26  1  0.96701900  0.78884400  0.63032800  1
  O  O27  1  0.63071700  0.12091800  0.63801600  1
  O  O28  1  0.30074600  0.45702900  0.63132500  1
  O  O29  1  0.21115600  0.03298100  0.36967200  1
  O  O30  1  0.87908200  0.36928300  0.36198400  1
  O  O31  1  0.54297100  0.69925400  0.36867500  1
  O  O32  1  0.05543700  0.72063200  0.36863700  1
  O  O33  1  0.72063200  0.05543700  0.36863700  1
  O  O34  1  0.38928000  0.38928000  0.36284600  1
  O  O35  1  0.36928300  0.87908200  0.36198400  1
  O  O36  1  0.03298100  0.21115600  0.36967200  1
  O  O37  1  0.69925400  0.54297100  0.36867500  1
  O  O38  1  0.28764200  0.79981800  0.13881500  1
  O  O39  1  0.95320700  0.14270200  0.14095200  1
  O  O40  1  0.61954200  0.46575500  0.13897400  1
  O  O41  1  0.44131300  0.10759100  0.13908100  1
  O  O42  1  0.10759100  0.44131300  0.13908100  1
  O  O43  1  0.76343400  0.76343400  0.14079500  1
  O  O44  1  0.14270200  0.95320700  0.14095200  1
  O  O45  1  0.79981800  0.28764200  0.13881500  1
  O  O46  1  0.46575500  0.61954200  0.13897400  1
  O  O47  1  0.04679300  0.85729800  0.85904800  1
  O  O48  1  0.71235800  0.20018200  0.86118400  1
  O  O49  1  0.38045800  0.53424500  0.86102600  1
  O  O50  1  0.89240900  0.55868700  0.86091900  1
  O  O51  1  0.55868700  0.89240900  0.86091900  1
  O  O52  1  0.23656600  0.23656600  0.85920500  1
  O  O53  1  0.20018200  0.71235800  0.86118400  1
  O  O54  1  0.85729800  0.04679300  0.85904800  1
  O  O55  1  0.53424500  0.38045800  0.86102600  1
