# generated using pymatgen
data_Ti2Pd
_symmetry_space_group_name_H-M   'P 1'
_cell_length_a   5.45344555
_cell_length_b   5.45344555
_cell_length_c   5.45344555
_cell_angle_alpha   146.73037601
_cell_angle_beta   146.73037601
_cell_angle_gamma   47.76317109
_symmetry_Int_Tables_number   1
_chemical_formula_structural   Ti2Pd
_chemical_formula_sum   'Ti2 Pd1'
_cell_volume   48.61329223
_cell_formula_units_Z   1
loop_
 _symmetry_equiv_pos_site_id
 _symmetry_equiv_pos_as_xyz
  1  'x, y, z'
loop_
 _atom_site_type_symbol
 _atom_site_label
 _atom_site_symmetry_multiplicity
 _atom_site_fract_x
 _atom_site_fract_y
 _atom_site_fract_z
 _atom_site_occupancy
  Ti  Ti0  1  0.66459900  0.66459900  0.00000000  1
  Ti  Ti1  1  0.33540100  0.33540100  0.00000000  1
  Pd  Pd2  1  0.00000000  0.00000000  0.00000000  1
