# generated using pymatgen
data_Ba2ReN3
_symmetry_space_group_name_H-M   'P 1'
_cell_length_a   6.65882846
_cell_length_b   11.88201944
_cell_length_c   13.38998393
_cell_angle_alpha   90.00000132
_cell_angle_beta   89.99145606
_cell_angle_gamma   153.15108222
_symmetry_Int_Tables_number   1
_chemical_formula_structural   Ba2ReN3
_chemical_formula_sum   'Ba8 Re4 N12'
_cell_volume   478.47580579
_cell_formula_units_Z   4
loop_
 _symmetry_equiv_pos_site_id
 _symmetry_equiv_pos_as_xyz
  1  'x, y, z'
loop_
 _atom_site_type_symbol
 _atom_site_label
 _atom_site_symmetry_multiplicity
 _atom_site_fract_x
 _atom_site_fract_y
 _atom_site_fract_z
 _atom_site_occupancy
  Ba  Ba0  1  0.50024000  0.06565000  0.86695500  1
  Ba  Ba1  1  0.49976000  0.56541000  0.63304500  1
  Ba  Ba2  1  0.49976000  0.93435000  0.13304500  1
  Ba  Ba3  1  0.50024000  0.43459000  0.36695500  1
  Ba  Ba4  1  0.49968300  0.85998200  0.58254600  1
  Ba  Ba5  1  0.50031700  0.36029800  0.91745400  1
  Ba  Ba6  1  0.50031700  0.14001800  0.41745400  1
  Ba  Ba7  1  0.49968300  0.63970200  0.08254600  1
  Re  Re8  1  0.49988300  0.23968600  0.66366700  1
  Re  Re9  1  0.50011700  0.73980300  0.83633300  1
  Re  Re10  1  0.50011700  0.76031400  0.33633300  1
  Re  Re11  1  0.49988300  0.26019700  0.16366700  1
  N  N12  1  0.00000000  0.51341200  0.75000000  1
  N  N13  1  0.00000000  0.48658800  0.25000000  1
  N  N14  1  0.49918000  0.08947100  0.62421000  1
  N  N15  1  0.50082000  0.59029100  0.87579000  1
  N  N16  1  0.50082000  0.91052900  0.37579000  1
  N  N17  1  0.49918000  0.40970900  0.12421000  1
  N  N18  1  0.50031800  0.16328200  0.05280600  1
  N  N19  1  0.49968200  0.66296400  0.44719400  1
  N  N20  1  0.49968200  0.83671800  0.94719400  1
  N  N21  1  0.50031800  0.33703600  0.55280600  1
  N  N22  1  0.00000000  0.01384800  0.75000000  1
  N  N23  1  0.00000000  0.98615200  0.25000000  1
