# generated using pymatgen
data_KLi3TiO4
_symmetry_space_group_name_H-M   'P 1'
_cell_length_a   5.99215232
_cell_length_b   7.64959421
_cell_length_c   10.14883474
_cell_angle_alpha   83.46809872
_cell_angle_beta   76.41187929
_cell_angle_gamma   79.65348596
_symmetry_Int_Tables_number   1
_chemical_formula_structural   KLi3TiO4
_chemical_formula_sum   'K4 Li12 Ti4 O16'
_cell_volume   443.57652727
_cell_formula_units_Z   4
loop_
 _symmetry_equiv_pos_site_id
 _symmetry_equiv_pos_as_xyz
  1  'x, y, z'
loop_
 _atom_site_type_symbol
 _atom_site_label
 _atom_site_symmetry_multiplicity
 _atom_site_fract_x
 _atom_site_fract_y
 _atom_site_fract_z
 _atom_site_occupancy
  K  K0  1  0.00266700  0.38146400  0.88551300  1
  K  K1  1  0.99733300  0.61853600  0.11448700  1
  K  K2  1  0.04663100  0.14117900  0.62753600  1
  K  K3  1  0.95336900  0.85882100  0.37246400  1
  Li  Li4  1  0.80889700  0.05875400  0.10226500  1
  Li  Li5  1  0.19110300  0.94124600  0.89773500  1
  Li  Li6  1  0.47944900  0.32178200  0.61178300  1
  Li  Li7  1  0.52055100  0.67821800  0.38821700  1
  Li  Li8  1  0.19259500  0.17516900  0.14658600  1
  Li  Li9  1  0.80740500  0.82483100  0.85341400  1
  Li  Li10  1  0.53324500  0.42653500  0.12817500  1
  Li  Li11  1  0.46675500  0.57346500  0.87182500  1
  Li  Li12  1  0.43471300  0.04674300  0.37763100  1
  Li  Li13  1  0.56528700  0.95325700  0.62236900  1
  Li  Li14  1  0.18556300  0.44658000  0.39767800  1
  Li  Li15  1  0.81443700  0.55342000  0.60232200  1
  Ti  Ti16  1  0.83298300  0.29537300  0.35110100  1
  Ti  Ti17  1  0.16701700  0.70462700  0.64889900  1
  Ti  Ti18  1  0.44361400  0.79074400  0.13413200  1
  Ti  Ti19  1  0.55638600  0.20925600  0.86586800  1
  O  O20  1  0.63872600  0.15845200  0.46897200  1
  O  O21  1  0.36127400  0.84154800  0.53102800  1
  O  O22  1  0.18363200  0.93657200  0.09487100  1
  O  O23  1  0.81636800  0.06342800  0.90512900  1
  O  O24  1  0.34767700  0.60831500  0.25790800  1
  O  O25  1  0.65232300  0.39168500  0.74209200  1
  O  O26  1  0.13918200  0.20409100  0.34846500  1
  O  O27  1  0.86081800  0.79590900  0.65153500  1
  O  O28  1  0.19293700  0.48177200  0.58903800  1
  O  O29  1  0.80706300  0.51822800  0.41096200  1
  O  O30  1  0.37628300  0.32915000  0.01100000  1
  O  O31  1  0.62371700  0.67085000  0.98900000  1
  O  O32  1  0.82012600  0.29159600  0.17218500  1
  O  O33  1  0.17987400  0.70840400  0.82781500  1
  O  O34  1  0.39036800  0.10297900  0.77654500  1
  O  O35  1  0.60963200  0.89702100  0.22345500  1
