# generated using pymatgen
data_Sm2S3
_symmetry_space_group_name_H-M   'P 1'
_cell_length_a   3.99617800
_cell_length_b   7.43803400
_cell_length_c   15.49932400
_cell_angle_alpha   90.00000000
_cell_angle_beta   90.00000000
_cell_angle_gamma   90.00000000
_symmetry_Int_Tables_number   1
_chemical_formula_structural   Sm2S3
_chemical_formula_sum   'Sm8 S12'
_cell_volume   460.69737820
_cell_formula_units_Z   4
loop_
 _symmetry_equiv_pos_site_id
 _symmetry_equiv_pos_as_xyz
  1  'x, y, z'
loop_
 _atom_site_type_symbol
 _atom_site_label
 _atom_site_symmetry_multiplicity
 _atom_site_fract_x
 _atom_site_fract_y
 _atom_site_fract_z
 _atom_site_occupancy
  Sm  Sm0  1  0.25000000  0.14324600  0.79544000  1
  Sm  Sm1  1  0.75000000  0.85675400  0.20456000  1
  Sm  Sm2  1  0.25000000  0.64324600  0.70456000  1
  Sm  Sm3  1  0.75000000  0.35675400  0.29544000  1
  Sm  Sm4  1  0.25000000  0.76522700  0.45655700  1
  Sm  Sm5  1  0.75000000  0.23477300  0.54344300  1
  Sm  Sm6  1  0.25000000  0.26522700  0.04344300  1
  Sm  Sm7  1  0.75000000  0.73477300  0.95655700  1
  S  S8  1  0.25000000  0.37505200  0.43235100  1
  S  S9  1  0.75000000  0.62494800  0.56764900  1
  S  S10  1  0.25000000  0.87505200  0.06764900  1
  S  S11  1  0.75000000  0.12494800  0.93235100  1
  S  S12  1  0.25000000  0.14741800  0.21864300  1
  S  S13  1  0.75000000  0.85258200  0.78135700  1
  S  S14  1  0.25000000  0.64741800  0.28135700  1
  S  S15  1  0.75000000  0.35258200  0.71864300  1
  S  S16  1  0.75000000  0.49038000  0.10865800  1
  S  S17  1  0.25000000  0.50962000  0.89134200  1
  S  S18  1  0.75000000  0.99038000  0.39134200  1
  S  S19  1  0.25000000  0.00962000  0.60865800  1
