# generated using pymatgen
data_CrCu(PSe3)2
_symmetry_space_group_name_H-M   'P 1'
_cell_length_a   6.25319330
_cell_length_b   6.25319330
_cell_length_c   7.16310512
_cell_angle_alpha   81.91283950
_cell_angle_beta   81.91283950
_cell_angle_gamma   119.96477888
_symmetry_Int_Tables_number   1
_chemical_formula_structural   CrCu(PSe3)2
_chemical_formula_sum   'Cr1 Cu1 P2 Se6'
_cell_volume   232.86326899
_cell_formula_units_Z   1
loop_
 _symmetry_equiv_pos_site_id
 _symmetry_equiv_pos_as_xyz
  1  'x, y, z'
loop_
 _atom_site_type_symbol
 _atom_site_label
 _atom_site_symmetry_multiplicity
 _atom_site_fract_x
 _atom_site_fract_y
 _atom_site_fract_z
 _atom_site_occupancy
  Cr  Cr0  1  0.33289800  0.66710200  0.00000000  1
  Cu  Cu1  1  0.67036600  0.32963400  0.00000000  1
  P  P2  1  0.05157200  0.05256000  0.83861800  1
  P  P3  1  0.94744000  0.94842800  0.16138200  1
  Se  Se4  1  0.09224800  0.43088400  0.76169400  1
  Se  Se5  1  0.41382800  0.06112600  0.76143600  1
  Se  Se6  1  0.93887400  0.58617200  0.23856400  1
  Se  Se7  1  0.56911600  0.90775200  0.23830600  1
  Se  Se8  1  0.72218900  0.73853000  0.76193100  1
  Se  Se9  1  0.26147000  0.27781100  0.23806900  1
