# generated using pymatgen
data_Tb3Ga2
_symmetry_space_group_name_H-M   'P 1'
_cell_length_a   11.15687161
_cell_length_b   11.15687161
_cell_length_c   11.15687161
_cell_angle_alpha   116.91197574
_cell_angle_beta   116.91197574
_cell_angle_gamma   95.43737995
_symmetry_Int_Tables_number   1
_chemical_formula_structural   Tb3Ga2
_chemical_formula_sum   'Tb24 Ga16'
_cell_volume   1022.85189087
_cell_formula_units_Z   8
loop_
 _symmetry_equiv_pos_site_id
 _symmetry_equiv_pos_as_xyz
  1  'x, y, z'
loop_
 _atom_site_type_symbol
 _atom_site_label
 _atom_site_symmetry_multiplicity
 _atom_site_fract_x
 _atom_site_fract_y
 _atom_site_fract_z
 _atom_site_occupancy
  Tb  Tb0  1  0.14722800  0.64722800  0.50000000  1
  Tb  Tb1  1  0.64722800  0.14722800  0.50000000  1
  Tb  Tb2  1  0.85277200  0.35277200  0.50000000  1
  Tb  Tb3  1  0.35277200  0.85277200  0.50000000  1
  Tb  Tb4  1  0.66834200  0.16834200  0.83668500  1
  Tb  Tb5  1  0.33165800  0.83165800  0.16331500  1
  Tb  Tb6  1  0.16834200  0.33165800  0.50000000  1
  Tb  Tb7  1  0.83165800  0.66834200  0.50000000  1
  Tb  Tb8  1  0.06686100  0.93134700  0.27039300  1
  Tb  Tb9  1  0.66095400  0.79646800  0.72960700  1
  Tb  Tb10  1  0.56686100  0.29646800  0.13551400  1
  Tb  Tb11  1  0.16095400  0.43134700  0.86448600  1
  Tb  Tb12  1  0.79646800  0.06686100  0.13551400  1
  Tb  Tb13  1  0.93134700  0.66095400  0.86448600  1
  Tb  Tb14  1  0.43134700  0.56686100  0.27039300  1
  Tb  Tb15  1  0.29646800  0.16095400  0.72960700  1
  Tb  Tb16  1  0.93313900  0.06865300  0.72960700  1
  Tb  Tb17  1  0.33904600  0.20353200  0.27039300  1
  Tb  Tb18  1  0.43313900  0.70353200  0.86448600  1
  Tb  Tb19  1  0.83904600  0.56865300  0.13551400  1
  Tb  Tb20  1  0.20353200  0.93313900  0.86448600  1
  Tb  Tb21  1  0.06865300  0.33904600  0.13551400  1
  Tb  Tb22  1  0.56865300  0.43313900  0.72960700  1
  Tb  Tb23  1  0.70353200  0.83904600  0.27039300  1
  Ga  Ga24  1  0.75000000  0.75000000  0.00000000  1
  Ga  Ga25  1  0.25000000  0.25000000  0.00000000  1
  Ga  Ga26  1  0.00000000  0.00000000  0.00000000  1
  Ga  Ga27  1  0.50000000  0.50000000  0.00000000  1
  Ga  Ga28  1  0.11637300  0.61637300  0.73274700  1
  Ga  Ga29  1  0.88362700  0.38362700  0.26725300  1
  Ga  Ga30  1  0.61637300  0.88362700  0.50000000  1
  Ga  Ga31  1  0.38362700  0.11637300  0.50000000  1
  Ga  Ga32  1  0.87884200  0.37884200  0.85593000  1
  Ga  Ga33  1  0.52291200  0.02291200  0.14407000  1
  Ga  Ga34  1  0.37884200  0.52291200  0.50000000  1
  Ga  Ga35  1  0.02291200  0.87884200  0.50000000  1
  Ga  Ga36  1  0.12115800  0.62115800  0.14407000  1
  Ga  Ga37  1  0.47708800  0.97708800  0.85593000  1
  Ga  Ga38  1  0.62115800  0.47708800  0.50000000  1
  Ga  Ga39  1  0.97708800  0.12115800  0.50000000  1
