# generated using pymatgen
data_SmPt
_symmetry_space_group_name_H-M   'P 1'
_cell_length_a   4.59087200
_cell_length_b   5.65514700
_cell_length_c   7.25311900
_cell_angle_alpha   90.00000000
_cell_angle_beta   90.00000000
_cell_angle_gamma   90.00000000
_symmetry_Int_Tables_number   1
_chemical_formula_structural   SmPt
_chemical_formula_sum   'Sm4 Pt4'
_cell_volume   188.30588178
_cell_formula_units_Z   4
loop_
 _symmetry_equiv_pos_site_id
 _symmetry_equiv_pos_as_xyz
  1  'x, y, z'
loop_
 _atom_site_type_symbol
 _atom_site_label
 _atom_site_symmetry_multiplicity
 _atom_site_fract_x
 _atom_site_fract_y
 _atom_site_fract_z
 _atom_site_occupancy
  Sm  Sm0  1  0.25000000  0.63748400  0.18253200  1
  Sm  Sm1  1  0.75000000  0.36251600  0.81746800  1
  Sm  Sm2  1  0.75000000  0.13748400  0.31746800  1
  Sm  Sm3  1  0.25000000  0.86251600  0.68253200  1
  Pt  Pt4  1  0.25000000  0.15209600  0.04426300  1
  Pt  Pt5  1  0.75000000  0.84790400  0.95573700  1
  Pt  Pt6  1  0.75000000  0.65209600  0.45573700  1
  Pt  Pt7  1  0.25000000  0.34790400  0.54426300  1
