# generated using pymatgen
data_DyPPd
_symmetry_space_group_name_H-M   'P 1'
_cell_length_a   4.03021900
_cell_length_b   6.88707100
_cell_length_c   7.75495400
_cell_angle_alpha   90.00000000
_cell_angle_beta   90.00000000
_cell_angle_gamma   90.00000000
_symmetry_Int_Tables_number   1
_chemical_formula_structural   DyPPd
_chemical_formula_sum   'Dy4 P4 Pd4'
_cell_volume   215.24963932
_cell_formula_units_Z   4
loop_
 _symmetry_equiv_pos_site_id
 _symmetry_equiv_pos_as_xyz
  1  'x, y, z'
loop_
 _atom_site_type_symbol
 _atom_site_label
 _atom_site_symmetry_multiplicity
 _atom_site_fract_x
 _atom_site_fract_y
 _atom_site_fract_z
 _atom_site_occupancy
  Dy  Dy0  1  0.25000000  0.52616000  0.18572600  1
  Dy  Dy1  1  0.75000000  0.47384000  0.81427400  1
  Dy  Dy2  1  0.75000000  0.97384000  0.68572600  1
  Dy  Dy3  1  0.25000000  0.02616000  0.31427400  1
  P  P4  1  0.25000000  0.75696700  0.87676800  1
  P  P5  1  0.75000000  0.24303300  0.12323200  1
  P  P6  1  0.75000000  0.74303300  0.37676800  1
  P  P7  1  0.25000000  0.25696700  0.62323200  1
  Pd  Pd8  1  0.25000000  0.64772400  0.56157100  1
  Pd  Pd9  1  0.75000000  0.35227600  0.43842900  1
  Pd  Pd10  1  0.75000000  0.85227600  0.06157100  1
  Pd  Pd11  1  0.25000000  0.14772400  0.93842900  1
