# generated using pymatgen
data_HfMnGe
_symmetry_space_group_name_H-M   'P 1'
_cell_length_a   6.70375464
_cell_length_b   6.70375464
_cell_length_c   3.78307400
_cell_angle_alpha   90.00000000
_cell_angle_beta   90.00000000
_cell_angle_gamma   120.00000628
_symmetry_Int_Tables_number   1
_chemical_formula_structural   HfMnGe
_chemical_formula_sum   'Hf3 Mn3 Ge3'
_cell_volume   147.23520367
_cell_formula_units_Z   3
loop_
 _symmetry_equiv_pos_site_id
 _symmetry_equiv_pos_as_xyz
  1  'x, y, z'
loop_
 _atom_site_type_symbol
 _atom_site_label
 _atom_site_symmetry_multiplicity
 _atom_site_fract_x
 _atom_site_fract_y
 _atom_site_fract_z
 _atom_site_occupancy
  Hf  Hf0  1  0.00000000  0.41268300  0.50000000  1
  Hf  Hf1  1  0.58731700  0.58731700  0.50000000  1
  Hf  Hf2  1  0.41268300  0.00000000  0.50000000  1
  Mn  Mn3  1  0.00000000  0.75587800  0.00000000  1
  Mn  Mn4  1  0.24412200  0.24412200  0.00000000  1
  Mn  Mn5  1  0.75587800  0.00000000  0.00000000  1
  Ge  Ge6  1  0.33333300  0.66666700  0.00000000  1
  Ge  Ge7  1  0.66666700  0.33333300  0.00000000  1
  Ge  Ge8  1  0.00000000  0.00000000  0.50000000  1
