# generated using pymatgen
data_YTl2P2S7
_symmetry_space_group_name_H-M   'P 1'
_cell_length_a   12.03001253
_cell_length_b   12.03001253
_cell_length_c   18.92261415
_cell_angle_alpha   60.72945839
_cell_angle_beta   60.72945839
_cell_angle_gamma   32.54384170
_symmetry_Int_Tables_number   1
_chemical_formula_structural   YTl2P2S7
_chemical_formula_sum   'Y4 Tl8 P8 S28'
_cell_volume   1267.75658015
_cell_formula_units_Z   4
loop_
 _symmetry_equiv_pos_site_id
 _symmetry_equiv_pos_as_xyz
  1  'x, y, z'
loop_
 _atom_site_type_symbol
 _atom_site_label
 _atom_site_symmetry_multiplicity
 _atom_site_fract_x
 _atom_site_fract_y
 _atom_site_fract_z
 _atom_site_occupancy
  Y  Y0  1  0.88433600  0.79705700  0.23864000  1
  Y  Y1  1  0.20294300  0.11566400  0.26136000  1
  Y  Y2  1  0.11566400  0.20294300  0.76136000  1
  Y  Y3  1  0.79705700  0.88433600  0.73864000  1
  Tl  Tl4  1  0.82718600  0.80865000  0.02621400  1
  Tl  Tl5  1  0.19135000  0.17281400  0.47378600  1
  Tl  Tl6  1  0.17281400  0.19135000  0.97378600  1
  Tl  Tl7  1  0.80865000  0.82718600  0.52621400  1
  Tl  Tl8  1  0.53930100  0.48401500  0.11983700  1
  Tl  Tl9  1  0.51598500  0.46069900  0.38016300  1
  Tl  Tl10  1  0.46069900  0.51598500  0.88016300  1
  Tl  Tl11  1  0.48401500  0.53930100  0.61983700  1
  P  P12  1  0.67143100  0.66188700  0.35982000  1
  P  P13  1  0.33811300  0.32856900  0.14018000  1
  P  P14  1  0.32856900  0.33811300  0.64018000  1
  P  P15  1  0.66188700  0.67143100  0.85982000  1
  P  P16  1  0.97658300  0.92332300  0.30891100  1
  P  P17  1  0.07667700  0.02341700  0.19108900  1
  P  P18  1  0.02341700  0.07667700  0.69108900  1
  P  P19  1  0.92332300  0.97658300  0.80891100  1
  S  S20  1  0.86554800  0.35205000  0.39016900  1
  S  S21  1  0.64795000  0.13445200  0.10983100  1
  S  S22  1  0.13445200  0.64795000  0.60983100  1
  S  S23  1  0.35205000  0.86554800  0.89016900  1
  S  S24  1  0.17691600  0.62485400  0.30550900  1
  S  S25  1  0.37514600  0.82308400  0.19449100  1
  S  S26  1  0.82308400  0.37514600  0.69449100  1
  S  S27  1  0.62485400  0.17691600  0.80550900  1
  S  S28  1  0.16588900  0.63029700  0.09005600  1
  S  S29  1  0.36970300  0.83411100  0.40994400  1
  S  S30  1  0.83411100  0.36970300  0.90994400  1
  S  S31  1  0.63029700  0.16588900  0.59005600  1
  S  S32  1  0.88830500  0.31562300  0.19530900  1
  S  S33  1  0.68437700  0.11169500  0.30469100  1
  S  S34  1  0.11169500  0.68437700  0.80469100  1
  S  S35  1  0.31562300  0.88830500  0.69530900  1
  S  S36  1  0.75251800  0.71311300  0.40083900  1
  S  S37  1  0.28688700  0.24748200  0.09916100  1
  S  S38  1  0.24748200  0.28688700  0.59916100  1
  S  S39  1  0.71311300  0.75251800  0.90083900  1
  S  S40  1  0.22356400  0.33212000  0.26519100  1
  S  S41  1  0.66788000  0.77643600  0.23480900  1
  S  S42  1  0.77643600  0.66788000  0.73480900  1
  S  S43  1  0.33212000  0.22356400  0.76519100  1
  S  S44  1  0.99551200  0.94968300  0.39804600  1
  S  S45  1  0.05031700  0.00448800  0.10195400  1
  S  S46  1  0.00448800  0.05031700  0.60195400  1
  S  S47  1  0.94968300  0.99551200  0.89804600  1
