# generated using pymatgen
data_Gd2Cr2C3
_symmetry_space_group_name_H-M   'P 1'
_cell_length_a   5.50321975
_cell_length_b   5.50321975
_cell_length_c   5.64620668
_cell_angle_alpha   75.49004632
_cell_angle_beta   75.49004632
_cell_angle_gamma   36.02068130
_symmetry_Int_Tables_number   1
_chemical_formula_structural   Gd2Cr2C3
_chemical_formula_sum   'Gd2 Cr2 C3'
_cell_volume   97.00722566
_cell_formula_units_Z   1
loop_
 _symmetry_equiv_pos_site_id
 _symmetry_equiv_pos_as_xyz
  1  'x, y, z'
loop_
 _atom_site_type_symbol
 _atom_site_label
 _atom_site_symmetry_multiplicity
 _atom_site_fract_x
 _atom_site_fract_y
 _atom_site_fract_z
 _atom_site_occupancy
  Gd  Gd0  1  0.39538300  0.39538300  0.81953300  1
  Gd  Gd1  1  0.60461700  0.60461700  0.18046700  1
  Cr  Cr2  1  0.15767000  0.15767000  0.60497100  1
  Cr  Cr3  1  0.84233000  0.84233000  0.39502900  1
  C  C4  1  0.00000000  0.00000000  0.50000000  1
  C  C5  1  0.71290300  0.71290300  0.72488000  1
  C  C6  1  0.28709700  0.28709700  0.27512000  1
