# generated using pymatgen
data_Sm(AlBr4)3
_symmetry_space_group_name_H-M   'P 1'
_cell_length_a   10.70405117
_cell_length_b   10.70405117
_cell_length_c   18.95052000
_cell_angle_alpha   90.00000000
_cell_angle_beta   90.00000000
_cell_angle_gamma   119.99999489
_symmetry_Int_Tables_number   1
_chemical_formula_structural   Sm(AlBr4)3
_chemical_formula_sum   'Sm3 Al9 Br36'
_cell_volume   1880.39089152
_cell_formula_units_Z   3
loop_
 _symmetry_equiv_pos_site_id
 _symmetry_equiv_pos_as_xyz
  1  'x, y, z'
loop_
 _atom_site_type_symbol
 _atom_site_label
 _atom_site_symmetry_multiplicity
 _atom_site_fract_x
 _atom_site_fract_y
 _atom_site_fract_z
 _atom_site_occupancy
  Sm  Sm0  1  0.72773100  0.00000000  0.33333300  1
  Sm  Sm1  1  0.00000000  0.72773100  0.66666700  1
  Sm  Sm2  1  0.27226900  0.27226900  0.00000000  1
  Al  Al3  1  0.30303500  0.63080900  0.72023200  1
  Al  Al4  1  0.36919100  0.67222600  0.05356600  1
  Al  Al5  1  0.63080900  0.30303500  0.27976800  1
  Al  Al6  1  0.32777400  0.69696500  0.38689900  1
  Al  Al7  1  0.67222600  0.36919100  0.94643400  1
  Al  Al8  1  0.69696500  0.32777400  0.61310100  1
  Al  Al9  1  0.10008800  0.00000000  0.83333300  1
  Al  Al10  1  0.00000000  0.10008800  0.16666700  1
  Al  Al11  1  0.89991200  0.89991200  0.50000000  1
  Br  Br12  1  0.07789900  0.19850100  0.86588000  1
  Br  Br13  1  0.80149900  0.87939800  0.19921300  1
  Br  Br14  1  0.19850100  0.07789900  0.13412000  1
  Br  Br15  1  0.12060200  0.92210100  0.53254600  1
  Br  Br16  1  0.87939800  0.80149900  0.80078700  1
  Br  Br17  1  0.92210100  0.12060200  0.46745400  1
  Br  Br18  1  0.08237300  0.58714000  0.77646400  1
  Br  Br19  1  0.41286000  0.49523300  0.10979800  1
  Br  Br20  1  0.58714000  0.08237300  0.22353600  1
  Br  Br21  1  0.50476700  0.91762700  0.44313100  1
  Br  Br22  1  0.49523300  0.41286000  0.89020200  1
  Br  Br23  1  0.91762700  0.50476700  0.55686900  1
  Br  Br24  1  0.50320500  0.27590600  0.54422200  1
  Br  Br25  1  0.72409400  0.22729900  0.87755600  1
  Br  Br26  1  0.27590600  0.50320500  0.45577800  1
  Br  Br27  1  0.77270100  0.49679500  0.21088900  1
  Br  Br28  1  0.22729900  0.72409400  0.12244400  1
  Br  Br29  1  0.49679500  0.77270100  0.78911100  1
  Br  Br30  1  0.23538600  0.52223300  0.95654900  1
  Br  Br31  1  0.47776700  0.71315300  0.28988300  1
  Br  Br32  1  0.52223300  0.23538600  0.04345100  1
  Br  Br33  1  0.28684700  0.76461400  0.62321600  1
  Br  Br34  1  0.71315300  0.47776700  0.71011700  1
  Br  Br35  1  0.76461400  0.28684700  0.37678400  1
  Br  Br36  1  0.23158400  0.02473300  0.73049500  1
  Br  Br37  1  0.97526700  0.20685200  0.06382800  1
  Br  Br38  1  0.02473300  0.23158400  0.26950500  1
  Br  Br39  1  0.79314800  0.76841600  0.39716200  1
  Br  Br40  1  0.20685200  0.97526700  0.93617200  1
  Br  Br41  1  0.76841600  0.79314800  0.60283800  1
  Br  Br42  1  0.28344600  0.41968800  0.68305700  1
  Br  Br43  1  0.58031200  0.86375900  0.01639000  1
  Br  Br44  1  0.41968800  0.28344600  0.31694300  1
  Br  Br45  1  0.13624100  0.71655400  0.34972300  1
  Br  Br46  1  0.86375900  0.58031200  0.98361000  1
  Br  Br47  1  0.71655400  0.13624100  0.65027700  1
