# generated using pymatgen
data_PdF4
_symmetry_space_group_name_H-M   'P 1'
_cell_length_a   6.69143110
_cell_length_b   5.64944079
_cell_length_c   5.58209408
_cell_angle_alpha   73.13255756
_cell_angle_beta   53.89688145
_cell_angle_gamma   52.97056099
_symmetry_Int_Tables_number   1
_chemical_formula_structural   PdF4
_chemical_formula_sum   'Pd2 F8'
_cell_volume   135.42378856
_cell_formula_units_Z   2
loop_
 _symmetry_equiv_pos_site_id
 _symmetry_equiv_pos_as_xyz
  1  'x, y, z'
loop_
 _atom_site_type_symbol
 _atom_site_label
 _atom_site_symmetry_multiplicity
 _atom_site_fract_x
 _atom_site_fract_y
 _atom_site_fract_z
 _atom_site_occupancy
  Pd  Pd0  1  0.76179400  0.23820600  0.23820600  1
  Pd  Pd1  1  0.01179400  0.48820600  0.48820600  1
  F  F2  1  0.24028100  0.07084100  0.47932900  1
  F  F3  1  0.20954900  0.47932900  0.07084100  1
  F  F4  1  0.70926700  0.47916500  0.50945900  1
  F  F5  1  0.30210900  0.50945900  0.47916500  1
  F  F6  1  0.74054100  0.94789100  0.54073300  1
  F  F7  1  0.77083500  0.54073300  0.94789100  1
  F  F8  1  0.17915900  0.00971900  0.04045100  1
  F  F9  1  0.77067100  0.04045100  0.00971900  1
