# generated using pymatgen
data_Cs3Nb6SBr17
_symmetry_space_group_name_H-M   'P 1'
_cell_length_a   13.21319786
_cell_length_b   13.21319786
_cell_length_c   9.71889897
_cell_angle_alpha   89.76257416
_cell_angle_beta   89.76257416
_cell_angle_gamma   95.88831681
_symmetry_Int_Tables_number   1
_chemical_formula_structural   Cs3Nb6SBr17
_chemical_formula_sum   'Cs6 Nb12 S2 Br34'
_cell_volume   1687.82386983
_cell_formula_units_Z   2
loop_
 _symmetry_equiv_pos_site_id
 _symmetry_equiv_pos_as_xyz
  1  'x, y, z'
loop_
 _atom_site_type_symbol
 _atom_site_label
 _atom_site_symmetry_multiplicity
 _atom_site_fract_x
 _atom_site_fract_y
 _atom_site_fract_z
 _atom_site_occupancy
  Cs  Cs0  1  0.27447500  0.16928400  0.83740800  1
  Cs  Cs1  1  0.72552500  0.83071600  0.16259200  1
  Cs  Cs2  1  0.83071600  0.72552500  0.66259200  1
  Cs  Cs3  1  0.16928400  0.27447500  0.33740800  1
  Cs  Cs4  1  0.45258100  0.54741900  0.75000000  1
  Cs  Cs5  1  0.54741900  0.45258100  0.25000000  1
  Nb  Nb6  1  0.80276200  0.16449900  0.52211300  1
  Nb  Nb7  1  0.19723800  0.83550100  0.47788700  1
  Nb  Nb8  1  0.83550100  0.19723800  0.97788700  1
  Nb  Nb9  1  0.16449900  0.80276200  0.02211300  1
  Nb  Nb10  1  0.61711600  0.23916000  0.64292600  1
  Nb  Nb11  1  0.38288400  0.76084000  0.35707400  1
  Nb  Nb12  1  0.76084000  0.38288400  0.85707400  1
  Nb  Nb13  1  0.23916000  0.61711600  0.14292600  1
  Nb  Nb14  1  0.69568000  0.05254500  0.75885100  1
  Nb  Nb15  1  0.30432000  0.94745500  0.24114900  1
  Nb  Nb16  1  0.94745500  0.30432000  0.74114900  1
  Nb  Nb17  1  0.05254500  0.69568000  0.25885100  1
  S  S18  1  0.77687700  0.22312300  0.75000000  1
  S  S19  1  0.22312300  0.77687700  0.25000000  1
  Br  Br20  1  0.87043700  0.01054900  0.88571500  1
  Br  Br21  1  0.12956300  0.98945100  0.11428500  1
  Br  Br22  1  0.98945100  0.12956300  0.61428500  1
  Br  Br23  1  0.01054900  0.87043700  0.38571500  1
  Br  Br24  1  0.35922600  0.80010900  0.61707500  1
  Br  Br25  1  0.64077400  0.19989100  0.38292500  1
  Br  Br26  1  0.19989100  0.64077400  0.88292500  1
  Br  Br27  1  0.80010900  0.35922600  0.11707500  1
  Br  Br28  1  0.64967000  0.09931000  0.02041100  1
  Br  Br29  1  0.35033000  0.90069000  0.97958900  1
  Br  Br30  1  0.90069000  0.35033000  0.47958900  1
  Br  Br31  1  0.09931000  0.64967000  0.52041100  1
  Br  Br32  1  0.56150700  0.30986000  0.89162400  1
  Br  Br33  1  0.43849300  0.69014000  0.10837600  1
  Br  Br34  1  0.69014000  0.43849300  0.60837600  1
  Br  Br35  1  0.30986000  0.56150700  0.39162400  1
  Br  Br36  1  0.43463700  0.30652400  0.55818200  1
  Br  Br37  1  0.56536300  0.69347600  0.44181800  1
  Br  Br38  1  0.69347600  0.56536300  0.94181800  1
  Br  Br39  1  0.30652400  0.43463700  0.05818200  1
  Br  Br40  1  0.11973600  0.88026400  0.75000000  1
  Br  Br41  1  0.88026400  0.11973600  0.25000000  1
  Br  Br42  1  0.50796000  0.06455800  0.68076800  1
  Br  Br43  1  0.49204000  0.93544200  0.31923200  1
  Br  Br44  1  0.93544200  0.49204000  0.81923200  1
  Br  Br45  1  0.06455800  0.50796000  0.18076800  1
  Br  Br46  1  0.62753300  0.85662500  0.82558900  1
  Br  Br47  1  0.37246700  0.14337500  0.17441100  1
  Br  Br48  1  0.14337500  0.37246700  0.67441100  1
  Br  Br49  1  0.85662500  0.62753300  0.32558900  1
  Br  Br50  1  0.74207500  0.96932600  0.52299700  1
  Br  Br51  1  0.25792500  0.03067400  0.47700300  1
  Br  Br52  1  0.03067400  0.25792500  0.97700300  1
  Br  Br53  1  0.96932600  0.74207500  0.02299700  1
