# generated using pymatgen
data_Sr(GaRh)2
_symmetry_space_group_name_H-M   'P 1'
_cell_length_a   8.62172451
_cell_length_b   7.39248119
_cell_length_c   6.05500433
_cell_angle_alpha   79.06784736
_cell_angle_beta   57.33755680
_cell_angle_gamma   43.59459584
_symmetry_Int_Tables_number   1
_chemical_formula_structural   Sr(GaRh)2
_chemical_formula_sum   'Sr2 Ga4 Rh4'
_cell_volume   210.14213505
_cell_formula_units_Z   2
loop_
 _symmetry_equiv_pos_site_id
 _symmetry_equiv_pos_as_xyz
  1  'x, y, z'
loop_
 _atom_site_type_symbol
 _atom_site_label
 _atom_site_symmetry_multiplicity
 _atom_site_fract_x
 _atom_site_fract_y
 _atom_site_fract_z
 _atom_site_occupancy
  Sr  Sr0  1  0.50000000  0.50000000  0.50000000  1
  Sr  Sr1  1  0.75000000  0.75000000  0.75000000  1
  Ga  Ga2  1  0.81877600  0.18122400  0.81877600  1
  Ga  Ga3  1  0.18122400  0.81877600  0.18122400  1
  Ga  Ga4  1  0.43122400  0.06877600  0.43122400  1
  Ga  Ga5  1  0.06877600  0.43122400  0.06877600  1
  Rh  Rh6  1  0.11609700  0.11609700  0.88390300  1
  Rh  Rh7  1  0.88390300  0.88390300  0.11609700  1
  Rh  Rh8  1  0.13390300  0.13390300  0.36609700  1
  Rh  Rh9  1  0.36609700  0.36609700  0.13390300  1
