# generated using pymatgen
data_UP3O11
_symmetry_space_group_name_H-M   'P 1'
_cell_length_a   8.76845800
_cell_length_b   10.18149700
_cell_length_c   21.07841047
_cell_angle_alpha   86.23531724
_cell_angle_beta   90.00000000
_cell_angle_gamma   90.00000000
_symmetry_Int_Tables_number   1
_chemical_formula_structural   UP3O11
_chemical_formula_sum   'U8 P24 O88'
_cell_volume   1877.73610778
_cell_formula_units_Z   8
loop_
 _symmetry_equiv_pos_site_id
 _symmetry_equiv_pos_as_xyz
  1  'x, y, z'
loop_
 _atom_site_type_symbol
 _atom_site_label
 _atom_site_symmetry_multiplicity
 _atom_site_fract_x
 _atom_site_fract_y
 _atom_site_fract_z
 _atom_site_occupancy
  U  U0  1  0.87876000  0.79962700  0.59737400  1
  U  U1  1  0.12124000  0.20037300  0.40262600  1
  U  U2  1  0.37876000  0.20037300  0.90262600  1
  U  U3  1  0.62124000  0.79962700  0.09737400  1
  U  U4  1  0.11908400  0.71191300  0.85617300  1
  U  U5  1  0.88091600  0.28808700  0.14382700  1
  U  U6  1  0.61908400  0.28808700  0.64382700  1
  U  U7  1  0.38091600  0.71191300  0.35617300  1
  P  P8  1  0.25107500  0.36210700  0.55258700  1
  P  P9  1  0.74892500  0.63789300  0.44741300  1
  P  P10  1  0.75107500  0.63789300  0.94741300  1
  P  P11  1  0.24892500  0.36210700  0.05258700  1
  P  P12  1  0.78832400  0.85324000  0.76707500  1
  P  P13  1  0.21167600  0.14676000  0.23292500  1
  P  P14  1  0.28832400  0.14676000  0.73292500  1
  P  P15  1  0.71167600  0.85324000  0.26707500  1
  P  P16  1  0.22041300  0.87818000  0.69091800  1
  P  P17  1  0.77958700  0.12182000  0.30908200  1
  P  P18  1  0.72041300  0.12182000  0.80908200  1
  P  P19  1  0.27958700  0.87818000  0.19091800  1
  P  P20  1  0.04928200  0.30030200  0.66643000  1
  P  P21  1  0.95071800  0.69969800  0.33357000  1
  P  P22  1  0.54928200  0.69969800  0.83357000  1
  P  P23  1  0.45071800  0.30030200  0.16643000  1
  P  P24  1  0.44606300  0.80085700  0.59713500  1
  P  P25  1  0.55393700  0.19914300  0.40286500  1
  P  P26  1  0.94606300  0.19914300  0.90286500  1
  P  P27  1  0.05393700  0.80085700  0.09713500  1
  P  P28  1  0.22427000  0.64929300  0.52220300  1
  P  P29  1  0.77573000  0.35070700  0.47779700  1
  P  P30  1  0.72427000  0.35070700  0.97779700  1
  P  P31  1  0.27573000  0.64929300  0.02220300  1
  O  O32  1  0.11295900  0.18496500  0.71509200  1
  O  O33  1  0.88704100  0.81503500  0.28490800  1
  O  O34  1  0.61295900  0.81503500  0.78490800  1
  O  O35  1  0.38704100  0.18496500  0.21509200  1
  O  O36  1  0.78257200  0.68853700  0.51106200  1
  O  O37  1  0.21742800  0.31146300  0.48893800  1
  O  O38  1  0.28257200  0.31146300  0.98893800  1
  O  O39  1  0.71742800  0.68853700  0.01106200  1
  O  O40  1  0.91681700  0.64680200  0.64223300  1
  O  O41  1  0.08318300  0.35319800  0.35776700  1
  O  O42  1  0.41681700  0.35319800  0.85776700  1
  O  O43  1  0.58318300  0.64680200  0.14223300  1
  O  O44  1  0.07356800  0.43295800  0.69213900  1
  O  O45  1  0.92643200  0.56704200  0.30786100  1
  O  O46  1  0.57356800  0.56704200  0.80786100  1
  O  O47  1  0.42643200  0.43295800  0.19213900  1
  O  O48  1  0.17988100  0.50770000  0.55532100  1
  O  O49  1  0.82011900  0.49230000  0.44467900  1
  O  O50  1  0.67988100  0.49230000  0.94467900  1
  O  O51  1  0.32011900  0.50770000  0.05532100  1
  O  O52  1  0.14565400  0.27943600  0.60310500  1
  O  O53  1  0.85434600  0.72056400  0.39689500  1
  O  O54  1  0.64565400  0.72056400  0.89689500  1
  O  O55  1  0.35434600  0.27943600  0.10310500  1
  O  O56  1  0.79815400  0.88258700  0.69677500  1
  O  O57  1  0.20184600  0.11741300  0.30322500  1
  O  O58  1  0.29815400  0.11741300  0.80322500  1
  O  O59  1  0.70184600  0.88258700  0.19677500  1
  O  O60  1  0.41304100  0.36144500  0.57534400  1
  O  O61  1  0.58695900  0.63855500  0.42465600  1
  O  O62  1  0.91304100  0.63855500  0.92465600  1
  O  O63  1  0.08695900  0.36144500  0.07534400  1
  O  O64  1  0.84675900  0.95309200  0.55323700  1
  O  O65  1  0.15324100  0.04690800  0.44676300  1
  O  O66  1  0.34675900  0.04690800  0.94676300  1
  O  O67  1  0.65324100  0.95309200  0.05323700  1
  O  O68  1  0.81141900  0.98579500  0.80313200  1
  O  O69  1  0.18858100  0.01420500  0.19686800  1
  O  O70  1  0.31141900  0.01420500  0.69686800  1
  O  O71  1  0.68858100  0.98579500  0.30313200  1
  O  O72  1  0.37802600  0.68165100  0.56062200  1
  O  O73  1  0.62197400  0.31834900  0.43937800  1
  O  O74  1  0.87802600  0.31834900  0.93937800  1
  O  O75  1  0.12197400  0.68165100  0.06062200  1
  O  O76  1  0.23058100  0.63499100  0.95443300  1
  O  O77  1  0.76941900  0.36500900  0.04556700  1
  O  O78  1  0.73058100  0.36500900  0.54556700  1
  O  O79  1  0.26941900  0.63499100  0.45443300  1
  O  O80  1  0.89099600  0.75051100  0.79859800  1
  O  O81  1  0.10900400  0.24948900  0.20140200  1
  O  O82  1  0.39099600  0.24948900  0.70140200  1
  O  O83  1  0.60900400  0.75051100  0.29859800  1
  O  O84  1  0.13618200  0.55059200  0.82771900  1
  O  O85  1  0.86381800  0.44940800  0.17228100  1
  O  O86  1  0.63618200  0.44940800  0.67228100  1
  O  O87  1  0.36381800  0.55059200  0.32771900  1
  O  O88  1  0.09507200  0.89972100  0.64259300  1
  O  O89  1  0.90492800  0.10027900  0.35740700  1
  O  O90  1  0.59507200  0.10027900  0.85740700  1
  O  O91  1  0.40492800  0.89972100  0.14259300  1
  O  O92  1  0.35349000  0.78885700  0.66343500  1
  O  O93  1  0.64651000  0.21114300  0.33656500  1
  O  O94  1  0.85349000  0.21114300  0.83656500  1
  O  O95  1  0.14651000  0.78885700  0.16343500  1
  O  O96  1  0.09641300  0.87256700  0.88548100  1
  O  O97  1  0.90358700  0.12743300  0.11451900  1
  O  O98  1  0.59641300  0.12743300  0.61451900  1
  O  O99  1  0.40358700  0.87256700  0.38548100  1
  O  O100  1  0.09829900  0.74220300  0.53640800  1
  O  O101  1  0.90170100  0.25779700  0.46359200  1
  O  O102  1  0.59829900  0.25779700  0.96359200  1
  O  O103  1  0.40170100  0.74220300  0.03640800  1
  O  O104  1  0.17932000  0.81897600  0.75529900  1
  O  O105  1  0.82068000  0.18102400  0.24470100  1
  O  O106  1  0.67932000  0.18102400  0.74470100  1
  O  O107  1  0.32068000  0.81897600  0.25529900  1
  O  O108  1  0.38647000  0.73525500  0.84754700  1
  O  O109  1  0.61353000  0.26474500  0.15245300  1
  O  O110  1  0.88647000  0.26474500  0.65245300  1
  O  O111  1  0.11353000  0.73525500  0.34754700  1
  O  O112  1  0.42189300  0.93150900  0.56070200  1
  O  O113  1  0.57810700  0.06849100  0.43929800  1
  O  O114  1  0.92189300  0.06849100  0.93929800  1
  O  O115  1  0.07810700  0.93150900  0.06070200  1
  O  O116  1  0.88989700  0.76767200  0.11222500  1
  O  O117  1  0.11010300  0.23232800  0.88777500  1
  O  O118  1  0.38989700  0.23232800  0.38777500  1
  O  O119  1  0.61010300  0.76767200  0.61222500  1
