# generated using pymatgen
data_Ho4RuBr5
_symmetry_space_group_name_H-M   'P 1'
_cell_length_a   11.82913300
_cell_length_b   11.82913300
_cell_length_c   17.18829100
_cell_angle_alpha   90.00000000
_cell_angle_beta   90.00000000
_cell_angle_gamma   90.00000000
_symmetry_Int_Tables_number   1
_chemical_formula_structural   Ho4RuBr5
_chemical_formula_sum   'Ho32 Ru8 Br40'
_cell_volume   2405.12984406
_cell_formula_units_Z   8
loop_
 _symmetry_equiv_pos_site_id
 _symmetry_equiv_pos_as_xyz
  1  'x, y, z'
loop_
 _atom_site_type_symbol
 _atom_site_label
 _atom_site_symmetry_multiplicity
 _atom_site_fract_x
 _atom_site_fract_y
 _atom_site_fract_z
 _atom_site_occupancy
  Ho  Ho0  1  0.36878800  0.63121200  0.09277700  1
  Ho  Ho1  1  0.86878800  0.86878800  0.59277700  1
  Ho  Ho2  1  0.13121200  0.13121200  0.59277700  1
  Ho  Ho3  1  0.63121200  0.36878800  0.09277700  1
  Ho  Ho4  1  0.13121200  0.86878800  0.40722300  1
  Ho  Ho5  1  0.63121200  0.63121200  0.90722300  1
  Ho  Ho6  1  0.36878800  0.36878800  0.90722300  1
  Ho  Ho7  1  0.86878800  0.13121200  0.40722300  1
  Ho  Ho8  1  0.38381400  0.17222600  0.07650900  1
  Ho  Ho9  1  0.88381400  0.32777400  0.57650900  1
  Ho  Ho10  1  0.11618600  0.67222600  0.57650900  1
  Ho  Ho11  1  0.61618600  0.82777400  0.07650900  1
  Ho  Ho12  1  0.11618600  0.32777400  0.42349100  1
  Ho  Ho13  1  0.61618600  0.17222600  0.92349100  1
  Ho  Ho14  1  0.38381400  0.82777400  0.92349100  1
  Ho  Ho15  1  0.88381400  0.67222600  0.42349100  1
  Ho  Ho16  1  0.17222600  0.38381400  0.07650900  1
  Ho  Ho17  1  0.32777400  0.88381400  0.57650900  1
  Ho  Ho18  1  0.67222600  0.11618600  0.57650900  1
  Ho  Ho19  1  0.82777400  0.61618600  0.07650900  1
  Ho  Ho20  1  0.32777400  0.11618600  0.42349100  1
  Ho  Ho21  1  0.17222600  0.61618600  0.92349100  1
  Ho  Ho22  1  0.82777400  0.38381400  0.92349100  1
  Ho  Ho23  1  0.67222600  0.88381400  0.42349100  1
  Ho  Ho24  1  0.38689100  0.38689100  0.22670400  1
  Ho  Ho25  1  0.88689100  0.11310900  0.72670400  1
  Ho  Ho26  1  0.11310900  0.88689100  0.72670400  1
  Ho  Ho27  1  0.61310900  0.61310900  0.22670400  1
  Ho  Ho28  1  0.11310900  0.11310900  0.27329600  1
  Ho  Ho29  1  0.61310900  0.38689100  0.77329600  1
  Ho  Ho30  1  0.38689100  0.61310900  0.77329600  1
  Ho  Ho31  1  0.88689100  0.88689100  0.27329600  1
  Ru  Ru32  1  0.39788000  0.39788000  0.06970300  1
  Ru  Ru33  1  0.89788000  0.10212000  0.56970300  1
  Ru  Ru34  1  0.10212000  0.89788000  0.56970300  1
  Ru  Ru35  1  0.60212000  0.60212000  0.06970300  1
  Ru  Ru36  1  0.10212000  0.10212000  0.43029700  1
  Ru  Ru37  1  0.60212000  0.39788000  0.93029700  1
  Ru  Ru38  1  0.39788000  0.60212000  0.93029700  1
  Ru  Ru39  1  0.89788000  0.89788000  0.43029700  1
  Br  Br40  1  0.36725700  0.13274300  0.25000000  1
  Br  Br41  1  0.86725700  0.36725700  0.75000000  1
  Br  Br42  1  0.13274300  0.63274300  0.75000000  1
  Br  Br43  1  0.63274300  0.86725700  0.25000000  1
  Br  Br44  1  0.13274300  0.36725700  0.25000000  1
  Br  Br45  1  0.63274300  0.13274300  0.75000000  1
  Br  Br46  1  0.36725700  0.86725700  0.75000000  1
  Br  Br47  1  0.86725700  0.63274300  0.25000000  1
  Br  Br48  1  0.14121800  0.14121800  0.08954900  1
  Br  Br49  1  0.64121800  0.35878200  0.58954900  1
  Br  Br50  1  0.35878200  0.64121800  0.58954900  1
  Br  Br51  1  0.85878200  0.85878200  0.08954900  1
  Br  Br52  1  0.35878200  0.35878200  0.41045100  1
  Br  Br53  1  0.85878200  0.14121800  0.91045100  1
  Br  Br54  1  0.14121800  0.85878200  0.91045100  1
  Br  Br55  1  0.64121800  0.64121800  0.41045100  1
  Br  Br56  1  0.12519000  0.87481000  0.22951000  1
  Br  Br57  1  0.62519000  0.62519000  0.72951000  1
  Br  Br58  1  0.37481000  0.37481000  0.72951000  1
  Br  Br59  1  0.87481000  0.12519000  0.22951000  1
  Br  Br60  1  0.37481000  0.62519000  0.27049000  1
  Br  Br61  1  0.87481000  0.87481000  0.77049000  1
  Br  Br62  1  0.12519000  0.12519000  0.77049000  1
  Br  Br63  1  0.62519000  0.37481000  0.27049000  1
  Br  Br64  1  0.37662500  0.90080800  0.08786300  1
  Br  Br65  1  0.87662500  0.59919200  0.58786300  1
  Br  Br66  1  0.12337500  0.40080800  0.58786300  1
  Br  Br67  1  0.62337500  0.09919200  0.08786300  1
  Br  Br68  1  0.12337500  0.59919200  0.41213700  1
  Br  Br69  1  0.62337500  0.90080800  0.91213700  1
  Br  Br70  1  0.37662500  0.09919200  0.91213700  1
  Br  Br71  1  0.87662500  0.40080800  0.41213700  1
  Br  Br72  1  0.90080800  0.37662500  0.08786300  1
  Br  Br73  1  0.59919200  0.87662500  0.58786300  1
  Br  Br74  1  0.40080800  0.12337500  0.58786300  1
  Br  Br75  1  0.09919200  0.62337500  0.08786300  1
  Br  Br76  1  0.59919200  0.12337500  0.41213700  1
  Br  Br77  1  0.90080800  0.62337500  0.91213700  1
  Br  Br78  1  0.09919200  0.37662500  0.91213700  1
  Br  Br79  1  0.40080800  0.87662500  0.41213700  1
