# generated using pymatgen
data_LiGa(PO3)4
_symmetry_space_group_name_H-M   'P 1'
_cell_length_a   8.38356600
_cell_length_b   9.20569800
_cell_length_c   12.69074700
_cell_angle_alpha   90.00000000
_cell_angle_beta   90.00000000
_cell_angle_gamma   90.00000000
_symmetry_Int_Tables_number   1
_chemical_formula_structural   LiGa(PO3)4
_chemical_formula_sum   'Li4 Ga4 P16 O48'
_cell_volume   979.42840998
_cell_formula_units_Z   4
loop_
 _symmetry_equiv_pos_site_id
 _symmetry_equiv_pos_as_xyz
  1  'x, y, z'
loop_
 _atom_site_type_symbol
 _atom_site_label
 _atom_site_symmetry_multiplicity
 _atom_site_fract_x
 _atom_site_fract_y
 _atom_site_fract_z
 _atom_site_occupancy
  Li  Li0  1  0.00224500  0.25000000  0.00000000  1
  Li  Li1  1  0.99775500  0.75000000  0.00000000  1
  Li  Li2  1  0.49775500  0.75000000  0.50000000  1
  Li  Li3  1  0.50224500  0.25000000  0.50000000  1
  Ga  Ga4  1  0.37103700  0.25000000  0.00000000  1
  Ga  Ga5  1  0.62896300  0.75000000  0.00000000  1
  Ga  Ga6  1  0.12896300  0.75000000  0.50000000  1
  Ga  Ga7  1  0.87103700  0.25000000  0.50000000  1
  P  P8  1  0.18096300  0.00520400  0.13811600  1
  P  P9  1  0.81903700  0.99479600  0.86188400  1
  P  P10  1  0.31903700  0.50520400  0.36188400  1
  P  P11  1  0.18096300  0.49479600  0.86188400  1
  P  P12  1  0.68096300  0.49479600  0.63811600  1
  P  P13  1  0.81903700  0.50520400  0.13811600  1
  P  P14  1  0.31903700  0.99479600  0.63811600  1
  P  P15  1  0.68096300  0.00520400  0.36188400  1
  P  P16  1  0.03562600  0.01027200  0.35007200  1
  P  P17  1  0.96437400  0.98972800  0.64992800  1
  P  P18  1  0.46437400  0.51027200  0.14992800  1
  P  P19  1  0.03562600  0.48972800  0.64992800  1
  P  P20  1  0.53562600  0.48972800  0.85007200  1
  P  P21  1  0.96437400  0.51027200  0.35007200  1
  P  P22  1  0.46437400  0.98972800  0.85007200  1
  P  P23  1  0.53562600  0.01027200  0.14992800  1
  O  O24  1  0.36895300  0.37611200  0.12498000  1
  O  O25  1  0.63104700  0.62388800  0.87502000  1
  O  O26  1  0.13104700  0.87611200  0.37502000  1
  O  O27  1  0.36895300  0.12388800  0.87502000  1
  O  O28  1  0.86895300  0.12388800  0.62498000  1
  O  O29  1  0.63104700  0.87611200  0.12498000  1
  O  O30  1  0.13104700  0.62388800  0.62498000  1
  O  O31  1  0.86895300  0.37611200  0.37502000  1
  O  O32  1  0.03520800  0.12973700  0.43112900  1
  O  O33  1  0.96479200  0.87026300  0.56887100  1
  O  O34  1  0.46479200  0.62973700  0.06887100  1
  O  O35  1  0.03520800  0.37026300  0.56887100  1
  O  O36  1  0.53520800  0.37026300  0.93112900  1
  O  O37  1  0.96479200  0.62973700  0.43112900  1
  O  O38  1  0.46479200  0.87026300  0.93112900  1
  O  O39  1  0.53520800  0.12973700  0.06887100  1
  O  O40  1  0.10274300  0.07677100  0.24285400  1
  O  O41  1  0.89725700  0.92322900  0.75714600  1
  O  O42  1  0.39725700  0.57677100  0.25714600  1
  O  O43  1  0.10274300  0.42322900  0.75714600  1
  O  O44  1  0.60274300  0.42322900  0.74285400  1
  O  O45  1  0.89725700  0.57677100  0.24285400  1
  O  O46  1  0.39725700  0.92322900  0.74285400  1
  O  O47  1  0.60274300  0.07677100  0.25714600  1
  O  O48  1  0.40508000  0.37304000  0.39478500  1
  O  O49  1  0.59492000  0.62696000  0.60521500  1
  O  O50  1  0.09492000  0.87304000  0.10521500  1
  O  O51  1  0.40508000  0.12696000  0.60521500  1
  O  O52  1  0.90508000  0.12696000  0.89478500  1
  O  O53  1  0.59492000  0.87304000  0.39478500  1
  O  O54  1  0.09492000  0.62696000  0.89478500  1
  O  O55  1  0.90508000  0.37304000  0.10521500  1
  O  O56  1  0.19290600  0.13274200  0.06211300  1
  O  O57  1  0.80709400  0.86725800  0.93788700  1
  O  O58  1  0.30709400  0.63274200  0.43788700  1
  O  O59  1  0.19290600  0.36725800  0.93788700  1
  O  O60  1  0.69290600  0.36725800  0.56211300  1
  O  O61  1  0.80709400  0.63274200  0.06211300  1
  O  O62  1  0.30709400  0.86725800  0.56211300  1
  O  O63  1  0.69290600  0.13274200  0.43788700  1
  O  O64  1  0.14282500  0.46440000  0.32020400  1
  O  O65  1  0.85717500  0.53560000  0.67979600  1
  O  O66  1  0.35717500  0.96440000  0.17979600  1
  O  O67  1  0.14282500  0.03560000  0.67979600  1
  O  O68  1  0.64282500  0.03560000  0.82020400  1
  O  O69  1  0.85717500  0.96440000  0.32020400  1
  O  O70  1  0.35717500  0.53560000  0.82020400  1
  O  O71  1  0.64282500  0.46440000  0.17979600  1
