# generated using pymatgen
data_Li3MnP2(O3F2)2
_symmetry_space_group_name_H-M   'P 1'
_cell_length_a   6.45519390
_cell_length_b   7.48428500
_cell_length_c   15.55608652
_cell_angle_alpha   89.99998493
_cell_angle_beta   91.01913896
_cell_angle_gamma   90.00018074
_symmetry_Int_Tables_number   1
_chemical_formula_structural   Li3MnP2(O3F2)2
_chemical_formula_sum   'Li12 Mn4 P8 O24 F16'
_cell_volume   751.43471004
_cell_formula_units_Z   4
loop_
 _symmetry_equiv_pos_site_id
 _symmetry_equiv_pos_as_xyz
  1  'x, y, z'
loop_
 _atom_site_type_symbol
 _atom_site_label
 _atom_site_symmetry_multiplicity
 _atom_site_fract_x
 _atom_site_fract_y
 _atom_site_fract_z
 _atom_site_occupancy
  Li  Li0  1  0.50009100  0.49993300  0.00001000  1
  Li  Li1  1  0.49988100  0.50006200  0.49994600  1
  Li  Li2  1  0.49989300  0.99994000  0.24999100  1
  Li  Li3  1  0.50014100  0.00006800  0.75005900  1
  Li  Li4  1  0.25934600  0.23583800  0.41176100  1
  Li  Li5  1  0.25942700  0.23561600  0.91177500  1
  Li  Li6  1  0.74055200  0.73560300  0.33823100  1
  Li  Li7  1  0.74061100  0.73586900  0.83823900  1
  Li  Li8  1  0.74063100  0.76428700  0.08824500  1
  Li  Li9  1  0.74056700  0.76430600  0.58819600  1
  Li  Li10  1  0.25934700  0.26429200  0.16174600  1
  Li  Li11  1  0.25945100  0.26429400  0.66180100  1
  Mn  Mn12  1  0.00005900  0.49999800  0.49999100  1
  Mn  Mn13  1  0.99997500  0.99992700  0.74997500  1
  Mn  Mn14  1  0.00001600  0.50002300  0.99999500  1
  Mn  Mn15  1  0.00003800  0.00003200  0.25000400  1
  P  P16  1  0.25119400  0.83971100  0.07066200  1
  P  P17  1  0.25127300  0.83965200  0.57066800  1
  P  P18  1  0.74880900  0.33969000  0.17933600  1
  P  P19  1  0.74875100  0.33962800  0.67932600  1
  P  P20  1  0.74875900  0.16031500  0.42934900  1
  P  P21  1  0.74872400  0.16032600  0.92933100  1
  P  P22  1  0.25128300  0.66029400  0.32066100  1
  P  P23  1  0.25125100  0.66028700  0.82065000  1
  O  O24  1  0.23564400  0.54059200  0.39951400  1
  O  O25  1  0.23590100  0.54055800  0.89954100  1
  O  O26  1  0.76410100  0.04057000  0.35046300  1
  O  O27  1  0.76439000  0.04059500  0.85048500  1
  O  O28  1  0.76415200  0.45946500  0.10047800  1
  O  O29  1  0.76433400  0.45934200  0.60046500  1
  O  O30  1  0.23585900  0.95946800  0.14952200  1
  O  O31  1  0.23569600  0.95935600  0.64953500  1
  O  O32  1  0.94903600  0.27392900  0.44076900  1
  O  O33  1  0.94906800  0.27395900  0.94075800  1
  O  O34  1  0.05091100  0.77391400  0.30924300  1
  O  O35  1  0.05097100  0.77390800  0.80923100  1
  O  O36  1  0.05087900  0.72610800  0.05927200  1
  O  O37  1  0.05090400  0.72607000  0.55924400  1
  O  O38  1  0.94911200  0.22607300  0.19072700  1
  O  O39  1  0.94910000  0.22604100  0.69075800  1
  O  O40  1  0.55195300  0.26419400  0.43902400  1
  O  O41  1  0.55187200  0.26430000  0.93900400  1
  O  O42  1  0.44811300  0.76430100  0.31099200  1
  O  O43  1  0.44803800  0.76419500  0.81096500  1
  O  O44  1  0.44807200  0.73582800  0.06105200  1
  O  O45  1  0.44802700  0.73564800  0.56096600  1
  O  O46  1  0.55190700  0.23583800  0.18894500  1
  O  O47  1  0.55198000  0.23564900  0.68903100  1
  F  F48  1  0.23350300  0.38636700  0.05403500  1
  F  F49  1  0.23343100  0.38626700  0.55403000  1
  F  F50  1  0.76643400  0.88629900  0.19598500  1
  F  F51  1  0.76655600  0.88622600  0.69597800  1
  F  F52  1  0.76637300  0.61373800  0.44599700  1
  F  F53  1  0.76649900  0.61381600  0.94601200  1
  F  F54  1  0.23343700  0.11374900  0.30400500  1
  F  F55  1  0.23363800  0.11370000  0.80400300  1
  F  F56  1  0.23825500  0.97423600  0.49017600  1
  F  F57  1  0.23845200  0.97441500  0.99022700  1
  F  F58  1  0.76156900  0.47441200  0.25978100  1
  F  F59  1  0.76175700  0.47422000  0.75982900  1
  F  F60  1  0.76172000  0.02569300  0.00981800  1
  F  F61  1  0.76151700  0.02565200  0.50982200  1
  F  F62  1  0.23828000  0.52567800  0.24018800  1
  F  F63  1  0.23849300  0.52564100  0.74018300  1
