# generated using pymatgen
data_NdVO4
_symmetry_space_group_name_H-M   'P 1'
_cell_length_a   6.18408901
_cell_length_b   6.18408901
_cell_length_c   6.18408901
_cell_angle_alpha   106.05086615
_cell_angle_beta   106.05086615
_cell_angle_gamma   116.55256869
_symmetry_Int_Tables_number   1
_chemical_formula_structural   NdVO4
_chemical_formula_sum   'Nd2 V2 O8'
_cell_volume   179.94573658
_cell_formula_units_Z   2
loop_
 _symmetry_equiv_pos_site_id
 _symmetry_equiv_pos_as_xyz
  1  'x, y, z'
loop_
 _atom_site_type_symbol
 _atom_site_label
 _atom_site_symmetry_multiplicity
 _atom_site_fract_x
 _atom_site_fract_y
 _atom_site_fract_z
 _atom_site_occupancy
  Nd  Nd0  1  0.75000000  0.25000000  0.50000000  1
  Nd  Nd1  1  0.50000000  0.50000000  0.00000000  1
  V  V2  1  0.00000000  0.00000000  0.00000000  1
  V  V3  1  0.25000000  0.75000000  0.50000000  1
  O  O4  1  0.82866200  0.64847200  0.81981000  1
  O  O5  1  0.82866200  0.00885200  0.18019000  1
  O  O6  1  0.35152800  0.17133800  0.18019000  1
  O  O7  1  0.42133800  0.74114800  0.31981000  1
  O  O8  1  0.42133800  0.10152800  0.68019000  1
  O  O9  1  0.99114800  0.17133800  0.81981000  1
  O  O10  1  0.25885200  0.57866200  0.68019000  1
  O  O11  1  0.89847200  0.57866200  0.31981000  1
