# generated using pymatgen
data_CdSnSb2
_symmetry_space_group_name_H-M   'P 1'
_cell_length_a   8.07568119
_cell_length_b   8.07568119
_cell_length_c   8.07568119
_cell_angle_alpha   131.41816482
_cell_angle_beta   131.41816482
_cell_angle_gamma   71.14953934
_symmetry_Int_Tables_number   1
_chemical_formula_structural   CdSnSb2
_chemical_formula_sum   'Cd2 Sn2 Sb4'
_cell_volume   289.96373679
_cell_formula_units_Z   2
loop_
 _symmetry_equiv_pos_site_id
 _symmetry_equiv_pos_as_xyz
  1  'x, y, z'
loop_
 _atom_site_type_symbol
 _atom_site_label
 _atom_site_symmetry_multiplicity
 _atom_site_fract_x
 _atom_site_fract_y
 _atom_site_fract_z
 _atom_site_occupancy
  Cd  Cd0  1  0.75000000  0.25000000  0.50000000  1
  Cd  Cd1  1  0.00000000  0.00000000  0.00000000  1
  Sn  Sn2  1  0.25000000  0.75000000  0.50000000  1
  Sn  Sn3  1  0.50000000  0.50000000  0.00000000  1
  Sb  Sb4  1  0.12292600  0.12500000  0.49792600  1
  Sb  Sb5  1  0.87500000  0.37292600  0.99792600  1
  Sb  Sb6  1  0.37500000  0.87707400  0.00207400  1
  Sb  Sb7  1  0.62707400  0.62500000  0.50207400  1
