# generated using pymatgen
data_K30Ga9As19
_symmetry_space_group_name_H-M   'P 1'
_cell_length_a   15.83599105
_cell_length_b   17.76110965
_cell_length_c   17.76069183
_cell_angle_alpha   111.55714186
_cell_angle_beta   107.29471383
_cell_angle_gamma   107.29032741
_symmetry_Int_Tables_number   1
_chemical_formula_structural   K30Ga9As19
_chemical_formula_sum   'K60 Ga18 As38'
_cell_volume   3944.03962794
_cell_formula_units_Z   2
loop_
 _symmetry_equiv_pos_site_id
 _symmetry_equiv_pos_as_xyz
  1  'x, y, z'
loop_
 _atom_site_type_symbol
 _atom_site_label
 _atom_site_symmetry_multiplicity
 _atom_site_fract_x
 _atom_site_fract_y
 _atom_site_fract_z
 _atom_site_occupancy
  K  K0  1  0.58631859  0.11688710  0.39313102  1
  K  K1  1  0.25339143  0.11658891  0.39349331  1
  K  K2  1  0.92059627  0.11691562  0.39312229  1
  K  K3  1  0.80372739  0.27626058  0.88315666  1
  K  K4  1  0.46941867  0.27627795  0.88315244  1
  K  K5  1  0.13682933  0.27698600  0.88348065  1
  K  K6  1  0.85994085  0.60648666  0.72308007  1
  K  K7  1  0.52763527  0.60690258  0.72382542  1
  K  K8  1  0.19326709  0.60688577  0.72379359  1
  K  K9  1  0.08035035  0.88311194  0.60687010  1
  K  K10  1  0.74606631  0.88308609  0.60688024  1
  K  K11  1  0.41327460  0.88341205  0.60650466  1
  K  K12  1  0.86294181  0.72374397  0.11684916  1
  K  K13  1  0.52983484  0.72301245  0.11652100  1
  K  K14  1  0.19725273  0.72372567  0.11685174  1
  K  K15  1  0.80672392  0.39351233  0.27692218  1
  K  K16  1  0.47340440  0.39311777  0.27620853  1
  K  K17  1  0.13903346  0.39309641  0.27617825  1
  K  K18  1  0.74988481  0.33309314  0.66662354  1
  K  K19  1  0.41672088  0.33336010  0.66685643  1
  K  K20  1  0.08329564  0.33334751  0.66657287  1
  K  K21  1  0.91677973  0.66690520  0.33337307  1
  K  K22  1  0.58336999  0.66664861  0.33342438  1
  K  K23  1  0.24995039  0.66664324  0.33314872  1
  K  K24  1  0.69835604  0.00846567  0.81864978  1
  K  K25  1  0.35319393  0.00852072  0.81871618  1
  K  K26  1  0.02397363  0.00933583  0.81314159  1
  K  K27  1  0.01472163  0.80375360  0.99064463  1
  K  K28  1  0.68980518  0.81013253  0.99149311  1
  K  K29  1  0.34465524  0.81019611  0.99145611  1
  K  K30  1  0.53445805  0.18129609  0.18983554  1
  K  K31  1  0.21099743  0.18681274  0.19618179  1
  K  K32  1  0.87966358  0.18138108  0.18989701  1
  K  K33  1  0.96830643  0.99153241  0.18134398  1
  K  K34  1  0.64269757  0.99066942  0.18687109  1
  K  K35  1  0.31347542  0.99148273  0.18128933  1
  K  K36  1  0.65193989  0.19623947  0.00934428  1
  K  K37  1  0.32200939  0.18980668  0.00854138  1
  K  K38  1  0.97686352  0.18987042  0.00851045  1
  K  K39  1  0.13221164  0.81870274  0.81016504  1
  K  K40  1  0.78700316  0.81862324  0.81010179  1
  K  K41  1  0.45566115  0.81317592  0.80380606  1
  K  K42  1  0.97510370  0.06455689  0.61089984  1
  K  K43  1  0.30865896  0.06445987  0.61186123  1
  K  K44  1  0.64219563  0.06438810  0.61179566  1
  K  K45  1  0.24422300  0.54740836  0.93555494  1
  K  K46  1  0.57784526  0.54738217  0.93561360  1
  K  K47  1  0.91057839  0.54624851  0.93546332  1
  K  K48  1  0.03037017  0.38810347  0.45249705  1
  K  K49  1  0.36416571  0.38900216  0.45356771  1
  K  K50  1  0.69671168  0.38801886  0.45247798  1
  K  K51  1  0.35801133  0.93554057  0.38813768  1
  K  K52  1  0.69156904  0.93544692  0.38910087  1
  K  K53  1  0.02446359  0.93560994  0.38820315  1
  K  K54  1  0.08881980  0.45261864  0.06438744  1
  K  K55  1  0.42244448  0.45258906  0.06444261  1
  K  K56  1  0.75609161  0.45374880  0.06453804  1
  K  K57  1  0.30249764  0.61099393  0.54643450  1
  K  K58  1  0.63629310  0.61189621  0.54749879  1
  K  K59  1  0.96996035  0.61198067  0.54752334  1
  Ga  Ga60  1  0.76760889  0.77517638  0.28044152  1
  Ga  Ga61  1  0.43589273  0.77478114  0.28024399  1
  Ga  Ga62  1  0.10162203  0.77539682  0.27930881  1
  Ga  Ga63  1  0.66112626  0.50556054  0.22525277  1
  Ga  Ga64  1  0.32621063  0.50398888  0.22464598  1
  Ga  Ga65  1  0.99244350  0.50529201  0.22481852  1
  Ga  Ga66  1  0.82224920  0.72066145  0.49602180  1
  Ga  Ga67  1  0.48717454  0.71952983  0.49471456  1
  Ga  Ga68  1  0.15560563  0.71972183  0.49447395  1
  Ga  Ga69  1  0.89905628  0.22482294  0.71955643  1
  Ga  Ga70  1  0.56504607  0.22460351  0.72069316  1
  Ga  Ga71  1  0.23077422  0.22521927  0.71975574  1
  Ga  Ga72  1  0.00554020  0.49443937  0.77474666  1
  Ga  Ga73  1  0.67422202  0.49470754  0.77517878  1
  Ga  Ga74  1  0.34045578  0.49601117  0.77535387  1
  Ga  Ga75  1  0.84441799  0.27934029  0.50398016  1
  Ga  Ga76  1  0.51106294  0.28027869  0.50552741  1
  Ga  Ga77  1  0.17949159  0.28047001  0.50528510  1
  As  As78  1  0.78547672  0.88271580  0.22804668  1
  As  As79  1  0.45484563  0.88245026  0.22794430  1
  As  As80  1  0.12002885  0.88343718  0.22663500  1
  As  As81  1  0.57232103  0.34559450  0.11758444  1
  As  As82  1  0.23652249  0.34327750  0.11666342  1
  As  As83  1  0.90274370  0.34532458  0.11732251  1
  As  As84  1  0.89335747  0.77333402  0.65675695  1
  As  As85  1  0.55745080  0.77192057  0.65467921  1
  As  As86  1  0.22683009  0.77204391  0.65446853  1
  As  As87  1  0.88118920  0.11728551  0.77195411  1
  As  As88  1  0.54663913  0.11656553  0.77336553  1
  As  As89  1  0.21182034  0.11754690  0.77205528  1
  As  As90  1  0.09434618  0.65440195  0.88241364  1
  As  As91  1  0.76392338  0.65467640  0.88267794  1
  As  As92  1  0.43014344  0.65672252  0.88333807  1
  As  As93  1  0.77330840  0.22666574  0.34324272  1
  As  As94  1  0.43983533  0.22795726  0.34553005  1
  As  As95  1  0.10921392  0.22807755  0.34531997  1
  As  As96  1  0.84408665  0.83507179  0.44667076  1
  As  As97  1  0.51009925  0.83460597  0.44622691  1
  As  As98  1  0.17700086  0.83509657  0.44574239  1
  As  As99  1  0.67549328  0.61162938  0.16531013  1
  As  As100  1  0.34194929  0.61067960  0.16488710  1
  As  As101  1  0.00904930  0.61162459  0.16492325  1
  As  As102  1  0.73115693  0.55425364  0.38934366  1
  As  As103  1  0.39732740  0.55333344  0.38839424  1
  As  As104  1  0.06378735  0.55376455  0.38839545  1
  As  As105  1  0.82258010  0.16492693  0.55332967  1
  As  As106  1  0.48966623  0.16490335  0.55425747  1
  As  As107  1  0.15656850  0.16539417  0.55377231  1
  As  As108  1  0.99117358  0.38836936  0.83468807  1
  As  As109  1  0.65761801  0.38837630  0.83507720  1
  As  As110  1  0.32471728  0.38931997  0.83511305  1
  As  As111  1  0.93550860  0.44574595  0.61065770  1
  As  As112  1  0.60287822  0.44623378  0.61160221  1
  As  As113  1  0.26933844  0.44666647  0.61160535  1
  As  As114  1  0.83333389  0.00000452  -0.00000025  1
  As  As115  1  0.33333117  0.00000215  -0.00000145  1
