# generated using pymatgen
data_YSiRh
_symmetry_space_group_name_H-M   'P 1'
_cell_length_a   4.24875500
_cell_length_b   6.91684500
_cell_length_c   7.45889800
_cell_angle_alpha   90.00000000
_cell_angle_beta   90.00000000
_cell_angle_gamma   90.00000000
_symmetry_Int_Tables_number   1
_chemical_formula_structural   YSiRh
_chemical_formula_sum   'Y4 Si4 Rh4'
_cell_volume   219.20194359
_cell_formula_units_Z   4
loop_
 _symmetry_equiv_pos_site_id
 _symmetry_equiv_pos_as_xyz
  1  'x, y, z'
loop_
 _atom_site_type_symbol
 _atom_site_label
 _atom_site_symmetry_multiplicity
 _atom_site_fract_x
 _atom_site_fract_y
 _atom_site_fract_z
 _atom_site_occupancy
  Y  Y0  1  0.75000000  0.49882400  0.31021600  1
  Y  Y1  1  0.25000000  0.00117600  0.81021600  1
  Y  Y2  1  0.75000000  0.99882400  0.18978400  1
  Y  Y3  1  0.25000000  0.50117600  0.68978400  1
  Si  Si4  1  0.25000000  0.29658300  0.10325900  1
  Si  Si5  1  0.25000000  0.79658300  0.39674100  1
  Si  Si6  1  0.75000000  0.70341700  0.89674100  1
  Si  Si7  1  0.75000000  0.20341700  0.60325900  1
  Rh  Rh8  1  0.25000000  0.65399900  0.06956800  1
  Rh  Rh9  1  0.25000000  0.15399900  0.43043200  1
  Rh  Rh10  1  0.75000000  0.84600100  0.56956800  1
  Rh  Rh11  1  0.75000000  0.34600100  0.93043200  1
