# generated using pymatgen
data_SmAl3Cu
_symmetry_space_group_name_H-M   'P 1'
_cell_length_a   6.07805100
_cell_length_b   6.07805100
_cell_length_c   6.07805100
_cell_angle_alpha   139.70751887
_cell_angle_beta   139.70751887
_cell_angle_gamma   58.29765978
_symmetry_Int_Tables_number   1
_chemical_formula_structural   SmAl3Cu
_chemical_formula_sum   'Sm1 Al3 Cu1'
_cell_volume   93.04978975
_cell_formula_units_Z   1
loop_
 _symmetry_equiv_pos_site_id
 _symmetry_equiv_pos_as_xyz
  1  'x, y, z'
loop_
 _atom_site_type_symbol
 _atom_site_label
 _atom_site_symmetry_multiplicity
 _atom_site_fract_x
 _atom_site_fract_y
 _atom_site_fract_z
 _atom_site_occupancy
  Sm  Sm0  1  0.99354500  0.99354500  0.00000000  1
  Al  Al1  1  0.74193000  0.24193000  0.50000000  1
  Al  Al2  1  0.24193000  0.74193000  0.50000000  1
  Al  Al3  1  0.40063000  0.40063000  0.00000000  1
  Cu  Cu4  1  0.62196300  0.62196300  0.00000000  1
