# generated using pymatgen
data_Na2YF6
_symmetry_space_group_name_H-M   'P 1'
_cell_length_a   6.08152376
_cell_length_b   6.08152376
_cell_length_c   3.60521500
_cell_angle_alpha   90.00000000
_cell_angle_beta   90.00000000
_cell_angle_gamma   119.99999738
_symmetry_Int_Tables_number   1
_chemical_formula_structural   Na2YF6
_chemical_formula_sum   'Na2 Y1 F6'
_cell_volume   115.47464295
_cell_formula_units_Z   1
loop_
 _symmetry_equiv_pos_site_id
 _symmetry_equiv_pos_as_xyz
  1  'x, y, z'
loop_
 _atom_site_type_symbol
 _atom_site_label
 _atom_site_symmetry_multiplicity
 _atom_site_fract_x
 _atom_site_fract_y
 _atom_site_fract_z
 _atom_site_occupancy
  Na  Na0  1  0.33333300  0.66666700  0.50000000  1
  Na  Na1  1  0.66666700  0.33333300  0.50000000  1
  Y  Y2  1  0.00000000  0.00000000  0.00000000  1
  F  F3  1  0.62535100  0.00000000  0.00000000  1
  F  F4  1  0.00000000  0.62535100  0.00000000  1
  F  F5  1  0.37464900  0.37464900  0.00000000  1
  F  F6  1  0.24870500  0.00000000  0.50000000  1
  F  F7  1  0.00000000  0.24870500  0.50000000  1
  F  F8  1  0.75129500  0.75129500  0.50000000  1
