# generated using pymatgen
data_CrF6
_symmetry_space_group_name_H-M   'P 1'
_cell_length_a   5.56707873
_cell_length_b   5.56707873
_cell_length_c   5.56707861
_cell_angle_alpha   57.63461082
_cell_angle_beta   57.63461082
_cell_angle_gamma   57.63461117
_symmetry_Int_Tables_number   1
_chemical_formula_structural   CrF6
_chemical_formula_sum   'Cr1 F6'
_cell_volume   115.36943933
_cell_formula_units_Z   1
loop_
 _symmetry_equiv_pos_site_id
 _symmetry_equiv_pos_as_xyz
  1  'x, y, z'
loop_
 _atom_site_type_symbol
 _atom_site_label
 _atom_site_symmetry_multiplicity
 _atom_site_fract_x
 _atom_site_fract_y
 _atom_site_fract_z
 _atom_site_occupancy
  Cr  Cr0  1  0.00000000  0.00000000  0.00000000  1
  F  F1  1  0.87712800  0.21552100  0.68788800  1
  F  F2  1  0.21552100  0.68788800  0.87712800  1
  F  F3  1  0.31211200  0.12287200  0.78447900  1
  F  F4  1  0.78447900  0.31211200  0.12287200  1
  F  F5  1  0.12287200  0.78447900  0.31211200  1
  F  F6  1  0.68788800  0.87712800  0.21552100  1
