# generated using pymatgen
data_Tl6V7P5O31
_symmetry_space_group_name_H-M   'P 1'
_cell_length_a   7.27913800
_cell_length_b   13.58478500
_cell_length_c   14.72061300
_cell_angle_alpha   90.00000000
_cell_angle_beta   90.00000000
_cell_angle_gamma   90.00000000
_symmetry_Int_Tables_number   1
_chemical_formula_structural   Tl6V7P5O31
_chemical_formula_sum   'Tl12 V14 P10 O62'
_cell_volume   1455.65554064
_cell_formula_units_Z   2
loop_
 _symmetry_equiv_pos_site_id
 _symmetry_equiv_pos_as_xyz
  1  'x, y, z'
loop_
 _atom_site_type_symbol
 _atom_site_label
 _atom_site_symmetry_multiplicity
 _atom_site_fract_x
 _atom_site_fract_y
 _atom_site_fract_z
 _atom_site_occupancy
  Tl  Tl0  1  0.87620500  0.00000000  0.57639700  1
  Tl  Tl1  1  0.12379500  0.50000000  0.07639700  1
  Tl  Tl2  1  0.14607200  0.25685600  0.90422500  1
  Tl  Tl3  1  0.14607200  0.74314400  0.90422500  1
  Tl  Tl4  1  0.85392800  0.24314400  0.40422500  1
  Tl  Tl5  1  0.85392800  0.75685600  0.40422500  1
  Tl  Tl6  1  0.38448000  0.00000000  0.05199500  1
  Tl  Tl7  1  0.61552000  0.50000000  0.55199500  1
  Tl  Tl8  1  0.35567700  0.23611800  0.22175900  1
  Tl  Tl9  1  0.35567700  0.76388200  0.22175900  1
  Tl  Tl10  1  0.64432300  0.26388200  0.72175900  1
  Tl  Tl11  1  0.64432300  0.73611800  0.72175900  1
  V  V12  1  0.90942000  0.12714300  0.13576300  1
  V  V13  1  0.90942000  0.87285700  0.13576300  1
  V  V14  1  0.09058000  0.37285700  0.63576300  1
  V  V15  1  0.09058000  0.62714300  0.63576300  1
  V  V16  1  0.49344800  0.00000000  0.80249200  1
  V  V17  1  0.50655200  0.50000000  0.30249200  1
  V  V18  1  0.99356400  0.00000000  0.81913000  1
  V  V19  1  0.00643600  0.50000000  0.31913000  1
  V  V20  1  0.59129900  0.37553200  0.98490400  1
  V  V21  1  0.59129900  0.62446800  0.98490400  1
  V  V22  1  0.40870100  0.12446800  0.48490400  1
  V  V23  1  0.40870100  0.87553200  0.48490400  1
  V  V24  1  0.02141700  0.00000000  0.32204300  1
  V  V25  1  0.97858300  0.50000000  0.82204300  1
  P  P26  1  0.71430100  0.15028300  0.94110500  1
  P  P27  1  0.71430100  0.84971700  0.94110500  1
  P  P28  1  0.28569900  0.34971700  0.44110500  1
  P  P29  1  0.28569900  0.65028300  0.44110500  1
  P  P30  1  0.78357500  0.35000000  0.18032900  1
  P  P31  1  0.78357500  0.65000000  0.18032900  1
  P  P32  1  0.21642500  0.15000000  0.68032900  1
  P  P33  1  0.21642500  0.85000000  0.68032900  1
  P  P34  1  0.39153900  0.50000000  0.82786100  1
  P  P35  1  0.60846100  0.00000000  0.32786100  1
  O  O36  1  0.04021700  0.89418000  0.72364500  1
  O  O37  1  0.04021700  0.10582000  0.72364500  1
  O  O38  1  0.95978300  0.60582000  0.22364500  1
  O  O39  1  0.95978300  0.39418000  0.22364500  1
  O  O40  1  0.42319700  0.31247600  0.03158600  1
  O  O41  1  0.42319700  0.68752400  0.03158600  1
  O  O42  1  0.57680300  0.18752400  0.53158600  1
  O  O43  1  0.57680300  0.81247600  0.53158600  1
  O  O44  1  0.17330500  0.00000000  0.40734400  1
  O  O45  1  0.82669500  0.50000000  0.90734400  1
  O  O46  1  0.21329900  0.00000000  0.85835200  1
  O  O47  1  0.78670100  0.50000000  0.35835200  1
  O  O48  1  0.52787200  0.50000000  0.01819100  1
  O  O49  1  0.47212800  0.00000000  0.51819100  1
  O  O50  1  0.65155000  0.00000000  0.22711800  1
  O  O51  1  0.34845000  0.50000000  0.72711800  1
  O  O52  1  0.89004000  0.10590300  0.89848300  1
  O  O53  1  0.89004000  0.89409700  0.89848300  1
  O  O54  1  0.10996000  0.39409700  0.39848300  1
  O  O55  1  0.10996000  0.60590300  0.39848300  1
  O  O56  1  0.70653400  0.13064800  0.04510600  1
  O  O57  1  0.70653400  0.86935200  0.04510600  1
  O  O58  1  0.29346600  0.36935200  0.54510600  1
  O  O59  1  0.29346600  0.63064800  0.54510600  1
  O  O60  1  0.03195900  0.10704900  0.25696000  1
  O  O61  1  0.03195900  0.89295100  0.25696000  1
  O  O62  1  0.96804100  0.39295100  0.75696000  1
  O  O63  1  0.96804100  0.60704900  0.75696000  1
  O  O64  1  0.53758200  0.10489200  0.89906400  1
  O  O65  1  0.53758200  0.89510800  0.89906400  1
  O  O66  1  0.46241800  0.39510800  0.39906400  1
  O  O67  1  0.46241800  0.60489200  0.39906400  1
  O  O68  1  0.77531300  0.23698900  0.19934200  1
  O  O69  1  0.77531300  0.76301100  0.19934200  1
  O  O70  1  0.22468700  0.26301100  0.69934200  1
  O  O71  1  0.22468700  0.73698900  0.69934200  1
  O  O72  1  0.39215500  0.89425200  0.72296000  1
  O  O73  1  0.39215500  0.10574800  0.72296000  1
  O  O74  1  0.60784500  0.60574800  0.22296000  1
  O  O75  1  0.60784500  0.39425200  0.22296000  1
  O  O76  1  0.72192300  0.26299400  0.92107100  1
  O  O77  1  0.72192300  0.73700600  0.92107100  1
  O  O78  1  0.27807700  0.23700600  0.42107100  1
  O  O79  1  0.27807700  0.76299400  0.42107100  1
  O  O80  1  0.49202300  0.40443600  0.85900300  1
  O  O81  1  0.49202300  0.59556400  0.85900300  1
  O  O82  1  0.50797700  0.09556400  0.35900300  1
  O  O83  1  0.50797700  0.90443600  0.35900300  1
  O  O84  1  0.07575500  0.18759700  0.08453000  1
  O  O85  1  0.07575500  0.81240300  0.08453000  1
  O  O86  1  0.92424500  0.31240300  0.58453000  1
  O  O87  1  0.92424500  0.68759700  0.58453000  1
  O  O88  1  0.71394700  0.00000000  0.76400700  1
  O  O89  1  0.28605300  0.50000000  0.26400700  1
  O  O90  1  0.96173100  0.00000000  0.10777400  1
  O  O91  1  0.03826900  0.50000000  0.60777400  1
  O  O92  1  0.79173700  0.36959500  0.07637800  1
  O  O93  1  0.79173700  0.63040500  0.07637800  1
  O  O94  1  0.20826300  0.13040500  0.57637800  1
  O  O95  1  0.20826300  0.86959500  0.57637800  1
  O  O96  1  0.20062300  0.50000000  0.88403000  1
  O  O97  1  0.79937700  0.00000000  0.38403000  1
