# generated using pymatgen
data_Li3Dy(NO3)6
_symmetry_space_group_name_H-M   'P 1'
_cell_length_a   7.63522500
_cell_length_b   7.88698000
_cell_length_c   25.31997982
_cell_angle_alpha   73.18547244
_cell_angle_beta   90.00000000
_cell_angle_gamma   90.00000000
_symmetry_Int_Tables_number   1
_chemical_formula_structural   Li3Dy(NO3)6
_chemical_formula_sum   'Li12 Dy4 N24 O72'
_cell_volume   1459.55201571
_cell_formula_units_Z   4
loop_
 _symmetry_equiv_pos_site_id
 _symmetry_equiv_pos_as_xyz
  1  'x, y, z'
loop_
 _atom_site_type_symbol
 _atom_site_label
 _atom_site_symmetry_multiplicity
 _atom_site_fract_x
 _atom_site_fract_y
 _atom_site_fract_z
 _atom_site_occupancy
  Li  Li0  1  0.18413500  0.92732900  0.36582800  1
  Li  Li1  1  0.81586500  0.07267100  0.63417200  1
  Li  Li2  1  0.68413500  0.07267100  0.13417200  1
  Li  Li3  1  0.31586500  0.92732900  0.86582800  1
  Li  Li4  1  0.44242500  0.74586600  0.25465800  1
  Li  Li5  1  0.55757500  0.25413400  0.74534200  1
  Li  Li6  1  0.94242500  0.25413400  0.24534200  1
  Li  Li7  1  0.05757500  0.74586600  0.75465800  1
  Li  Li8  1  0.71022300  0.78359100  0.47414500  1
  Li  Li9  1  0.28977700  0.21640900  0.52585500  1
  Li  Li10  1  0.21022300  0.21640900  0.02585500  1
  Li  Li11  1  0.78977700  0.78359100  0.97414500  1
  Dy  Dy12  1  0.69424000  0.36683100  0.39036900  1
  Dy  Dy13  1  0.30576000  0.63316900  0.60963100  1
  Dy  Dy14  1  0.19424000  0.63316900  0.10963100  1
  Dy  Dy15  1  0.80576000  0.36683100  0.89036900  1
  N  N16  1  0.20170600  0.99982000  0.26477600  1
  N  N17  1  0.79829400  0.00018000  0.73522400  1
  N  N18  1  0.70170600  0.00018000  0.23522400  1
  N  N19  1  0.29829400  0.99982000  0.76477600  1
  N  N20  1  0.69793200  0.46933300  0.26970000  1
  N  N21  1  0.30206800  0.53066700  0.73030000  1
  N  N22  1  0.19793200  0.53066700  0.23030000  1
  N  N23  1  0.80206800  0.46933300  0.76970000  1
  N  N24  1  0.50806600  0.80097000  0.05387600  1
  N  N25  1  0.49193400  0.19903000  0.94612400  1
  N  N26  1  0.00806600  0.19903000  0.44612400  1
  N  N27  1  0.99193400  0.80097000  0.55387600  1
  N  N28  1  0.87089300  0.53522500  0.06383600  1
  N  N29  1  0.12910700  0.46477500  0.93616400  1
  N  N30  1  0.37089300  0.46477500  0.43616400  1
  N  N31  1  0.62910700  0.53522500  0.56383600  1
  N  N32  1  0.88610400  0.68225600  0.39348600  1
  N  N33  1  0.11389600  0.31774400  0.60651400  1
  N  N34  1  0.38610400  0.31774400  0.10651400  1
  N  N35  1  0.61389600  0.68225600  0.89348600  1
  N  N36  1  0.99207600  0.95760000  0.09736400  1
  N  N37  1  0.00792400  0.04240000  0.90263600  1
  N  N38  1  0.49207600  0.04240000  0.40263600  1
  N  N39  1  0.50792400  0.95760000  0.59736400  1
  O  O40  1  0.60284200  0.54779300  0.29784400  1
  O  O41  1  0.39715800  0.45220700  0.70215600  1
  O  O42  1  0.10284200  0.45220700  0.20215600  1
  O  O43  1  0.89715800  0.54779300  0.79784400  1
  O  O44  1  0.47667400  0.80542700  0.10291200  1
  O  O45  1  0.52332600  0.19457300  0.89708800  1
  O  O46  1  0.97667400  0.19457300  0.39708800  1
  O  O47  1  0.02332600  0.80542700  0.60291200  1
  O  O48  1  0.39463300  0.72284800  0.03165000  1
  O  O49  1  0.60536700  0.27715200  0.96835000  1
  O  O50  1  0.89463300  0.27715200  0.46835000  1
  O  O51  1  0.10536700  0.72284800  0.53165000  1
  O  O52  1  0.69969500  0.51180100  0.21940400  1
  O  O53  1  0.30030500  0.48819900  0.78059600  1
  O  O54  1  0.19969500  0.48819900  0.28059600  1
  O  O55  1  0.80030500  0.51180100  0.71940400  1
  O  O56  1  0.73585200  0.50024500  0.04242800  1
  O  O57  1  0.26414800  0.49975500  0.95757200  1
  O  O58  1  0.23585200  0.49975500  0.45757200  1
  O  O59  1  0.76414800  0.50024500  0.54242800  1
  O  O60  1  0.95039100  0.81225400  0.13250600  1
  O  O61  1  0.04960900  0.18774600  0.86749400  1
  O  O62  1  0.45039100  0.18774600  0.36749400  1
  O  O63  1  0.54960900  0.81225400  0.63250600  1
  O  O64  1  0.64294100  0.86949400  0.02889000  1
  O  O65  1  0.35705900  0.13050600  0.97111000  1
  O  O66  1  0.14294100  0.13050600  0.47111000  1
  O  O67  1  0.85705900  0.86949400  0.52889000  1
  O  O68  1  0.70361700  0.95909500  0.28628200  1
  O  O69  1  0.29638300  0.04090500  0.71371800  1
  O  O70  1  0.20361700  0.04090500  0.21371800  1
  O  O71  1  0.79638300  0.95909500  0.78628200  1
  O  O72  1  0.36350700  0.95863600  0.57066700  1
  O  O73  1  0.63649300  0.04136400  0.42933300  1
  O  O74  1  0.86350700  0.04136400  0.92933300  1
  O  O75  1  0.13649300  0.95863600  0.07066700  1
  O  O76  1  0.96757400  0.80962400  0.40078400  1
  O  O77  1  0.03242600  0.19037600  0.59921600  1
  O  O78  1  0.46757400  0.19037600  0.09921600  1
  O  O79  1  0.53242600  0.80962400  0.90078400  1
  O  O80  1  0.97649400  0.66014800  0.03525000  1
  O  O81  1  0.02350600  0.33985200  0.96475000  1
  O  O82  1  0.47649400  0.33985200  0.46475000  1
  O  O83  1  0.52350600  0.66014800  0.53525000  1
  O  O84  1  0.91695200  0.45938600  0.11288800  1
  O  O85  1  0.08304800  0.54061400  0.88711200  1
  O  O86  1  0.41695200  0.54061400  0.38711200  1
  O  O87  1  0.58304800  0.45938600  0.61288800  1
  O  O88  1  0.79191100  0.34029500  0.29974500  1
  O  O89  1  0.20808900  0.65970500  0.70025500  1
  O  O90  1  0.29191100  0.65970500  0.20025500  1
  O  O91  1  0.70808900  0.34029500  0.79974500  1
  O  O92  1  0.40084300  0.90677500  0.41196900  1
  O  O93  1  0.59915700  0.09322500  0.58803100  1
  O  O94  1  0.90084300  0.09322500  0.08803100  1
  O  O95  1  0.09915700  0.90677500  0.91196900  1
  O  O96  1  0.93686300  0.59184100  0.36242000  1
  O  O97  1  0.06313700  0.40815900  0.63758000  1
  O  O98  1  0.43686300  0.40815900  0.13758000  1
  O  O99  1  0.56313700  0.59184100  0.86242000  1
  O  O100  1  0.73954000  0.63526100  0.41929000  1
  O  O101  1  0.26046000  0.36473900  0.58071000  1
  O  O102  1  0.23954000  0.36473900  0.08071000  1
  O  O103  1  0.76046000  0.63526100  0.91929000  1
  O  O104  1  0.60871000  0.91539100  0.20886800  1
  O  O105  1  0.39129000  0.08460900  0.79113200  1
  O  O106  1  0.10871000  0.08460900  0.29113200  1
  O  O107  1  0.89129000  0.91539100  0.70886800  1
  O  O108  1  0.29140800  0.87045200  0.29503800  1
  O  O109  1  0.70859200  0.12954800  0.70496200  1
  O  O110  1  0.79140800  0.12954800  0.20496200  1
  O  O111  1  0.20859200  0.87045200  0.79503800  1
