# generated using pymatgen
data_Li3AlN2
_symmetry_space_group_name_H-M   'P 1'
_cell_length_a   8.24513169
_cell_length_b   8.24513169
_cell_length_c   8.24513169
_cell_angle_alpha   109.47122063
_cell_angle_beta   109.47122063
_cell_angle_gamma   109.47122063
_symmetry_Int_Tables_number   1
_chemical_formula_structural   Li3AlN2
_chemical_formula_sum   'Li24 Al8 N16'
_cell_volume   431.49016239
_cell_formula_units_Z   8
loop_
 _symmetry_equiv_pos_site_id
 _symmetry_equiv_pos_as_xyz
  1  'x, y, z'
loop_
 _atom_site_type_symbol
 _atom_site_label
 _atom_site_symmetry_multiplicity
 _atom_site_fract_x
 _atom_site_fract_y
 _atom_site_fract_z
 _atom_site_occupancy
  Li  Li0  1  0.45872000  0.22348800  0.98620600  1
  Li  Li1  1  0.76271700  0.27651200  0.73523200  1
  Li  Li2  1  0.04128000  0.02748500  0.76476800  1
  Li  Li3  1  0.47251500  0.51379400  0.73728300  1
  Li  Li4  1  0.51379400  0.73728300  0.47251500  1
  Li  Li5  1  0.98620600  0.45872000  0.22348800  1
  Li  Li6  1  0.27651200  0.73523200  0.76271700  1
  Li  Li7  1  0.76476800  0.04128000  0.02748500  1
  Li  Li8  1  0.22348800  0.98620600  0.45872000  1
  Li  Li9  1  0.73523200  0.76271700  0.27651200  1
  Li  Li10  1  0.02748500  0.76476800  0.04128000  1
  Li  Li11  1  0.73728300  0.47251500  0.51379400  1
  Li  Li12  1  0.54128000  0.77651200  0.01379400  1
  Li  Li13  1  0.23728300  0.72348800  0.26476800  1
  Li  Li14  1  0.95872000  0.97251500  0.23523200  1
  Li  Li15  1  0.52748500  0.48620600  0.26271700  1
  Li  Li16  1  0.48620600  0.26271700  0.52748500  1
  Li  Li17  1  0.01379400  0.54128000  0.77651200  1
  Li  Li18  1  0.72348800  0.26476800  0.23728300  1
  Li  Li19  1  0.26271700  0.52748500  0.48620600  1
  Li  Li20  1  0.77651200  0.01379400  0.54128000  1
  Li  Li21  1  0.26476800  0.23728300  0.72348800  1
  Li  Li22  1  0.97251500  0.23523200  0.95872000  1
  Li  Li23  1  0.23523200  0.95872000  0.97251500  1
  Al  Al24  1  0.23021600  0.23021600  0.23021600  1
  Al  Al25  1  0.26978400  0.50000000  0.00000000  1
  Al  Al26  1  0.00000000  0.26978400  0.50000000  1
  Al  Al27  1  0.50000000  0.00000000  0.26978400  1
  Al  Al28  1  0.76978400  0.76978400  0.76978400  1
  Al  Al29  1  0.73021600  0.50000000  0.00000000  1
  Al  Al30  1  0.00000000  0.73021600  0.50000000  1
  Al  Al31  1  0.50000000  0.00000000  0.73021600  1
  N  N32  1  0.71606200  0.25000000  0.96606200  1
  N  N33  1  0.50000000  0.50000000  0.00000000  1
  N  N34  1  0.00000000  0.50000000  0.50000000  1
  N  N35  1  0.50000000  0.00000000  0.50000000  1
  N  N36  1  0.46606200  0.21606200  0.25000000  1
  N  N37  1  0.28393800  0.75000000  0.03393800  1
  N  N38  1  0.75000000  0.03393800  0.28393800  1
  N  N39  1  0.21606200  0.25000000  0.46606200  1
  N  N40  1  0.96606200  0.71606200  0.25000000  1
  N  N41  1  0.75000000  0.53393800  0.78393800  1
  N  N42  1  0.78393800  0.75000000  0.53393800  1
  N  N43  1  0.25000000  0.96606200  0.71606200  1
  N  N44  1  0.25000000  0.46606200  0.21606200  1
  N  N45  1  0.53393800  0.78393800  0.75000000  1
  N  N46  1  0.03393800  0.28393800  0.75000000  1
  N  N47  1  0.00000000  0.00000000  0.00000000  1
