# generated using pymatgen
data_LuAu2F9
_symmetry_space_group_name_H-M   'P 1'
_cell_length_a   9.12945600
_cell_length_b   11.19143500
_cell_length_c   21.73646200
_cell_angle_alpha   90.00000000
_cell_angle_beta   90.00000000
_cell_angle_gamma   90.00000000
_symmetry_Int_Tables_number   1
_chemical_formula_structural   LuAu2F9
_chemical_formula_sum   'Lu12 Au24 F108'
_cell_volume   2220.85156600
_cell_formula_units_Z   12
loop_
 _symmetry_equiv_pos_site_id
 _symmetry_equiv_pos_as_xyz
  1  'x, y, z'
loop_
 _atom_site_type_symbol
 _atom_site_label
 _atom_site_symmetry_multiplicity
 _atom_site_fract_x
 _atom_site_fract_y
 _atom_site_fract_z
 _atom_site_occupancy
  Lu  Lu0  1  0.82514900  0.50000000  0.25000000  1
  Lu  Lu1  1  0.67485100  0.00000000  0.75000000  1
  Lu  Lu2  1  0.17485100  0.50000000  0.75000000  1
  Lu  Lu3  1  0.32514900  0.00000000  0.25000000  1
  Lu  Lu4  1  0.03955600  0.59258600  0.41649400  1
  Lu  Lu5  1  0.03955600  0.40741400  0.08350600  1
  Lu  Lu6  1  0.46044400  0.09258600  0.58350600  1
  Lu  Lu7  1  0.46044400  0.90741400  0.91649400  1
  Lu  Lu8  1  0.96044400  0.40741400  0.58350600  1
  Lu  Lu9  1  0.96044400  0.59258600  0.91649400  1
  Lu  Lu10  1  0.53955600  0.90741400  0.41649400  1
  Lu  Lu11  1  0.53955600  0.09258600  0.08350600  1
  Au  Au12  1  0.65984300  0.39006400  0.99136700  1
  Au  Au13  1  0.65984300  0.60993600  0.50863300  1
  Au  Au14  1  0.84015700  0.89006400  0.00863300  1
  Au  Au15  1  0.84015700  0.10993600  0.49136700  1
  Au  Au16  1  0.34015700  0.60993600  0.00863300  1
  Au  Au17  1  0.34015700  0.39006400  0.49136700  1
  Au  Au18  1  0.15984300  0.10993600  0.99136700  1
  Au  Au19  1  0.15984300  0.89006400  0.50863300  1
  Au  Au20  1  0.93306600  0.07518000  0.16448300  1
  Au  Au21  1  0.93306600  0.92482000  0.33551700  1
  Au  Au22  1  0.56693400  0.57518000  0.83551700  1
  Au  Au23  1  0.56693400  0.42482000  0.66448300  1
  Au  Au24  1  0.06693400  0.92482000  0.83551700  1
  Au  Au25  1  0.06693400  0.07518000  0.66448300  1
  Au  Au26  1  0.43306600  0.42482000  0.16448300  1
  Au  Au27  1  0.43306600  0.57518000  0.33551700  1
  Au  Au28  1  0.63986100  0.21500000  0.32887000  1
  Au  Au29  1  0.63986100  0.78500000  0.17113000  1
  Au  Au30  1  0.86013900  0.71500000  0.67113000  1
  Au  Au31  1  0.86013900  0.28500000  0.82887000  1
  Au  Au32  1  0.36013900  0.78500000  0.67113000  1
  Au  Au33  1  0.36013900  0.21500000  0.82887000  1
  Au  Au34  1  0.13986100  0.28500000  0.32887000  1
  Au  Au35  1  0.13986100  0.71500000  0.17113000  1
  F  F36  1  0.00000000  0.50000000  0.00000000  1
  F  F37  1  0.00000000  0.50000000  0.50000000  1
  F  F38  1  0.50000000  0.00000000  0.00000000  1
  F  F39  1  0.50000000  0.00000000  0.50000000  1
  F  F40  1  0.13670200  0.97616200  0.32193200  1
  F  F41  1  0.13670200  0.02383800  0.17806800  1
  F  F42  1  0.36329800  0.47616200  0.67806800  1
  F  F43  1  0.36329800  0.52383800  0.82193200  1
  F  F44  1  0.86329800  0.02383800  0.67806800  1
  F  F45  1  0.86329800  0.97616200  0.82193200  1
  F  F46  1  0.63670200  0.52383800  0.32193200  1
  F  F47  1  0.63670200  0.47616200  0.17806800  1
  F  F48  1  0.20241700  0.82379100  0.23802700  1
  F  F49  1  0.20241700  0.17620900  0.26197300  1
  F  F50  1  0.29758300  0.32379100  0.76197300  1
  F  F51  1  0.29758300  0.67620900  0.73802700  1
  F  F52  1  0.79758300  0.17620900  0.76197300  1
  F  F53  1  0.79758300  0.82379100  0.73802700  1
  F  F54  1  0.70241700  0.67620900  0.23802700  1
  F  F55  1  0.70241700  0.32379100  0.26197300  1
  F  F56  1  0.76694100  0.04830100  0.03493200  1
  F  F57  1  0.76694100  0.95169900  0.46506800  1
  F  F58  1  0.73305900  0.54830100  0.96506800  1
  F  F59  1  0.73305900  0.45169900  0.53493200  1
  F  F60  1  0.23305900  0.95169900  0.96506800  1
  F  F61  1  0.23305900  0.04830100  0.53493200  1
  F  F62  1  0.26694100  0.45169900  0.03493200  1
  F  F63  1  0.26694100  0.54830100  0.46506800  1
  F  F64  1  0.59090900  0.10289600  0.39651800  1
  F  F65  1  0.59090900  0.89710400  0.10348200  1
  F  F66  1  0.90909100  0.60289600  0.60348200  1
  F  F67  1  0.90909100  0.39710400  0.89651800  1
  F  F68  1  0.40909100  0.89710400  0.60348200  1
  F  F69  1  0.40909100  0.10289600  0.89651800  1
  F  F70  1  0.09090900  0.39710400  0.39651800  1
  F  F71  1  0.09090900  0.60289600  0.10348200  1
  F  F72  1  0.49733000  0.14044400  0.27050400  1
  F  F73  1  0.49733000  0.85955600  0.22949600  1
  F  F74  1  0.00267000  0.64044400  0.72949600  1
  F  F75  1  0.00267000  0.35955600  0.77050400  1
  F  F76  1  0.50267000  0.85955600  0.72949600  1
  F  F77  1  0.50267000  0.14044400  0.77050400  1
  F  F78  1  0.99733000  0.35955600  0.27050400  1
  F  F79  1  0.99733000  0.64044400  0.22949600  1
  F  F80  1  0.19035000  0.63778900  0.94354100  1
  F  F81  1  0.19035000  0.36221100  0.55645900  1
  F  F82  1  0.30965000  0.13778900  0.05645900  1
  F  F83  1  0.30965000  0.86221100  0.44354100  1
  F  F84  1  0.80965000  0.36221100  0.05645900  1
  F  F85  1  0.80965000  0.63778900  0.44354100  1
  F  F86  1  0.69035000  0.86221100  0.94354100  1
  F  F87  1  0.69035000  0.13778900  0.55645900  1
  F  F88  1  0.41711600  0.05025200  0.16393700  1
  F  F89  1  0.41711600  0.94974800  0.33606300  1
  F  F90  1  0.08288400  0.55025200  0.83606300  1
  F  F91  1  0.08288400  0.44974800  0.66393700  1
  F  F92  1  0.58288400  0.94974800  0.83606300  1
  F  F93  1  0.58288400  0.05025200  0.66393700  1
  F  F94  1  0.91711600  0.44974800  0.16393700  1
  F  F95  1  0.91711600  0.55025200  0.33606300  1
  F  F96  1  0.28089100  0.78965100  0.11708500  1
  F  F97  1  0.28089100  0.21034900  0.38291500  1
  F  F98  1  0.21910900  0.28965100  0.88291500  1
  F  F99  1  0.21910900  0.71034900  0.61708500  1
  F  F100  1  0.71910900  0.21034900  0.88291500  1
  F  F101  1  0.71910900  0.78965100  0.61708500  1
  F  F102  1  0.78089100  0.71034900  0.11708500  1
  F  F103  1  0.78089100  0.28965100  0.38291500  1
  F  F104  1  0.99729300  0.91364600  0.06737000  1
  F  F105  1  0.99729300  0.08635400  0.43263000  1
  F  F106  1  0.50270700  0.41364600  0.93263000  1
  F  F107  1  0.50270700  0.58635400  0.56737000  1
  F  F108  1  0.00270700  0.08635400  0.93263000  1
  F  F109  1  0.00270700  0.91364600  0.56737000  1
  F  F110  1  0.49729300  0.58635400  0.06737000  1
  F  F111  1  0.49729300  0.41364600  0.43263000  1
  F  F112  1  0.86983400  0.92445300  0.19995600  1
  F  F113  1  0.86983400  0.07554700  0.30004400  1
  F  F114  1  0.63016600  0.42445300  0.80004400  1
  F  F115  1  0.63016600  0.57554700  0.69995600  1
  F  F116  1  0.13016600  0.07554700  0.80004400  1
  F  F117  1  0.13016600  0.92445300  0.69995600  1
  F  F118  1  0.36983400  0.57554700  0.19995600  1
  F  F119  1  0.36983400  0.42445300  0.30004400  1
  F  F120  1  0.00406200  0.22599600  0.12655700  1
  F  F121  1  0.00406200  0.77400400  0.37344300  1
  F  F122  1  0.49593800  0.72599600  0.87344300  1
  F  F123  1  0.49593800  0.27400400  0.62655700  1
  F  F124  1  0.99593800  0.77400400  0.87344300  1
  F  F125  1  0.99593800  0.22599600  0.62655700  1
  F  F126  1  0.50406200  0.27400400  0.12655700  1
  F  F127  1  0.50406200  0.72599600  0.37344300  1
  F  F128  1  0.72548700  0.12242200  0.15092700  1
  F  F129  1  0.72548700  0.87757800  0.34907300  1
  F  F130  1  0.77451300  0.62242200  0.84907300  1
  F  F131  1  0.77451300  0.37757800  0.65092700  1
  F  F132  1  0.27451300  0.87757800  0.84907300  1
  F  F133  1  0.27451300  0.12242200  0.65092700  1
  F  F134  1  0.22548700  0.37757800  0.15092700  1
  F  F135  1  0.22548700  0.62242200  0.34907300  1
  F  F136  1  0.91961000  0.73111700  0.98828000  1
  F  F137  1  0.91961000  0.26888300  0.51172000  1
  F  F138  1  0.58039000  0.23111700  0.01172000  1
  F  F139  1  0.58039000  0.76888300  0.48828000  1
  F  F140  1  0.08039000  0.26888300  0.01172000  1
  F  F141  1  0.08039000  0.73111700  0.48828000  1
  F  F142  1  0.41961000  0.76888300  0.98828000  1
  F  F143  1  0.41961000  0.23111700  0.51172000  1
