# generated using pymatgen
data_BaHfF6
_symmetry_space_group_name_H-M   'P 1'
_cell_length_a   6.90255306
_cell_length_b   6.90255306
_cell_length_c   5.60102700
_cell_angle_alpha   90.00000000
_cell_angle_beta   90.00000000
_cell_angle_gamma   112.20768453
_symmetry_Int_Tables_number   1
_chemical_formula_structural   BaHfF6
_chemical_formula_sum   'Ba2 Hf2 F12'
_cell_volume   247.06639913
_cell_formula_units_Z   2
loop_
 _symmetry_equiv_pos_site_id
 _symmetry_equiv_pos_as_xyz
  1  'x, y, z'
loop_
 _atom_site_type_symbol
 _atom_site_label
 _atom_site_symmetry_multiplicity
 _atom_site_fract_x
 _atom_site_fract_y
 _atom_site_fract_z
 _atom_site_occupancy
  Ba  Ba0  1  0.25000000  0.75000000  0.44555700  1
  Ba  Ba1  1  0.75000000  0.25000000  0.55444300  1
  Hf  Hf2  1  0.75000000  0.75000000  0.00000000  1
  Hf  Hf3  1  0.25000000  0.25000000  0.00000000  1
  F  F4  1  0.68275200  0.93066200  0.24762400  1
  F  F5  1  0.31724800  0.06933800  0.75237600  1
  F  F6  1  0.81724800  0.56933800  0.24762400  1
  F  F7  1  0.56933800  0.81724800  0.75237600  1
  F  F8  1  0.18275200  0.43066200  0.75237600  1
  F  F9  1  0.43066200  0.18275200  0.24762400  1
  F  F10  1  0.93066200  0.68275200  0.75237600  1
  F  F11  1  0.06933800  0.31724800  0.24762400  1
  F  F12  1  0.43012900  0.56987100  0.14775300  1
  F  F13  1  0.56987100  0.43012900  0.85224700  1
  F  F14  1  0.06987100  0.93012900  0.14775300  1
  F  F15  1  0.93012900  0.06987100  0.85224700  1
