# generated using pymatgen
data_BaU2V2O12
_symmetry_space_group_name_H-M   'P 1'
_cell_length_a   8.46560700
_cell_length_b   6.73380500
_cell_length_c   10.57344125
_cell_angle_alpha   75.96756132
_cell_angle_beta   90.00000000
_cell_angle_gamma   90.00000000
_symmetry_Int_Tables_number   1
_chemical_formula_structural   BaU2V2O12
_chemical_formula_sum   'Ba2 U4 V4 O24'
_cell_volume   584.76010462
_cell_formula_units_Z   2
loop_
 _symmetry_equiv_pos_site_id
 _symmetry_equiv_pos_as_xyz
  1  'x, y, z'
loop_
 _atom_site_type_symbol
 _atom_site_label
 _atom_site_symmetry_multiplicity
 _atom_site_fract_x
 _atom_site_fract_y
 _atom_site_fract_z
 _atom_site_occupancy
  Ba  Ba0  1  0.97343000  0.46809400  0.84486800  1
  Ba  Ba1  1  0.02657000  0.46809400  0.34486800  1
  U  U2  1  0.76853900  0.01749900  0.67923700  1
  U  U3  1  0.27315400  0.98462300  0.82148400  1
  U  U4  1  0.72684600  0.98462300  0.32148400  1
  U  U5  1  0.23146100  0.01749900  0.17923700  1
  V  V6  1  0.10121000  0.88387500  0.55444200  1
  V  V7  1  0.60459400  0.11744800  0.94707600  1
  V  V8  1  0.39540600  0.11744800  0.44707600  1
  V  V9  1  0.89879000  0.88387500  0.05444200  1
  O  O10  1  0.73547000  0.74083700  0.73672800  1
  O  O11  1  0.21342000  0.25512800  0.76910000  1
  O  O12  1  0.78658000  0.25512800  0.26910000  1
  O  O13  1  0.26453000  0.74083700  0.23672800  1
  O  O14  1  0.18198000  0.05212500  0.39138700  1
  O  O15  1  0.69506900  0.95968200  0.10584100  1
  O  O16  1  0.30493100  0.95968200  0.60584100  1
  O  O17  1  0.81802000  0.05212500  0.89138700  1
  O  O18  1  0.83343400  0.28749700  0.62787200  1
  O  O19  1  0.30025600  0.70923800  0.87454400  1
  O  O20  1  0.69974400  0.70923800  0.37454400  1
  O  O21  1  0.16656600  0.28749700  0.12787200  1
  O  O22  1  0.10153500  0.63787900  0.55457800  1
  O  O23  1  0.63140200  0.35920900  0.93951300  1
  O  O24  1  0.36859800  0.35920900  0.43951300  1
  O  O25  1  0.89846500  0.63787900  0.05457800  1
  O  O26  1  0.03881000  0.89561400  0.71996100  1
  O  O27  1  0.54235500  0.07740700  0.78637000  1
  O  O28  1  0.45764500  0.07740700  0.28637000  1
  O  O29  1  0.96119000  0.89561400  0.21996100  1
  O  O30  1  0.90583400  0.97614200  0.49461000  1
  O  O31  1  0.40284600  0.04370300  0.00548700  1
  O  O32  1  0.59715400  0.04370300  0.50548700  1
  O  O33  1  0.09416600  0.97614200  0.99461000  1
