# generated using pymatgen
data_CeAlO3
_symmetry_space_group_name_H-M   'P 1'
_cell_length_a   5.36448000
_cell_length_b   5.36448000
_cell_length_c   5.36448000
_cell_angle_alpha   119.92756814
_cell_angle_beta   119.55302079
_cell_angle_gamma   90.45071852
_symmetry_Int_Tables_number   1
_chemical_formula_structural   CeAlO3
_chemical_formula_sum   'Ce2 Al2 O6'
_cell_volume   109.58448256
_cell_formula_units_Z   2
loop_
 _symmetry_equiv_pos_site_id
 _symmetry_equiv_pos_as_xyz
  1  'x, y, z'
loop_
 _atom_site_type_symbol
 _atom_site_label
 _atom_site_symmetry_multiplicity
 _atom_site_fract_x
 _atom_site_fract_y
 _atom_site_fract_z
 _atom_site_occupancy
  Ce  Ce0  1  0.24816000  0.75000000  0.49816000  1
  Ce  Ce1  1  0.75184000  0.25000000  0.50184000  1
  Al  Al2  1  0.00000000  0.00000000  0.00000000  1
  Al  Al3  1  0.50000000  0.50000000  0.00000000  1
  O  O4  1  0.22138300  0.22138300  0.50000000  1
  O  O5  1  0.77861700  0.27861700  0.00000000  1
  O  O6  1  0.77861800  0.77861800  0.50000000  1
  O  O7  1  0.22138300  0.72138200  0.00000000  1
  O  O8  1  0.30481800  0.25000000  0.05481800  1
  O  O9  1  0.69518200  0.75000000  0.94518200  1
