# generated using pymatgen
data_TbGaNi
_symmetry_space_group_name_H-M   'P 1'
_cell_length_a   4.32016200
_cell_length_b   6.86019400
_cell_length_c   7.34609800
_cell_angle_alpha   90.00000000
_cell_angle_beta   90.00000000
_cell_angle_gamma   90.00000000
_symmetry_Int_Tables_number   1
_chemical_formula_structural   TbGaNi
_chemical_formula_sum   'Tb4 Ga4 Ni4'
_cell_volume   217.71740416
_cell_formula_units_Z   4
loop_
 _symmetry_equiv_pos_site_id
 _symmetry_equiv_pos_as_xyz
  1  'x, y, z'
loop_
 _atom_site_type_symbol
 _atom_site_label
 _atom_site_symmetry_multiplicity
 _atom_site_fract_x
 _atom_site_fract_y
 _atom_site_fract_z
 _atom_site_occupancy
  Tb  Tb0  1  0.25000000  0.01941600  0.80035900  1
  Tb  Tb1  1  0.25000000  0.51941600  0.69964100  1
  Tb  Tb2  1  0.75000000  0.98058400  0.19964100  1
  Tb  Tb3  1  0.75000000  0.48058400  0.30035900  1
  Ga  Ga4  1  0.25000000  0.18250000  0.42031100  1
  Ga  Ga5  1  0.25000000  0.68250000  0.07968900  1
  Ga  Ga6  1  0.75000000  0.81750000  0.57968900  1
  Ga  Ga7  1  0.75000000  0.31750000  0.92031100  1
  Ni  Ni8  1  0.25000000  0.79457100  0.40814800  1
  Ni  Ni9  1  0.25000000  0.29457100  0.09185200  1
  Ni  Ni10  1  0.75000000  0.20542900  0.59185200  1
  Ni  Ni11  1  0.75000000  0.70542900  0.90814800  1
