# generated using pymatgen
data_AlAgSe2
_symmetry_space_group_name_H-M   'P 1'
_cell_length_a   7.01049566
_cell_length_b   7.01049566
_cell_length_c   7.01049566
_cell_angle_alpha   128.94092151
_cell_angle_beta   128.94092151
_cell_angle_gamma   75.10565212
_symmetry_Int_Tables_number   1
_chemical_formula_structural   AlAgSe2
_chemical_formula_sum   'Al2 Ag2 Se4'
_cell_volume   202.94212530
_cell_formula_units_Z   2
loop_
 _symmetry_equiv_pos_site_id
 _symmetry_equiv_pos_as_xyz
  1  'x, y, z'
loop_
 _atom_site_type_symbol
 _atom_site_label
 _atom_site_symmetry_multiplicity
 _atom_site_fract_x
 _atom_site_fract_y
 _atom_site_fract_z
 _atom_site_occupancy
  Al  Al0  1  0.25000000  0.75000000  0.50000000  1
  Al  Al1  1  0.50000000  0.50000000  0.00000000  1
  Ag  Ag2  1  0.00000000  0.00000000  0.00000000  1
  Ag  Ag3  1  0.75000000  0.25000000  0.50000000  1
  Se  Se4  1  0.58887500  0.62500000  0.46387500  1
  Se  Se5  1  0.37500000  0.83887500  0.96387500  1
  Se  Se6  1  0.16112500  0.12500000  0.53612500  1
  Se  Se7  1  0.87500000  0.41112500  0.03612500  1
