# generated using pymatgen
data_Li7H5N4
_symmetry_space_group_name_H-M   'P 1'
_cell_length_a   7.19605100
_cell_length_b   7.26964800
_cell_length_c   10.65571500
_cell_angle_alpha   90.00000000
_cell_angle_beta   90.00000000
_cell_angle_gamma   90.00000000
_symmetry_Int_Tables_number   1
_chemical_formula_structural   Li7H5N4
_chemical_formula_sum   'Li28 H20 N16'
_cell_volume   557.42983756
_cell_formula_units_Z   4
loop_
 _symmetry_equiv_pos_site_id
 _symmetry_equiv_pos_as_xyz
  1  'x, y, z'
loop_
 _atom_site_type_symbol
 _atom_site_label
 _atom_site_symmetry_multiplicity
 _atom_site_fract_x
 _atom_site_fract_y
 _atom_site_fract_z
 _atom_site_occupancy
  Li  Li0  1  0.40989400  0.51022400  0.39580700  1
  Li  Li1  1  0.90989400  0.48977600  0.60419300  1
  Li  Li2  1  0.90989400  0.98977600  0.89580700  1
  Li  Li3  1  0.40989400  0.01022400  0.10419300  1
  Li  Li4  1  0.36228500  0.43390700  0.84751400  1
  Li  Li5  1  0.86228500  0.56609300  0.15248600  1
  Li  Li6  1  0.86228500  0.06609300  0.34751400  1
  Li  Li7  1  0.36228500  0.93390700  0.65248600  1
  Li  Li8  1  0.32516200  0.50344000  0.61377200  1
  Li  Li9  1  0.82516200  0.49656000  0.38622800  1
  Li  Li10  1  0.82516200  0.99656000  0.11377200  1
  Li  Li11  1  0.32516200  0.00344000  0.88622800  1
  Li  Li12  1  0.09843800  0.75209700  0.62841100  1
  Li  Li13  1  0.59843800  0.24790300  0.37158900  1
  Li  Li14  1  0.59843800  0.74790300  0.12841100  1
  Li  Li15  1  0.09843800  0.25209700  0.87158900  1
  Li  Li16  1  0.16526200  0.73273300  0.85018000  1
  Li  Li17  1  0.66526200  0.26726700  0.14982000  1
  Li  Li18  1  0.66526200  0.76726700  0.35018000  1
  Li  Li19  1  0.16526200  0.23273300  0.64982000  1
  Li  Li20  1  0.10886700  0.69061500  0.41102400  1
  Li  Li21  1  0.60886700  0.30938500  0.58897600  1
  Li  Li22  1  0.60886700  0.80938500  0.91102400  1
  Li  Li23  1  0.10886700  0.19061500  0.08897600  1
  Li  Li24  1  0.11919900  0.80572900  0.08064700  1
  Li  Li25  1  0.61919900  0.19427100  0.91935300  1
  Li  Li26  1  0.61919900  0.69427100  0.58064700  1
  Li  Li27  1  0.11919900  0.30572900  0.41935300  1
  H  H28  1  0.20528300  0.52193400  0.21264300  1
  H  H29  1  0.70528300  0.47806600  0.78735700  1
  H  H30  1  0.70528300  0.97806600  0.71264300  1
  H  H31  1  0.20528300  0.02193400  0.28735700  1
  H  H32  1  0.50603300  0.49949400  0.20812300  1
  H  H33  1  0.00603300  0.50050600  0.79187700  1
  H  H34  1  0.00603300  0.00050600  0.70812300  1
  H  H35  1  0.50603300  0.99949400  0.29187700  1
  H  H36  1  0.86391400  0.85833500  0.51967100  1
  H  H37  1  0.36391400  0.14166500  0.48032900  1
  H  H38  1  0.36391400  0.64166500  0.01967100  1
  H  H39  1  0.86391400  0.35833500  0.98032900  1
  H  H40  1  0.87314700  0.66258100  0.95562700  1
  H  H41  1  0.37314700  0.33741900  0.04437300  1
  H  H42  1  0.37314700  0.83741900  0.45562700  1
  H  H43  1  0.87314700  0.16258100  0.54437300  1
  H  H44  1  0.54315700  0.62580400  0.75869400  1
  H  H45  1  0.04315700  0.37419600  0.24130600  1
  H  H46  1  0.04315700  0.87419600  0.25869400  1
  H  H47  1  0.54315700  0.12580400  0.74130600  1
  N  N48  1  0.59247600  0.49881000  0.72952900  1
  N  N49  1  0.09247600  0.50119000  0.27047100  1
  N  N50  1  0.09247600  0.00119000  0.22952900  1
  N  N51  1  0.59247600  0.99881000  0.77047100  1
  N  N52  1  0.12831600  0.48922800  0.74160600  1
  N  N53  1  0.62831600  0.51077200  0.25839400  1
  N  N54  1  0.62831600  0.01077200  0.24160600  1
  N  N55  1  0.12831600  0.98922800  0.75839400  1
  N  N56  1  0.35206100  0.72862700  0.51623600  1
  N  N57  1  0.85206100  0.27137300  0.48376400  1
  N  N58  1  0.85206100  0.77137300  0.01623600  1
  N  N59  1  0.35206100  0.22862700  0.98376400  1
  N  N60  1  0.36450500  0.77895400  0.99476400  1
  N  N61  1  0.86450500  0.22104600  0.00523600  1
  N  N62  1  0.86450500  0.72104600  0.49476400  1
  N  N63  1  0.36450500  0.27895400  0.50523600  1
