# generated using pymatgen
data_PrFeGe3
_symmetry_space_group_name_H-M   'P 1'
_cell_length_a   5.87017110
_cell_length_b   5.87017110
_cell_length_c   5.87017110
_cell_angle_alpha   136.64820798
_cell_angle_beta   136.64820798
_cell_angle_gamma   62.97977170
_symmetry_Int_Tables_number   1
_chemical_formula_structural   PrFeGe3
_chemical_formula_sum   'Pr1 Fe1 Ge3'
_cell_volume   94.12716474
_cell_formula_units_Z   1
loop_
 _symmetry_equiv_pos_site_id
 _symmetry_equiv_pos_as_xyz
  1  'x, y, z'
loop_
 _atom_site_type_symbol
 _atom_site_label
 _atom_site_symmetry_multiplicity
 _atom_site_fract_x
 _atom_site_fract_y
 _atom_site_fract_z
 _atom_site_occupancy
  Pr  Pr0  1  0.99896900  0.99896900  0.00000000  1
  Fe  Fe1  1  0.66500800  0.66500800  0.00000000  1
  Ge  Ge2  1  0.43807500  0.43807500  0.00000000  1
  Ge  Ge3  1  0.25447400  0.75447400  0.50000000  1
  Ge  Ge4  1  0.75447400  0.25447400  0.50000000  1
