# generated using pymatgen
data_TiTl2(GeO3)3
_symmetry_space_group_name_H-M   'P 1'
_cell_length_a   7.10262329
_cell_length_b   7.10262329
_cell_length_c   10.48469000
_cell_angle_alpha   90.00000000
_cell_angle_beta   90.00000000
_cell_angle_gamma   119.99999341
_symmetry_Int_Tables_number   1
_chemical_formula_structural   TiTl2(GeO3)3
_chemical_formula_sum   'Ti2 Tl4 Ge6 O18'
_cell_volume   458.06152777
_cell_formula_units_Z   2
loop_
 _symmetry_equiv_pos_site_id
 _symmetry_equiv_pos_as_xyz
  1  'x, y, z'
loop_
 _atom_site_type_symbol
 _atom_site_label
 _atom_site_symmetry_multiplicity
 _atom_site_fract_x
 _atom_site_fract_y
 _atom_site_fract_z
 _atom_site_occupancy
  Ti  Ti0  1  0.00000000  0.00000000  0.50000000  1
  Ti  Ti1  1  0.00000000  0.00000000  0.00000000  1
  Tl  Tl2  1  0.33333300  0.66666700  0.44253100  1
  Tl  Tl3  1  0.66666700  0.33333300  0.94253100  1
  Tl  Tl4  1  0.66666700  0.33333300  0.55746900  1
  Tl  Tl5  1  0.33333300  0.66666700  0.05746900  1
  Ge  Ge6  1  0.24196000  0.87450400  0.75000000  1
  Ge  Ge7  1  0.63254300  0.75804000  0.75000000  1
  Ge  Ge8  1  0.12549600  0.36745700  0.75000000  1
  Ge  Ge9  1  0.36745700  0.24196000  0.25000000  1
  Ge  Ge10  1  0.87450400  0.63254300  0.25000000  1
  Ge  Ge11  1  0.75804000  0.12549600  0.25000000  1
  O  O12  1  0.23285100  0.22469700  0.39251300  1
  O  O13  1  0.00815400  0.23285100  0.89251300  1
  O  O14  1  0.22469700  0.99184600  0.89251300  1
  O  O15  1  0.77530300  0.00815400  0.39251300  1
  O  O16  1  0.99184600  0.76714900  0.39251300  1
  O  O17  1  0.76714900  0.77530300  0.89251300  1
  O  O18  1  0.76714900  0.77530300  0.60748700  1
  O  O19  1  0.99184600  0.76714900  0.10748700  1
  O  O20  1  0.77530300  0.00815400  0.10748700  1
  O  O21  1  0.22469700  0.99184600  0.60748700  1
  O  O22  1  0.00815400  0.23285100  0.60748700  1
  O  O23  1  0.23285100  0.22469700  0.10748700  1
  O  O24  1  0.47804700  0.06432400  0.25000000  1
  O  O25  1  0.41372300  0.47804700  0.75000000  1
  O  O26  1  0.06432400  0.58627700  0.75000000  1
  O  O27  1  0.93567600  0.41372300  0.25000000  1
  O  O28  1  0.58627700  0.52195300  0.25000000  1
  O  O29  1  0.52195300  0.93567600  0.75000000  1
