# generated using pymatgen
data_Sr(YSe2)2
_symmetry_space_group_name_H-M   'P 1'
_cell_length_a   4.15307700
_cell_length_b   12.76120900
_cell_length_c   15.01164900
_cell_angle_alpha   90.00000000
_cell_angle_beta   90.00000000
_cell_angle_gamma   90.00000000
_symmetry_Int_Tables_number   1
_chemical_formula_structural   Sr(YSe2)2
_chemical_formula_sum   'Sr4 Y8 Se16'
_cell_volume   795.59163086
_cell_formula_units_Z   4
loop_
 _symmetry_equiv_pos_site_id
 _symmetry_equiv_pos_as_xyz
  1  'x, y, z'
loop_
 _atom_site_type_symbol
 _atom_site_label
 _atom_site_symmetry_multiplicity
 _atom_site_fract_x
 _atom_site_fract_y
 _atom_site_fract_z
 _atom_site_occupancy
  Sr  Sr0  1  0.75000000  0.73912100  0.16936100  1
  Sr  Sr1  1  0.75000000  0.23912100  0.33063900  1
  Sr  Sr2  1  0.25000000  0.26087900  0.83063900  1
  Sr  Sr3  1  0.25000000  0.76087900  0.66936100  1
  Y  Y4  1  0.75000000  0.05768000  0.11094900  1
  Y  Y5  1  0.75000000  0.55768000  0.38905100  1
  Y  Y6  1  0.25000000  0.94232000  0.88905100  1
  Y  Y7  1  0.25000000  0.44232000  0.61094900  1
  Y  Y8  1  0.75000000  0.08623700  0.59585300  1
  Y  Y9  1  0.75000000  0.58623700  0.90414700  1
  Y  Y10  1  0.25000000  0.91376300  0.40414700  1
  Y  Y11  1  0.25000000  0.41376300  0.09585300  1
  Se  Se12  1  0.75000000  0.29801600  0.67010400  1
  Se  Se13  1  0.75000000  0.79801600  0.82989600  1
  Se  Se14  1  0.25000000  0.70198400  0.32989600  1
  Se  Se15  1  0.25000000  0.20198400  0.17010400  1
  Se  Se16  1  0.75000000  0.37196200  0.96614300  1
  Se  Se17  1  0.75000000  0.87196200  0.53385700  1
  Se  Se18  1  0.25000000  0.62803800  0.03385700  1
  Se  Se19  1  0.25000000  0.12803800  0.46614300  1
  Se  Se20  1  0.75000000  0.46694700  0.21548000  1
  Se  Se21  1  0.75000000  0.96694700  0.28452000  1
  Se  Se22  1  0.25000000  0.53305300  0.78452000  1
  Se  Se23  1  0.25000000  0.03305300  0.71548000  1
  Se  Se24  1  0.75000000  0.09321000  0.92343400  1
  Se  Se25  1  0.75000000  0.59321000  0.57656600  1
  Se  Se26  1  0.25000000  0.90679000  0.07656600  1
  Se  Se27  1  0.25000000  0.40679000  0.42343400  1
