# generated using pymatgen
data_Nd2AlNi2
_symmetry_space_group_name_H-M   'P 1'
_cell_length_a   5.56002607
_cell_length_b   5.56002607
_cell_length_c   5.56002607
_cell_angle_alpha   135.28349802
_cell_angle_beta   120.57190812
_cell_angle_gamma   77.33699956
_symmetry_Int_Tables_number   1
_chemical_formula_structural   Nd2AlNi2
_chemical_formula_sum   'Nd2 Al1 Ni2'
_cell_volume   101.21537668
_cell_formula_units_Z   1
loop_
 _symmetry_equiv_pos_site_id
 _symmetry_equiv_pos_as_xyz
  1  'x, y, z'
loop_
 _atom_site_type_symbol
 _atom_site_label
 _atom_site_symmetry_multiplicity
 _atom_site_fract_x
 _atom_site_fract_y
 _atom_site_fract_z
 _atom_site_occupancy
  Nd  Nd0  1  0.70481300  0.20481300  0.50000000  1
  Nd  Nd1  1  0.29518700  0.79518700  0.50000000  1
  Al  Al2  1  0.00000000  0.00000000  0.00000000  1
  Ni  Ni3  1  0.73267300  0.50000000  0.23267300  1
  Ni  Ni4  1  0.26732700  0.50000000  0.76732700  1
