# generated using pymatgen
data_NaLiZr(Si2O5)3
_symmetry_space_group_name_H-M   'P 1'
_cell_length_a   11.40345308
_cell_length_b   11.40345308
_cell_length_c   10.30604400
_cell_angle_alpha   90.00000000
_cell_angle_beta   90.00000000
_cell_angle_gamma   100.61971803
_symmetry_Int_Tables_number   1
_chemical_formula_structural   NaLiZr(Si2O5)3
_chemical_formula_sum   'Na4 Li4 Zr4 Si24 O60'
_cell_volume   1317.23029028
_cell_formula_units_Z   4
loop_
 _symmetry_equiv_pos_site_id
 _symmetry_equiv_pos_as_xyz
  1  'x, y, z'
loop_
 _atom_site_type_symbol
 _atom_site_label
 _atom_site_symmetry_multiplicity
 _atom_site_fract_x
 _atom_site_fract_y
 _atom_site_fract_z
 _atom_site_occupancy
  Na  Na0  1  0.53437900  0.96562100  0.75000000  1
  Na  Na1  1  0.96562100  0.53437900  0.25000000  1
  Na  Na2  1  0.46562100  0.03437900  0.25000000  1
  Na  Na3  1  0.03437900  0.46562100  0.75000000  1
  Li  Li4  1  0.75322000  0.75322000  0.00000000  1
  Li  Li5  1  0.25322000  0.25322000  0.50000000  1
  Li  Li6  1  0.24678000  0.24678000  0.00000000  1
  Li  Li7  1  0.74678000  0.74678000  0.50000000  1
  Zr  Zr8  1  0.83843500  0.66156500  0.75000000  1
  Zr  Zr9  1  0.66156500  0.83843500  0.25000000  1
  Zr  Zr10  1  0.16156500  0.33843500  0.25000000  1
  Zr  Zr11  1  0.33843500  0.16156500  0.75000000  1
  Si  Si12  1  0.23617800  0.97962800  0.48182500  1
  Si  Si13  1  0.80065700  0.41540500  0.54100700  1
  Si  Si14  1  0.08459500  0.69934300  0.95899300  1
  Si  Si15  1  0.41540500  0.80065700  0.45899300  1
  Si  Si16  1  0.18317700  0.03617800  0.18901800  1
  Si  Si17  1  0.31682300  0.46382200  0.68901800  1
  Si  Si18  1  0.03617800  0.18317700  0.81098200  1
  Si  Si19  1  0.46382200  0.31682300  0.31098200  1
  Si  Si20  1  0.81682300  0.96382200  0.81098200  1
  Si  Si21  1  0.68317700  0.53617800  0.31098200  1
  Si  Si22  1  0.96382200  0.81682300  0.18901800  1
  Si  Si23  1  0.53617800  0.68317700  0.68901800  1
  Si  Si24  1  0.69934300  0.08459500  0.04100700  1
  Si  Si25  1  0.26382200  0.52037200  0.98182500  1
  Si  Si26  1  0.58459500  0.19934300  0.54100700  1
  Si  Si27  1  0.52037200  0.26382200  0.01817500  1
  Si  Si28  1  0.76382200  0.02037200  0.51817500  1
  Si  Si29  1  0.73617800  0.47962800  0.01817500  1
  Si  Si30  1  0.02037200  0.76382200  0.48182500  1
  Si  Si31  1  0.47962800  0.73617800  0.98182500  1
  Si  Si32  1  0.30065700  0.91540500  0.95899300  1
  Si  Si33  1  0.19934300  0.58459500  0.45899300  1
  Si  Si34  1  0.91540500  0.30065700  0.04100700  1
  Si  Si35  1  0.97962800  0.23617800  0.51817500  1
  O  O36  1  0.75178200  0.59337000  0.92283900  1
  O  O37  1  0.32117400  0.67882600  0.42587200  1
  O  O38  1  0.17882600  0.82117400  0.92587200  1
  O  O39  1  0.67882600  0.32117400  0.57412800  1
  O  O40  1  0.94351400  0.05648600  0.81705900  1
  O  O41  1  0.55648600  0.44351400  0.31705900  1
  O  O42  1  0.05648600  0.94351400  0.18294100  1
  O  O43  1  0.44351400  0.55648600  0.68294100  1
  O  O44  1  0.89289900  0.10710100  0.49842200  1
  O  O45  1  0.60710100  0.39289900  0.99842200  1
  O  O46  1  0.10710100  0.89289900  0.50157800  1
  O  O47  1  0.39289900  0.60710100  0.00157800  1
  O  O48  1  0.34605700  0.99608600  0.83389000  1
  O  O49  1  0.15394300  0.50391400  0.33389000  1
  O  O50  1  0.99608600  0.34605700  0.16611000  1
  O  O51  1  0.50391400  0.15394300  0.66611000  1
  O  O52  1  0.65394300  0.00391400  0.16611000  1
  O  O53  1  0.84605700  0.49608600  0.66611000  1
  O  O54  1  0.00391400  0.65394300  0.83389000  1
  O  O55  1  0.49608600  0.84605700  0.33389000  1
  O  O56  1  0.27899000  0.99740100  0.08493200  1
  O  O57  1  0.22101000  0.50259900  0.58493200  1
  O  O58  1  0.99740100  0.27899000  0.91506800  1
  O  O59  1  0.83136600  0.82853400  0.84002300  1
  O  O60  1  0.72101000  0.00259900  0.91506800  1
  O  O61  1  0.77899000  0.49740100  0.41506800  1
  O  O62  1  0.00259900  0.72101000  0.08493200  1
  O  O63  1  0.49740100  0.77899000  0.58493200  1
  O  O64  1  0.16863400  0.17146600  0.15997700  1
  O  O65  1  0.33136600  0.32853400  0.65997700  1
  O  O66  1  0.17146600  0.16863400  0.84002300  1
  O  O67  1  0.32853400  0.33136600  0.34002300  1
  O  O68  1  0.40576800  0.84443800  0.00670800  1
  O  O69  1  0.09423200  0.65556200  0.50670800  1
  O  O70  1  0.84443800  0.40576800  0.99329200  1
  O  O71  1  0.65556200  0.09423200  0.49329200  1
  O  O72  1  0.59423200  0.15556200  0.99329200  1
  O  O73  1  0.90576800  0.34443800  0.49329200  1
  O  O74  1  0.15556200  0.59423200  0.00670800  1
  O  O75  1  0.34443800  0.90576800  0.50670800  1
  O  O76  1  0.59337000  0.75178200  0.07716100  1
  O  O77  1  0.90663000  0.74821800  0.57716100  1
  O  O78  1  0.82117400  0.17882600  0.07412800  1
  O  O79  1  0.74821800  0.90663000  0.42283900  1
  O  O80  1  0.40663000  0.24821800  0.92283900  1
  O  O81  1  0.09337000  0.25178200  0.42283900  1
  O  O82  1  0.24821800  0.40663000  0.07716100  1
  O  O83  1  0.25178200  0.09337000  0.57716100  1
  O  O84  1  0.52485400  0.74986500  0.82932500  1
  O  O85  1  0.97514600  0.75013500  0.32932500  1
  O  O86  1  0.74986500  0.52485400  0.17067500  1
  O  O87  1  0.75013500  0.97514600  0.67067500  1
  O  O88  1  0.47514600  0.25013500  0.17067500  1
  O  O89  1  0.02485400  0.24986500  0.67067500  1
  O  O90  1  0.25013500  0.47514600  0.82932500  1
  O  O91  1  0.24986500  0.02485400  0.32932500  1
  O  O92  1  0.67146600  0.66863400  0.65997700  1
  O  O93  1  0.82853400  0.83136600  0.15997700  1
  O  O94  1  0.66863400  0.67146600  0.34002300  1
  O  O95  1  0.50259900  0.22101000  0.41506800  1
