# generated using pymatgen
data_K3NaOs2O9
_symmetry_space_group_name_H-M   'P 1'
_cell_length_a   6.06912488
_cell_length_b   6.06912488
_cell_length_c   14.50561600
_cell_angle_alpha   90.00000000
_cell_angle_beta   90.00000000
_cell_angle_gamma   119.99998778
_symmetry_Int_Tables_number   1
_chemical_formula_structural   K3NaOs2O9
_chemical_formula_sum   'K6 Na2 Os4 O18'
_cell_volume   462.72078591
_cell_formula_units_Z   2
loop_
 _symmetry_equiv_pos_site_id
 _symmetry_equiv_pos_as_xyz
  1  'x, y, z'
loop_
 _atom_site_type_symbol
 _atom_site_label
 _atom_site_symmetry_multiplicity
 _atom_site_fract_x
 _atom_site_fract_y
 _atom_site_fract_z
 _atom_site_occupancy
  K  K0  1  0.00000000  0.00000000  0.25000000  1
  K  K1  1  0.00000000  0.00000000  0.75000000  1
  K  K2  1  0.33333300  0.66666700  0.39084800  1
  K  K3  1  0.66666700  0.33333300  0.60915200  1
  K  K4  1  0.66666700  0.33333300  0.89084800  1
  K  K5  1  0.33333300  0.66666700  0.10915200  1
  Na  Na6  1  0.00000000  0.00000000  0.50000000  1
  Na  Na7  1  0.00000000  0.00000000  0.00000000  1
  Os  Os8  1  0.66666700  0.33333300  0.35068600  1
  Os  Os9  1  0.33333300  0.66666700  0.64931400  1
  Os  Os10  1  0.33333300  0.66666700  0.85068600  1
  Os  Os11  1  0.66666700  0.33333300  0.14931400  1
  O  O12  1  0.53189000  0.46811000  0.25000000  1
  O  O13  1  0.53189000  0.06377900  0.25000000  1
  O  O14  1  0.93622100  0.46811000  0.25000000  1
  O  O15  1  0.46811000  0.53189000  0.75000000  1
  O  O16  1  0.46811000  0.93622100  0.75000000  1
  O  O17  1  0.06377900  0.53189000  0.75000000  1
  O  O18  1  0.36362700  0.18181400  0.40943800  1
  O  O19  1  0.81818600  0.18181400  0.40943800  1
  O  O20  1  0.81818600  0.63637300  0.40943800  1
  O  O21  1  0.63637300  0.81818600  0.59056200  1
  O  O22  1  0.18181400  0.81818600  0.59056200  1
  O  O23  1  0.18181400  0.36362700  0.59056200  1
  O  O24  1  0.63637300  0.81818600  0.90943800  1
  O  O25  1  0.18181400  0.81818600  0.90943800  1
  O  O26  1  0.18181400  0.36362700  0.90943800  1
  O  O27  1  0.36362700  0.18181400  0.09056200  1
  O  O28  1  0.81818600  0.18181400  0.09056200  1
  O  O29  1  0.81818600  0.63637300  0.09056200  1
