# generated using pymatgen
data_Gd4GaSbS9
_symmetry_space_group_name_H-M   'P 1'
_cell_length_a   9.96693837
_cell_length_b   9.96693837
_cell_length_c   13.64358457
_cell_angle_alpha   90.00000000
_cell_angle_beta   90.00000000
_cell_angle_gamma   90.88059114
_symmetry_Int_Tables_number   1
_chemical_formula_structural   Gd4GaSbS9
_chemical_formula_sum   'Gd16 Ga4 Sb4 S36'
_cell_volume   1355.19171465
_cell_formula_units_Z   4
loop_
 _symmetry_equiv_pos_site_id
 _symmetry_equiv_pos_as_xyz
  1  'x, y, z'
loop_
 _atom_site_type_symbol
 _atom_site_label
 _atom_site_symmetry_multiplicity
 _atom_site_fract_x
 _atom_site_fract_y
 _atom_site_fract_z
 _atom_site_occupancy
  Gd  Gd0  1  0.12762095  0.09095407  0.81410051  1
  Gd  Gd1  1  0.90904593  0.87237905  0.18589949  1
  Gd  Gd2  1  0.62762095  0.59095407  0.68589949  1
  Gd  Gd3  1  0.40904593  0.37237905  0.31410051  1
  Gd  Gd4  1  0.33596198  0.32042620  0.60096692  1
  Gd  Gd5  1  0.67957380  0.66403802  0.39903308  1
  Gd  Gd6  1  0.83596198  0.82042620  0.89903308  1
  Gd  Gd7  1  0.17957380  0.16403802  0.10096692  1
  Gd  Gd8  1  0.62549621  0.04300786  0.68161202  1
  Gd  Gd9  1  0.95699214  0.37450379  0.31838798  1
  Gd  Gd10  1  0.12549621  0.54300786  0.81838798  1
  Gd  Gd11  1  0.45699214  0.87450379  0.18161202  1
  Gd  Gd12  1  0.44967113  0.32747720  0.89617990  1
  Gd  Gd13  1  0.67252280  0.55032887  0.10382010  1
  Gd  Gd14  1  0.94967113  0.82747720  0.60382010  1
  Gd  Gd15  1  0.17252280  0.05032887  0.39617990  1
  Ga  Ga16  1  0.38599546  0.82413165  0.90781180  1
  Ga  Ga17  1  0.17586835  0.61400454  0.09218820  1
  Ga  Ga18  1  0.88599546  0.32413165  0.59218820  1
  Ga  Ga19  1  0.67586835  0.11400454  0.40781180  1
  Sb  Sb20  1  0.32870388  0.83173697  0.61298826  1
  Sb  Sb21  1  0.16826303  0.67129612  0.38701174  1
  Sb  Sb22  1  0.82870388  0.33173697  0.88701174  1
  Sb  Sb23  1  0.66826303  0.17129612  0.11298826  1
  S  S24  1  0.16442601  0.01536853  0.59941091  1
  S  S25  1  0.98463147  0.83557399  0.40058909  1
  S  S26  1  0.66442601  0.51536853  0.90058909  1
  S  S27  1  0.48463147  0.33557399  0.09941091  1
  S  S28  1  0.66495170  0.14649348  0.91872670  1
  S  S29  1  0.85350652  0.33504830  0.08127330  1
  S  S30  1  0.16495170  0.64649348  0.58127330  1
  S  S31  1  0.35350652  0.83504830  0.41872670  1
  S  S32  1  0.20483005  0.81797387  0.80221790  1
  S  S33  1  0.18202613  0.79516995  0.19778210  1
  S  S34  1  0.70483005  0.31797387  0.69778210  1
  S  S35  1  0.68202613  0.29516995  0.30221790  1
  S  S36  1  0.57474037  0.82150506  0.80962773  1
  S  S37  1  0.17849494  0.42525963  0.19037227  1
  S  S38  1  0.07474037  0.32150506  0.69037227  1
  S  S39  1  0.67849494  0.92525963  0.30962773  1
  S  S40  1  0.87196357  0.12803643  0.50000000  1
  S  S41  1  0.37196357  0.62803643  -0.00000000  1
  S  S42  1  0.49122293  0.11863774  0.50775185  1
  S  S43  1  0.88136226  0.50877707  0.49224815  1
  S  S44  1  0.99122293  0.61863774  0.99224815  1
  S  S45  1  0.38136226  0.00877707  0.00775185  1
  S  S46  1  0.68027793  0.81372012  0.56785098  1
  S  S47  1  0.18627988  0.31972207  0.43214902  1
  S  S48  1  0.18027793  0.31372012  0.93214902  1
  S  S49  1  0.68627988  0.81972207  0.06785098  1
  S  S50  1  0.88137555  0.00393324  0.75098480  1
  S  S51  1  0.99606676  0.11862445  0.24901520  1
  S  S52  1  0.38137555  0.50393324  0.74901520  1
  S  S53  1  0.49606676  0.61862445  0.25098480  1
  S  S54  1  0.50015808  0.49984192  0.50000000  1
  S  S55  1  0.00015808  0.99984192  -0.00000000  1
  S  S56  1  0.39024507  0.14145489  0.75412010  1
  S  S57  1  0.85854511  0.60975493  0.24587990  1
  S  S58  1  0.89024507  0.64145489  0.74587990  1
  S  S59  1  0.35854511  0.10975493  0.25412010  1
