# generated using pymatgen
data_Na4Eu(GeSe3)2
_symmetry_space_group_name_H-M   'P 1'
_cell_length_a   7.20299979
_cell_length_b   7.20299979
_cell_length_c   8.08145386
_cell_angle_alpha   81.40618065
_cell_angle_beta   81.40618065
_cell_angle_gamma   119.83948971
_symmetry_Int_Tables_number   1
_chemical_formula_structural   Na4Eu(GeSe3)2
_chemical_formula_sum   'Na4 Eu1 Ge2 Se6'
_cell_volume   347.16338153
_cell_formula_units_Z   1
loop_
 _symmetry_equiv_pos_site_id
 _symmetry_equiv_pos_as_xyz
  1  'x, y, z'
loop_
 _atom_site_type_symbol
 _atom_site_label
 _atom_site_symmetry_multiplicity
 _atom_site_fract_x
 _atom_site_fract_y
 _atom_site_fract_z
 _atom_site_occupancy
  Na  Na0  1  0.67315000  0.32685000  0.00000000  1
  Na  Na1  1  0.32682700  0.67317300  0.00000000  1
  Na  Na2  1  0.00000300  0.99999700  0.00000000  1
  Na  Na3  1  0.83397300  0.16602700  0.50000000  1
  Eu  Eu4  1  0.16596600  0.83403400  0.50000000  1
  Ge  Ge5  1  0.55137800  0.55130700  0.34139400  1
  Ge  Ge6  1  0.44869300  0.44862200  0.65860600  1
  Se  Se7  1  0.90095800  0.58393800  0.25067500  1
  Se  Se8  1  0.58022100  0.89909100  0.25032800  1
  Se  Se9  1  0.10090900  0.41977900  0.74967200  1
  Se  Se10  1  0.41606200  0.09904200  0.74932500  1
  Se  Se11  1  0.26655200  0.26469100  0.25031900  1
  Se  Se12  1  0.73530900  0.73344800  0.74968100  1
