# generated using pymatgen
data_CsCuS6
_symmetry_space_group_name_H-M   'P 1'
_cell_length_a   7.58496600
_cell_length_b   10.94433282
_cell_length_c   11.56087171
_cell_angle_alpha   73.60631383
_cell_angle_beta   83.76341107
_cell_angle_gamma   77.93268145
_symmetry_Int_Tables_number   1
_chemical_formula_structural   CsCuS6
_chemical_formula_sum   'Cs4 Cu4 S24'
_cell_volume   899.07396478
_cell_formula_units_Z   4
loop_
 _symmetry_equiv_pos_site_id
 _symmetry_equiv_pos_as_xyz
  1  'x, y, z'
loop_
 _atom_site_type_symbol
 _atom_site_label
 _atom_site_symmetry_multiplicity
 _atom_site_fract_x
 _atom_site_fract_y
 _atom_site_fract_z
 _atom_site_occupancy
  Cs  Cs0  1  0.83093000  0.69682200  0.57886700  1
  Cs  Cs1  1  0.16907000  0.30317800  0.42113300  1
  Cs  Cs2  1  0.68077400  0.30231300  0.92792200  1
  Cs  Cs3  1  0.31922600  0.69768700  0.07207800  1
  Cu  Cu4  1  0.60106800  0.49391500  0.38650500  1
  Cu  Cu5  1  0.39893200  0.50608500  0.61349500  1
  Cu  Cu6  1  0.15258900  0.49769400  0.87091900  1
  Cu  Cu7  1  0.84741100  0.50230600  0.12908100  1
  S  S8  1  0.36849000  0.61383900  0.76152100  1
  S  S9  1  0.63151000  0.38616100  0.23847900  1
  S  S10  1  0.19715300  0.79765200  0.72933100  1
  S  S11  1  0.80284700  0.20234800  0.27066900  1
  S  S12  1  0.31664900  0.92806500  0.59731400  1
  S  S13  1  0.68335100  0.07193500  0.40268600  1
  S  S14  1  0.22079400  0.92981800  0.43174400  1
  S  S15  1  0.77920600  0.07018200  0.56825600  1
  S  S16  1  0.40488600  0.79915600  0.36193100  1
  S  S17  1  0.59511400  0.20084400  0.63806900  1
  S  S18  1  0.68030400  0.38030700  0.58311700  1
  S  S19  1  0.31969600  0.61969300  0.41688300  1
  S  S20  1  0.15989000  0.39651500  0.72002000  1
  S  S21  1  0.84011000  0.60348500  0.27998000  1
  S  S22  1  0.10751500  0.20660100  0.76266600  1
  S  S23  1  0.89248500  0.79339900  0.23733400  1
  S  S24  1  0.28608700  0.08403700  0.88733900  1
  S  S25  1  0.71391300  0.91596300  0.11266100  1
  S  S26  1  0.16790800  0.08517700  0.06006300  1
  S  S27  1  0.83209200  0.91482300  0.93993700  1
  S  S28  1  0.71243200  0.79518700  0.87492100  1
  S  S29  1  0.28756800  0.20481300  0.12507900  1
  S  S30  1  0.85214700  0.60345800  0.92726200  1
  S  S31  1  0.14785300  0.39654200  0.07273800  1
