# generated using pymatgen
data_Ca(Al4Co)2
_symmetry_space_group_name_H-M   'P 1'
_cell_length_a   3.95568700
_cell_length_b   12.47225100
_cell_length_c   14.50604100
_cell_angle_alpha   90.00000000
_cell_angle_beta   90.00000000
_cell_angle_gamma   90.00000000
_symmetry_Int_Tables_number   1
_chemical_formula_structural   Ca(Al4Co)2
_chemical_formula_sum   'Ca4 Al32 Co8'
_cell_volume   715.67469727
_cell_formula_units_Z   4
loop_
 _symmetry_equiv_pos_site_id
 _symmetry_equiv_pos_as_xyz
  1  'x, y, z'
loop_
 _atom_site_type_symbol
 _atom_site_label
 _atom_site_symmetry_multiplicity
 _atom_site_fract_x
 _atom_site_fract_y
 _atom_site_fract_z
 _atom_site_occupancy
  Ca  Ca0  1  0.50000000  0.15896400  0.68108500  1
  Ca  Ca1  1  0.50000000  0.84103600  0.31891500  1
  Ca  Ca2  1  0.50000000  0.65896400  0.81891500  1
  Ca  Ca3  1  0.50000000  0.34103600  0.18108500  1
  Al  Al4  1  0.00000000  0.73617400  0.17351600  1
  Al  Al5  1  0.50000000  0.40345700  0.74528800  1
  Al  Al6  1  0.50000000  0.16127000  0.95478700  1
  Al  Al7  1  0.00000000  0.52566500  0.13308800  1
  Al  Al8  1  0.50000000  0.50000000  0.00000000  1
  Al  Al9  1  0.50000000  0.09654300  0.24528800  1
  Al  Al10  1  0.00000000  0.45195400  0.32065100  1
  Al  Al11  1  0.50000000  0.33873000  0.45478700  1
  Al  Al12  1  0.50000000  0.90345700  0.75471200  1
  Al  Al13  1  0.00000000  0.02566500  0.36691200  1
  Al  Al14  1  0.00000000  0.16832200  0.50701100  1
  Al  Al15  1  0.00000000  0.16068100  0.11887600  1
  Al  Al16  1  0.00000000  0.23617400  0.32648400  1
  Al  Al17  1  0.00000000  0.83167800  0.49298900  1
  Al  Al18  1  0.50000000  0.83873000  0.04521300  1
  Al  Al19  1  0.00000000  0.97433500  0.63308800  1
  Al  Al20  1  0.00000000  0.76382600  0.67351600  1
  Al  Al21  1  0.00000000  0.47433500  0.86691200  1
  Al  Al22  1  0.00000000  0.66068100  0.38112400  1
  Al  Al23  1  0.00000000  0.50000000  0.50000000  1
  Al  Al24  1  0.00000000  0.83931900  0.88112400  1
  Al  Al25  1  0.00000000  0.26382600  0.82648400  1
  Al  Al26  1  0.00000000  0.95195400  0.17934900  1
  Al  Al27  1  0.00000000  0.33931900  0.61887600  1
  Al  Al28  1  0.50000000  0.59654300  0.25471200  1
  Al  Al29  1  0.00000000  0.66832200  0.99298900  1
  Al  Al30  1  0.00000000  0.33167800  0.00701100  1
  Al  Al31  1  0.50000000  0.66127000  0.54521300  1
  Al  Al32  1  0.00000000  0.00000000  0.00000000  1
  Al  Al33  1  0.00000000  0.54804600  0.67934900  1
  Al  Al34  1  0.00000000  0.04804600  0.82065100  1
  Al  Al35  1  0.50000000  0.00000000  0.50000000  1
  Co  Co36  1  0.50000000  0.85040900  0.59836600  1
  Co  Co37  1  0.50000000  0.03451100  0.09289600  1
  Co  Co38  1  0.50000000  0.14959100  0.40163400  1
  Co  Co39  1  0.50000000  0.96548900  0.90710400  1
  Co  Co40  1  0.50000000  0.53451100  0.40710400  1
  Co  Co41  1  0.50000000  0.46548900  0.59289600  1
  Co  Co42  1  0.50000000  0.64959100  0.09836600  1
  Co  Co43  1  0.50000000  0.35040900  0.90163400  1
