# generated using pymatgen
data_RbAl(H2N)4
_symmetry_space_group_name_H-M   'P 1'
_cell_length_a   5.77448000
_cell_length_b   7.74446600
_cell_length_c   7.74446600
_cell_angle_alpha   90.00000000
_cell_angle_beta   90.00000000
_cell_angle_gamma   90.00000000
_symmetry_Int_Tables_number   1
_chemical_formula_structural   RbAl(H2N)4
_chemical_formula_sum   'Rb2 Al2 H16 N8'
_cell_volume   346.33456427
_cell_formula_units_Z   2
loop_
 _symmetry_equiv_pos_site_id
 _symmetry_equiv_pos_as_xyz
  1  'x, y, z'
loop_
 _atom_site_type_symbol
 _atom_site_label
 _atom_site_symmetry_multiplicity
 _atom_site_fract_x
 _atom_site_fract_y
 _atom_site_fract_z
 _atom_site_occupancy
  Rb  Rb0  1  0.27710200  0.75000000  0.75000000  1
  Rb  Rb1  1  0.72289800  0.25000000  0.25000000  1
  Al  Al2  1  0.00000000  0.25000000  0.75000000  1
  Al  Al3  1  0.00000000  0.75000000  0.25000000  1
  H  H4  1  0.36768000  0.59271100  0.18455600  1
  H  H5  1  0.36768000  0.90728900  0.31544400  1
  H  H6  1  0.36768000  0.18455600  0.90728900  1
  H  H7  1  0.36768000  0.31544400  0.59271100  1
  H  H8  1  0.63232000  0.40728900  0.81544400  1
  H  H9  1  0.63232000  0.09271100  0.68455600  1
  H  H10  1  0.63232000  0.81544400  0.09271100  1
  H  H11  1  0.63232000  0.68455600  0.40728900  1
  H  H12  1  0.16048900  0.49042700  0.08383100  1
  H  H13  1  0.16048900  0.00957300  0.41616900  1
  H  H14  1  0.16048900  0.08383100  0.00957300  1
  H  H15  1  0.16048900  0.41616900  0.49042700  1
  H  H16  1  0.83951100  0.50957300  0.91616900  1
  H  H17  1  0.83951100  0.99042700  0.58383100  1
  H  H18  1  0.83951100  0.91616900  0.99042700  1
  H  H19  1  0.83951100  0.58383100  0.50957300  1
  N  N20  1  0.20811500  0.60819400  0.13068000  1
  N  N21  1  0.20811500  0.89180600  0.36932000  1
  N  N22  1  0.20811500  0.13068000  0.89180600  1
  N  N23  1  0.20811500  0.36932000  0.60819400  1
  N  N24  1  0.79188500  0.39180600  0.86932000  1
  N  N25  1  0.79188500  0.10819400  0.63068000  1
  N  N26  1  0.79188500  0.86932000  0.10819400  1
  N  N27  1  0.79188500  0.63068000  0.39180600  1
