# generated using pymatgen
data_HoCrB4
_symmetry_space_group_name_H-M   'P 1'
_cell_length_a   3.43382600
_cell_length_b   5.91439400
_cell_length_c   11.43038100
_cell_angle_alpha   90.00000000
_cell_angle_beta   90.00000000
_cell_angle_gamma   90.00000000
_symmetry_Int_Tables_number   1
_chemical_formula_structural   HoCrB4
_chemical_formula_sum   'Ho4 Cr4 B16'
_cell_volume   232.13960649
_cell_formula_units_Z   4
loop_
 _symmetry_equiv_pos_site_id
 _symmetry_equiv_pos_as_xyz
  1  'x, y, z'
loop_
 _atom_site_type_symbol
 _atom_site_label
 _atom_site_symmetry_multiplicity
 _atom_site_fract_x
 _atom_site_fract_y
 _atom_site_fract_z
 _atom_site_occupancy
  Ho  Ho0  1  0.00000000  0.62636700  0.34917300  1
  Ho  Ho1  1  0.00000000  0.37363300  0.65082700  1
  Ho  Ho2  1  0.00000000  0.12636700  0.15082700  1
  Ho  Ho3  1  0.00000000  0.87363300  0.84917300  1
  Cr  Cr4  1  0.00000000  0.62317800  0.07950000  1
  Cr  Cr5  1  0.00000000  0.37682200  0.92050000  1
  Cr  Cr6  1  0.00000000  0.12317800  0.42050000  1
  Cr  Cr7  1  0.00000000  0.87682200  0.57950000  1
  B  B8  1  0.50000000  0.78268800  0.18407800  1
  B  B9  1  0.50000000  0.21731200  0.81592200  1
  B  B10  1  0.50000000  0.28268800  0.31592200  1
  B  B11  1  0.50000000  0.71731200  0.68407800  1
  B  B12  1  0.50000000  0.86358900  0.03261900  1
  B  B13  1  0.50000000  0.13641100  0.96738100  1
  B  B14  1  0.50000000  0.36358900  0.46738100  1
  B  B15  1  0.50000000  0.63641100  0.53261900  1
  B  B16  1  0.50000000  0.88696000  0.45326500  1
  B  B17  1  0.50000000  0.11304000  0.54673500  1
  B  B18  1  0.50000000  0.38696000  0.04673500  1
  B  B19  1  0.50000000  0.61304000  0.95326500  1
  B  B20  1  0.50000000  0.97700100  0.30842200  1
  B  B21  1  0.50000000  0.02299900  0.69157800  1
  B  B22  1  0.50000000  0.47700100  0.19157800  1
  B  B23  1  0.50000000  0.52299900  0.80842200  1
