# generated using pymatgen
data_Er2C
_symmetry_space_group_name_H-M   'P 1'
_cell_length_a   6.37386520
_cell_length_b   6.37386520
_cell_length_c   6.37386589
_cell_angle_alpha   32.45482187
_cell_angle_beta   32.45482187
_cell_angle_gamma   32.45482656
_symmetry_Int_Tables_number   1
_chemical_formula_structural   Er2C
_chemical_formula_sum   'Er2 C1'
_cell_volume   66.30299840
_cell_formula_units_Z   1
loop_
 _symmetry_equiv_pos_site_id
 _symmetry_equiv_pos_as_xyz
  1  'x, y, z'
loop_
 _atom_site_type_symbol
 _atom_site_label
 _atom_site_symmetry_multiplicity
 _atom_site_fract_x
 _atom_site_fract_y
 _atom_site_fract_z
 _atom_site_occupancy
  Er  Er0  1  0.24022300  0.24022300  0.24022300  1
  Er  Er1  1  0.75977700  0.75977700  0.75977700  1
  C  C2  1  0.50000000  0.50000000  0.50000000  1
