# generated using pymatgen
data_BaTbCuTe3
_symmetry_space_group_name_H-M   'P 1'
_cell_length_a   7.79382546
_cell_length_b   7.79382546
_cell_length_c   11.46917700
_cell_angle_alpha   90.00000000
_cell_angle_beta   90.00000000
_cell_angle_gamma   146.78703970
_symmetry_Int_Tables_number   1
_chemical_formula_structural   BaTbCuTe3
_chemical_formula_sum   'Ba2 Tb2 Cu2 Te6'
_cell_volume   381.60843270
_cell_formula_units_Z   2
loop_
 _symmetry_equiv_pos_site_id
 _symmetry_equiv_pos_as_xyz
  1  'x, y, z'
loop_
 _atom_site_type_symbol
 _atom_site_label
 _atom_site_symmetry_multiplicity
 _atom_site_fract_x
 _atom_site_fract_y
 _atom_site_fract_z
 _atom_site_occupancy
  Ba  Ba0  1  0.24973500  0.75026500  0.25000000  1
  Ba  Ba1  1  0.75026500  0.24973500  0.75000000  1
  Tb  Tb2  1  0.00000000  0.00000000  0.50000000  1
  Tb  Tb3  1  0.00000000  0.00000000  0.00000000  1
  Cu  Cu4  1  0.53288800  0.46711200  0.25000000  1
  Cu  Cu5  1  0.46711200  0.53288800  0.75000000  1
  Te  Te6  1  0.63728600  0.36271400  0.43870100  1
  Te  Te7  1  0.36271400  0.63728600  0.56129900  1
  Te  Te8  1  0.63728600  0.36271400  0.06129900  1
  Te  Te9  1  0.36271400  0.63728600  0.93870100  1
  Te  Te10  1  0.92996100  0.07003900  0.25000000  1
  Te  Te11  1  0.07003900  0.92996100  0.75000000  1
