# generated using pymatgen
data_Tb2B6Os
_symmetry_space_group_name_H-M   'P 1'
_cell_length_a   3.67892800
_cell_length_b   9.19968600
_cell_length_c   11.57206500
_cell_angle_alpha   90.00000000
_cell_angle_beta   90.00000000
_cell_angle_gamma   90.00000000
_symmetry_Int_Tables_number   1
_chemical_formula_structural   Tb2B6Os
_chemical_formula_sum   'Tb8 B24 Os4'
_cell_volume   391.65633645
_cell_formula_units_Z   4
loop_
 _symmetry_equiv_pos_site_id
 _symmetry_equiv_pos_as_xyz
  1  'x, y, z'
loop_
 _atom_site_type_symbol
 _atom_site_label
 _atom_site_symmetry_multiplicity
 _atom_site_fract_x
 _atom_site_fract_y
 _atom_site_fract_z
 _atom_site_occupancy
  Tb  Tb0  1  0.00000000  0.32262100  0.41352300  1
  Tb  Tb1  1  0.00000000  0.67737900  0.58647700  1
  Tb  Tb2  1  0.00000000  0.82262100  0.08647700  1
  Tb  Tb3  1  0.00000000  0.17737900  0.91352300  1
  Tb  Tb4  1  0.00000000  0.94490700  0.37319000  1
  Tb  Tb5  1  0.00000000  0.05509300  0.62681000  1
  Tb  Tb6  1  0.00000000  0.44490700  0.12681000  1
  Tb  Tb7  1  0.00000000  0.55509300  0.87319000  1
  B  B8  1  0.50000000  0.55449400  0.43277500  1
  B  B9  1  0.50000000  0.44550600  0.56722500  1
  B  B10  1  0.50000000  0.05449400  0.06722500  1
  B  B11  1  0.50000000  0.94550600  0.93277500  1
  B  B12  1  0.50000000  0.74801000  0.42039600  1
  B  B13  1  0.50000000  0.25199000  0.57960400  1
  B  B14  1  0.50000000  0.24801000  0.07960400  1
  B  B15  1  0.50000000  0.75199000  0.92039600  1
  B  B16  1  0.50000000  0.79103300  0.26786200  1
  B  B17  1  0.50000000  0.20896700  0.73213800  1
  B  B18  1  0.50000000  0.29103300  0.23213800  1
  B  B19  1  0.50000000  0.70896700  0.76786200  1
  B  B20  1  0.50000000  0.63298400  0.18606200  1
  B  B21  1  0.50000000  0.36701600  0.81393800  1
  B  B22  1  0.50000000  0.13298400  0.31393800  1
  B  B23  1  0.50000000  0.86701600  0.68606200  1
  B  B24  1  0.50000000  0.98504400  0.21300500  1
  B  B25  1  0.50000000  0.01495600  0.78699500  1
  B  B26  1  0.50000000  0.48504400  0.28699500  1
  B  B27  1  0.50000000  0.51495600  0.71300500  1
  B  B28  1  0.50000000  0.61200400  0.03102200  1
  B  B29  1  0.50000000  0.38799600  0.96897800  1
  B  B30  1  0.50000000  0.11200400  0.46897800  1
  B  B31  1  0.50000000  0.88799600  0.53102200  1
  Os  Os32  1  0.00000000  0.63828900  0.32160900  1
  Os  Os33  1  0.00000000  0.36171100  0.67839100  1
  Os  Os34  1  0.00000000  0.13828900  0.17839100  1
  Os  Os35  1  0.00000000  0.86171100  0.82160900  1
