# generated using pymatgen
data_DyReB4
_symmetry_space_group_name_H-M   'P 1'
_cell_length_a   3.62164800
_cell_length_b   5.97216200
_cell_length_c   11.56084800
_cell_angle_alpha   90.00000000
_cell_angle_beta   90.00000000
_cell_angle_gamma   90.00000000
_symmetry_Int_Tables_number   1
_chemical_formula_structural   DyReB4
_chemical_formula_sum   'Dy4 Re4 B16'
_cell_volume   250.05037404
_cell_formula_units_Z   4
loop_
 _symmetry_equiv_pos_site_id
 _symmetry_equiv_pos_as_xyz
  1  'x, y, z'
loop_
 _atom_site_type_symbol
 _atom_site_label
 _atom_site_symmetry_multiplicity
 _atom_site_fract_x
 _atom_site_fract_y
 _atom_site_fract_z
 _atom_site_occupancy
  Dy  Dy0  1  0.00000000  0.62600600  0.34970300  1
  Dy  Dy1  1  0.00000000  0.37399400  0.65029700  1
  Dy  Dy2  1  0.00000000  0.12600600  0.15029700  1
  Dy  Dy3  1  0.00000000  0.87399400  0.84970300  1
  Re  Re4  1  0.00000000  0.63257200  0.08743700  1
  Re  Re5  1  0.00000000  0.36742800  0.91256300  1
  Re  Re6  1  0.00000000  0.13257200  0.41256300  1
  Re  Re7  1  0.00000000  0.86742800  0.58743700  1
  B  B8  1  0.50000000  0.78736100  0.18470100  1
  B  B9  1  0.50000000  0.21263900  0.81529900  1
  B  B10  1  0.50000000  0.28736100  0.31529900  1
  B  B11  1  0.50000000  0.71263900  0.68470100  1
  B  B12  1  0.50000000  0.86376000  0.03143500  1
  B  B13  1  0.50000000  0.13624000  0.96856500  1
  B  B14  1  0.50000000  0.36376000  0.46856500  1
  B  B15  1  0.50000000  0.63624000  0.53143500  1
  B  B16  1  0.50000000  0.88626000  0.45284200  1
  B  B17  1  0.50000000  0.11374000  0.54715800  1
  B  B18  1  0.50000000  0.38626000  0.04715800  1
  B  B19  1  0.50000000  0.61374000  0.95284200  1
  B  B20  1  0.50000000  0.97743000  0.30801800  1
  B  B21  1  0.50000000  0.02257000  0.69198200  1
  B  B22  1  0.50000000  0.47743000  0.19198200  1
  B  B23  1  0.50000000  0.52257000  0.80801800  1
