# generated using pymatgen
data_NpTl2F6
_symmetry_space_group_name_H-M   'P 1'
_cell_length_a   7.12085275
_cell_length_b   7.12085275
_cell_length_c   7.52813500
_cell_angle_alpha   90.00000000
_cell_angle_beta   90.00000000
_cell_angle_gamma   120.43536885
_symmetry_Int_Tables_number   1
_chemical_formula_structural   NpTl2F6
_chemical_formula_sum   'Np2 Tl4 F12'
_cell_volume   329.12433607
_cell_formula_units_Z   2
loop_
 _symmetry_equiv_pos_site_id
 _symmetry_equiv_pos_as_xyz
  1  'x, y, z'
loop_
 _atom_site_type_symbol
 _atom_site_label
 _atom_site_symmetry_multiplicity
 _atom_site_fract_x
 _atom_site_fract_y
 _atom_site_fract_z
 _atom_site_occupancy
  Np  Np0  1  0.44536300  0.55463700  0.25000000  1
  Np  Np1  1  0.55463700  0.44536300  0.75000000  1
  Tl  Tl2  1  0.84490400  0.15509600  0.99787600  1
  Tl  Tl3  1  0.15509600  0.84490400  0.00212400  1
  Tl  Tl4  1  0.15509600  0.84490400  0.49787600  1
  Tl  Tl5  1  0.84490400  0.15509600  0.50212400  1
  F  F6  1  0.10678500  0.51019900  0.25000000  1
  F  F7  1  0.89321500  0.48980100  0.75000000  1
  F  F8  1  0.48980100  0.89321500  0.25000000  1
  F  F9  1  0.51019900  0.10678500  0.75000000  1
  F  F10  1  0.60047400  0.39952600  0.04247500  1
  F  F11  1  0.39952600  0.60047400  0.95752500  1
  F  F12  1  0.39952600  0.60047400  0.54247500  1
  F  F13  1  0.60047400  0.39952600  0.45752500  1
  F  F14  1  0.21813700  0.20101900  0.25000000  1
  F  F15  1  0.78186300  0.79898100  0.75000000  1
  F  F16  1  0.79898100  0.78186300  0.25000000  1
  F  F17  1  0.20101900  0.21813700  0.75000000  1
