# generated using pymatgen
data_Ba(NbN2)2
_symmetry_space_group_name_H-M   'P 1'
_cell_length_a   11.25582300
_cell_length_b   11.25582300
_cell_length_c   11.25582300
_cell_angle_alpha   90.00000000
_cell_angle_beta   90.00000000
_cell_angle_gamma   90.00000000
_symmetry_Int_Tables_number   1
_chemical_formula_structural   Ba(NbN2)2
_chemical_formula_sum   'Ba12 Nb24 N48'
_cell_volume   1426.04018988
_cell_formula_units_Z   12
loop_
 _symmetry_equiv_pos_site_id
 _symmetry_equiv_pos_as_xyz
  1  'x, y, z'
loop_
 _atom_site_type_symbol
 _atom_site_label
 _atom_site_symmetry_multiplicity
 _atom_site_fract_x
 _atom_site_fract_y
 _atom_site_fract_z
 _atom_site_occupancy
  Ba  Ba0  1  0.50000000  0.50000000  0.00000000  1
  Ba  Ba1  1  0.50000000  0.00000000  0.50000000  1
  Ba  Ba2  1  0.00000000  0.50000000  0.50000000  1
  Ba  Ba3  1  0.00000000  0.00000000  0.00000000  1
  Ba  Ba4  1  0.12066400  0.87933600  0.37933600  1
  Ba  Ba5  1  0.87933600  0.37933600  0.12066400  1
  Ba  Ba6  1  0.37933600  0.12066400  0.87933600  1
  Ba  Ba7  1  0.62066400  0.62066400  0.62066400  1
  Ba  Ba8  1  0.87933600  0.12066400  0.62066400  1
  Ba  Ba9  1  0.12066400  0.62066400  0.87933600  1
  Ba  Ba10  1  0.62066400  0.87933600  0.12066400  1
  Ba  Ba11  1  0.37933600  0.37933600  0.37933600  1
  Nb  Nb12  1  0.39478300  0.70968200  0.34867500  1
  Nb  Nb13  1  0.60521700  0.20968200  0.15132500  1
  Nb  Nb14  1  0.10521700  0.29031800  0.84867500  1
  Nb  Nb15  1  0.89478300  0.79031800  0.65132500  1
  Nb  Nb16  1  0.34867500  0.39478300  0.70968200  1
  Nb  Nb17  1  0.15132500  0.60521700  0.20968200  1
  Nb  Nb18  1  0.84867500  0.10521700  0.29031800  1
  Nb  Nb19  1  0.65132500  0.89478300  0.79031800  1
  Nb  Nb20  1  0.70968200  0.34867500  0.39478300  1
  Nb  Nb21  1  0.20968200  0.15132500  0.60521700  1
  Nb  Nb22  1  0.29031800  0.84867500  0.10521700  1
  Nb  Nb23  1  0.79031800  0.65132500  0.89478300  1
  Nb  Nb24  1  0.60521700  0.29031800  0.65132500  1
  Nb  Nb25  1  0.39478300  0.79031800  0.84867500  1
  Nb  Nb26  1  0.89478300  0.70968200  0.15132500  1
  Nb  Nb27  1  0.10521700  0.20968200  0.34867500  1
  Nb  Nb28  1  0.65132500  0.60521700  0.29031800  1
  Nb  Nb29  1  0.84867500  0.39478300  0.79031800  1
  Nb  Nb30  1  0.15132500  0.89478300  0.70968200  1
  Nb  Nb31  1  0.34867500  0.10521700  0.20968200  1
  Nb  Nb32  1  0.29031800  0.65132500  0.60521700  1
  Nb  Nb33  1  0.79031800  0.84867500  0.39478300  1
  Nb  Nb34  1  0.70968200  0.15132500  0.89478300  1
  Nb  Nb35  1  0.20968200  0.34867500  0.10521700  1
  N  N36  1  0.35872200  0.86316200  0.26556300  1
  N  N37  1  0.64127800  0.36316200  0.23443700  1
  N  N38  1  0.14127800  0.13683800  0.76556300  1
  N  N39  1  0.85872200  0.63683800  0.73443700  1
  N  N40  1  0.26556300  0.35872200  0.86316200  1
  N  N41  1  0.23443700  0.64127800  0.36316200  1
  N  N42  1  0.76556300  0.14127800  0.13683800  1
  N  N43  1  0.73443700  0.85872200  0.63683800  1
  N  N44  1  0.86316200  0.26556300  0.35872200  1
  N  N45  1  0.36316200  0.23443700  0.64127800  1
  N  N46  1  0.13683800  0.76556300  0.14127800  1
  N  N47  1  0.63683800  0.73443700  0.85872200  1
  N  N48  1  0.64127800  0.13683800  0.73443700  1
  N  N49  1  0.35872200  0.63683800  0.76556300  1
  N  N50  1  0.85872200  0.86316200  0.23443700  1
  N  N51  1  0.14127800  0.36316200  0.26556300  1
  N  N52  1  0.73443700  0.64127800  0.13683800  1
  N  N53  1  0.76556300  0.35872200  0.63683800  1
  N  N54  1  0.23443700  0.85872200  0.86316200  1
  N  N55  1  0.26556300  0.14127800  0.36316200  1
  N  N56  1  0.13683800  0.73443700  0.64127800  1
  N  N57  1  0.63683800  0.76556300  0.35872200  1
  N  N58  1  0.86316200  0.23443700  0.85872200  1
  N  N59  1  0.36316200  0.26556300  0.14127800  1
  N  N60  1  0.42103700  0.73184200  0.51782600  1
  N  N61  1  0.57896300  0.23184200  0.98217400  1
  N  N62  1  0.07896300  0.26815800  0.01782600  1
  N  N63  1  0.92103700  0.76815800  0.48217400  1
  N  N64  1  0.51782600  0.42103700  0.73184200  1
  N  N65  1  0.98217400  0.57896300  0.23184200  1
  N  N66  1  0.01782600  0.07896300  0.26815800  1
  N  N67  1  0.48217400  0.92103700  0.76815800  1
  N  N68  1  0.73184200  0.51782600  0.42103700  1
  N  N69  1  0.23184200  0.98217400  0.57896300  1
  N  N70  1  0.26815800  0.01782600  0.07896300  1
  N  N71  1  0.76815800  0.48217400  0.92103700  1
  N  N72  1  0.57896300  0.26815800  0.48217400  1
  N  N73  1  0.42103700  0.76815800  0.01782600  1
  N  N74  1  0.92103700  0.73184200  0.98217400  1
  N  N75  1  0.07896300  0.23184200  0.51782600  1
  N  N76  1  0.48217400  0.57896300  0.26815800  1
  N  N77  1  0.01782600  0.42103700  0.76815800  1
  N  N78  1  0.98217400  0.92103700  0.73184200  1
  N  N79  1  0.51782600  0.07896300  0.23184200  1
  N  N80  1  0.26815800  0.48217400  0.57896300  1
  N  N81  1  0.76815800  0.01782600  0.42103700  1
  N  N82  1  0.73184200  0.98217400  0.92103700  1
  N  N83  1  0.23184200  0.51782600  0.07896300  1
