# generated using pymatgen
data_Rb2TaAgS4
_symmetry_space_group_name_H-M   'P 1'
_cell_length_a   13.92720260
_cell_length_b   12.41833005
_cell_length_c   7.60170421
_cell_angle_alpha   84.51887534
_cell_angle_beta   62.57109683
_cell_angle_gamma   32.91002783
_symmetry_Int_Tables_number   1
_chemical_formula_structural   Rb2TaAgS4
_chemical_formula_sum   'Rb4 Ta2 Ag2 S8'
_cell_volume   505.37230007
_cell_formula_units_Z   2
loop_
 _symmetry_equiv_pos_site_id
 _symmetry_equiv_pos_as_xyz
  1  'x, y, z'
loop_
 _atom_site_type_symbol
 _atom_site_label
 _atom_site_symmetry_multiplicity
 _atom_site_fract_x
 _atom_site_fract_y
 _atom_site_fract_z
 _atom_site_occupancy
  Rb  Rb0  1  0.42917200  0.42917200  0.07082800  1
  Rb  Rb1  1  0.82082800  0.82082800  0.17917200  1
  Rb  Rb2  1  0.07082800  0.07082800  0.42917200  1
  Rb  Rb3  1  0.17917200  0.17917200  0.82082800  1
  Ta  Ta4  1  0.00000000  0.00000000  0.00000000  1
  Ta  Ta5  1  0.25000000  0.25000000  0.25000000  1
  Ag  Ag6  1  0.50000000  0.50000000  0.50000000  1
  Ag  Ag7  1  0.75000000  0.75000000  0.75000000  1
  S  S8  1  0.74425400  0.36678000  0.05963200  1
  S  S9  1  0.82933300  0.05963200  0.36678000  1
  S  S10  1  0.05963200  0.82933300  0.74425400  1
  S  S11  1  0.36678000  0.74425400  0.82933300  1
  S  S12  1  0.50574600  0.88322000  0.19036800  1
  S  S13  1  0.88322000  0.50574600  0.42066700  1
  S  S14  1  0.19036800  0.42066700  0.50574600  1
  S  S15  1  0.42066700  0.19036800  0.88322000  1
