# generated using pymatgen
data_Na15Re7N19
_symmetry_space_group_name_H-M   'P 1'
_cell_length_a   6.14417400
_cell_length_b   11.92792323
_cell_length_c   18.37083169
_cell_angle_alpha   91.54003352
_cell_angle_beta   93.07785593
_cell_angle_gamma   100.85653051
_symmetry_Int_Tables_number   1
_chemical_formula_structural   Na15Re7N19
_chemical_formula_sum   'Na30 Re14 N38'
_cell_volume   1319.40357835
_cell_formula_units_Z   2
loop_
 _symmetry_equiv_pos_site_id
 _symmetry_equiv_pos_as_xyz
  1  'x, y, z'
loop_
 _atom_site_type_symbol
 _atom_site_label
 _atom_site_symmetry_multiplicity
 _atom_site_fract_x
 _atom_site_fract_y
 _atom_site_fract_z
 _atom_site_occupancy
  Na  Na0  1  0.54143900  0.62497000  0.44770200  1
  Na  Na1  1  0.45856100  0.37503000  0.55229800  1
  Na  Na2  1  0.56959800  0.14370600  0.63443900  1
  Na  Na3  1  0.43040200  0.85629400  0.36556100  1
  Na  Na4  1  0.71980800  0.01230300  0.19740400  1
  Na  Na5  1  0.28019200  0.98769700  0.80259600  1
  Na  Na6  1  0.89209000  0.02101600  0.38396600  1
  Na  Na7  1  0.10791000  0.97898400  0.61603400  1
  Na  Na8  1  0.84828800  0.77356700  0.29637600  1
  Na  Na9  1  0.15171200  0.22643300  0.70362400  1
  Na  Na10  1  0.85933500  0.16010400  0.83480500  1
  Na  Na11  1  0.14066500  0.83989600  0.16519500  1
  Na  Na12  1  0.86270700  0.90440800  0.89766000  1
  Na  Na13  1  0.13729300  0.09559200  0.10234000  1
  Na  Na14  1  0.73182900  0.08974100  0.00616300  1
  Na  Na15  1  0.26817100  0.91025900  0.99383700  1
  Na  Na16  1  0.63292700  0.91239900  0.53305200  1
  Na  Na17  1  0.36707300  0.08760100  0.46694800  1
  Na  Na18  1  0.68876300  0.48554500  0.28709600  1
  Na  Na19  1  0.31123700  0.51445500  0.71290400  1
  Na  Na20  1  0.98349800  0.35002000  0.02139900  1
  Na  Na21  1  0.01650200  0.64998000  0.97860100  1
  Na  Na22  1  0.87877900  0.68186300  0.78638000  1
  Na  Na23  1  0.12122100  0.31813700  0.21362000  1
  Na  Na24  1  0.72143500  0.25212800  0.38207300  1
  Na  Na25  1  0.27856500  0.74787200  0.61792700  1
  Na  Na26  1  0.57360500  0.36083600  0.84048700  1
  Na  Na27  1  0.42639500  0.63916400  0.15951300  1
  Na  Na28  1  0.00000000  0.50000000  0.50000000  1
  Na  Na29  1  0.50000000  0.50000000  0.00000000  1
  Re  Re30  1  0.59638200  0.25624000  0.13121500  1
  Re  Re31  1  0.40361800  0.74376000  0.86878500  1
  Re  Re32  1  0.79944000  0.38811900  0.69106400  1
  Re  Re33  1  0.20056000  0.61188100  0.30893600  1
  Re  Re34  1  0.74097100  0.64627000  0.61685800  1
  Re  Re35  1  0.25902900  0.35373000  0.38314200  1
  Re  Re36  1  0.02298700  0.78123800  0.46266600  1
  Re  Re37  1  0.97701300  0.21876200  0.53733400  1
  Re  Re38  1  0.90094700  0.55340300  0.13071900  1
  Re  Re39  1  0.09905300  0.44659700  0.86928100  1
  Re  Re40  1  0.68802900  0.91455300  0.71952800  1
  Re  Re41  1  0.31197100  0.08544700  0.28047200  1
  Re  Re42  1  0.68743000  0.80839800  0.05676200  1
  Re  Re43  1  0.31257000  0.19160200  0.94323800  1
  N  N44  1  0.84490000  0.19905800  0.12562700  1
  N  N45  1  0.15510000  0.80094200  0.87437300  1
  N  N46  1  0.86392700  0.31500900  0.60489300  1
  N  N47  1  0.13607300  0.68499100  0.39510700  1
  N  N48  1  0.55177500  0.04212700  0.32135900  1
  N  N49  1  0.44822500  0.95787300  0.67864100  1
  N  N50  1  0.59080400  0.81007700  0.79968800  1
  N  N51  1  0.40919600  0.18992300  0.20031200  1
  N  N52  1  0.68501700  0.42004400  0.13953700  1
  N  N53  1  0.31498300  0.57995600  0.86046300  1
  N  N54  1  0.53919200  0.41387800  0.41408900  1
  N  N55  1  0.46080800  0.58612200  0.58591100  1
  N  N56  1  0.75660300  0.10644300  0.50130100  1
  N  N57  1  0.24339700  0.89355700  0.49869900  1
  N  N58  1  0.91789800  0.67615500  0.53627000  1
  N  N59  1  0.08210200  0.32384500  0.46373000  1
  N  N60  1  0.94310100  0.91170900  0.05869100  1
  N  N61  1  0.05689900  0.08829100  0.94130900  1
  N  N62  1  0.78197100  0.82852900  0.42400200  1
  N  N63  1  0.21802900  0.17147100  0.57599800  1
  N  N64  1  0.75944500  0.78385100  0.66752500  1
  N  N65  1  0.24055500  0.21614900  0.33247500  1
  N  N66  1  0.86920900  0.47073800  0.91821000  1
  N  N67  1  0.13079100  0.52926200  0.08179000  1
  N  N68  1  0.56584800  0.77035700  0.95941300  1
  N  N69  1  0.43415200  0.22964300  0.04058700  1
  N  N70  1  0.75483600  0.66713800  0.08839500  1
  N  N71  1  0.24516400  0.33286200  0.91160500  1
  N  N72  1  0.92653500  0.02820000  0.73876700  1
  N  N73  1  0.07346500  0.97180000  0.26123300  1
  N  N74  1  0.00530500  0.61231800  0.22647500  1
  N  N75  1  0.99469500  0.38768200  0.77352500  1
  N  N76  1  0.88992100  0.55273100  0.67532300  1
  N  N77  1  0.11007900  0.44726900  0.32467700  1
  N  N78  1  0.51337300  0.34865800  0.70905700  1
  N  N79  1  0.48662700  0.65134200  0.29094300  1
  N  N80  1  0.48704200  0.85576100  0.11190800  1
  N  N81  1  0.51295800  0.14423900  0.88809200  1
