# generated using pymatgen
data_Dy20In40Rh19
_symmetry_space_group_name_H-M   'P 1'
_cell_length_a   13.57373600
_cell_length_b   13.57373600
_cell_length_c   9.43680400
_cell_angle_alpha   90.00000000
_cell_angle_beta   90.00000000
_cell_angle_gamma   90.00000000
_symmetry_Int_Tables_number   1
_chemical_formula_structural   Dy20In40Rh19
_chemical_formula_sum   'Dy20 In40 Rh19'
_cell_volume   1738.69630573
_cell_formula_units_Z   1
loop_
 _symmetry_equiv_pos_site_id
 _symmetry_equiv_pos_as_xyz
  1  'x, y, z'
loop_
 _atom_site_type_symbol
 _atom_site_label
 _atom_site_symmetry_multiplicity
 _atom_site_fract_x
 _atom_site_fract_y
 _atom_site_fract_z
 _atom_site_occupancy
  Dy  Dy0  1  0.50000000  0.00000000  0.84996700  1
  Dy  Dy1  1  0.00000000  0.50000000  0.15003300  1
  Dy  Dy2  1  0.50000000  0.00000000  0.35568400  1
  Dy  Dy3  1  0.00000000  0.50000000  0.64431600  1
  Dy  Dy4  1  0.77494200  0.00000000  0.76923400  1
  Dy  Dy5  1  0.22505800  0.00000000  0.76923400  1
  Dy  Dy6  1  0.50000000  0.72234300  0.76602600  1
  Dy  Dy7  1  0.50000000  0.27765700  0.76602600  1
  Dy  Dy8  1  0.72234300  0.50000000  0.23397400  1
  Dy  Dy9  1  0.27765700  0.50000000  0.23397400  1
  Dy  Dy10  1  0.00000000  0.77494200  0.23076600  1
  Dy  Dy11  1  0.00000000  0.22505800  0.23076600  1
  Dy  Dy12  1  0.70403500  0.79872600  0.26345100  1
  Dy  Dy13  1  0.29596500  0.79872600  0.26345100  1
  Dy  Dy14  1  0.70403500  0.20127400  0.26345100  1
  Dy  Dy15  1  0.29596500  0.20127400  0.26345100  1
  Dy  Dy16  1  0.79872600  0.70403500  0.73654900  1
  Dy  Dy17  1  0.20127400  0.70403500  0.73654900  1
  Dy  Dy18  1  0.79872600  0.29596500  0.73654900  1
  Dy  Dy19  1  0.20127400  0.29596500  0.73654900  1
  In  In20  1  0.15116400  0.15116400  0.00000000  1
  In  In21  1  0.84883600  0.15116400  0.00000000  1
  In  In22  1  0.15116400  0.84883600  0.00000000  1
  In  In23  1  0.84883600  0.84883600  0.00000000  1
  In  In24  1  0.34913400  0.34913400  0.00000000  1
  In  In25  1  0.65086600  0.34913400  0.00000000  1
  In  In26  1  0.34913400  0.65086600  0.00000000  1
  In  In27  1  0.65086600  0.65086600  0.00000000  1
  In  In28  1  0.11360400  0.00000000  0.23765100  1
  In  In29  1  0.88639600  0.00000000  0.23765100  1
  In  In30  1  0.50000000  0.38536400  0.23929800  1
  In  In31  1  0.50000000  0.61463600  0.23929800  1
  In  In32  1  0.38536400  0.50000000  0.76070200  1
  In  In33  1  0.61463600  0.50000000  0.76070200  1
  In  In34  1  0.00000000  0.11360400  0.76234900  1
  In  In35  1  0.00000000  0.88639600  0.76234900  1
  In  In36  1  0.64049400  0.64049400  0.50000000  1
  In  In37  1  0.35950600  0.64049400  0.50000000  1
  In  In38  1  0.64049400  0.35950600  0.50000000  1
  In  In39  1  0.35950600  0.35950600  0.50000000  1
  In  In40  1  0.86830100  0.86830100  0.50000000  1
  In  In41  1  0.13169900  0.86830100  0.50000000  1
  In  In42  1  0.86830100  0.13169900  0.50000000  1
  In  In43  1  0.13169900  0.13169900  0.50000000  1
  In  In44  1  0.33067600  0.00000000  0.09840400  1
  In  In45  1  0.66932400  0.00000000  0.09840400  1
  In  In46  1  0.50000000  0.16967600  0.09846300  1
  In  In47  1  0.50000000  0.83032400  0.09846300  1
  In  In48  1  0.16967600  0.50000000  0.90153700  1
  In  In49  1  0.83032400  0.50000000  0.90153700  1
  In  In50  1  0.00000000  0.33067600  0.90159600  1
  In  In51  1  0.00000000  0.66932400  0.90159600  1
  In  In52  1  0.62998000  0.87006500  0.59407800  1
  In  In53  1  0.37002000  0.87006500  0.59407800  1
  In  In54  1  0.62998000  0.12993500  0.59407800  1
  In  In55  1  0.37002000  0.12993500  0.59407800  1
  In  In56  1  0.87006500  0.62998000  0.40592200  1
  In  In57  1  0.12993500  0.62998000  0.40592200  1
  In  In58  1  0.87006500  0.37002000  0.40592200  1
  In  In59  1  0.12993500  0.37002000  0.40592200  1
  Rh  Rh60  1  0.00000000  0.00000000  0.00000000  1
  Rh  Rh61  1  0.50000000  0.50000000  0.00000000  1
  Rh  Rh62  1  0.84590800  0.65338900  0.10668900  1
  Rh  Rh63  1  0.15409200  0.65338900  0.10668900  1
  Rh  Rh64  1  0.84590800  0.34661100  0.10668900  1
  Rh  Rh65  1  0.15409200  0.34661100  0.10668900  1
  Rh  Rh66  1  0.65338900  0.84590800  0.89331100  1
  Rh  Rh67  1  0.34661100  0.84590800  0.89331100  1
  Rh  Rh68  1  0.65338900  0.15409200  0.89331100  1
  Rh  Rh69  1  0.34661100  0.15409200  0.89331100  1
  Rh  Rh70  1  0.27677700  0.00000000  0.40720000  1
  Rh  Rh71  1  0.72322300  0.00000000  0.40720000  1
  Rh  Rh72  1  0.50000000  0.22074600  0.40620500  1
  Rh  Rh73  1  0.50000000  0.77925400  0.40620500  1
  Rh  Rh74  1  0.22074600  0.50000000  0.59379500  1
  Rh  Rh75  1  0.77925400  0.50000000  0.59379500  1
  Rh  Rh76  1  0.00000000  0.27677700  0.59280000  1
  Rh  Rh77  1  0.00000000  0.72322300  0.59280000  1
  Rh  Rh78  1  0.50000000  0.50000000  0.50000000  1
