# generated using pymatgen
data_Ce3Pd5
_symmetry_space_group_name_H-M   'P 1'
_cell_length_a   7.16471148
_cell_length_b   7.16471148
_cell_length_c   3.86059600
_cell_angle_alpha   90.00000000
_cell_angle_beta   90.00000000
_cell_angle_gamma   119.99999518
_symmetry_Int_Tables_number   1
_chemical_formula_structural   Ce3Pd5
_chemical_formula_sum   'Ce3 Pd5'
_cell_volume   171.62573943
_cell_formula_units_Z   1
loop_
 _symmetry_equiv_pos_site_id
 _symmetry_equiv_pos_as_xyz
  1  'x, y, z'
loop_
 _atom_site_type_symbol
 _atom_site_label
 _atom_site_symmetry_multiplicity
 _atom_site_fract_x
 _atom_site_fract_y
 _atom_site_fract_z
 _atom_site_occupancy
  Ce  Ce0  1  0.64441800  0.00000000  0.50000000  1
  Ce  Ce1  1  0.00000000  0.64441800  0.50000000  1
  Ce  Ce2  1  0.35558200  0.35558200  0.50000000  1
  Pd  Pd3  1  0.23106500  0.00000000  0.00000000  1
  Pd  Pd4  1  0.00000000  0.23106500  0.00000000  1
  Pd  Pd5  1  0.76893500  0.76893500  0.00000000  1
  Pd  Pd6  1  0.33333300  0.66666700  0.00000000  1
  Pd  Pd7  1  0.66666700  0.33333300  0.00000000  1
