# generated using pymatgen
data_LaHf2F11
_symmetry_space_group_name_H-M   'P 1'
_cell_length_a   8.48850839
_cell_length_b   8.48850839
_cell_length_c   8.48850839
_cell_angle_alpha   125.24074278
_cell_angle_beta   106.90791404
_cell_angle_gamma   97.59398960
_symmetry_Int_Tables_number   1
_chemical_formula_structural   LaHf2F11
_chemical_formula_sum   'La2 Hf4 F22'
_cell_volume   441.33473429
_cell_formula_units_Z   2
loop_
 _symmetry_equiv_pos_site_id
 _symmetry_equiv_pos_as_xyz
  1  'x, y, z'
loop_
 _atom_site_type_symbol
 _atom_site_label
 _atom_site_symmetry_multiplicity
 _atom_site_fract_x
 _atom_site_fract_y
 _atom_site_fract_z
 _atom_site_occupancy
  La  La0  1  0.75000000  0.25000000  0.50000000  1
  La  La1  1  0.25000000  0.75000000  0.50000000  1
  Hf  Hf2  1  0.68021400  0.63364100  0.31385600  1
  Hf  Hf3  1  0.31978600  0.36635900  0.68614400  1
  Hf  Hf4  1  0.18021400  0.86635900  0.04657300  1
  Hf  Hf5  1  0.81978600  0.13364100  0.95342700  1
  F  F6  1  0.70552900  0.88964800  0.33997000  1
  F  F7  1  0.29447100  0.11035200  0.66003000  1
  F  F8  1  0.54967800  0.36555800  0.66003000  1
  F  F9  1  0.95032200  0.61035200  0.81588100  1
  F  F10  1  0.45032200  0.63444200  0.33997000  1
  F  F11  1  0.04967800  0.38964800  0.18411900  1
  F  F12  1  0.79447100  0.13444200  0.18411900  1
  F  F13  1  0.20552900  0.86555800  0.81588100  1
  F  F14  1  0.50000000  0.50000000  0.00000000  1
  F  F15  1  0.00000000  0.00000000  0.00000000  1
  F  F16  1  0.77872000  0.87109200  0.64981300  1
  F  F17  1  0.22128000  0.12890800  0.35018700  1
  F  F18  1  0.27872000  0.62890800  0.90762800  1
  F  F19  1  0.72128000  0.37109200  0.09237200  1
  F  F20  1  0.94732300  0.73628600  0.41520200  1
  F  F21  1  0.05267700  0.26371400  0.58479800  1
  F  F22  1  0.32108400  0.53212100  0.58479800  1
  F  F23  1  0.17891600  0.76371400  0.21103700  1
  F  F24  1  0.67891600  0.46787900  0.41520200  1
  F  F25  1  0.82108400  0.23628600  0.78896300  1
  F  F26  1  0.55267700  0.96787900  0.78896300  1
  F  F27  1  0.44732300  0.03212100  0.21103700  1
