# generated using pymatgen
data_NdGePt
_symmetry_space_group_name_H-M   'P 1'
_cell_length_a   5.76278686
_cell_length_b   5.76278686
_cell_length_c   7.34335679
_cell_angle_alpha   51.48835784
_cell_angle_beta   51.48835784
_cell_angle_gamma   45.23086589
_symmetry_Int_Tables_number   1
_chemical_formula_structural   NdGePt
_chemical_formula_sum   'Nd2 Ge2 Pt2'
_cell_volume   127.81548750
_cell_formula_units_Z   2
loop_
 _symmetry_equiv_pos_site_id
 _symmetry_equiv_pos_as_xyz
  1  'x, y, z'
loop_
 _atom_site_type_symbol
 _atom_site_label
 _atom_site_symmetry_multiplicity
 _atom_site_fract_x
 _atom_site_fract_y
 _atom_site_fract_z
 _atom_site_occupancy
  Nd  Nd0  1  0.54538800  0.54538800  0.69147600  1
  Nd  Nd1  1  0.45461200  0.45461200  0.30852400  1
  Ge  Ge2  1  0.83827000  0.83827000  0.09809400  1
  Ge  Ge3  1  0.16173000  0.16173000  0.90190600  1
  Pt  Pt4  1  0.18029100  0.18029100  0.28061000  1
  Pt  Pt5  1  0.81970900  0.81970900  0.71939000  1
