# generated using pymatgen
data_K2Sn3(SbS5)2
_symmetry_space_group_name_H-M   'P 1'
_cell_length_a   13.50931800
_cell_length_b   6.91354800
_cell_length_c   11.86796340
_cell_angle_alpha   62.45505362
_cell_angle_beta   90.00000000
_cell_angle_gamma   90.00000000
_symmetry_Int_Tables_number   1
_chemical_formula_structural   K2Sn3(SbS5)2
_chemical_formula_sum   'K4 Sn6 Sb4 S20'
_cell_volume   982.79289672
_cell_formula_units_Z   2
loop_
 _symmetry_equiv_pos_site_id
 _symmetry_equiv_pos_as_xyz
  1  'x, y, z'
loop_
 _atom_site_type_symbol
 _atom_site_label
 _atom_site_symmetry_multiplicity
 _atom_site_fract_x
 _atom_site_fract_y
 _atom_site_fract_z
 _atom_site_occupancy
  K  K0  1  0.32647400  0.44574500  0.17268800  1
  K  K1  1  0.17352600  0.44574500  0.67268800  1
  K  K2  1  0.67352600  0.55425500  0.82731200  1
  K  K3  1  0.82647400  0.55425500  0.32731200  1
  Sn  Sn4  1  0.00000000  0.50000000  0.00000000  1
  Sn  Sn5  1  0.50000000  0.50000000  0.50000000  1
  Sn  Sn6  1  0.05293600  0.11516900  0.34595700  1
  Sn  Sn7  1  0.44706400  0.11516900  0.84595700  1
  Sn  Sn8  1  0.94706400  0.88483100  0.65404300  1
  Sn  Sn9  1  0.55293600  0.88483100  0.15404300  1
  Sb  Sb10  1  0.15236500  0.01115100  0.09104100  1
  Sb  Sb11  1  0.34763500  0.01115100  0.59104100  1
  Sb  Sb12  1  0.84763500  0.98884900  0.90895900  1
  Sb  Sb13  1  0.65236500  0.98884900  0.40895900  1
  S  S14  1  0.17889500  0.40931100  0.96577000  1
  S  S15  1  0.32110500  0.40931100  0.46577000  1
  S  S16  1  0.82110500  0.59068900  0.03423000  1
  S  S17  1  0.67889500  0.59068900  0.53423000  1
  S  S18  1  0.97600900  0.07634900  0.12813200  1
  S  S19  1  0.52399100  0.07634900  0.62813200  1
  S  S20  1  0.02399100  0.92365100  0.87186800  1
  S  S21  1  0.47600900  0.92365100  0.37186800  1
  S  S22  1  0.95090700  0.49463700  0.78824700  1
  S  S23  1  0.54909300  0.49463700  0.28824700  1
  S  S24  1  0.04909300  0.50536300  0.21175300  1
  S  S25  1  0.45090700  0.50536300  0.71175300  1
  S  S26  1  0.20099000  0.95010400  0.31148300  1
  S  S27  1  0.29901000  0.95010400  0.81148300  1
  S  S28  1  0.79901000  0.04989600  0.68851700  1
  S  S29  1  0.70099000  0.04989600  0.18851700  1
  S  S30  1  0.90025700  0.91286800  0.44075400  1
  S  S31  1  0.59974300  0.91286800  0.94075400  1
  S  S32  1  0.09974300  0.08713200  0.55924600  1
  S  S33  1  0.40025700  0.08713200  0.05924600  1
