# generated using pymatgen
data_KHo2CuS4
_symmetry_space_group_name_H-M   'P 1'
_cell_length_a   7.01912836
_cell_length_b   7.01912836
_cell_length_c   13.69523400
_cell_angle_alpha   90.00000000
_cell_angle_beta   90.00000000
_cell_angle_gamma   147.38101131
_symmetry_Int_Tables_number   1
_chemical_formula_structural   KHo2CuS4
_chemical_formula_sum   'K2 Ho4 Cu2 S8'
_cell_volume   363.71803947
_cell_formula_units_Z   2
loop_
 _symmetry_equiv_pos_site_id
 _symmetry_equiv_pos_as_xyz
  1  'x, y, z'
loop_
 _atom_site_type_symbol
 _atom_site_label
 _atom_site_symmetry_multiplicity
 _atom_site_fract_x
 _atom_site_fract_y
 _atom_site_fract_z
 _atom_site_occupancy
  K  K0  1  0.10967800  0.89032200  0.25000000  1
  K  K1  1  0.89032200  0.10967800  0.75000000  1
  Ho  Ho2  1  0.63418700  0.36581300  0.93666400  1
  Ho  Ho3  1  0.36581300  0.63418700  0.43666400  1
  Ho  Ho4  1  0.63418700  0.36581300  0.56333600  1
  Ho  Ho5  1  0.36581300  0.63418700  0.06333600  1
  Cu  Cu6  1  0.16285900  0.83714100  0.75000000  1
  Cu  Cu7  1  0.83714100  0.16285900  0.25000000  1
  S  S8  1  0.00000000  0.00000000  0.50000000  1
  S  S9  1  0.00000000  0.00000000  0.00000000  1
  S  S10  1  0.73737800  0.26262200  0.11036400  1
  S  S11  1  0.26262200  0.73737800  0.88963600  1
  S  S12  1  0.56885700  0.43114300  0.75000000  1
  S  S13  1  0.73737800  0.26262200  0.38963600  1
  S  S14  1  0.43114300  0.56885700  0.25000000  1
  S  S15  1  0.26262200  0.73737800  0.61036400  1
