# generated using pymatgen
data_Rb8Zr(MoO4)6
_symmetry_space_group_name_H-M   'P 1'
_cell_length_a   10.89952871
_cell_length_b   10.89952871
_cell_length_c   8.07569733
_cell_angle_alpha   81.77835574
_cell_angle_beta   81.77835574
_cell_angle_gamma   124.24556290
_symmetry_Int_Tables_number   1
_chemical_formula_structural   Rb8Zr(MoO4)6
_chemical_formula_sum   'Rb8 Zr1 Mo6 O24'
_cell_volume   755.06368620
_cell_formula_units_Z   1
loop_
 _symmetry_equiv_pos_site_id
 _symmetry_equiv_pos_as_xyz
  1  'x, y, z'
loop_
 _atom_site_type_symbol
 _atom_site_label
 _atom_site_symmetry_multiplicity
 _atom_site_fract_x
 _atom_site_fract_y
 _atom_site_fract_z
 _atom_site_occupancy
  Rb  Rb0  1  0.20803300  0.20803300  0.34986900  1
  Rb  Rb1  1  0.79196700  0.79196700  0.65013100  1
  Rb  Rb2  1  0.66351100  0.33648900  0.50000000  1
  Rb  Rb3  1  0.33648900  0.66351100  0.50000000  1
  Rb  Rb4  1  0.86343300  0.51744600  0.89430000  1
  Rb  Rb5  1  0.51744600  0.86343300  0.89430000  1
  Rb  Rb6  1  0.13656700  0.48255400  0.10570000  1
  Rb  Rb7  1  0.48255400  0.13656700  0.10570000  1
  Zr  Zr8  1  0.00000000  0.00000000  0.00000000  1
  Mo  Mo9  1  0.94352100  0.25812700  0.70833900  1
  Mo  Mo10  1  0.25812700  0.94352100  0.70833900  1
  Mo  Mo11  1  0.05647900  0.74187300  0.29166100  1
  Mo  Mo12  1  0.74187300  0.05647900  0.29166100  1
  Mo  Mo13  1  0.38858100  0.38858100  0.79377400  1
  Mo  Mo14  1  0.61141900  0.61141900  0.20622600  1
  O  O15  1  0.93596500  0.08660400  0.80536700  1
  O  O16  1  0.08660400  0.93596500  0.80536700  1
  O  O17  1  0.06403500  0.91339600  0.19463300  1
  O  O18  1  0.91339600  0.06403500  0.19463300  1
  O  O19  1  0.76041700  0.22222400  0.77202600  1
  O  O20  1  0.22222400  0.76041700  0.77202600  1
  O  O21  1  0.23958300  0.77777600  0.22797400  1
  O  O22  1  0.77777600  0.23958300  0.22797400  1
  O  O23  1  0.06809400  0.41215800  0.79100700  1
  O  O24  1  0.41215800  0.06809400  0.79100700  1
  O  O25  1  0.93190600  0.58784200  0.20899300  1
  O  O26  1  0.58784200  0.93190600  0.20899300  1
  O  O27  1  0.01812600  0.31903300  0.47714900  1
  O  O28  1  0.31903300  0.01812600  0.47714900  1
  O  O29  1  0.98187400  0.68096700  0.52285100  1
  O  O30  1  0.68096700  0.98187400  0.52285100  1
  O  O31  1  0.41560900  0.56438400  0.80483800  1
  O  O32  1  0.56438400  0.41560900  0.80483800  1
  O  O33  1  0.58439100  0.43561600  0.19516200  1
  O  O34  1  0.43561600  0.58439100  0.19516200  1
  O  O35  1  0.21738900  0.21738900  0.96987500  1
  O  O36  1  0.78261100  0.78261100  0.03012500  1
  O  O37  1  0.35014700  0.35014700  0.59475200  1
  O  O38  1  0.64985300  0.64985300  0.40524800  1
