# generated using pymatgen
data_Mg149Pb
_symmetry_space_group_name_H-M   'P 1'
_cell_length_a   15.94026405
_cell_length_b   15.94027046
_cell_length_c   15.55693163
_cell_angle_alpha   90.00000000
_cell_angle_beta   90.00000000
_cell_angle_gamma   120.00000891
_symmetry_Int_Tables_number   1
_chemical_formula_structural   Mg149Pb
_chemical_formula_sum   'Mg149 Pb1'
_cell_volume   3423.30609064
_cell_formula_units_Z   1
loop_
 _symmetry_equiv_pos_site_id
 _symmetry_equiv_pos_as_xyz
  1  'x, y, z'
loop_
 _atom_site_type_symbol
 _atom_site_label
 _atom_site_symmetry_multiplicity
 _atom_site_fract_x
 _atom_site_fract_y
 _atom_site_fract_z
 _atom_site_occupancy
  Mg  Mg0  1  0.20316827  0.00068583  -0.00000000  1
  Mg  Mg1  1  0.79751756  0.00068583  -0.00000000  1
  Mg  Mg2  1  0.79978755  0.20021245  -0.00000000  1
  Mg  Mg3  1  0.40042491  0.20021245  -0.00000000  1
  Mg  Mg4  1  0.60007021  0.20014043  -0.00000000  1
  Mg  Mg5  1  0.99931417  0.20248244  -0.00000000  1
  Mg  Mg6  1  0.20316827  0.20248244  -0.00000000  1
  Mg  Mg7  1  0.19989336  0.39978672  -0.00000000  1
  Mg  Mg8  1  0.60007021  0.39992879  -0.00000000  1
  Mg  Mg9  1  0.79985957  0.39992979  -0.00000000  1
  Mg  Mg10  1  0.40074407  0.40084956  -0.00000000  1
  Mg  Mg11  1  0.00010549  0.40084956  -0.00000000  1
  Mg  Mg12  1  0.59915044  0.59925593  -0.00000000  1
  Mg  Mg13  1  0.00010549  0.59925593  -0.00000000  1
  Mg  Mg14  1  0.79978755  0.59957509  -0.00000000  1
  Mg  Mg15  1  0.40001482  0.59998518  -0.00000000  1
  Mg  Mg16  1  0.19997037  0.59998518  -0.00000000  1
  Mg  Mg17  1  0.99931417  0.79683173  -0.00000000  1
  Mg  Mg18  1  0.79751756  0.79683273  -0.00000000  1
  Mg  Mg19  1  0.40001482  0.80002963  -0.00000000  1
  Mg  Mg20  1  0.19989336  0.80010564  -0.00000000  1
  Mg  Mg21  1  0.60021228  0.80010664  -0.00000000  1
  Mg  Mg22  1  0.40074407  0.99989451  -0.00000000  1
  Mg  Mg23  1  0.59915044  0.99989451  -0.00000000  1
  Mg  Mg24  1  0.46679693  0.13332218  0.16648607  1
  Mg  Mg25  1  0.66652525  0.13332318  0.16648607  1
  Mg  Mg26  1  0.46679693  0.33347475  0.16648607  1
  Mg  Mg27  1  0.86667682  0.33347475  0.16648607  1
  Mg  Mg28  1  0.86667682  0.53320307  0.16648607  1
  Mg  Mg29  1  0.66652525  0.53320307  0.16648607  1
  Mg  Mg30  1  0.66666600  0.33333300  0.16667449  1
  Mg  Mg31  1  0.06651995  0.33343723  0.16659174  1
  Mg  Mg32  1  0.26691828  0.33343723  0.16659174  1
  Mg  Mg33  1  0.06651995  0.73308272  0.16659174  1
  Mg  Mg34  1  0.66656277  0.73308272  0.16659174  1
  Mg  Mg35  1  0.66656277  0.93348005  0.16659174  1
  Mg  Mg36  1  0.26691828  0.93348105  0.16659174  1
  Mg  Mg37  1  0.26666377  0.53332855  0.16677197  1
  Mg  Mg38  1  0.26666377  0.73333523  0.16677197  1
  Mg  Mg39  1  0.46667045  0.73333523  0.16677197  1
  Mg  Mg40  1  0.46659175  0.53340825  0.16664727  1
  Mg  Mg41  1  0.06681749  0.53340925  0.16664727  1
  Mg  Mg42  1  0.46659175  0.93318251  0.16664727  1
  Mg  Mg43  1  0.86639041  0.13360959  0.16715735  1
  Mg  Mg44  1  0.26721917  0.13360959  0.16715735  1
  Mg  Mg45  1  0.86639041  0.73278083  0.16715735  1
  Mg  Mg46  1  0.06746497  0.13492993  0.16927737  1
  Mg  Mg47  1  0.86507007  0.93253503  0.16927737  1
  Mg  Mg48  1  0.06746497  0.93253503  0.16927737  1
  Mg  Mg49  1  0.19995762  0.39991523  0.33312808  1
  Mg  Mg50  1  0.60008577  0.80004238  0.33312808  1
  Mg  Mg51  1  0.19995762  0.80004238  0.33312808  1
  Mg  Mg52  1  0.40022174  0.20011087  0.33319646  1
  Mg  Mg53  1  0.79988913  0.20011087  0.33319646  1
  Mg  Mg54  1  0.79988913  0.59977826  0.33319646  1
  Mg  Mg55  1  0.60007425  0.20014950  0.33315209  1
  Mg  Mg56  1  0.60007425  0.39992475  0.33315209  1
  Mg  Mg57  1  0.79985050  0.39992575  0.33315209  1
  Mg  Mg58  1  0.60006181  0.00009776  0.33333486  1
  Mg  Mg59  1  0.40003595  0.00009776  0.33333486  1
  Mg  Mg60  1  0.99990224  0.39993819  0.33333486  1
  Mg  Mg61  1  0.40003595  0.39993819  0.33333486  1
  Mg  Mg62  1  0.99990224  0.59996405  0.33333486  1
  Mg  Mg63  1  0.60006181  0.59996405  0.33333486  1
  Mg  Mg64  1  0.39996823  0.60003177  0.33333411  1
  Mg  Mg65  1  0.20006354  0.60003177  0.33333411  1
  Mg  Mg66  1  0.39996823  0.79993646  0.33333411  1
  Mg  Mg67  1  0.00000000  0.00000000  0.33387530  1
  Mg  Mg68  1  0.20017216  0.00018265  0.33408412  1
  Mg  Mg69  1  0.80001049  0.00018265  0.33408412  1
  Mg  Mg70  1  0.99981835  0.19998951  0.33408412  1
  Mg  Mg71  1  0.20017216  0.19999051  0.33408412  1
  Mg  Mg72  1  0.80001049  0.79982784  0.33408412  1
  Mg  Mg73  1  0.99981835  0.79982784  0.33408412  1
  Mg  Mg74  1  0.06662780  0.13325460  0.50000000  1
  Mg  Mg75  1  0.46676707  0.13325121  0.50000000  1
  Mg  Mg76  1  0.66648414  0.13325121  0.50000000  1
  Mg  Mg77  1  0.26667425  0.13333713  0.50000000  1
  Mg  Mg78  1  0.86666287  0.13333713  0.50000000  1
  Mg  Mg79  1  0.66666600  0.33333300  0.50000000  1
  Mg  Mg80  1  0.06662141  0.33336184  0.50000000  1
  Mg  Mg81  1  0.26673942  0.33336184  0.50000000  1
  Mg  Mg82  1  0.46676707  0.33351586  0.50000000  1
  Mg  Mg83  1  0.86674879  0.33351586  0.50000000  1
  Mg  Mg84  1  0.86674879  0.53323193  0.50000000  1
  Mg  Mg85  1  0.66648414  0.53323193  0.50000000  1
  Mg  Mg86  1  0.46667570  0.53332330  0.50000000  1
  Mg  Mg87  1  0.06664761  0.53332430  0.50000000  1
  Mg  Mg88  1  0.26658019  0.53316039  0.50000000  1
  Mg  Mg89  1  0.86666287  0.73332575  0.50000000  1
  Mg  Mg90  1  0.46683961  0.73341981  0.50000000  1
  Mg  Mg91  1  0.26658019  0.73341981  0.50000000  1
  Mg  Mg92  1  0.06662141  0.73326058  0.50000000  1
  Mg  Mg93  1  0.66663816  0.73326058  0.50000000  1
  Mg  Mg94  1  0.46667570  0.93335239  0.50000000  1
  Mg  Mg95  1  0.26673942  0.93337759  0.50000000  1
  Mg  Mg96  1  0.66663816  0.93337759  0.50000000  1
  Mg  Mg97  1  0.86674640  0.93337320  0.50000000  1
  Mg  Mg98  1  0.06662780  0.93337320  0.50000000  1
  Mg  Mg99  1  0.20017216  0.00018265  0.66591588  1
  Mg  Mg100  1  0.80001049  0.00018265  0.66591588  1
  Mg  Mg101  1  0.99981835  0.19998951  0.66591588  1
  Mg  Mg102  1  0.20017216  0.19999051  0.66591588  1
  Mg  Mg103  1  0.80001049  0.79982784  0.66591588  1
  Mg  Mg104  1  0.99981835  0.79982784  0.66591588  1
  Mg  Mg105  1  0.00000000  0.00000000  0.66612470  1
  Mg  Mg106  1  0.39996823  0.60003177  0.66666589  1
  Mg  Mg107  1  0.20006354  0.60003177  0.66666589  1
  Mg  Mg108  1  0.39996823  0.79993646  0.66666589  1
  Mg  Mg109  1  0.60006181  0.00009776  0.66666514  1
  Mg  Mg110  1  0.40003595  0.00009776  0.66666514  1
  Mg  Mg111  1  0.99990224  0.39993819  0.66666514  1
  Mg  Mg112  1  0.40003595  0.39993819  0.66666514  1
  Mg  Mg113  1  0.99990224  0.59996405  0.66666514  1
  Mg  Mg114  1  0.60006181  0.59996405  0.66666514  1
  Mg  Mg115  1  0.60007425  0.20014950  0.66684791  1
  Mg  Mg116  1  0.60007425  0.39992475  0.66684791  1
  Mg  Mg117  1  0.79985050  0.39992575  0.66684791  1
  Mg  Mg118  1  0.40022174  0.20011087  0.66680354  1
  Mg  Mg119  1  0.79988913  0.20011087  0.66680354  1
  Mg  Mg120  1  0.79988913  0.59977826  0.66680354  1
  Mg  Mg121  1  0.19995762  0.39991523  0.66687192  1
  Mg  Mg122  1  0.60008577  0.80004238  0.66687192  1
  Mg  Mg123  1  0.19995762  0.80004238  0.66687192  1
  Mg  Mg124  1  0.06746497  0.13492993  0.83072263  1
  Mg  Mg125  1  0.86507007  0.93253503  0.83072263  1
  Mg  Mg126  1  0.06746497  0.93253503  0.83072263  1
  Mg  Mg127  1  0.86639041  0.13360959  0.83284265  1
  Mg  Mg128  1  0.26721917  0.13360959  0.83284265  1
  Mg  Mg129  1  0.86639041  0.73278083  0.83284265  1
  Mg  Mg130  1  0.46659175  0.53340825  0.83335273  1
  Mg  Mg131  1  0.06681749  0.53340925  0.83335273  1
  Mg  Mg132  1  0.46659175  0.93318251  0.83335273  1
  Mg  Mg133  1  0.26666377  0.53332855  0.83322703  1
  Mg  Mg134  1  0.26666377  0.73333523  0.83322703  1
  Mg  Mg135  1  0.46667045  0.73333523  0.83322703  1
  Mg  Mg136  1  0.06651995  0.33343723  0.83340826  1
  Mg  Mg137  1  0.26691828  0.33343723  0.83340826  1
  Mg  Mg138  1  0.06651995  0.73308272  0.83340826  1
  Mg  Mg139  1  0.66656277  0.73308272  0.83340826  1
  Mg  Mg140  1  0.66656277  0.93348005  0.83340826  1
  Mg  Mg141  1  0.26691828  0.93348105  0.83340826  1
  Mg  Mg142  1  0.66666600  0.33333300  0.83332551  1
  Mg  Mg143  1  0.46679693  0.13332218  0.83351393  1
  Mg  Mg144  1  0.66652525  0.13332318  0.83351393  1
  Mg  Mg145  1  0.46679693  0.33347475  0.83351393  1
  Mg  Mg146  1  0.86667682  0.33347475  0.83351393  1
  Mg  Mg147  1  0.86667682  0.53320307  0.83351393  1
  Mg  Mg148  1  0.66652525  0.53320307  0.83351393  1
  Pb  Pb149  1  0.00000000  0.00000000  -0.00000000  1
