# generated using pymatgen
data_Nd2Si2O7
_symmetry_space_group_name_H-M   'P 1'
_cell_length_a   6.82204400
_cell_length_b   6.82204400
_cell_length_c   24.84842600
_cell_angle_alpha   90.00000000
_cell_angle_beta   90.00000000
_cell_angle_gamma   90.00000000
_symmetry_Int_Tables_number   1
_chemical_formula_structural   Nd2Si2O7
_chemical_formula_sum   'Nd16 Si16 O56'
_cell_volume   1156.45281139
_cell_formula_units_Z   8
loop_
 _symmetry_equiv_pos_site_id
 _symmetry_equiv_pos_as_xyz
  1  'x, y, z'
loop_
 _atom_site_type_symbol
 _atom_site_label
 _atom_site_symmetry_multiplicity
 _atom_site_fract_x
 _atom_site_fract_y
 _atom_site_fract_z
 _atom_site_occupancy
  Nd  Nd0  1  0.28045100  0.21227700  0.15162800  1
  Nd  Nd1  1  0.78772300  0.28045100  0.40162800  1
  Nd  Nd2  1  0.21227700  0.71954900  0.90162800  1
  Nd  Nd3  1  0.71954900  0.78772300  0.65162800  1
  Nd  Nd4  1  0.02252200  0.33436200  0.00534700  1
  Nd  Nd5  1  0.66563800  0.02252200  0.25534700  1
  Nd  Nd6  1  0.33436200  0.97747800  0.75534700  1
  Nd  Nd7  1  0.97747800  0.66563800  0.50534700  1
  Nd  Nd8  1  0.84495100  0.58499400  0.15114600  1
  Nd  Nd9  1  0.41500600  0.84495100  0.40114600  1
  Nd  Nd10  1  0.58499400  0.15504900  0.90114600  1
  Nd  Nd11  1  0.15504900  0.41500600  0.65114600  1
  Nd  Nd12  1  0.63517200  0.74530800  0.01390700  1
  Nd  Nd13  1  0.25469200  0.63517200  0.26390700  1
  Nd  Nd14  1  0.74530800  0.36482800  0.76390700  1
  Nd  Nd15  1  0.36482800  0.25469200  0.51390700  1
  Si  Si16  1  0.51933500  0.21797600  0.03285800  1
  Si  Si17  1  0.78202400  0.51933500  0.28285800  1
  Si  Si18  1  0.21797600  0.48066500  0.78285800  1
  Si  Si19  1  0.48066500  0.78202400  0.53285800  1
  Si  Si20  1  0.10600800  0.81081000  0.03953800  1
  Si  Si21  1  0.18919000  0.10600800  0.28953800  1
  Si  Si22  1  0.81081000  0.89399200  0.78953800  1
  Si  Si23  1  0.89399200  0.18919000  0.53953800  1
  Si  Si24  1  0.76943500  0.12789600  0.13391600  1
  Si  Si25  1  0.87210400  0.76943500  0.38391600  1
  Si  Si26  1  0.12789600  0.23056500  0.88391600  1
  Si  Si27  1  0.23056500  0.87210400  0.63391600  1
  Si  Si28  1  0.35763500  0.74505100  0.13844000  1
  Si  Si29  1  0.25494900  0.35763500  0.38844000  1
  Si  Si30  1  0.74505100  0.64236500  0.88844000  1
  Si  Si31  1  0.64236500  0.25494900  0.63844000  1
  O  O32  1  0.26678600  0.36430100  0.92453900  1
  O  O33  1  0.63569900  0.26678600  0.17453900  1
  O  O34  1  0.36430100  0.73321400  0.67453900  1
  O  O35  1  0.73321400  0.63569900  0.42453900  1
  O  O36  1  0.49422300  0.05149000  0.98656200  1
  O  O37  1  0.94851000  0.49422300  0.23656200  1
  O  O38  1  0.05149000  0.50577700  0.73656200  1
  O  O39  1  0.50577700  0.94851000  0.48656200  1
  O  O40  1  0.97608700  0.98868400  0.01579100  1
  O  O41  1  0.01131600  0.97608700  0.26579100  1
  O  O42  1  0.98868400  0.02391300  0.76579100  1
  O  O43  1  0.02391300  0.01131600  0.51579100  1
  O  O44  1  0.62292700  0.08146600  0.08191700  1
  O  O45  1  0.91853400  0.62292700  0.33191700  1
  O  O46  1  0.08146600  0.37707300  0.83191700  1
  O  O47  1  0.37707300  0.91853400  0.58191700  1
  O  O48  1  0.22374100  0.88157700  0.09605000  1
  O  O49  1  0.11842300  0.22374100  0.34605000  1
  O  O50  1  0.88157700  0.77625900  0.84605000  1
  O  O51  1  0.77625900  0.11842300  0.59605000  1
  O  O52  1  0.82886700  0.92926600  0.16532100  1
  O  O53  1  0.31531700  0.29832500  0.05789900  1
  O  O54  1  0.07073400  0.82886700  0.41532100  1
  O  O55  1  0.17113300  0.07073400  0.66532100  1
  O  O56  1  0.94664000  0.63964600  0.05864700  1
  O  O57  1  0.36035400  0.94664000  0.30864700  1
  O  O58  1  0.63964600  0.05336000  0.80864700  1
  O  O59  1  0.05336000  0.36035400  0.55864700  1
  O  O60  1  0.26501100  0.04539100  0.86505400  1
  O  O61  1  0.95460900  0.26501100  0.11505400  1
  O  O62  1  0.04539100  0.73498900  0.61505400  1
  O  O63  1  0.73498900  0.95460900  0.36505400  1
  O  O64  1  0.73548700  0.29358000  0.49907400  1
  O  O65  1  0.70642000  0.73548700  0.74907400  1
  O  O66  1  0.29358000  0.26451300  0.24907400  1
  O  O67  1  0.26451300  0.70642000  0.99907400  1
  O  O68  1  0.43462100  0.22601500  0.41345400  1
  O  O69  1  0.77398500  0.43462100  0.66345400  1
  O  O70  1  0.22601500  0.56537900  0.16345400  1
  O  O71  1  0.56537900  0.77398500  0.91345400  1
  O  O72  1  0.45094000  0.33635000  0.60662800  1
  O  O73  1  0.66365000  0.45094000  0.85662800  1
  O  O74  1  0.33635000  0.54906000  0.35662800  1
  O  O75  1  0.54906000  0.66365000  0.10662800  1
  O  O76  1  0.10156300  0.39241000  0.43866000  1
  O  O77  1  0.60759000  0.10156300  0.68866000  1
  O  O78  1  0.39241000  0.89843700  0.18866000  1
  O  O79  1  0.89843700  0.60759000  0.93866000  1
  O  O80  1  0.33428300  0.61365500  0.50951600  1
  O  O81  1  0.38634500  0.33428300  0.75951600  1
  O  O82  1  0.61365500  0.66571700  0.25951600  1
  O  O83  1  0.66571700  0.38634500  0.00951600  1
  O  O84  1  0.68468300  0.70167500  0.55789900  1
  O  O85  1  0.29832500  0.68468300  0.80789900  1
  O  O86  1  0.70167500  0.31531700  0.30789900  1
  O  O87  1  0.92926600  0.17113300  0.91532100  1
