# generated using pymatgen
data_Al2H32S3O28
_symmetry_space_group_name_H-M   'P 1'
_cell_length_a   6.06569267
_cell_length_b   7.52260754
_cell_length_c   27.34357614
_cell_angle_alpha   86.91681389
_cell_angle_beta   91.05537068
_cell_angle_gamma   81.75139009
_symmetry_Int_Tables_number   1
_chemical_formula_structural   Al2H32S3O28
_chemical_formula_sum   'Al4 H64 S6 O56'
_cell_volume   1232.55655387
_cell_formula_units_Z   2
loop_
 _symmetry_equiv_pos_site_id
 _symmetry_equiv_pos_as_xyz
  1  'x, y, z'
loop_
 _atom_site_type_symbol
 _atom_site_label
 _atom_site_symmetry_multiplicity
 _atom_site_fract_x
 _atom_site_fract_y
 _atom_site_fract_z
 _atom_site_occupancy
  Al  Al0  1  0.50938400  0.25971800  0.59878700  1
  Al  Al1  1  0.49061600  0.74028200  0.40121300  1
  Al  Al2  1  0.49598800  0.28111800  0.90220700  1
  Al  Al3  1  0.50401200  0.71888200  0.09779400  1
  H  H4  1  0.70293400  0.54049300  0.60589600  1
  H  H5  1  0.29706600  0.45950700  0.39410400  1
  H  H6  1  0.47375000  0.56684500  0.63781800  1
  H  H7  1  0.52625000  0.43315500  0.36218200  1
  H  H8  1  0.30411200  0.48341500  0.53287100  1
  H  H9  1  0.69588800  0.51658500  0.46712900  1
  H  H10  1  0.31823100  0.28438700  0.51098600  1
  H  H11  1  0.68176900  0.71561300  0.48901400  1
  H  H12  1  0.57175300  0.94421000  0.56467300  1
  H  H13  1  0.42824700  0.05579000  0.43532700  1
  H  H14  1  0.31315000  0.97772900  0.58382700  1
  H  H15  1  0.68685000  0.02227100  0.41617300  1
  H  H16  1  0.69765200  0.25926000  0.68328700  1
  H  H17  1  0.30234800  0.74074000  0.31671300  1
  H  H18  1  0.67380100  0.04642300  0.67409700  1
  H  H19  1  0.32619900  0.95357700  0.32590300  1
  H  H20  1  0.12005200  0.40818700  0.61420500  1
  H  H21  1  0.87994800  0.59181300  0.38579500  1
  H  H22  1  0.19471900  0.27892800  0.66366600  1
  H  H23  1  0.80528100  0.72107200  0.33633400  1
  H  H24  1  0.89992000  0.11070000  0.57857400  1
  H  H25  1  0.10008000  0.88930000  0.42142600  1
  H  H26  1  0.80802900  0.24396400  0.53165600  1
  H  H27  1  0.19197100  0.75603600  0.46834400  1
  H  H28  1  0.53641500  0.11615200  0.81985000  1
  H  H29  1  0.46358500  0.88384800  0.18015000  1
  H  H30  1  0.73054300  0.24481300  0.82326800  1
  H  H31  1  0.26945700  0.75518700  0.17673200  1
  H  H32  1  0.55213900  0.95385700  0.93646300  1
  H  H33  1  0.44786100  0.04614300  0.06353700  1
  H  H34  1  0.28775600  0.99796300  0.91803300  1
  H  H35  1  0.71224400  0.00203700  0.08196700  1
  H  H36  1  0.80897200  0.24993800  0.96730600  1
  H  H37  1  0.19102800  0.75006200  0.03269400  1
  H  H38  1  0.88596100  0.11228800  0.92413100  1
  H  H39  1  0.11403900  0.88771200  0.07586900  1
  H  H40  1  0.30778300  0.49669100  0.96535500  1
  H  H41  1  0.69221700  0.50330900  0.03464500  1
  H  H42  1  0.32493700  0.29333600  0.98890800  1
  H  H43  1  0.67506300  0.70666400  0.01109200  1
  H  H44  1  0.69988400  0.55759200  0.89242800  1
  H  H45  1  0.30011600  0.44240800  0.10757200  1
  H  H46  1  0.49407600  0.57123500  0.85073300  1
  H  H47  1  0.50592400  0.42876500  0.14926700  1
  H  H48  1  0.11065000  0.45124600  0.88625900  1
  H  H49  1  0.88935000  0.54875400  0.11374100  1
  H  H50  1  0.13840100  0.32233800  0.84092400  1
  H  H51  1  0.86159900  0.67766200  0.15907600  1
  H  H52  1  0.53031100  0.95988600  0.75675800  1
  H  H53  1  0.46968900  0.04011400  0.24324200  1
  H  H54  1  0.30020200  0.08618200  0.76050100  1
  H  H55  1  0.69979800  0.91381800  0.23949900  1
  H  H56  1  0.37871300  0.77956900  0.79757200  1
  H  H57  1  0.62128700  0.22043100  0.20242800  1
  H  H58  1  0.27697000  0.60409600  0.78552200  1
  H  H59  1  0.72303000  0.39590400  0.21447800  1
  H  H60  1  0.81993400  0.76428300  0.72099700  1
  H  H61  1  0.18006600  0.23571700  0.27900300  1
  H  H62  1  0.57434800  0.78134800  0.69940200  1
  H  H63  1  0.42565200  0.21865200  0.30059800  1
  H  H64  1  0.24250200  0.63222700  0.69897900  1
  H  H65  1  0.75749800  0.36777300  0.30102100  1
  H  H66  1  0.22170000  0.77639200  0.65427200  1
  H  H67  1  0.77830000  0.22360800  0.34572800  1
  S  S68  1  0.98938800  0.75524000  0.56198300  1
  S  S69  1  0.01061200  0.24476000  0.43801700  1
  S  S70  1  0.97725300  0.76573000  0.93875700  1
  S  S71  1  0.02274700  0.23427000  0.06124300  1
  S  S72  1  0.97620600  0.38025500  0.74249200  1
  S  S73  1  0.02379400  0.61974500  0.25750800  1
  O  O74  1  0.77693900  0.82866900  0.53475900  1
  O  O75  1  0.22306100  0.17133100  0.46524100  1
  O  O76  1  0.06503100  0.90296200  0.59020500  1
  O  O77  1  0.93496900  0.09703800  0.40979500  1
  O  O78  1  0.95220200  0.60468200  0.59688800  1
  O  O79  1  0.04779800  0.39531800  0.40311200  1
  O  O80  1  0.16310700  0.69038100  0.52669700  1
  O  O81  1  0.83689300  0.30961900  0.47330300  1
  O  O82  1  0.04280700  0.92964100  0.91290400  1
  O  O83  1  0.95719300  0.07035900  0.08709600  1
  O  O84  1  0.76290700  0.81909500  0.96385400  1
  O  O85  1  0.23709300  0.18090500  0.03614600  1
  O  O86  1  0.15424600  0.68852400  0.97560000  1
  O  O87  1  0.84575400  0.31147600  0.02440000  1
  O  O88  1  0.94657800  0.62923100  0.90265800  1
  O  O89  1  0.05342200  0.37076900  0.09734200  1
  O  O90  1  0.75538500  0.39958300  0.71716400  1
  O  O91  1  0.24461500  0.60041700  0.28283600  1
  O  O92  1  0.13995800  0.24519600  0.71804700  1
  O  O93  1  0.86004200  0.75480400  0.28195300  1
  O  O94  1  0.96130700  0.31423300  0.79451200  1
  O  O95  1  0.03869300  0.68576700  0.20548800  1
  O  O96  1  0.05829500  0.55998300  0.74026700  1
  O  O97  1  0.94170500  0.44001700  0.25973300  1
  O  O98  1  0.55584100  0.49804500  0.61108800  1
  O  O99  1  0.44415900  0.50195500  0.38891200  1
  O  O100  1  0.37885100  0.35560200  0.53660700  1
  O  O101  1  0.62114900  0.64439800  0.46339300  1
  O  O102  1  0.45991800  0.02328600  0.58341500  1
  O  O103  1  0.54008200  0.97671400  0.41658500  1
  O  O104  1  0.65067500  0.17166600  0.65872300  1
  O  O105  1  0.34932500  0.82833400  0.34127700  1
  O  O106  1  0.22472100  0.30097600  0.62709300  1
  O  O107  1  0.77527900  0.69902400  0.37290700  1
  O  O108  1  0.79175900  0.21858600  0.56765400  1
  O  O109  1  0.20824100  0.78141400  0.43234600  1
  O  O110  1  0.61451400  0.19190600  0.84208700  1
  O  O111  1  0.38548600  0.80809400  0.15791300  1
  O  O112  1  0.43272300  0.04666600  0.92087000  1
  O  O113  1  0.56727700  0.95333400  0.07913000  1
  O  O114  1  0.78302500  0.22377500  0.93231000  1
  O  O115  1  0.21697500  0.77622500  0.06769000  1
  O  O116  1  0.38258700  0.36991600  0.96229000  1
  O  O117  1  0.61741300  0.63008400  0.03771000  1
  O  O118  1  0.55577200  0.51522700  0.88436200  1
  O  O119  1  0.44422800  0.48477300  0.11563800  1
  O  O120  1  0.20471400  0.34347800  0.87350400  1
  O  O121  1  0.79528600  0.65652200  0.12649600  1
  O  O122  1  0.41573100  0.00474700  0.78045900  1
  O  O123  1  0.58426900  0.99525300  0.21954100  1
  O  O124  1  0.40670500  0.64665800  0.80080500  1
  O  O125  1  0.59329500  0.35334200  0.19919500  1
  O  O126  1  0.69151300  0.85300800  0.70903900  1
  O  O127  1  0.30848700  0.14699200  0.29096100  1
  O  O128  1  0.33147700  0.69542800  0.67488000  1
  O  O129  1  0.66852300  0.30457200  0.32512000  1
