# generated using pymatgen
data_Y10Mn13C18
_symmetry_space_group_name_H-M   'P 1'
_cell_length_a   8.74528388
_cell_length_b   8.74528388
_cell_length_c   8.74528388
_cell_angle_alpha   109.47122063
_cell_angle_beta   109.47122063
_cell_angle_gamma   109.47122063
_symmetry_Int_Tables_number   1
_chemical_formula_structural   Y10Mn13C18
_chemical_formula_sum   'Y10 Mn13 C18'
_cell_volume   514.87267472
_cell_formula_units_Z   1
loop_
 _symmetry_equiv_pos_site_id
 _symmetry_equiv_pos_as_xyz
  1  'x, y, z'
loop_
 _atom_site_type_symbol
 _atom_site_label
 _atom_site_symmetry_multiplicity
 _atom_site_fract_x
 _atom_site_fract_y
 _atom_site_fract_z
 _atom_site_occupancy
  Y  Y0  1  0.50000000  0.75000000  0.25000000  1
  Y  Y1  1  0.75000000  0.50000000  0.25000000  1
  Y  Y2  1  0.25000000  0.75000000  0.50000000  1
  Y  Y3  1  0.25000000  0.50000000  0.75000000  1
  Y  Y4  1  0.50000000  0.25000000  0.75000000  1
  Y  Y5  1  0.75000000  0.25000000  0.50000000  1
  Y  Y6  1  0.40861300  0.00000000  0.00000000  1
  Y  Y7  1  0.00000000  0.40861300  0.00000000  1
  Y  Y8  1  0.00000000  0.00000000  0.40861300  1
  Y  Y9  1  0.59138700  0.59138700  0.59138700  1
  Mn  Mn10  1  0.00000000  0.00000000  0.00000000  1
  Mn  Mn11  1  0.66625400  0.81980900  0.00000000  1
  Mn  Mn12  1  0.84644500  0.18019100  0.18019100  1
  Mn  Mn13  1  0.66625400  0.00000000  0.81980900  1
  Mn  Mn14  1  0.81980900  0.66625400  0.00000000  1
  Mn  Mn15  1  0.00000000  0.66625400  0.81980900  1
  Mn  Mn16  1  0.18019100  0.84644500  0.18019100  1
  Mn  Mn17  1  0.18019100  0.18019100  0.84644500  1
  Mn  Mn18  1  0.00000000  0.81980900  0.66625400  1
  Mn  Mn19  1  0.81980900  0.00000000  0.66625400  1
  Mn  Mn20  1  0.33374600  0.33374600  0.15355500  1
  Mn  Mn21  1  0.15355500  0.33374600  0.33374600  1
  Mn  Mn22  1  0.33374600  0.15355500  0.33374600  1
  C  C23  1  0.70331600  0.21799100  0.00000000  1
  C  C24  1  0.48532400  0.78200900  0.78200900  1
  C  C25  1  0.70331600  0.00000000  0.21799100  1
  C  C26  1  0.21799100  0.70331600  0.00000000  1
  C  C27  1  0.00000000  0.70331600  0.21799100  1
  C  C28  1  0.78200900  0.48532400  0.78200900  1
  C  C29  1  0.78200900  0.78200900  0.48532400  1
  C  C30  1  0.00000000  0.21799100  0.70331600  1
  C  C31  1  0.21799100  0.00000000  0.70331600  1
  C  C32  1  0.29668400  0.29668400  0.51467600  1
  C  C33  1  0.51467600  0.29668400  0.29668400  1
  C  C34  1  0.29668400  0.51467600  0.29668400  1
  C  C35  1  0.56881700  0.56881700  0.00000000  1
  C  C36  1  0.00000000  0.43118300  0.43118300  1
  C  C37  1  0.56881700  0.00000000  0.56881700  1
  C  C38  1  0.00000000  0.56881700  0.56881700  1
  C  C39  1  0.43118300  0.00000000  0.43118300  1
  C  C40  1  0.43118300  0.43118300  0.00000000  1
