# generated using pymatgen
data_Ho3Os
_symmetry_space_group_name_H-M   'P 1'
_cell_length_a   6.30145100
_cell_length_b   7.37379100
_cell_length_c   9.05026600
_cell_angle_alpha   90.00000000
_cell_angle_beta   90.00000000
_cell_angle_gamma   90.00000000
_symmetry_Int_Tables_number   1
_chemical_formula_structural   Ho3Os
_chemical_formula_sum   'Ho12 Os4'
_cell_volume   420.52588302
_cell_formula_units_Z   4
loop_
 _symmetry_equiv_pos_site_id
 _symmetry_equiv_pos_as_xyz
  1  'x, y, z'
loop_
 _atom_site_type_symbol
 _atom_site_label
 _atom_site_symmetry_multiplicity
 _atom_site_fract_x
 _atom_site_fract_y
 _atom_site_fract_z
 _atom_site_occupancy
  Ho  Ho0  1  0.33206500  0.67618500  0.06315000  1
  Ho  Ho1  1  0.16793500  0.17618500  0.43685000  1
  Ho  Ho2  1  0.66793500  0.32381500  0.56315000  1
  Ho  Ho3  1  0.83206500  0.82381500  0.93685000  1
  Ho  Ho4  1  0.66793500  0.32381500  0.93685000  1
  Ho  Ho5  1  0.83206500  0.82381500  0.56315000  1
  Ho  Ho6  1  0.33206500  0.67618500  0.43685000  1
  Ho  Ho7  1  0.16793500  0.17618500  0.06315000  1
  Ho  Ho8  1  0.86845300  0.53903300  0.25000000  1
  Ho  Ho9  1  0.63154700  0.03903300  0.25000000  1
  Ho  Ho10  1  0.13154700  0.46096700  0.75000000  1
  Ho  Ho11  1  0.36845300  0.96096700  0.75000000  1
  Os  Os12  1  0.04079200  0.88403700  0.25000000  1
  Os  Os13  1  0.45920800  0.38403700  0.25000000  1
  Os  Os14  1  0.95920800  0.11596300  0.75000000  1
  Os  Os15  1  0.54079200  0.61596300  0.75000000  1
