# generated using pymatgen
data_Ba3Ta2MnO9
_symmetry_space_group_name_H-M   'P 1'
_cell_length_a   9.33608587
_cell_length_b   9.33650409
_cell_length_c   11.77287100
_cell_angle_alpha   108.37478814
_cell_angle_beta   108.37570016
_cell_angle_gamma   66.18994210
_symmetry_Int_Tables_number   1
_chemical_formula_structural   Ba3Ta2MnO9
_chemical_formula_sum   'Ba12 Ta8 Mn4 O36'
_cell_volume   869.85550081
_cell_formula_units_Z   4
loop_
 _symmetry_equiv_pos_site_id
 _symmetry_equiv_pos_as_xyz
  1  'x, y, z'
loop_
 _atom_site_type_symbol
 _atom_site_label
 _atom_site_symmetry_multiplicity
 _atom_site_fract_x
 _atom_site_fract_y
 _atom_site_fract_z
 _atom_site_occupancy
  Ba  Ba0  1  0.00001400  0.00002100  0.49998500  1
  Ba  Ba1  1  0.50001000  0.50001400  0.74999300  1
  Ba  Ba2  1  0.99999400  0.99999100  0.00000000  1
  Ba  Ba3  1  0.49999600  0.49999900  0.24999500  1
  Ba  Ba4  1  0.33502900  0.00170000  0.33419600  1
  Ba  Ba5  1  0.83501000  0.50167100  0.58413900  1
  Ba  Ba6  1  0.33504600  0.00168200  0.83418200  1
  Ba  Ba7  1  0.83502300  0.50170200  0.08417500  1
  Ba  Ba8  1  0.16497200  0.49828000  0.41580400  1
  Ba  Ba9  1  0.66493700  0.99830400  0.66579800  1
  Ba  Ba10  1  0.16496700  0.49831500  0.91586000  1
  Ba  Ba11  1  0.66496000  0.99828300  0.16580600  1
  Ta  Ta12  1  0.58028500  0.24697800  0.45678600  1
  Ta  Ta13  1  0.08032000  0.74702000  0.70685900  1
  Ta  Ta14  1  0.58034100  0.24695200  0.95683000  1
  Ta  Ta15  1  0.08028300  0.74696500  0.20681500  1
  Ta  Ta16  1  0.91973600  0.25301700  0.29320000  1
  Ta  Ta17  1  0.41967100  0.75307400  0.54319700  1
  Ta  Ta18  1  0.91968000  0.25301800  0.79315400  1
  Ta  Ta19  1  0.41973000  0.75301400  0.04321700  1
  Mn  Mn20  1  0.25009900  0.25037300  0.62525500  1
  Mn  Mn21  1  0.75001400  0.74985500  0.87494000  1
  Mn  Mn22  1  0.25000900  0.24997600  0.12495700  1
  Mn  Mn23  1  0.75009500  0.74995400  0.37517000  1
  O  O24  1  0.99999200  0.99999400  0.24998700  1
  O  O25  1  0.49999700  0.49998700  0.49999000  1
  O  O26  1  0.99999500  0.99998400  0.74998800  1
  O  O27  1  0.49998700  0.49999100  0.99998400  1
  O  O28  1  0.74998500  0.24999100  0.37500000  1
  O  O29  1  0.24998300  0.74999200  0.62498200  1
  O  O30  1  0.74998800  0.24999200  0.87499900  1
  O  O31  1  0.24999500  0.74999900  0.12497600  1
  O  O32  1  0.24998600  0.74997400  0.37500300  1
  O  O33  1  0.75001600  0.25000900  0.62499000  1
  O  O34  1  0.24996500  0.74997700  0.87498300  1
  O  O35  1  0.74998800  0.25001500  0.12496400  1
  O  O36  1  0.42711700  0.25291700  0.30065600  1
  O  O37  1  0.92714300  0.75290700  0.55068700  1
  O  O38  1  0.42712400  0.25294400  0.80067800  1
  O  O39  1  0.92713400  0.75290300  0.05066800  1
  O  O40  1  0.07285900  0.24709600  0.44932300  1
  O  O41  1  0.57287200  0.74705600  0.69931700  1
  O  O42  1  0.07285300  0.24707600  0.94930200  1
  O  O43  1  0.57287500  0.74706800  0.19933000  1
  O  O44  1  0.66579100  0.01425800  0.42002900  1
  O  O45  1  0.16577100  0.51428300  0.67000400  1
  O  O46  1  0.66577900  0.01426500  0.92001300  1
  O  O47  1  0.16577400  0.51425300  0.16998900  1
  O  O48  1  0.83421600  0.48573700  0.32999300  1
  O  O49  1  0.33420400  0.98574500  0.57997400  1
  O  O50  1  0.83421700  0.48572400  0.82998600  1
  O  O51  1  0.33420100  0.98572900  0.07995600  1
  O  O52  1  0.42711500  0.25292800  0.53933300  1
  O  O53  1  0.92712000  0.75292100  0.78931700  1
  O  O54  1  0.42710400  0.25291200  0.03930900  1
  O  O55  1  0.92711800  0.75292800  0.28933800  1
  O  O56  1  0.07287400  0.24706000  0.21064400  1
  O  O57  1  0.57289100  0.74707400  0.46067000  1
  O  O58  1  0.07287400  0.24707800  0.71066800  1
  O  O59  1  0.57287700  0.74707500  0.96065700  1
