# generated using pymatgen
data_Pr3RuBr3
_symmetry_space_group_name_H-M   'P 1'
_cell_length_a   4.25319600
_cell_length_b   9.11687200
_cell_length_c   12.25858036
_cell_angle_alpha   87.09211253
_cell_angle_beta   90.00000000
_cell_angle_gamma   90.00000000
_symmetry_Int_Tables_number   1
_chemical_formula_structural   Pr3RuBr3
_chemical_formula_sum   'Pr6 Ru2 Br6'
_cell_volume   474.72474198
_cell_formula_units_Z   2
loop_
 _symmetry_equiv_pos_site_id
 _symmetry_equiv_pos_as_xyz
  1  'x, y, z'
loop_
 _atom_site_type_symbol
 _atom_site_label
 _atom_site_symmetry_multiplicity
 _atom_site_fract_x
 _atom_site_fract_y
 _atom_site_fract_z
 _atom_site_occupancy
  Pr  Pr0  1  0.25000000  0.31967700  0.37870000  1
  Pr  Pr1  1  0.75000000  0.68032300  0.62130000  1
  Pr  Pr2  1  0.25000000  0.89768500  0.38705300  1
  Pr  Pr3  1  0.75000000  0.10231500  0.61294700  1
  Pr  Pr4  1  0.25000000  0.87976900  0.83948100  1
  Pr  Pr5  1  0.75000000  0.12023100  0.16051900  1
  Ru  Ru6  1  0.25000000  0.88752100  0.62275200  1
  Ru  Ru7  1  0.75000000  0.11247900  0.37724800  1
  Br  Br8  1  0.25000000  0.39429200  0.62663100  1
  Br  Br9  1  0.75000000  0.60570800  0.37336900  1
  Br  Br10  1  0.25000000  0.88598300  0.11501500  1
  Br  Br11  1  0.75000000  0.11401700  0.88498500  1
  Br  Br12  1  0.25000000  0.35382100  0.12580600  1
  Br  Br13  1  0.75000000  0.64617900  0.87419400  1
