# generated using pymatgen
data_NaSrCrF6
_symmetry_space_group_name_H-M   'P 1'
_cell_length_a   9.36479900
_cell_length_b   5.68165100
_cell_length_c   9.84491034
_cell_angle_alpha   86.29776511
_cell_angle_beta   90.00000000
_cell_angle_gamma   90.00000000
_symmetry_Int_Tables_number   1
_chemical_formula_structural   NaSrCrF6
_chemical_formula_sum   'Na4 Sr4 Cr4 F24'
_cell_volume   522.73009333
_cell_formula_units_Z   4
loop_
 _symmetry_equiv_pos_site_id
 _symmetry_equiv_pos_as_xyz
  1  'x, y, z'
loop_
 _atom_site_type_symbol
 _atom_site_label
 _atom_site_symmetry_multiplicity
 _atom_site_fract_x
 _atom_site_fract_y
 _atom_site_fract_z
 _atom_site_occupancy
  Na  Na0  1  0.04704700  0.27739000  0.39761900  1
  Na  Na1  1  0.54704700  0.72261000  0.10238100  1
  Na  Na2  1  0.95295300  0.72261000  0.60238100  1
  Na  Na3  1  0.45295300  0.27739000  0.89761900  1
  Sr  Sr4  1  0.32695900  0.76511900  0.49064200  1
  Sr  Sr5  1  0.82695900  0.23488100  0.00935800  1
  Sr  Sr6  1  0.67304100  0.23488100  0.50935800  1
  Sr  Sr7  1  0.17304100  0.76511900  0.99064200  1
  Cr  Cr8  1  0.91814000  0.76856800  0.26424200  1
  Cr  Cr9  1  0.41814000  0.23143200  0.23575800  1
  Cr  Cr10  1  0.08186000  0.23143200  0.73575800  1
  Cr  Cr11  1  0.58186000  0.76856800  0.76424200  1
  F  F12  1  0.02499400  0.00110300  0.14857500  1
  F  F13  1  0.52499400  0.99889700  0.35142500  1
  F  F14  1  0.97500600  0.99889700  0.85142500  1
  F  F15  1  0.47500600  0.00110300  0.64857500  1
  F  F16  1  0.68298700  0.52671800  0.87368400  1
  F  F17  1  0.18298700  0.47328200  0.62631600  1
  F  F18  1  0.31701300  0.47328200  0.12631600  1
  F  F19  1  0.81701300  0.52671800  0.37368400  1
  F  F20  1  0.91231400  0.31998500  0.62574800  1
  F  F21  1  0.41231400  0.68001500  0.87425200  1
  F  F22  1  0.08768600  0.68001500  0.37425200  1
  F  F23  1  0.58768600  0.31998500  0.12574800  1
  F  F24  1  0.52861000  0.53336500  0.63691100  1
  F  F25  1  0.02861000  0.46663500  0.86308900  1
  F  F26  1  0.47139000  0.46663500  0.36308900  1
  F  F27  1  0.97139000  0.53336500  0.13691100  1
  F  F28  1  0.24103000  0.13588800  0.85013200  1
  F  F29  1  0.74103000  0.86411200  0.64986800  1
  F  F30  1  0.75897000  0.86411200  0.14986800  1
  F  F31  1  0.25897000  0.13588800  0.35013200  1
  F  F32  1  0.62833100  0.00462500  0.89230100  1
  F  F33  1  0.12833100  0.99537500  0.60769900  1
  F  F34  1  0.37166900  0.99537500  0.10769900  1
  F  F35  1  0.87166900  0.00462500  0.39230100  1
