# generated using pymatgen
data_LiEu2CI3N2
_symmetry_space_group_name_H-M   'P 1'
_cell_length_a   10.80046211
_cell_length_b   10.80046211
_cell_length_c   10.80046211
_cell_angle_alpha   60.00000000
_cell_angle_beta   60.00000000
_cell_angle_gamma   60.00000000
_symmetry_Int_Tables_number   1
_chemical_formula_structural   LiEu2CI3N2
_chemical_formula_sum   'Li4 Eu8 C4 I12 N8'
_cell_volume   890.86524341
_cell_formula_units_Z   4
loop_
 _symmetry_equiv_pos_site_id
 _symmetry_equiv_pos_as_xyz
  1  'x, y, z'
loop_
 _atom_site_type_symbol
 _atom_site_label
 _atom_site_symmetry_multiplicity
 _atom_site_fract_x
 _atom_site_fract_y
 _atom_site_fract_z
 _atom_site_occupancy
  Li  Li0  1  0.62500000  0.12500000  0.12500000  1
  Li  Li1  1  0.12500000  0.62500000  0.12500000  1
  Li  Li2  1  0.12500000  0.12500000  0.62500000  1
  Li  Li3  1  0.12500000  0.12500000  0.12500000  1
  Eu  Eu4  1  0.77529400  0.40823500  0.40823500  1
  Eu  Eu5  1  0.40823500  0.77529400  0.40823500  1
  Eu  Eu6  1  0.40823500  0.40823500  0.77529400  1
  Eu  Eu7  1  0.40823500  0.40823500  0.40823500  1
  Eu  Eu8  1  0.47470600  0.84176500  0.84176500  1
  Eu  Eu9  1  0.84176500  0.47470600  0.84176500  1
  Eu  Eu10  1  0.84176500  0.84176500  0.47470600  1
  Eu  Eu11  1  0.84176500  0.84176500  0.84176500  1
  C  C12  1  0.12500000  0.62500000  0.62500000  1
  C  C13  1  0.62500000  0.12500000  0.62500000  1
  C  C14  1  0.62500000  0.62500000  0.12500000  1
  C  C15  1  0.62500000  0.62500000  0.62500000  1
  I  I16  1  0.80029100  0.80029100  0.19970900  1
  I  I17  1  0.19970900  0.19970900  0.80029100  1
  I  I18  1  0.80029100  0.19970900  0.80029100  1
  I  I19  1  0.19970900  0.80029100  0.19970900  1
  I  I20  1  0.19970900  0.80029100  0.80029100  1
  I  I21  1  0.80029100  0.19970900  0.19970900  1
  I  I22  1  0.44970900  0.44970900  0.05029100  1
  I  I23  1  0.05029100  0.05029100  0.44970900  1
  I  I24  1  0.44970900  0.05029100  0.44970900  1
  I  I25  1  0.05029100  0.44970900  0.05029100  1
  I  I26  1  0.05029100  0.44970900  0.44970900  1
  I  I27  1  0.44970900  0.05029100  0.05029100  1
  N  N28  1  0.26568200  0.57810600  0.57810600  1
  N  N29  1  0.57810600  0.26568200  0.57810600  1
  N  N30  1  0.57810600  0.57810600  0.26568200  1
  N  N31  1  0.57810600  0.57810600  0.57810600  1
  N  N32  1  0.98431800  0.67189400  0.67189400  1
  N  N33  1  0.67189400  0.98431800  0.67189400  1
  N  N34  1  0.67189400  0.67189400  0.98431800  1
  N  N35  1  0.67189400  0.67189400  0.67189400  1
