# generated using pymatgen
data_Sc4TaFe19P12
_symmetry_space_group_name_H-M   'P 1'
_cell_length_a   3.60744900
_cell_length_b   10.19555194
_cell_length_c   11.74567707
_cell_angle_alpha   89.51565264
_cell_angle_beta   90.00000000
_cell_angle_gamma   90.00000000
_symmetry_Int_Tables_number   1
_chemical_formula_structural   Sc4TaFe19P12
_chemical_formula_sum   'Sc4 Ta1 Fe19 P12'
_cell_volume   431.98978775
_cell_formula_units_Z   1
loop_
 _symmetry_equiv_pos_site_id
 _symmetry_equiv_pos_as_xyz
  1  'x, y, z'
loop_
 _atom_site_type_symbol
 _atom_site_label
 _atom_site_symmetry_multiplicity
 _atom_site_fract_x
 _atom_site_fract_y
 _atom_site_fract_z
 _atom_site_occupancy
  Sc  Sc0  1  0.25000000  0.57788900  0.70374400  1
  Sc  Sc1  1  0.25000000  0.91868400  0.20801700  1
  Sc  Sc2  1  0.75000000  0.42187800  0.29570200  1
  Sc  Sc3  1  0.75000000  0.08504700  0.79118800  1
  Ta  Ta4  1  0.25000000  0.70404100  0.98942000  1
  Fe  Fe5  1  0.25000000  0.21891900  0.17831200  1
  Fe  Fe6  1  0.25000000  0.27795600  0.67446800  1
  Fe  Fe7  1  0.75000000  0.78444000  0.81859900  1
  Fe  Fe8  1  0.75000000  0.72078100  0.33041700  1
  Fe  Fe9  1  0.25000000  0.87682200  0.69857700  1
  Fe  Fe10  1  0.25000000  0.62041700  0.20417200  1
  Fe  Fe11  1  0.75000000  0.12466400  0.29928900  1
  Fe  Fe12  1  0.75000000  0.37484100  0.79835900  1
  Fe  Fe13  1  0.25000000  0.40604200  0.48976000  1
  Fe  Fe14  1  0.25000000  0.09791500  0.98954100  1
  Fe  Fe15  1  0.75000000  0.59154200  0.51220500  1
  Fe  Fe16  1  0.75000000  0.90982200  0.00956500  1
  Fe  Fe17  1  0.25000000  0.45744500  0.93281800  1
  Fe  Fe18  1  0.25000000  0.03795500  0.43168600  1
  Fe  Fe19  1  0.75000000  0.53114700  0.06780400  1
  Fe  Fe20  1  0.75000000  0.96314600  0.56740400  1
  Fe  Fe21  1  0.25000000  0.79189800  0.48988000  1
  Fe  Fe22  1  0.75000000  0.29276800  0.01103800  1
  Fe  Fe23  1  0.75000000  0.20726400  0.51128200  1
  P  P24  1  0.25000000  0.42175200  0.11735200  1
  P  P25  1  0.25000000  0.07956100  0.61329000  1
  P  P26  1  0.75000000  0.57021700  0.87885200  1
  P  P27  1  0.75000000  0.92156900  0.38577800  1
  P  P28  1  0.25000000  0.26129200  0.86579800  1
  P  P29  1  0.25000000  0.24005300  0.37124600  1
  P  P30  1  0.75000000  0.73513200  0.14300400  1
  P  P31  1  0.75000000  0.75986600  0.62585500  1
  P  P32  1  0.25000000  0.59874100  0.39373200  1
  P  P33  1  0.25000000  0.91905800  0.88715000  1
  P  P34  1  0.75000000  0.39880700  0.60793200  1
  P  P35  1  0.75000000  0.10063200  0.10676300  1
