# generated using pymatgen
data_ScBi3(MoO6)2
_symmetry_space_group_name_H-M   'P 1'
_cell_length_a   10.41490676
_cell_length_b   10.41490676
_cell_length_c   5.38536672
_cell_angle_alpha   77.98470581
_cell_angle_beta   77.98470581
_cell_angle_gamma   68.71095232
_symmetry_Int_Tables_number   1
_chemical_formula_structural   ScBi3(MoO6)2
_chemical_formula_sum   'Sc2 Bi6 Mo4 O24'
_cell_volume   526.70138683
_cell_formula_units_Z   2
loop_
 _symmetry_equiv_pos_site_id
 _symmetry_equiv_pos_as_xyz
  1  'x, y, z'
loop_
 _atom_site_type_symbol
 _atom_site_label
 _atom_site_symmetry_multiplicity
 _atom_site_fract_x
 _atom_site_fract_y
 _atom_site_fract_z
 _atom_site_occupancy
  Sc  Sc0  1  0.09032600  0.90967400  0.75000000  1
  Sc  Sc1  1  0.90967400  0.09032600  0.25000000  1
  Bi  Bi2  1  0.72842400  0.96301300  0.93077200  1
  Bi  Bi3  1  0.27157600  0.03698700  0.06922800  1
  Bi  Bi4  1  0.03698700  0.27157600  0.56922800  1
  Bi  Bi5  1  0.96301300  0.72842400  0.43077200  1
  Bi  Bi6  1  0.66318400  0.33681600  0.75000000  1
  Bi  Bi7  1  0.33681600  0.66318400  0.25000000  1
  Mo  Mo8  1  0.53997200  0.79742800  0.57267900  1
  Mo  Mo9  1  0.46002800  0.20257200  0.42732100  1
  Mo  Mo10  1  0.20257200  0.46002800  0.92732100  1
  Mo  Mo11  1  0.79742800  0.53997200  0.07267900  1
  O  O12  1  0.55076400  0.63825200  0.77880400  1
  O  O13  1  0.44923600  0.36174800  0.22119600  1
  O  O14  1  0.36174800  0.44923600  0.72119600  1
  O  O15  1  0.63825200  0.55076400  0.27880400  1
  O  O16  1  0.89492900  0.94161500  0.58356300  1
  O  O17  1  0.10507100  0.05838500  0.41643700  1
  O  O18  1  0.05838500  0.10507100  0.91643700  1
  O  O19  1  0.94161500  0.89492900  0.08356300  1
  O  O20  1  0.60180100  0.16643700  0.62033400  1
  O  O21  1  0.39819900  0.83356300  0.37966600  1
  O  O22  1  0.83356300  0.39819900  0.87966600  1
  O  O23  1  0.16643700  0.60180100  0.12033400  1
  O  O24  1  0.29752800  0.20756700  0.63290600  1
  O  O25  1  0.70247200  0.79243300  0.36709400  1
  O  O26  1  0.79243300  0.70247200  0.86709400  1
  O  O27  1  0.20756700  0.29752800  0.13290600  1
  O  O28  1  0.74624800  0.15502200  0.03060700  1
  O  O29  1  0.25375200  0.84497800  0.96939300  1
  O  O30  1  0.84497800  0.25375200  0.46939300  1
  O  O31  1  0.15502200  0.74624800  0.53060700  1
  O  O32  1  0.50361400  0.92928100  0.76882600  1
  O  O33  1  0.49638600  0.07071900  0.23117400  1
  O  O34  1  0.07071900  0.49638600  0.73117400  1
  O  O35  1  0.92928100  0.50361400  0.26882600  1
