# generated using pymatgen
data_DyNiGe3
_symmetry_space_group_name_H-M   'P 1'
_cell_length_a   10.98558035
_cell_length_b   10.98558035
_cell_length_c   4.09779600
_cell_angle_alpha   90.00000000
_cell_angle_beta   90.00000000
_cell_angle_gamma   158.40598376
_symmetry_Int_Tables_number   1
_chemical_formula_structural   DyNiGe3
_chemical_formula_sum   'Dy2 Ni2 Ge6'
_cell_volume   182.00216532
_cell_formula_units_Z   2
loop_
 _symmetry_equiv_pos_site_id
 _symmetry_equiv_pos_as_xyz
  1  'x, y, z'
loop_
 _atom_site_type_symbol
 _atom_site_label
 _atom_site_symmetry_multiplicity
 _atom_site_fract_x
 _atom_site_fract_y
 _atom_site_fract_z
 _atom_site_occupancy
  Dy  Dy0  1  0.16885400  0.83114600  0.50000000  1
  Dy  Dy1  1  0.83114600  0.16885400  0.50000000  1
  Ni  Ni2  1  0.38987800  0.61012200  0.00000000  1
  Ni  Ni3  1  0.61012200  0.38987800  0.00000000  1
  Ge  Ge4  1  0.28352600  0.71647400  0.00000000  1
  Ge  Ge5  1  0.71647400  0.28352600  0.00000000  1
  Ge  Ge6  1  0.44263800  0.55736200  0.50000000  1
  Ge  Ge7  1  0.55736200  0.44263800  0.50000000  1
  Ge  Ge8  1  0.05748600  0.94251400  0.00000000  1
  Ge  Ge9  1  0.94251400  0.05748600  0.00000000  1
