# generated using pymatgen
data_Rb3GaO3
_symmetry_space_group_name_H-M   'P 1'
_cell_length_a   6.94894738
_cell_length_b   6.94894738
_cell_length_c   6.92692929
_cell_angle_alpha   82.79818927
_cell_angle_beta   82.79818927
_cell_angle_gamma   114.91519422
_symmetry_Int_Tables_number   1
_chemical_formula_structural   Rb3GaO3
_chemical_formula_sum   'Rb6 Ga2 O6'
_cell_volume   295.00356049
_cell_formula_units_Z   2
loop_
 _symmetry_equiv_pos_site_id
 _symmetry_equiv_pos_as_xyz
  1  'x, y, z'
loop_
 _atom_site_type_symbol
 _atom_site_label
 _atom_site_symmetry_multiplicity
 _atom_site_fract_x
 _atom_site_fract_y
 _atom_site_fract_z
 _atom_site_occupancy
  Rb  Rb0  1  0.37213500  0.37213500  0.34510300  1
  Rb  Rb1  1  0.62786500  0.62786500  0.65489700  1
  Rb  Rb2  1  0.19657300  0.80342700  0.50000000  1
  Rb  Rb3  1  0.80342700  0.19657300  0.50000000  1
  Rb  Rb4  1  0.25993300  0.74006700  0.00000000  1
  Rb  Rb5  1  0.74006700  0.25993300  0.00000000  1
  Ga  Ga6  1  0.83593700  0.83593700  0.14903200  1
  Ga  Ga7  1  0.16406300  0.16406300  0.85096800  1
  O  O8  1  0.90086300  0.90086300  0.85784100  1
  O  O9  1  0.09913700  0.09913700  0.14215900  1
  O  O10  1  0.84805800  0.58564500  0.26560100  1
  O  O11  1  0.41435500  0.15194200  0.73439900  1
  O  O12  1  0.15194200  0.41435500  0.73439900  1
  O  O13  1  0.58564500  0.84805800  0.26560100  1
