# generated using pymatgen
data_As3Pb5BrO12
_symmetry_space_group_name_H-M   'P 1'
_cell_length_a   10.57674984
_cell_length_b   10.57674984
_cell_length_c   7.48516800
_cell_angle_alpha   90.00000000
_cell_angle_beta   90.00000000
_cell_angle_gamma   119.99999897
_symmetry_Int_Tables_number   1
_chemical_formula_structural   As3Pb5BrO12
_chemical_formula_sum   'As6 Pb10 Br2 O24'
_cell_volume   725.16469701
_cell_formula_units_Z   2
loop_
 _symmetry_equiv_pos_site_id
 _symmetry_equiv_pos_as_xyz
  1  'x, y, z'
loop_
 _atom_site_type_symbol
 _atom_site_label
 _atom_site_symmetry_multiplicity
 _atom_site_fract_x
 _atom_site_fract_y
 _atom_site_fract_z
 _atom_site_occupancy
  As  As0  1  0.03012300  0.40889400  0.25000000  1
  As  As1  1  0.96987700  0.59110600  0.75000000  1
  As  As2  1  0.59110600  0.62122900  0.25000000  1
  As  As3  1  0.40889400  0.37877100  0.75000000  1
  As  As4  1  0.37877100  0.96987700  0.25000000  1
  As  As5  1  0.62122900  0.03012300  0.75000000  1
  Pb  Pb6  1  0.24479100  0.26315100  0.25000000  1
  Pb  Pb7  1  0.75520900  0.73684900  0.75000000  1
  Pb  Pb8  1  0.73684900  0.98164000  0.25000000  1
  Pb  Pb9  1  0.26315100  0.01836000  0.75000000  1
  Pb  Pb10  1  0.01836000  0.75520900  0.25000000  1
  Pb  Pb11  1  0.98164000  0.24479100  0.75000000  1
  Pb  Pb12  1  0.33333300  0.66666700  0.99485600  1
  Pb  Pb13  1  0.66666700  0.33333300  0.00514400  1
  Pb  Pb14  1  0.66666700  0.33333300  0.49485600  1
  Pb  Pb15  1  0.33333300  0.66666700  0.50514400  1
  Br  Br16  1  0.00000000  0.00000000  0.00000000  1
  Br  Br17  1  0.00000000  0.00000000  0.50000000  1
  O  O18  1  0.49529600  0.15568500  0.25000000  1
  O  O19  1  0.50470400  0.84431500  0.75000000  1
  O  O20  1  0.84431500  0.33961100  0.25000000  1
  O  O21  1  0.15568500  0.66038900  0.75000000  1
  O  O22  1  0.66038900  0.50470400  0.25000000  1
  O  O23  1  0.33961100  0.49529600  0.75000000  1
  O  O24  1  0.12546800  0.59974400  0.25000000  1
  O  O25  1  0.87453200  0.40025600  0.75000000  1
  O  O26  1  0.40025600  0.52572400  0.25000000  1
  O  O27  1  0.59974400  0.47427600  0.75000000  1
  O  O28  1  0.47427600  0.87453200  0.25000000  1
  O  O29  1  0.52572400  0.12546800  0.75000000  1
  O  O30  1  0.09441500  0.35821600  0.06718800  1
  O  O31  1  0.90558500  0.64178400  0.93281200  1
  O  O32  1  0.64178400  0.73619900  0.06718800  1
  O  O33  1  0.90558500  0.64178400  0.56718800  1
  O  O34  1  0.35821600  0.26380100  0.93281200  1
  O  O35  1  0.09441500  0.35821600  0.43281200  1
  O  O36  1  0.26380100  0.90558500  0.06718800  1
  O  O37  1  0.35821600  0.26380100  0.56718800  1
  O  O38  1  0.73619900  0.09441500  0.93281200  1
  O  O39  1  0.64178400  0.73619900  0.43281200  1
  O  O40  1  0.73619900  0.09441500  0.56718800  1
  O  O41  1  0.26380100  0.90558500  0.43281200  1
