# generated using pymatgen
data_KAgSnSe3
_symmetry_space_group_name_H-M   'P 1'
_cell_length_a   8.44293700
_cell_length_b   8.44293700
_cell_length_c   20.49105200
_cell_angle_alpha   90.00000000
_cell_angle_beta   90.00000000
_cell_angle_gamma   90.00000000
_symmetry_Int_Tables_number   1
_chemical_formula_structural   KAgSnSe3
_chemical_formula_sum   'K8 Ag8 Sn8 Se24'
_cell_volume   1460.66745437
_cell_formula_units_Z   8
loop_
 _symmetry_equiv_pos_site_id
 _symmetry_equiv_pos_as_xyz
  1  'x, y, z'
loop_
 _atom_site_type_symbol
 _atom_site_label
 _atom_site_symmetry_multiplicity
 _atom_site_fract_x
 _atom_site_fract_y
 _atom_site_fract_z
 _atom_site_occupancy
  K  K0  1  0.00000000  0.00000000  0.40502600  1
  K  K1  1  0.00000000  0.00000000  0.90502600  1
  K  K2  1  0.00000000  0.00000000  0.59552700  1
  K  K3  1  0.00000000  0.00000000  0.09552700  1
  K  K4  1  0.50000000  0.50000000  0.24638100  1
  K  K5  1  0.50000000  0.50000000  0.74638100  1
  K  K6  1  0.50000000  0.50000000  0.44813700  1
  K  K7  1  0.50000000  0.50000000  0.94813700  1
  Ag  Ag8  1  0.31514900  0.00119400  0.24956700  1
  Ag  Ag9  1  0.68485100  0.99880600  0.24956700  1
  Ag  Ag10  1  0.99880600  0.31514900  0.24956700  1
  Ag  Ag11  1  0.00119400  0.68485100  0.24956700  1
  Ag  Ag12  1  0.68485100  0.00119400  0.74956700  1
  Ag  Ag13  1  0.31514900  0.99880600  0.74956700  1
  Ag  Ag14  1  0.00119400  0.31514900  0.74956700  1
  Ag  Ag15  1  0.99880600  0.68485100  0.74956700  1
  Sn  Sn16  1  0.50000000  0.00000000  0.41285300  1
  Sn  Sn17  1  0.00000000  0.50000000  0.41285300  1
  Sn  Sn18  1  0.50000000  0.00000000  0.91285300  1
  Sn  Sn19  1  0.00000000  0.50000000  0.91285300  1
  Sn  Sn20  1  0.50000000  0.00000000  0.58840200  1
  Sn  Sn21  1  0.00000000  0.50000000  0.58840200  1
  Sn  Sn22  1  0.50000000  0.00000000  0.08840200  1
  Sn  Sn23  1  0.00000000  0.50000000  0.08840200  1
  Se  Se24  1  0.33126500  0.84572100  0.49996300  1
  Se  Se25  1  0.66873500  0.15427900  0.49996300  1
  Se  Se26  1  0.15427900  0.33126500  0.49996300  1
  Se  Se27  1  0.84572100  0.66873500  0.49996300  1
  Se  Se28  1  0.66873500  0.84572100  0.99996300  1
  Se  Se29  1  0.33126500  0.15427900  0.99996300  1
  Se  Se30  1  0.84572100  0.33126500  0.99996300  1
  Se  Se31  1  0.15427900  0.66873500  0.99996300  1
  Se  Se32  1  0.32590200  0.18800500  0.34545000  1
  Se  Se33  1  0.67409800  0.81199500  0.34545000  1
  Se  Se34  1  0.81199500  0.32590200  0.34545000  1
  Se  Se35  1  0.18800500  0.67409800  0.34545000  1
  Se  Se36  1  0.67409800  0.18800500  0.84545000  1
  Se  Se37  1  0.32590200  0.81199500  0.84545000  1
  Se  Se38  1  0.18800500  0.32590200  0.84545000  1
  Se  Se39  1  0.81199500  0.67409800  0.84545000  1
  Se  Se40  1  0.67562000  0.81323800  0.65484900  1
  Se  Se41  1  0.32438000  0.18676200  0.65484900  1
  Se  Se42  1  0.18676200  0.67562000  0.65484900  1
  Se  Se43  1  0.81323800  0.32438000  0.65484900  1
  Se  Se44  1  0.32438000  0.81323800  0.15484900  1
  Se  Se45  1  0.67562000  0.18676200  0.15484900  1
  Se  Se46  1  0.81323800  0.67562000  0.15484900  1
  Se  Se47  1  0.18676200  0.32438000  0.15484900  1
