# generated using pymatgen
data_La(Sb3Ru)4
_symmetry_space_group_name_H-M   'P 1'
_cell_length_a   8.13616837
_cell_length_b   8.13616837
_cell_length_c   8.13616837
_cell_angle_alpha   109.47122063
_cell_angle_beta   109.47122063
_cell_angle_gamma   109.47122063
_symmetry_Int_Tables_number   1
_chemical_formula_structural   La(Sb3Ru)4
_chemical_formula_sum   'La1 Sb12 Ru4'
_cell_volume   414.60820416
_cell_formula_units_Z   1
loop_
 _symmetry_equiv_pos_site_id
 _symmetry_equiv_pos_as_xyz
  1  'x, y, z'
loop_
 _atom_site_type_symbol
 _atom_site_label
 _atom_site_symmetry_multiplicity
 _atom_site_fract_x
 _atom_site_fract_y
 _atom_site_fract_z
 _atom_site_occupancy
  La  La0  1  0.00000000  0.00000000  0.00000000  1
  Sb  Sb1  1  0.15833400  0.81876200  0.66042800  1
  Sb  Sb2  1  0.84166600  0.18123800  0.33957200  1
  Sb  Sb3  1  0.84166600  0.50209400  0.66042800  1
  Sb  Sb4  1  0.15833400  0.49790600  0.33957200  1
  Sb  Sb5  1  0.81876200  0.66042800  0.15833400  1
  Sb  Sb6  1  0.18123800  0.33957200  0.84166600  1
  Sb  Sb7  1  0.50209400  0.66042800  0.84166600  1
  Sb  Sb8  1  0.49790600  0.33957200  0.15833400  1
  Sb  Sb9  1  0.66042800  0.15833400  0.81876200  1
  Sb  Sb10  1  0.33957200  0.84166600  0.18123800  1
  Sb  Sb11  1  0.66042800  0.84166600  0.50209400  1
  Sb  Sb12  1  0.33957200  0.15833400  0.49790600  1
  Ru  Ru13  1  0.00000000  0.00000000  0.50000000  1
  Ru  Ru14  1  0.50000000  0.00000000  0.00000000  1
  Ru  Ru15  1  0.00000000  0.50000000  0.00000000  1
  Ru  Ru16  1  0.50000000  0.50000000  0.50000000  1
