# generated using pymatgen
data_LiScH2Se2O7
_symmetry_space_group_name_H-M   'P 1'
_cell_length_a   5.60825900
_cell_length_b   16.04368100
_cell_length_c   17.57084828
_cell_angle_alpha   63.48186796
_cell_angle_beta   90.00000000
_cell_angle_gamma   90.00000000
_symmetry_Int_Tables_number   1
_chemical_formula_structural   LiScH2Se2O7
_chemical_formula_sum   'Li8 Sc8 H16 Se16 O56'
_cell_volume   1414.64490861
_cell_formula_units_Z   8
loop_
 _symmetry_equiv_pos_site_id
 _symmetry_equiv_pos_as_xyz
  1  'x, y, z'
loop_
 _atom_site_type_symbol
 _atom_site_label
 _atom_site_symmetry_multiplicity
 _atom_site_fract_x
 _atom_site_fract_y
 _atom_site_fract_z
 _atom_site_occupancy
  Li  Li0  1  0.69264200  0.17414000  0.78280700  1
  Li  Li1  1  0.69264200  0.32586000  0.21719300  1
  Li  Li2  1  0.30735800  0.82586000  0.21719300  1
  Li  Li3  1  0.30735800  0.67414000  0.78280700  1
  Li  Li4  1  0.81511000  0.55011800  0.81213500  1
  Li  Li5  1  0.81511000  0.94988200  0.18786500  1
  Li  Li6  1  0.18489000  0.44988200  0.18786500  1
  Li  Li7  1  0.18489000  0.05011800  0.81213500  1
  Sc  Sc8  1  0.56597500  0.25000000  0.50000000  1
  Sc  Sc9  1  0.43402500  0.75000000  0.50000000  1
  Sc  Sc10  1  0.00119400  0.37220800  0.75626900  1
  Sc  Sc11  1  0.00119400  0.12779200  0.24373100  1
  Sc  Sc12  1  0.99880600  0.62779200  0.24373100  1
  Sc  Sc13  1  0.99880600  0.87220800  0.75626900  1
  Sc  Sc14  1  0.50000000  0.50000000  0.00000000  1
  Sc  Sc15  1  0.50000000  0.00000000  0.00000000  1
  H  H16  1  0.07212600  0.65599900  0.67607500  1
  H  H17  1  0.07212600  0.84400100  0.32392500  1
  H  H18  1  0.92787400  0.34400100  0.32392500  1
  H  H19  1  0.92787400  0.15599900  0.67607500  1
  H  H20  1  0.91257200  0.71325200  0.71009500  1
  H  H21  1  0.91257200  0.78674800  0.28990500  1
  H  H22  1  0.08742800  0.28674800  0.28990500  1
  H  H23  1  0.08742800  0.21325200  0.71009500  1
  H  H24  1  0.42001700  0.54157000  0.75415200  1
  H  H25  1  0.42001700  0.95843000  0.24584800  1
  H  H26  1  0.57998300  0.45843000  0.24584800  1
  H  H27  1  0.57998300  0.04157000  0.75415200  1
  H  H28  1  0.56967000  0.62394700  0.68551900  1
  H  H29  1  0.56967000  0.87605300  0.31448100  1
  H  H30  1  0.43033000  0.37605300  0.31448100  1
  H  H31  1  0.43033000  0.12394700  0.68551900  1
  Se  Se32  1  0.49952600  0.36815800  0.64140200  1
  Se  Se33  1  0.49952600  0.13184200  0.35859800  1
  Se  Se34  1  0.50047400  0.63184200  0.35859800  1
  Se  Se35  1  0.50047400  0.86815800  0.64140200  1
  Se  Se36  1  0.93388000  0.59870400  0.56029100  1
  Se  Se37  1  0.93388000  0.90129600  0.43970900  1
  Se  Se38  1  0.06612000  0.40129600  0.43970900  1
  Se  Se39  1  0.06612000  0.09870400  0.56029100  1
  Se  Se40  1  0.99796500  0.13385400  0.94161300  1
  Se  Se41  1  0.99796500  0.36614600  0.05838700  1
  Se  Se42  1  0.00203500  0.86614600  0.05838700  1
  Se  Se43  1  0.00203500  0.63385400  0.94161300  1
  Se  Se44  1  0.50567300  0.36488000  0.87419900  1
  Se  Se45  1  0.50567300  0.13512000  0.12580100  1
  Se  Se46  1  0.49432700  0.63512000  0.12580100  1
  Se  Se47  1  0.49432700  0.86488000  0.87419900  1
  O  O48  1  0.56166300  0.30762600  0.58500500  1
  O  O49  1  0.56166300  0.19237400  0.41499500  1
  O  O50  1  0.43833700  0.69237400  0.41499500  1
  O  O51  1  0.43833700  0.80762600  0.58500500  1
  O  O52  1  0.68940400  0.65222600  0.57880800  1
  O  O53  1  0.68940400  0.84777400  0.42119200  1
  O  O54  1  0.31059600  0.34777400  0.42119200  1
  O  O55  1  0.31059600  0.15222600  0.57880800  1
  O  O56  1  0.16359200  0.65797400  0.57985000  1
  O  O57  1  0.16359200  0.84202600  0.42015000  1
  O  O58  1  0.83640800  0.34202600  0.42015000  1
  O  O59  1  0.83640800  0.15797400  0.57985000  1
  O  O60  1  0.93932900  0.49624900  0.65188100  1
  O  O61  1  0.93932900  0.00375100  0.34811900  1
  O  O62  1  0.06067100  0.50375100  0.34811900  1
  O  O63  1  0.06067100  0.99624900  0.65188100  1
  O  O64  1  0.04867900  0.24137000  0.85988900  1
  O  O65  1  0.04867900  0.25863000  0.14011100  1
  O  O66  1  0.95132100  0.75863000  0.14011100  1
  O  O67  1  0.95132100  0.74137000  0.85988900  1
  O  O68  1  0.30524800  0.42714700  0.79265300  1
  O  O69  1  0.30524800  0.07285300  0.20734700  1
  O  O70  1  0.69475200  0.57285300  0.20734700  1
  O  O71  1  0.69475200  0.92714700  0.79265300  1
  O  O72  1  0.22519800  0.32326400  0.68549100  1
  O  O73  1  0.22519800  0.17673600  0.31450900  1
  O  O74  1  0.77480200  0.67673600  0.31450900  1
  O  O75  1  0.77480200  0.82326400  0.68549100  1
  O  O76  1  0.68796600  0.31281000  0.72871800  1
  O  O77  1  0.68796600  0.18719000  0.27128200  1
  O  O78  1  0.31203400  0.68719000  0.27128200  1
  O  O79  1  0.31203400  0.81281000  0.72871800  1
  O  O80  1  0.77602400  0.41690200  0.83076400  1
  O  O81  1  0.77602400  0.08309800  0.16923600  1
  O  O82  1  0.22397600  0.58309800  0.16923600  1
  O  O83  1  0.22397600  0.91690200  0.83076400  1
  O  O84  1  0.45476000  0.41342300  0.94188700  1
  O  O85  1  0.45476000  0.08657700  0.05811300  1
  O  O86  1  0.54524000  0.58657700  0.05811300  1
  O  O87  1  0.54524000  0.91342300  0.94188700  1
  O  O88  1  0.20120000  0.06426900  0.92007900  1
  O  O89  1  0.20120000  0.43573100  0.07992100  1
  O  O90  1  0.79880000  0.93573100  0.07992100  1
  O  O91  1  0.79880000  0.56426900  0.92007900  1
  O  O92  1  0.73569200  0.10286700  0.90833000  1
  O  O93  1  0.73569200  0.39713300  0.09167000  1
  O  O94  1  0.26430800  0.89713300  0.09167000  1
  O  O95  1  0.26430800  0.60286700  0.90833000  1
  O  O96  1  0.01010600  0.65568200  0.72939200  1
  O  O97  1  0.01010600  0.84431800  0.27060800  1
  O  O98  1  0.98989400  0.34431800  0.27060800  1
  O  O99  1  0.98989400  0.15568200  0.72939200  1
  O  O100  1  0.51090900  0.59879200  0.74477200  1
  O  O101  1  0.51090900  0.90120800  0.25522800  1
  O  O102  1  0.48909100  0.40120800  0.25522800  1
  O  O103  1  0.48909100  0.09879200  0.74477200  1
