# generated using pymatgen
data_LuAl
_symmetry_space_group_name_H-M   'P 1'
_cell_length_a   5.52384500
_cell_length_b   5.76383500
_cell_length_c   11.20538500
_cell_angle_alpha   90.00000000
_cell_angle_beta   90.00000000
_cell_angle_gamma   90.00000000
_symmetry_Int_Tables_number   1
_chemical_formula_structural   LuAl
_chemical_formula_sum   'Lu8 Al8'
_cell_volume   356.76299932
_cell_formula_units_Z   8
loop_
 _symmetry_equiv_pos_site_id
 _symmetry_equiv_pos_as_xyz
  1  'x, y, z'
loop_
 _atom_site_type_symbol
 _atom_site_label
 _atom_site_symmetry_multiplicity
 _atom_site_fract_x
 _atom_site_fract_y
 _atom_site_fract_z
 _atom_site_occupancy
  Lu  Lu0  1  0.25000000  0.39456300  0.33043900  1
  Lu  Lu1  1  0.75000000  0.60543700  0.66956100  1
  Lu  Lu2  1  0.75000000  0.39456300  0.16956100  1
  Lu  Lu3  1  0.25000000  0.60543700  0.83043900  1
  Lu  Lu4  1  0.25000000  0.15887700  0.01816700  1
  Lu  Lu5  1  0.75000000  0.84112300  0.98183300  1
  Lu  Lu6  1  0.75000000  0.15887700  0.48183300  1
  Lu  Lu7  1  0.25000000  0.84112300  0.51816700  1
  Al  Al8  1  0.00000000  0.92918800  0.25000000  1
  Al  Al9  1  0.50000000  0.07081200  0.75000000  1
  Al  Al10  1  0.00000000  0.07081200  0.75000000  1
  Al  Al11  1  0.50000000  0.92918800  0.25000000  1
  Al  Al12  1  0.25000000  0.65616900  0.09594900  1
  Al  Al13  1  0.75000000  0.34383100  0.90405100  1
  Al  Al14  1  0.75000000  0.65616900  0.40405100  1
  Al  Al15  1  0.25000000  0.34383100  0.59594900  1
