# generated using pymatgen
data_Eu(ZnSb)2
_symmetry_space_group_name_H-M   'P 1'
_cell_length_a   4.58000999
_cell_length_b   4.58000999
_cell_length_c   7.42323500
_cell_angle_alpha   90.00000000
_cell_angle_beta   90.00000000
_cell_angle_gamma   119.99999988
_symmetry_Int_Tables_number   1
_chemical_formula_structural   Eu(ZnSb)2
_chemical_formula_sum   'Eu1 Zn2 Sb2'
_cell_volume   134.85178284
_cell_formula_units_Z   1
loop_
 _symmetry_equiv_pos_site_id
 _symmetry_equiv_pos_as_xyz
  1  'x, y, z'
loop_
 _atom_site_type_symbol
 _atom_site_label
 _atom_site_symmetry_multiplicity
 _atom_site_fract_x
 _atom_site_fract_y
 _atom_site_fract_z
 _atom_site_occupancy
  Eu  Eu0  1  0.00000000  0.00000000  0.00000000  1
  Zn  Zn1  1  0.66666700  0.33333300  0.35912400  1
  Zn  Zn2  1  0.33333300  0.66666700  0.64087600  1
  Sb  Sb3  1  0.66666700  0.33333300  0.73711300  1
  Sb  Sb4  1  0.33333300  0.66666700  0.26288700  1
