# generated using pymatgen
data_K3ScCl6
_symmetry_space_group_name_H-M   'P 1'
_cell_length_a   7.67507500
_cell_length_b   12.67530892
_cell_length_c   13.02479161
_cell_angle_alpha   109.95137453
_cell_angle_beta   90.00000000
_cell_angle_gamma   90.00000000
_symmetry_Int_Tables_number   1
_chemical_formula_structural   K3ScCl6
_chemical_formula_sum   'K12 Sc4 Cl24'
_cell_volume   1191.05482831
_cell_formula_units_Z   4
loop_
 _symmetry_equiv_pos_site_id
 _symmetry_equiv_pos_as_xyz
  1  'x, y, z'
loop_
 _atom_site_type_symbol
 _atom_site_label
 _atom_site_symmetry_multiplicity
 _atom_site_fract_x
 _atom_site_fract_y
 _atom_site_fract_z
 _atom_site_occupancy
  K  K0  1  0.50544700  0.37018900  0.60406300  1
  K  K1  1  0.00544700  0.12981100  0.39593700  1
  K  K2  1  0.49455300  0.62981100  0.39593700  1
  K  K3  1  0.99455300  0.87018900  0.60406300  1
  K  K4  1  0.55627100  0.12095300  0.82191300  1
  K  K5  1  0.05627100  0.37904700  0.17808700  1
  K  K6  1  0.44372900  0.87904700  0.17808700  1
  K  K7  1  0.94372900  0.62095300  0.82191300  1
  K  K8  1  0.05741700  0.27189600  0.80989100  1
  K  K9  1  0.55741700  0.22810400  0.19010900  1
  K  K10  1  0.94258300  0.72810400  0.19010900  1
  K  K11  1  0.44258300  0.77189600  0.80989100  1
  Sc  Sc12  1  0.50000000  0.50000000  0.00000000  1
  Sc  Sc13  1  0.00000000  0.00000000  0.00000000  1
  Sc  Sc14  1  0.50000000  0.00000000  0.50000000  1
  Sc  Sc15  1  0.00000000  0.50000000  0.50000000  1
  Cl  Cl16  1  0.69398600  0.38508600  0.84765200  1
  Cl  Cl17  1  0.19398600  0.11491400  0.15234800  1
  Cl  Cl18  1  0.30601400  0.61491400  0.15234800  1
  Cl  Cl19  1  0.80601400  0.88508600  0.84765200  1
  Cl  Cl20  1  0.77501400  0.09241800  0.60160100  1
  Cl  Cl21  1  0.27501400  0.40758200  0.39839900  1
  Cl  Cl22  1  0.22498600  0.90758200  0.39839900  1
  Cl  Cl23  1  0.72498600  0.59241800  0.60160100  1
  Cl  Cl24  1  0.31807700  0.15339500  0.62708500  1
  Cl  Cl25  1  0.81807700  0.34660500  0.37291500  1
  Cl  Cl26  1  0.68192300  0.84660500  0.37291500  1
  Cl  Cl27  1  0.18192300  0.65339500  0.62708500  1
  Cl  Cl28  1  0.36221900  0.32200300  0.00902600  1
  Cl  Cl29  1  0.86221900  0.17799700  0.99097400  1
  Cl  Cl30  1  0.63778100  0.67799700  0.99097400  1
  Cl  Cl31  1  0.13778100  0.82200300  0.00902600  1
  Cl  Cl32  1  0.28627500  0.50088000  0.85649800  1
  Cl  Cl33  1  0.78627500  0.99912000  0.14350200  1
  Cl  Cl34  1  0.71372500  0.49912000  0.14350200  1
  Cl  Cl35  1  0.21372500  0.00088000  0.85649800  1
  Cl  Cl36  1  0.02383100  0.38718900  0.62004200  1
  Cl  Cl37  1  0.52383100  0.11281100  0.37995800  1
  Cl  Cl38  1  0.97616900  0.61281100  0.37995800  1
  Cl  Cl39  1  0.47616900  0.88718900  0.62004200  1
