# generated using pymatgen
data_Ba3P3ClO10
_symmetry_space_group_name_H-M   'P 1'
_cell_length_a   5.68313800
_cell_length_b   14.39661200
_cell_length_c   14.50718600
_cell_angle_alpha   90.00000000
_cell_angle_beta   90.00000000
_cell_angle_gamma   90.00000000
_symmetry_Int_Tables_number   1
_chemical_formula_structural   Ba3P3ClO10
_chemical_formula_sum   'Ba12 P12 Cl4 O40'
_cell_volume   1186.94796823
_cell_formula_units_Z   4
loop_
 _symmetry_equiv_pos_site_id
 _symmetry_equiv_pos_as_xyz
  1  'x, y, z'
loop_
 _atom_site_type_symbol
 _atom_site_label
 _atom_site_symmetry_multiplicity
 _atom_site_fract_x
 _atom_site_fract_y
 _atom_site_fract_z
 _atom_site_occupancy
  Ba  Ba0  1  0.98789700  0.67010500  0.94217200  1
  Ba  Ba1  1  0.01210300  0.17010500  0.05782800  1
  Ba  Ba2  1  0.98789700  0.17010500  0.55782800  1
  Ba  Ba3  1  0.01210300  0.67010500  0.44217200  1
  Ba  Ba4  1  0.99775800  0.45692900  0.20274300  1
  Ba  Ba5  1  0.00224200  0.95692900  0.79725700  1
  Ba  Ba6  1  0.99775800  0.95692900  0.29725700  1
  Ba  Ba7  1  0.00224200  0.45692900  0.70274300  1
  Ba  Ba8  1  0.49915700  0.74325800  0.18290800  1
  Ba  Ba9  1  0.50084300  0.24325800  0.81709200  1
  Ba  Ba10  1  0.49915700  0.24325800  0.31709200  1
  Ba  Ba11  1  0.50084300  0.74325800  0.68290800  1
  P  P12  1  0.51405900  0.31058900  0.08476700  1
  P  P13  1  0.48594100  0.81058900  0.91523300  1
  P  P14  1  0.51405900  0.81058900  0.41523300  1
  P  P15  1  0.48594100  0.31058900  0.58476700  1
  P  P16  1  0.50279900  0.51827500  0.03436400  1
  P  P17  1  0.49720100  0.01827500  0.96563600  1
  P  P18  1  0.50279900  0.01827500  0.46563600  1
  P  P19  1  0.49720100  0.51827500  0.53436400  1
  P  P20  1  0.50929500  0.53809200  0.82289200  1
  P  P21  1  0.49070500  0.03809200  0.17710800  1
  P  P22  1  0.50929500  0.03809200  0.67710800  1
  P  P23  1  0.49070500  0.53809200  0.32289200  1
  Cl  Cl24  1  0.99614800  0.80833200  0.12095500  1
  Cl  Cl25  1  0.00385200  0.30833200  0.87904500  1
  Cl  Cl26  1  0.99614800  0.30833200  0.37904500  1
  Cl  Cl27  1  0.00385200  0.80833200  0.62095500  1
  O  O28  1  0.51739700  0.43716600  0.79228700  1
  O  O29  1  0.48260300  0.93716600  0.20771300  1
  O  O30  1  0.51739700  0.93716600  0.70771300  1
  O  O31  1  0.48260300  0.43716600  0.29228700  1
  O  O32  1  0.24632100  0.54004000  0.05053400  1
  O  O33  1  0.75367900  0.04004000  0.94946600  1
  O  O34  1  0.24632100  0.04004000  0.44946600  1
  O  O35  1  0.75367900  0.54004000  0.55053400  1
  O  O36  1  0.51749600  0.23792800  0.00834400  1
  O  O37  1  0.48250400  0.73792800  0.99165600  1
  O  O38  1  0.51749600  0.73792800  0.49165600  1
  O  O39  1  0.48250400  0.23792800  0.50834400  1
  O  O40  1  0.70676100  0.59702900  0.77990700  1
  O  O41  1  0.29323900  0.09702900  0.22009300  1
  O  O42  1  0.70676100  0.09702900  0.72009300  1
  O  O43  1  0.29323900  0.59702900  0.27990700  1
  O  O44  1  0.28140800  0.31277000  0.13811000  1
  O  O45  1  0.71859200  0.81277000  0.86189000  1
  O  O46  1  0.28140800  0.81277000  0.36189000  1
  O  O47  1  0.71859200  0.31277000  0.63811000  1
  O  O48  1  0.26471800  0.58177900  0.81587500  1
  O  O49  1  0.73528200  0.08177900  0.18412500  1
  O  O50  1  0.26471800  0.08177900  0.68412500  1
  O  O51  1  0.73528200  0.58177900  0.31587500  1
  O  O52  1  0.72959500  0.30321200  0.14837600  1
  O  O53  1  0.27040500  0.80321200  0.85162400  1
  O  O54  1  0.72959500  0.80321200  0.35162400  1
  O  O55  1  0.27040500  0.30321200  0.64837600  1
  O  O56  1  0.59029800  0.54467400  0.93272100  1
  O  O57  1  0.40970200  0.04467400  0.06727900  1
  O  O58  1  0.59029800  0.04467400  0.56727900  1
  O  O59  1  0.40970200  0.54467400  0.43272100  1
  O  O60  1  0.54498000  0.40904800  0.02999500  1
  O  O61  1  0.45502000  0.90904800  0.97000500  1
  O  O62  1  0.54498000  0.90904800  0.47000500  1
  O  O63  1  0.45502000  0.40904800  0.52999500  1
  O  O64  1  0.68034300  0.56423500  0.09776400  1
  O  O65  1  0.31965700  0.06423500  0.90223600  1
  O  O66  1  0.68034300  0.06423500  0.40223600  1
  O  O67  1  0.31965700  0.56423500  0.59776400  1
