# generated using pymatgen
data_SrCr(Si2O5)2
_symmetry_space_group_name_H-M   'P 1'
_cell_length_a   7.55845900
_cell_length_b   7.55845900
_cell_length_c   15.85503400
_cell_angle_alpha   90.00000000
_cell_angle_beta   90.00000000
_cell_angle_gamma   90.00000000
_symmetry_Int_Tables_number   1
_chemical_formula_structural   SrCr(Si2O5)2
_chemical_formula_sum   'Sr4 Cr4 Si16 O40'
_cell_volume   905.80288785
_cell_formula_units_Z   4
loop_
 _symmetry_equiv_pos_site_id
 _symmetry_equiv_pos_as_xyz
  1  'x, y, z'
loop_
 _atom_site_type_symbol
 _atom_site_label
 _atom_site_symmetry_multiplicity
 _atom_site_fract_x
 _atom_site_fract_y
 _atom_site_fract_z
 _atom_site_occupancy
  Sr  Sr0  1  0.50000000  0.50000000  0.50000000  1
  Sr  Sr1  1  0.00000000  0.00000000  0.50000000  1
  Sr  Sr2  1  0.00000000  0.00000000  0.00000000  1
  Sr  Sr3  1  0.50000000  0.50000000  0.00000000  1
  Cr  Cr4  1  0.50000000  0.00000000  0.58738400  1
  Cr  Cr5  1  0.00000000  0.50000000  0.91261600  1
  Cr  Cr6  1  0.00000000  0.50000000  0.41261600  1
  Cr  Cr7  1  0.50000000  0.00000000  0.08738400  1
  Si  Si8  1  0.17531400  0.25859800  0.65142300  1
  Si  Si9  1  0.82468600  0.74140200  0.65142300  1
  Si  Si10  1  0.25859800  0.17531400  0.84857700  1
  Si  Si11  1  0.75859800  0.32468600  0.65142300  1
  Si  Si12  1  0.24140200  0.67531400  0.65142300  1
  Si  Si13  1  0.32468600  0.75859800  0.84857700  1
  Si  Si14  1  0.67531400  0.24140200  0.84857700  1
  Si  Si15  1  0.74140200  0.82468600  0.84857700  1
  Si  Si16  1  0.32468600  0.24140200  0.34857700  1
  Si  Si17  1  0.67531400  0.75859800  0.34857700  1
  Si  Si18  1  0.24140200  0.32468600  0.15142300  1
  Si  Si19  1  0.74140200  0.17531400  0.34857700  1
  Si  Si20  1  0.25859800  0.82468600  0.34857700  1
  Si  Si21  1  0.17531400  0.74140200  0.15142300  1
  Si  Si22  1  0.82468600  0.25859800  0.15142300  1
  Si  Si23  1  0.75859800  0.67531400  0.15142300  1
  O  O24  1  0.25768700  0.11812200  0.58661500  1
  O  O25  1  0.74231300  0.88187800  0.58661500  1
  O  O26  1  0.11812200  0.25768700  0.91338500  1
  O  O27  1  0.61812200  0.24231300  0.58661500  1
  O  O28  1  0.38187800  0.75768700  0.58661500  1
  O  O29  1  0.24231300  0.61812200  0.91338500  1
  O  O30  1  0.75768700  0.38187800  0.91338500  1
  O  O31  1  0.88187800  0.74231300  0.91338500  1
  O  O32  1  0.24231300  0.38187800  0.41338500  1
  O  O33  1  0.75768700  0.61812200  0.41338500  1
  O  O34  1  0.38187800  0.24231300  0.08661500  1
  O  O35  1  0.88187800  0.25768700  0.41338500  1
  O  O36  1  0.11812200  0.74231300  0.41338500  1
  O  O37  1  0.25768700  0.88187800  0.08661500  1
  O  O38  1  0.74231300  0.11812200  0.08661500  1
  O  O39  1  0.25275000  0.03965100  0.36757100  1
  O  O40  1  0.61812200  0.75768700  0.08661500  1
  O  O41  1  0.75275000  0.53965100  0.63242900  1
  O  O42  1  0.46034900  0.24725000  0.86757100  1
  O  O43  1  0.96034900  0.25275000  0.63242900  1
  O  O44  1  0.03965100  0.74725000  0.63242900  1
  O  O45  1  0.25275000  0.96034900  0.86757100  1
  O  O46  1  0.74725000  0.03965100  0.86757100  1
  O  O47  1  0.53965100  0.75275000  0.86757100  1
  O  O48  1  0.71272500  0.71272500  0.25000000  1
  O  O49  1  0.78727500  0.21272500  0.25000000  1
  O  O50  1  0.21272500  0.78727500  0.25000000  1
  O  O51  1  0.28727500  0.28727500  0.25000000  1
  O  O52  1  0.78727500  0.78727500  0.75000000  1
  O  O53  1  0.71272500  0.28727500  0.75000000  1
  O  O54  1  0.28727500  0.71272500  0.75000000  1
  O  O55  1  0.21272500  0.21272500  0.75000000  1
  O  O56  1  0.96034900  0.74725000  0.13242900  1
  O  O57  1  0.75275000  0.46034900  0.13242900  1
  O  O58  1  0.24725000  0.53965100  0.13242900  1
  O  O59  1  0.46034900  0.75275000  0.36757100  1
  O  O60  1  0.53965100  0.24725000  0.36757100  1
  O  O61  1  0.03965100  0.25275000  0.13242900  1
  O  O62  1  0.74725000  0.96034900  0.36757100  1
  O  O63  1  0.24725000  0.46034900  0.63242900  1
