# generated using pymatgen
data_BaU2S5
_symmetry_space_group_name_H-M   'P 1'
_cell_length_a   7.49639300
_cell_length_b   8.46903700
_cell_length_c   11.77012717
_cell_angle_alpha   89.42915649
_cell_angle_beta   90.00000000
_cell_angle_gamma   90.00000000
_symmetry_Int_Tables_number   1
_chemical_formula_structural   BaU2S5
_chemical_formula_sum   'Ba4 U8 S20'
_cell_volume   747.21567971
_cell_formula_units_Z   4
loop_
 _symmetry_equiv_pos_site_id
 _symmetry_equiv_pos_as_xyz
  1  'x, y, z'
loop_
 _atom_site_type_symbol
 _atom_site_label
 _atom_site_symmetry_multiplicity
 _atom_site_fract_x
 _atom_site_fract_y
 _atom_site_fract_z
 _atom_site_occupancy
  Ba  Ba0  1  0.05507500  0.49048100  0.33184900  1
  Ba  Ba1  1  0.55507500  0.50951900  0.16815100  1
  Ba  Ba2  1  0.94492500  0.50951900  0.66815100  1
  Ba  Ba3  1  0.44492500  0.49048100  0.83184900  1
  U  U4  1  0.02017900  0.99953700  0.31778000  1
  U  U5  1  0.52017900  0.00046300  0.18222000  1
  U  U6  1  0.97982100  0.00046300  0.68222000  1
  U  U7  1  0.47982100  0.99953700  0.81778000  1
  U  U8  1  0.06685700  0.75823800  0.00817300  1
  U  U9  1  0.56685700  0.24176200  0.49182700  1
  U  U10  1  0.93314300  0.24176200  0.99182700  1
  U  U11  1  0.43314300  0.75823800  0.50817300  1
  S  S12  1  0.66196300  0.95639000  0.40146700  1
  S  S13  1  0.16196300  0.04361000  0.09853300  1
  S  S14  1  0.33803700  0.04361000  0.59853300  1
  S  S15  1  0.83803700  0.95639000  0.90146700  1
  S  S16  1  0.44798800  0.79544800  0.00225900  1
  S  S17  1  0.94798800  0.20455200  0.49774100  1
  S  S18  1  0.55201200  0.20455200  0.99774100  1
  S  S19  1  0.05201200  0.79544800  0.50225900  1
  S  S20  1  0.84082400  0.78563200  0.18753800  1
  S  S21  1  0.34082400  0.21436800  0.31246200  1
  S  S22  1  0.15917600  0.21436800  0.81246200  1
  S  S23  1  0.65917600  0.78563200  0.68753800  1
  S  S24  1  0.31109800  0.77757000  0.28560100  1
  S  S25  1  0.81109800  0.22243000  0.21439900  1
  S  S26  1  0.68890200  0.22243000  0.71439900  1
  S  S27  1  0.18890200  0.77757000  0.78560100  1
  S  S28  1  0.17446600  0.46493200  0.07040000  1
  S  S29  1  0.67446600  0.53506800  0.42960000  1
  S  S30  1  0.82553400  0.53506800  0.92960000  1
  S  S31  1  0.32553400  0.46493200  0.57040000  1
