# generated using pymatgen
data_K6InP3
_symmetry_space_group_name_H-M   'P 1'
_cell_length_a   9.01007800
_cell_length_b   9.02832023
_cell_length_c   10.00382479
_cell_angle_alpha   81.76175115
_cell_angle_beta   107.08351658
_cell_angle_gamma   119.50921262
_symmetry_Int_Tables_number   1
_chemical_formula_structural   K6InP3
_chemical_formula_sum   'K12 In2 P6'
_cell_volume   676.95607485
_cell_formula_units_Z   2
loop_
 _symmetry_equiv_pos_site_id
 _symmetry_equiv_pos_as_xyz
  1  'x, y, z'
loop_
 _atom_site_type_symbol
 _atom_site_label
 _atom_site_symmetry_multiplicity
 _atom_site_fract_x
 _atom_site_fract_y
 _atom_site_fract_z
 _atom_site_occupancy
  K  K0  1  0.73545700  0.12907500  0.61667000  1
  K  K1  1  0.26030800  0.85732500  0.39268600  1
  K  K2  1  0.96992000  0.81456000  0.62513800  1
  K  K3  1  0.02100100  0.19142400  0.39115500  1
  K  K4  1  0.62057700  0.44772000  0.39965800  1
  K  K5  1  0.39282300  0.56065300  0.59487500  1
  K  K6  1  0.87213600  0.48741000  0.14175300  1
  K  K7  1  0.11361100  0.50428500  0.85090200  1
  K  K8  1  0.75043300  0.09310300  0.98433300  1
  K  K9  1  0.23783300  0.87703800  0.00179100  1
  K  K10  1  0.57638800  0.62597600  0.94484900  1
  K  K11  1  0.24661200  0.21076200  0.10978800  1
  In  In12  1  0.58562100  0.82644400  0.25611100  1
  In  In13  1  0.41876800  0.17742900  0.74975600  1
  P  P14  1  0.28862000  0.55277100  0.23298000  1
  P  P15  1  0.71500100  0.44428600  0.76208500  1
  P  P16  1  0.59815400  0.11713400  0.25942400  1
  P  P17  1  0.38889800  0.87682900  0.74089900  1
  P  P18  1  0.86386700  0.82295800  0.24414500  1
  P  P19  1  0.15335200  0.19955900  0.76238400  1
