# generated using pymatgen
data_Nb2Al3Ir
_symmetry_space_group_name_H-M   'P 1'
_cell_length_a   5.21794531
_cell_length_b   5.21794531
_cell_length_c   8.01019900
_cell_angle_alpha   90.00000000
_cell_angle_beta   90.00000000
_cell_angle_gamma   119.99999131
_symmetry_Int_Tables_number   1
_chemical_formula_structural   Nb2Al3Ir
_chemical_formula_sum   'Nb4 Al6 Ir2'
_cell_volume   188.87436698
_cell_formula_units_Z   2
loop_
 _symmetry_equiv_pos_site_id
 _symmetry_equiv_pos_as_xyz
  1  'x, y, z'
loop_
 _atom_site_type_symbol
 _atom_site_label
 _atom_site_symmetry_multiplicity
 _atom_site_fract_x
 _atom_site_fract_y
 _atom_site_fract_z
 _atom_site_occupancy
  Nb  Nb0  1  0.33333300  0.66666700  0.42640600  1
  Nb  Nb1  1  0.66666700  0.33333300  0.57359400  1
  Nb  Nb2  1  0.66666700  0.33333300  0.92640600  1
  Nb  Nb3  1  0.33333300  0.66666700  0.07359400  1
  Al  Al4  1  0.83029900  0.16970100  0.25000000  1
  Al  Al5  1  0.83029900  0.66059800  0.25000000  1
  Al  Al6  1  0.33940200  0.16970100  0.25000000  1
  Al  Al7  1  0.16970100  0.83029900  0.75000000  1
  Al  Al8  1  0.16970100  0.33940200  0.75000000  1
  Al  Al9  1  0.66059800  0.83029900  0.75000000  1
  Ir  Ir10  1  0.00000000  0.00000000  0.50000000  1
  Ir  Ir11  1  0.00000000  0.00000000  0.00000000  1
