# generated using pymatgen
data_TbCrTeO6
_symmetry_space_group_name_H-M   'P 1'
_cell_length_a   5.19632916
_cell_length_b   5.19687632
_cell_length_c   9.84851201
_cell_angle_alpha   89.99620483
_cell_angle_beta   90.00189832
_cell_angle_gamma   120.00348517
_symmetry_Int_Tables_number   1
_chemical_formula_structural   TbCrTeO6
_chemical_formula_sum   'Tb2 Cr2 Te2 O12'
_cell_volume   230.31648880
_cell_formula_units_Z   2
loop_
 _symmetry_equiv_pos_site_id
 _symmetry_equiv_pos_as_xyz
  1  'x, y, z'
loop_
 _atom_site_type_symbol
 _atom_site_label
 _atom_site_symmetry_multiplicity
 _atom_site_fract_x
 _atom_site_fract_y
 _atom_site_fract_z
 _atom_site_occupancy
  Tb  Tb0  1  0.00000000  0.00000000  0.00000000  1
  Tb  Tb1  1  0.00000000  0.00000000  0.50000000  1
  Cr  Cr2  1  0.33322100  0.66661100  0.25000000  1
  Cr  Cr3  1  0.66677900  0.33338900  0.75000000  1
  Te  Te4  1  0.33323200  0.66661600  0.75000000  1
  Te  Te5  1  0.66676800  0.33338400  0.25000000  1
  O  O6  1  0.36613700  0.35609700  0.13978800  1
  O  O7  1  0.64394900  0.01004200  0.13977400  1
  O  O8  1  0.99000900  0.63390100  0.13979400  1
  O  O9  1  0.63386300  0.64390300  0.86021200  1
  O  O10  1  0.35605100  0.98995800  0.86022600  1
  O  O11  1  0.00999100  0.36609900  0.86020600  1
  O  O12  1  0.64394900  0.63390700  0.36022600  1
  O  O13  1  0.36613700  0.01004000  0.36021200  1
  O  O14  1  0.99000900  0.35610800  0.36020600  1
  O  O15  1  0.35605100  0.36609300  0.63977400  1
  O  O16  1  0.63386300  0.98996000  0.63978800  1
  O  O17  1  0.00999100  0.64389200  0.63979400  1
