# generated using pymatgen
data_YbMgAg
_symmetry_space_group_name_H-M   'P 1'
_cell_length_a   4.43808200
_cell_length_b   7.55458600
_cell_length_c   8.83313200
_cell_angle_alpha   90.00000000
_cell_angle_beta   90.00000000
_cell_angle_gamma   90.00000000
_symmetry_Int_Tables_number   1
_chemical_formula_structural   YbMgAg
_chemical_formula_sum   'Yb4 Mg4 Ag4'
_cell_volume   296.15612033
_cell_formula_units_Z   4
loop_
 _symmetry_equiv_pos_site_id
 _symmetry_equiv_pos_as_xyz
  1  'x, y, z'
loop_
 _atom_site_type_symbol
 _atom_site_label
 _atom_site_symmetry_multiplicity
 _atom_site_fract_x
 _atom_site_fract_y
 _atom_site_fract_z
 _atom_site_occupancy
  Yb  Yb0  1  0.25000000  0.53398400  0.17614100  1
  Yb  Yb1  1  0.75000000  0.46601600  0.82385900  1
  Yb  Yb2  1  0.75000000  0.96601600  0.67614100  1
  Yb  Yb3  1  0.25000000  0.03398400  0.32385900  1
  Mg  Mg4  1  0.25000000  0.63844900  0.56026900  1
  Mg  Mg5  1  0.75000000  0.36155100  0.43973100  1
  Mg  Mg6  1  0.75000000  0.86155100  0.06026900  1
  Mg  Mg7  1  0.25000000  0.13844900  0.93973100  1
  Ag  Ag8  1  0.25000000  0.76477700  0.87104800  1
  Ag  Ag9  1  0.75000000  0.23522300  0.12895200  1
  Ag  Ag10  1  0.75000000  0.73522300  0.37104800  1
  Ag  Ag11  1  0.25000000  0.26477700  0.62895200  1
