# generated using pymatgen
data_TbB7Mo3
_symmetry_space_group_name_H-M   'P 1'
_cell_length_a   3.11291700
_cell_length_b   11.02829400
_cell_length_c   12.93606200
_cell_angle_alpha   90.00000000
_cell_angle_beta   90.00000000
_cell_angle_gamma   90.00000000
_symmetry_Int_Tables_number   1
_chemical_formula_structural   TbB7Mo3
_chemical_formula_sum   'Tb4 B28 Mo12'
_cell_volume   444.09712834
_cell_formula_units_Z   4
loop_
 _symmetry_equiv_pos_site_id
 _symmetry_equiv_pos_as_xyz
  1  'x, y, z'
loop_
 _atom_site_type_symbol
 _atom_site_label
 _atom_site_symmetry_multiplicity
 _atom_site_fract_x
 _atom_site_fract_y
 _atom_site_fract_z
 _atom_site_occupancy
  Tb  Tb0  1  0.75000000  0.55097800  0.30816100  1
  Tb  Tb1  1  0.25000000  0.44902200  0.69183900  1
  Tb  Tb2  1  0.25000000  0.94902200  0.80816100  1
  Tb  Tb3  1  0.75000000  0.05097800  0.19183900  1
  B  B4  1  0.75000000  0.75073100  0.17346300  1
  B  B5  1  0.25000000  0.24926900  0.82653700  1
  B  B6  1  0.25000000  0.74926900  0.67346300  1
  B  B7  1  0.75000000  0.25073100  0.32653700  1
  B  B8  1  0.75000000  0.93209000  0.38402100  1
  B  B9  1  0.25000000  0.06791000  0.61597900  1
  B  B10  1  0.25000000  0.56791000  0.88402100  1
  B  B11  1  0.75000000  0.43209000  0.11597900  1
  B  B12  1  0.75000000  0.98954800  0.63717600  1
  B  B13  1  0.25000000  0.01045200  0.36282400  1
  B  B14  1  0.25000000  0.51045200  0.13717600  1
  B  B15  1  0.75000000  0.48954800  0.86282400  1
  B  B16  1  0.75000000  0.76977000  0.41817700  1
  B  B17  1  0.25000000  0.23023000  0.58182300  1
  B  B18  1  0.25000000  0.73023000  0.91817700  1
  B  B19  1  0.75000000  0.26977000  0.08182300  1
  B  B20  1  0.75000000  0.96262000  0.98217000  1
  B  B21  1  0.25000000  0.03738000  0.01783000  1
  B  B22  1  0.25000000  0.53738000  0.48216900  1
  B  B23  1  0.75000000  0.46262000  0.51783000  1
  B  B24  1  0.75000000  0.81283000  0.93358500  1
  B  B25  1  0.25000000  0.18717000  0.06641500  1
  B  B26  1  0.25000000  0.68717000  0.43358500  1
  B  B27  1  0.75000000  0.31283000  0.56641500  1
  B  B28  1  0.75000000  0.83368000  0.66689500  1
  B  B29  1  0.25000000  0.16632000  0.33310500  1
  B  B30  1  0.25000000  0.66632000  0.16689500  1
  B  B31  1  0.75000000  0.33368000  0.83310500  1
  Mo  Mo32  1  0.75000000  0.11773200  0.47305100  1
  Mo  Mo33  1  0.25000000  0.88226800  0.52694900  1
  Mo  Mo34  1  0.25000000  0.38226800  0.97305100  1
  Mo  Mo35  1  0.75000000  0.61773200  0.02694900  1
  Mo  Mo36  1  0.75000000  0.65978000  0.56367800  1
  Mo  Mo37  1  0.25000000  0.34022000  0.43632200  1
  Mo  Mo38  1  0.25000000  0.84022000  0.06367800  1
  Mo  Mo39  1  0.75000000  0.15978000  0.93632200  1
  Mo  Mo40  1  0.75000000  0.68485700  0.79835400  1
  Mo  Mo41  1  0.25000000  0.31514300  0.20164600  1
  Mo  Mo42  1  0.25000000  0.81514300  0.29835400  1
  Mo  Mo43  1  0.75000000  0.18485700  0.70164600  1
