# generated using pymatgen
data_LaGe
_symmetry_space_group_name_H-M   'P 1'
_cell_length_a   7.30508271
_cell_length_b   7.30508271
_cell_length_c   6.78457100
_cell_angle_alpha   90.00000000
_cell_angle_beta   90.00000000
_cell_angle_gamma   143.39097650
_symmetry_Int_Tables_number   1
_chemical_formula_structural   LaGe
_chemical_formula_sum   'La4 Ge4'
_cell_volume   215.91103506
_cell_formula_units_Z   4
loop_
 _symmetry_equiv_pos_site_id
 _symmetry_equiv_pos_as_xyz
  1  'x, y, z'
loop_
 _atom_site_type_symbol
 _atom_site_label
 _atom_site_symmetry_multiplicity
 _atom_site_fract_x
 _atom_site_fract_y
 _atom_site_fract_z
 _atom_site_occupancy
  La  La0  1  0.95198400  0.04801600  0.25000000  1
  La  La1  1  0.04801600  0.95198400  0.75000000  1
  La  La2  1  0.77445900  0.22554100  0.75000000  1
  La  La3  1  0.22554100  0.77445900  0.25000000  1
  Ge  Ge4  1  0.59812800  0.40187200  0.44450300  1
  Ge  Ge5  1  0.40187200  0.59812800  0.55549700  1
  Ge  Ge6  1  0.59812800  0.40187200  0.05549700  1
  Ge  Ge7  1  0.40187200  0.59812800  0.94450300  1
