# generated using pymatgen
data_Na2Ge2S5
_symmetry_space_group_name_H-M   'P 1'
_cell_length_a   9.24518496
_cell_length_b   9.24518496
_cell_length_c   10.71704200
_cell_angle_alpha   90.00000000
_cell_angle_beta   90.00000000
_cell_angle_gamma   90.97469154
_symmetry_Int_Tables_number   1
_chemical_formula_structural   Na2Ge2S5
_chemical_formula_sum   'Na8 Ge8 S20'
_cell_volume   915.88995779
_cell_formula_units_Z   4
loop_
 _symmetry_equiv_pos_site_id
 _symmetry_equiv_pos_as_xyz
  1  'x, y, z'
loop_
 _atom_site_type_symbol
 _atom_site_label
 _atom_site_symmetry_multiplicity
 _atom_site_fract_x
 _atom_site_fract_y
 _atom_site_fract_z
 _atom_site_occupancy
  Na  Na0  1  0.90840100  0.42064900  0.75000000  1
  Na  Na1  1  0.09159900  0.57935100  0.25000000  1
  Na  Na2  1  0.42064900  0.90840100  0.25000000  1
  Na  Na3  1  0.57935100  0.09159900  0.75000000  1
  Na  Na4  1  0.14710900  0.14710900  0.50000000  1
  Na  Na5  1  0.85289100  0.85289100  0.00000000  1
  Na  Na6  1  0.85289100  0.85289100  0.50000000  1
  Na  Na7  1  0.14710900  0.14710900  0.00000000  1
  Ge  Ge8  1  0.31292700  0.40904500  0.75000000  1
  Ge  Ge9  1  0.68707300  0.59095500  0.25000000  1
  Ge  Ge10  1  0.40904500  0.31292700  0.25000000  1
  Ge  Ge11  1  0.59095500  0.68707300  0.75000000  1
  Ge  Ge12  1  0.25515600  0.74484400  0.58148500  1
  Ge  Ge13  1  0.74484400  0.25515600  0.08148500  1
  Ge  Ge14  1  0.74484400  0.25515600  0.41851500  1
  Ge  Ge15  1  0.25515600  0.74484400  0.91851500  1
  S  S16  1  0.55297500  0.44702600  0.75000000  1
  S  S17  1  0.44702500  0.55297400  0.25000000  1
  S  S18  1  0.49619300  0.79479800  0.92103300  1
  S  S19  1  0.50380700  0.20520200  0.42103300  1
  S  S20  1  0.79479800  0.49619300  0.07896700  1
  S  S21  1  0.20520200  0.50380700  0.57896700  1
  S  S22  1  0.50380700  0.20520200  0.07896700  1
  S  S23  1  0.49619300  0.79479800  0.57896700  1
  S  S24  1  0.20520200  0.50380700  0.92103300  1
  S  S25  1  0.79479800  0.49619300  0.42103300  1
  S  S26  1  0.15379800  0.84620200  0.75000000  1
  S  S27  1  0.84620200  0.15379800  0.25000000  1
  S  S28  1  0.15880500  0.84119500  0.08254700  1
  S  S29  1  0.84119500  0.15880500  0.58254700  1
  S  S30  1  0.84119500  0.15880500  0.91745300  1
  S  S31  1  0.15880500  0.84119500  0.41745300  1
  S  S32  1  0.82090400  0.72917900  0.75000000  1
  S  S33  1  0.17909600  0.27082100  0.25000000  1
  S  S34  1  0.72917900  0.82090400  0.25000000  1
  S  S35  1  0.27082100  0.17909600  0.75000000  1
