# generated using pymatgen
data_Ba2PrBiO6
_symmetry_space_group_name_H-M   'P 1'
_cell_length_a   6.25906932
_cell_length_b   6.25906932
_cell_length_c   6.31072258
_cell_angle_alpha   60.03861366
_cell_angle_beta   60.03861366
_cell_angle_gamma   60.12858220
_symmetry_Int_Tables_number   1
_chemical_formula_structural   Ba2PrBiO6
_chemical_formula_sum   'Ba2 Pr1 Bi1 O6'
_cell_volume   175.08848625
_cell_formula_units_Z   1
loop_
 _symmetry_equiv_pos_site_id
 _symmetry_equiv_pos_as_xyz
  1  'x, y, z'
loop_
 _atom_site_type_symbol
 _atom_site_label
 _atom_site_symmetry_multiplicity
 _atom_site_fract_x
 _atom_site_fract_y
 _atom_site_fract_z
 _atom_site_occupancy
  Ba  Ba0  1  0.75157600  0.75157600  0.74173700  1
  Ba  Ba1  1  0.24842400  0.24842400  0.25826300  1
  Pr  Pr2  1  0.00000000  0.00000000  0.00000000  1
  Bi  Bi3  1  0.50000000  0.50000000  0.50000000  1
  O  O4  1  0.73735600  0.73735600  0.19315800  1
  O  O5  1  0.26264400  0.26264400  0.80684200  1
  O  O6  1  0.70189300  0.22218600  0.30137100  1
  O  O7  1  0.29810700  0.77781400  0.69862900  1
  O  O8  1  0.77781400  0.29810700  0.69862900  1
  O  O9  1  0.22218600  0.70189300  0.30137100  1
