# generated using pymatgen
data_Ba5V3HO13
_symmetry_space_group_name_H-M   'P 1'
_cell_length_a   7.96744900
_cell_length_b   10.68007430
_cell_length_c   10.68008313
_cell_angle_alpha   120.00081591
_cell_angle_beta   90.00000000
_cell_angle_gamma   90.00000000
_symmetry_Int_Tables_number   1
_chemical_formula_structural   Ba5V3HO13
_chemical_formula_sum   'Ba10 V6 H2 O26'
_cell_volume   787.03719991
_cell_formula_units_Z   2
loop_
 _symmetry_equiv_pos_site_id
 _symmetry_equiv_pos_as_xyz
  1  'x, y, z'
loop_
 _atom_site_type_symbol
 _atom_site_label
 _atom_site_symmetry_multiplicity
 _atom_site_fract_x
 _atom_site_fract_y
 _atom_site_fract_z
 _atom_site_occupancy
  Ba  Ba0  1  0.50075500  0.66663000  0.33331500  1
  Ba  Ba1  1  0.00075500  0.33337000  0.66668500  1
  Ba  Ba2  1  0.49923600  0.33337100  0.66668400  1
  Ba  Ba3  1  0.99923600  0.66662900  0.33331600  1
  Ba  Ba4  1  0.74892200  0.24730600  0.98895700  1
  Ba  Ba5  1  0.74892200  0.01103400  0.25835800  1
  Ba  Ba6  1  0.74892200  0.74166100  0.75268400  1
  Ba  Ba7  1  0.24892200  0.75269400  0.01104300  1
  Ba  Ba8  1  0.24892200  0.98896600  0.74164100  1
  Ba  Ba9  1  0.24892200  0.25833900  0.24731600  1
  V  V10  1  0.74974000  0.96664200  0.59926500  1
  V  V11  1  0.74974300  0.40072400  0.36736000  1
  V  V12  1  0.74974300  0.63263000  0.03335100  1
  V  V13  1  0.24974000  0.03335800  0.40073500  1
  V  V14  1  0.24974300  0.59927600  0.63264000  1
  V  V15  1  0.24974300  0.36737000  0.96664900  1
  H  H16  1  0.57187100  0.00000000  0.00000100  1
  H  H17  1  0.07187100  0.00000000  0.99999900  1
  O  O18  1  0.75005300  0.87365600  0.40953500  1
  O  O19  1  0.75005400  0.59046300  0.46412500  1
  O  O20  1  0.75005300  0.53587200  0.12633100  1
  O  O21  1  0.25005300  0.12634400  0.59046500  1
  O  O22  1  0.25005400  0.40953700  0.53587500  1
  O  O23  1  0.25005300  0.46412800  0.87366900  1
  O  O24  1  0.57467400  0.90782200  0.65272000  1
  O  O25  1  0.57466900  0.34729000  0.25510800  1
  O  O26  1  0.57466900  0.74489300  0.09217300  1
  O  O27  1  0.07467400  0.09217800  0.34728000  1
  O  O28  1  0.07466900  0.65271000  0.74489200  1
  O  O29  1  0.07466900  0.25510700  0.90782700  1
  O  O30  1  0.42456000  0.09162000  0.34570100  1
  O  O31  1  0.42456800  0.65428900  0.74591300  1
  O  O32  1  0.42456900  0.25408400  0.90838400  1
  O  O33  1  0.92456000  0.90838000  0.65429900  1
  O  O34  1  0.92456800  0.34571100  0.25408700  1
  O  O35  1  0.92456900  0.74591600  0.09161600  1
  O  O36  1  0.74979100  0.15484200  0.67327200  1
  O  O37  1  0.74979200  0.32673500  0.48157800  1
  O  O38  1  0.74979200  0.51843000  0.84515300  1
  O  O39  1  0.24979100  0.84515800  0.32672800  1
  O  O40  1  0.24979200  0.67326500  0.51842200  1
  O  O41  1  0.24979200  0.48157000  0.15484700  1
  O  O42  1  0.69410100  0.00000100  0.00000200  1
  O  O43  1  0.19410100  0.99999900  0.99999800  1
