# generated using pymatgen
data_Tb4Ga21Ni10
_symmetry_space_group_name_H-M   'P 1'
_cell_length_a   10.62393032
_cell_length_b   10.62393032
_cell_length_c   15.45277030
_cell_angle_alpha   56.76961589
_cell_angle_beta   56.76961589
_cell_angle_gamma   22.12653589
_symmetry_Int_Tables_number   1
_chemical_formula_structural   Tb4Ga21Ni10
_chemical_formula_sum   'Tb4 Ga21 Ni10'
_cell_volume   544.97709307
_cell_formula_units_Z   1
loop_
 _symmetry_equiv_pos_site_id
 _symmetry_equiv_pos_as_xyz
  1  'x, y, z'
loop_
 _atom_site_type_symbol
 _atom_site_label
 _atom_site_symmetry_multiplicity
 _atom_site_fract_x
 _atom_site_fract_y
 _atom_site_fract_z
 _atom_site_occupancy
  Tb  Tb0  1  0.88022300  0.88022300  0.33396500  1
  Tb  Tb1  1  0.11977700  0.11977700  0.66603500  1
  Tb  Tb2  1  0.22898400  0.22898400  0.17664200  1
  Tb  Tb3  1  0.77101600  0.77101600  0.82335800  1
  Ga  Ga4  1  0.45999900  0.45999900  0.36885200  1
  Ga  Ga5  1  0.54000100  0.54000100  0.63114800  1
  Ga  Ga6  1  0.79876100  0.79876100  0.00330600  1
  Ga  Ga7  1  0.20123900  0.20123900  0.99669400  1
  Ga  Ga8  1  0.70255000  0.70255000  0.49673100  1
  Ga  Ga9  1  0.29745000  0.29745000  0.50326900  1
  Ga  Ga10  1  0.88403100  0.88403100  0.55160300  1
  Ga  Ga11  1  0.11596900  0.11596900  0.44839700  1
  Ga  Ga12  1  0.61442900  0.61442900  0.29822800  1
  Ga  Ga13  1  0.38557100  0.38557100  0.70177200  1
  Ga  Ga14  1  0.75214100  0.75214100  0.29475100  1
  Ga  Ga15  1  0.24785900  0.24785900  0.70524900  1
  Ga  Ga16  1  0.60211000  0.60211000  0.00272400  1
  Ga  Ga17  1  0.39789000  0.39789000  0.99727600  1
  Ga  Ga18  1  0.99408400  0.99408400  0.09044800  1
  Ga  Ga19  1  0.00591600  0.00591600  0.90955200  1
  Ga  Ga20  1  0.93528200  0.93528200  0.79572100  1
  Ga  Ga21  1  0.06471800  0.06471800  0.20427900  1
  Ga  Ga22  1  0.50000000  0.50000000  0.50000000  1
  Ga  Ga23  1  0.37266900  0.37266900  0.19597000  1
  Ga  Ga24  1  0.62733100  0.62733100  0.80403000  1
  Ni  Ni25  1  0.49826000  0.49826000  0.18538600  1
  Ni  Ni26  1  0.50174000  0.50174000  0.81461400  1
  Ni  Ni27  1  0.86686300  0.86686300  0.10491000  1
  Ni  Ni28  1  0.13313700  0.13313700  0.89509000  1
  Ni  Ni29  1  0.75147600  0.75147600  0.61375900  1
  Ni  Ni30  1  0.24852400  0.24852400  0.38624100  1
  Ni  Ni31  1  0.65260100  0.65260100  0.11366700  1
  Ni  Ni32  1  0.34739900  0.34739900  0.88633300  1
  Ni  Ni33  1  0.97558000  0.97558000  0.60734400  1
  Ni  Ni34  1  0.02442000  0.02442000  0.39265600  1
