# generated using pymatgen
data_FeO
_symmetry_space_group_name_H-M   'P 1'
_cell_length_a   3.10229376
_cell_length_b   5.37569584
_cell_length_c   5.44381721
_cell_angle_alpha   110.55665729
_cell_angle_beta   91.09699170
_cell_angle_gamma   89.94660036
_symmetry_Int_Tables_number   1
_chemical_formula_structural   FeO
_chemical_formula_sum   'Fe4 O4'
_cell_volume   84.98847684
_cell_formula_units_Z   4
loop_
 _symmetry_equiv_pos_site_id
 _symmetry_equiv_pos_as_xyz
  1  'x, y, z'
loop_
 _atom_site_type_symbol
 _atom_site_label
 _atom_site_symmetry_multiplicity
 _atom_site_fract_x
 _atom_site_fract_y
 _atom_site_fract_z
 _atom_site_occupancy
  Fe  Fe0  1  0.50000000  0.00000000  0.50000000  1
  Fe  Fe1  1  0.00000000  0.50000000  0.50000000  1
  Fe  Fe2  1  0.00000000  0.00000000  0.00000000  1
  Fe  Fe3  1  0.50000100  0.50000000  0.00000000  1
  O  O4  1  0.96829100  0.25167600  0.74206600  1
  O  O5  1  0.46831300  0.25167300  0.24206800  1
  O  O6  1  0.03170900  0.74832400  0.25793400  1
  O  O7  1  0.53168600  0.74832700  0.75793200  1
