# generated using pymatgen
data_RbHS2O7
_symmetry_space_group_name_H-M   'P 1'
_cell_length_a   11.18613500
_cell_length_b   7.47118700
_cell_length_c   8.73522796
_cell_angle_alpha   72.57722938
_cell_angle_beta   90.00000000
_cell_angle_gamma   90.00000000
_symmetry_Int_Tables_number   1
_chemical_formula_structural   RbHS2O7
_chemical_formula_sum   'Rb4 H4 S8 O28'
_cell_volume   696.54238157
_cell_formula_units_Z   4
loop_
 _symmetry_equiv_pos_site_id
 _symmetry_equiv_pos_as_xyz
  1  'x, y, z'
loop_
 _atom_site_type_symbol
 _atom_site_label
 _atom_site_symmetry_multiplicity
 _atom_site_fract_x
 _atom_site_fract_y
 _atom_site_fract_z
 _atom_site_occupancy
  Rb  Rb0  1  0.29944400  0.65628200  0.46720600  1
  Rb  Rb1  1  0.79944400  0.34371800  0.03279400  1
  Rb  Rb2  1  0.70055600  0.34371800  0.53279400  1
  Rb  Rb3  1  0.20055600  0.65628200  0.96720600  1
  H  H4  1  0.54773800  0.89617500  0.79185800  1
  H  H5  1  0.04773800  0.10382500  0.70814200  1
  H  H6  1  0.45226200  0.10382500  0.20814200  1
  H  H7  1  0.95226200  0.89617500  0.29185800  1
  S  S8  1  0.40398400  0.08635200  0.67745500  1
  S  S9  1  0.90398400  0.91364800  0.82254500  1
  S  S10  1  0.59601600  0.91364800  0.32254500  1
  S  S11  1  0.09601600  0.08635200  0.17745500  1
  S  S12  1  0.44336100  0.31825300  0.89102200  1
  S  S13  1  0.94336100  0.68174700  0.60897800  1
  S  S14  1  0.55663900  0.68174700  0.10897800  1
  S  S15  1  0.05663900  0.31825300  0.39102200  1
  O  O16  1  0.53443400  0.00974000  0.69134900  1
  O  O17  1  0.03443400  0.99026000  0.80865100  1
  O  O18  1  0.46556600  0.99026000  0.30865100  1
  O  O19  1  0.96556600  0.00974000  0.19134900  1
  O  O20  1  0.31965900  0.94091900  0.67802500  1
  O  O21  1  0.81965900  0.05908100  0.82197500  1
  O  O22  1  0.68034100  0.05908100  0.32197500  1
  O  O23  1  0.18034100  0.94091900  0.17802500  1
  O  O24  1  0.38059400  0.12520100  0.84607700  1
  O  O25  1  0.88059400  0.87479900  0.65392300  1
  O  O26  1  0.61940600  0.87479900  0.15392300  1
  O  O27  1  0.11940600  0.12520100  0.34607700  1
  O  O28  1  0.37483600  0.47664600  0.79519400  1
  O  O29  1  0.87483600  0.52335400  0.70480600  1
  O  O30  1  0.62516400  0.52335400  0.20480600  1
  O  O31  1  0.12516400  0.47664600  0.29519400  1
  O  O32  1  0.56893000  0.31406000  0.85167300  1
  O  O33  1  0.06893000  0.68594000  0.64832700  1
  O  O34  1  0.43107000  0.68594000  0.14832700  1
  O  O35  1  0.93107000  0.31406000  0.35167300  1
  O  O36  1  0.41405200  0.26505500  0.06155900  1
  O  O37  1  0.91405200  0.73494500  0.43844100  1
  O  O38  1  0.58594800  0.73494500  0.93844100  1
  O  O39  1  0.08594800  0.26505500  0.56155900  1
  O  O40  1  0.40561800  0.25917200  0.54870400  1
  O  O41  1  0.90561800  0.74082800  0.95129600  1
  O  O42  1  0.59438200  0.74082800  0.45129600  1
  O  O43  1  0.09438200  0.25917200  0.04870400  1
