# generated using pymatgen
data_Ce2Ge2IrRh
_symmetry_space_group_name_H-M   'P 1'
_cell_length_a   4.42083700
_cell_length_b   7.06945200
_cell_length_c   7.60708300
_cell_angle_alpha   90.00000000
_cell_angle_beta   90.00000000
_cell_angle_gamma   90.00000000
_symmetry_Int_Tables_number   1
_chemical_formula_structural   Ce2Ge2IrRh
_chemical_formula_sum   'Ce4 Ge4 Ir2 Rh2'
_cell_volume   237.74336604
_cell_formula_units_Z   2
loop_
 _symmetry_equiv_pos_site_id
 _symmetry_equiv_pos_as_xyz
  1  'x, y, z'
loop_
 _atom_site_type_symbol
 _atom_site_label
 _atom_site_symmetry_multiplicity
 _atom_site_fract_x
 _atom_site_fract_y
 _atom_site_fract_z
 _atom_site_occupancy
  Ce  Ce0  1  0.50000000  0.51461600  0.54962900  1
  Ce  Ce1  1  0.50000000  0.01461600  0.45037100  1
  Ce  Ce2  1  0.00000000  0.48744700  0.94903200  1
  Ce  Ce3  1  0.00000000  0.98744800  0.05096800  1
  Ge  Ge4  1  0.50000000  0.18150100  0.83410200  1
  Ge  Ge5  1  0.50000000  0.68150100  0.16589800  1
  Ge  Ge6  1  0.00000000  0.81899800  0.66665000  1
  Ge  Ge7  1  0.00000000  0.31899800  0.33335000  1
  Ir  Ir8  1  0.50000000  0.78798100  0.83824100  1
  Ir  Ir9  1  0.50000000  0.28798100  0.16175900  1
  Rh  Rh10  1  0.00000000  0.20945700  0.66101900  1
  Rh  Rh11  1  0.00000000  0.70945700  0.33898100  1
