# generated using pymatgen
data_UH16C3N4O11
_symmetry_space_group_name_H-M   'P 1'
_cell_length_a   7.26835292
_cell_length_b   7.26835292
_cell_length_c   12.82560340
_cell_angle_alpha   86.55383372
_cell_angle_beta   86.55383372
_cell_angle_gamma   81.07139130
_symmetry_Int_Tables_number   1
_chemical_formula_structural   UH16C3N4O11
_chemical_formula_sum   'U2 H32 C6 N8 O22'
_cell_volume   667.25592362
_cell_formula_units_Z   2
loop_
 _symmetry_equiv_pos_site_id
 _symmetry_equiv_pos_as_xyz
  1  'x, y, z'
loop_
 _atom_site_type_symbol
 _atom_site_label
 _atom_site_symmetry_multiplicity
 _atom_site_fract_x
 _atom_site_fract_y
 _atom_site_fract_z
 _atom_site_occupancy
  U  U0  1  0.80700700  0.19299300  0.25000000  1
  U  U1  1  0.19299300  0.80700700  0.75000000  1
  H  H2  1  0.91426000  0.73816600  0.41061100  1
  H  H3  1  0.26183400  0.08574000  0.08938900  1
  H  H4  1  0.08574000  0.26183400  0.58938900  1
  H  H5  1  0.73816600  0.91426000  0.91061100  1
  H  H6  1  0.94402100  0.72198000  0.27749500  1
  H  H7  1  0.27802000  0.05597900  0.22250500  1
  H  H8  1  0.05597900  0.27802000  0.72250500  1
  H  H9  1  0.72198000  0.94402100  0.77749500  1
  H  H10  1  0.95992300  0.52363300  0.36119200  1
  H  H11  1  0.47636700  0.04007700  0.13880800  1
  H  H12  1  0.04007700  0.47636700  0.63880800  1
  H  H13  1  0.52363300  0.95992300  0.86119200  1
  H  H14  1  0.12560200  0.66365200  0.34872600  1
  H  H15  1  0.33634800  0.87439800  0.15127400  1
  H  H16  1  0.87439800  0.33634800  0.65127400  1
  H  H17  1  0.66365200  0.12560200  0.84872600  1
  H  H18  1  0.08116000  0.64859800  0.03905100  1
  H  H19  1  0.35140200  0.91884000  0.46094900  1
  H  H20  1  0.91884000  0.35140200  0.96094900  1
  H  H21  1  0.64859800  0.08116000  0.53905100  1
  H  H22  1  0.19520500  0.42797300  0.02414800  1
  H  H23  1  0.57202700  0.80479500  0.47585200  1
  H  H24  1  0.80479500  0.57202700  0.97585200  1
  H  H25  1  0.42797300  0.19520500  0.52414800  1
  H  H26  1  0.27376800  0.56645400  0.10869600  1
  H  H27  1  0.43354600  0.72623200  0.39130400  1
  H  H28  1  0.72623200  0.43354600  0.89130400  1
  H  H29  1  0.56645400  0.27376800  0.60869600  1
  H  H30  1  0.29457900  0.61024200  0.97710200  1
  H  H31  1  0.38975800  0.70542100  0.52289800  1
  H  H32  1  0.70542100  0.38975800  0.02289800  1
  H  H33  1  0.61024200  0.29457900  0.47710200  1
  C  C34  1  0.50105900  0.49894100  0.25000000  1
  C  C35  1  0.49894100  0.50105900  0.75000000  1
  C  C36  1  0.08711300  0.16426000  0.40685300  1
  C  C37  1  0.83574000  0.91288700  0.09314700  1
  C  C38  1  0.91288700  0.83574000  0.59314700  1
  C  C39  1  0.16426000  0.08711300  0.90685300  1
  N  N40  1  0.98434600  0.66107200  0.34979400  1
  N  N41  1  0.33892800  0.01565400  0.15020600  1
  N  N42  1  0.01565400  0.33892800  0.65020600  1
  N  N43  1  0.66107200  0.98434600  0.84979400  1
  N  N44  1  0.21185900  0.56375000  0.03805800  1
  N  N45  1  0.43625000  0.78814100  0.46194200  1
  N  N46  1  0.78814100  0.43625000  0.96194200  1
  N  N47  1  0.56375000  0.21185900  0.53805800  1
  O  O48  1  0.54089200  0.39021000  0.17095800  1
  O  O49  1  0.60979000  0.45910800  0.32904200  1
  O  O50  1  0.45910800  0.60979000  0.82904200  1
  O  O51  1  0.39021000  0.54089200  0.67095800  1
  O  O52  1  0.93708100  0.29087400  0.40815400  1
  O  O53  1  0.70912600  0.06291900  0.09184600  1
  O  O54  1  0.06291900  0.70912600  0.59184600  1
  O  O55  1  0.29087400  0.93708100  0.90815400  1
  O  O56  1  0.10221000  0.05042800  0.33069100  1
  O  O57  1  0.94957200  0.89779000  0.16930900  1
  O  O58  1  0.89779000  0.94957200  0.66930900  1
  O  O59  1  0.05042800  0.10221000  0.83069100  1
  O  O60  1  0.36581500  0.63418500  0.25000000  1
  O  O61  1  0.63418500  0.36581500  0.75000000  1
  O  O62  1  0.20751200  0.15051700  0.47656400  1
  O  O63  1  0.84948300  0.79248800  0.02343600  1
  O  O64  1  0.79248800  0.84948300  0.52343600  1
  O  O65  1  0.15051700  0.20751200  0.97656400  1
  O  O66  1  0.95260400  0.34159800  0.17420900  1
  O  O67  1  0.65840200  0.04739600  0.32579100  1
  O  O68  1  0.04739600  0.65840200  0.82579100  1
  O  O69  1  0.34159800  0.95260400  0.67420900  1
