# generated using pymatgen
data_Sr2ErMoO6
_symmetry_space_group_name_H-M   'P 1'
_cell_length_a   5.88272400
_cell_length_b   5.80698000
_cell_length_c   10.11651758
_cell_angle_alpha   55.44190699
_cell_angle_beta   90.00000000
_cell_angle_gamma   90.00000000
_symmetry_Int_Tables_number   1
_chemical_formula_structural   Sr2ErMoO6
_chemical_formula_sum   'Sr4 Er2 Mo2 O12'
_cell_volume   284.61028786
_cell_formula_units_Z   2
loop_
 _symmetry_equiv_pos_site_id
 _symmetry_equiv_pos_as_xyz
  1  'x, y, z'
loop_
 _atom_site_type_symbol
 _atom_site_label
 _atom_site_symmetry_multiplicity
 _atom_site_fract_x
 _atom_site_fract_y
 _atom_site_fract_z
 _atom_site_occupancy
  Sr  Sr0  1  0.03675000  0.24378100  0.75193300  1
  Sr  Sr1  1  0.53675000  0.75621900  0.74806700  1
  Sr  Sr2  1  0.46325000  0.24378100  0.25193300  1
  Sr  Sr3  1  0.96325000  0.75621900  0.24806700  1
  Er  Er4  1  0.00000000  0.50000000  0.00000000  1
  Er  Er5  1  0.50000000  0.50000000  0.50000000  1
  Mo  Mo6  1  0.00000000  0.00000000  0.50000000  1
  Mo  Mo7  1  0.50000000  0.00000000  0.00000000  1
  O  O8  1  0.02225300  0.31308200  0.26119700  1
  O  O9  1  0.52225300  0.68691800  0.23880300  1
  O  O10  1  0.97774700  0.68691800  0.73880300  1
  O  O11  1  0.47774700  0.31308200  0.76119700  1
  O  O12  1  0.21810800  0.15569600  0.04098200  1
  O  O13  1  0.71810800  0.84430400  0.45901800  1
  O  O14  1  0.78189200  0.84430400  0.95901800  1
  O  O15  1  0.28189200  0.15569600  0.54098200  1
  O  O16  1  0.30827700  0.76360100  0.96464400  1
  O  O17  1  0.80827700  0.23639900  0.53535600  1
  O  O18  1  0.69172300  0.23639900  0.03535600  1
  O  O19  1  0.19172300  0.76360100  0.46464400  1
