# generated using pymatgen
data_NaInBP2HO9
_symmetry_space_group_name_H-M   'P 1'
_cell_length_a   5.26157800
_cell_length_b   17.00347800
_cell_length_c   9.14366227
_cell_angle_alpha   90.00000000
_cell_angle_beta   120.46774918
_cell_angle_gamma   90.00000000
_symmetry_Int_Tables_number   1
_chemical_formula_structural   NaInBP2HO9
_chemical_formula_sum   'Na4 In4 B4 P8 H4 O36'
_cell_volume   705.07975569
_cell_formula_units_Z   4
loop_
 _symmetry_equiv_pos_site_id
 _symmetry_equiv_pos_as_xyz
  1  'x, y, z'
loop_
 _atom_site_type_symbol
 _atom_site_label
 _atom_site_symmetry_multiplicity
 _atom_site_fract_x
 _atom_site_fract_y
 _atom_site_fract_z
 _atom_site_occupancy
  Na  Na0  1  0.48097300  0.16031900  0.33978500  1
  Na  Na1  1  0.51902700  0.66031900  0.16021500  1
  Na  Na2  1  0.51902700  0.83968100  0.66021500  1
  Na  Na3  1  0.48097300  0.33968100  0.83978500  1
  In  In4  1  0.96611800  0.34033800  0.29426700  1
  In  In5  1  0.03388200  0.84033800  0.20573300  1
  In  In6  1  0.03388200  0.65966200  0.70573300  1
  In  In7  1  0.96611800  0.15966200  0.79426700  1
  B  B8  1  0.14507700  0.52509300  0.25310600  1
  B  B9  1  0.85492300  0.02509300  0.24689400  1
  B  B10  1  0.85492300  0.47490700  0.74689400  1
  B  B11  1  0.14507700  0.97490700  0.75310600  1
  P  P12  1  0.28119200  0.66760500  0.42517900  1
  P  P13  1  0.71880800  0.16760500  0.07482100  1
  P  P14  1  0.71880800  0.33239500  0.57482100  1
  P  P15  1  0.28119200  0.83239500  0.92517900  1
  P  P16  1  0.76487800  0.91211600  0.43488500  1
  P  P17  1  0.23512200  0.41211600  0.06511500  1
  P  P18  1  0.23512200  0.08788400  0.56511500  1
  P  P19  1  0.76487800  0.58788400  0.93488500  1
  H  H20  1  0.20936800  0.47553900  0.47157100  1
  H  H21  1  0.79063200  0.97553900  0.02842900  1
  H  H22  1  0.79063200  0.52446100  0.52842900  1
  H  H23  1  0.20936800  0.02446100  0.97157100  1
  O  O24  1  0.04016800  0.65703300  0.47277100  1
  O  O25  1  0.95983200  0.15703300  0.02722900  1
  O  O26  1  0.95983200  0.34296700  0.52722900  1
  O  O27  1  0.04016800  0.84296700  0.97277100  1
  O  O28  1  0.01109700  0.86503300  0.43254800  1
  O  O29  1  0.98890300  0.36503300  0.06745200  1
  O  O30  1  0.98890300  0.13496700  0.56745200  1
  O  O31  1  0.01109700  0.63496700  0.93254800  1
  O  O32  1  0.16513000  0.71970400  0.26583700  1
  O  O33  1  0.83487000  0.21970400  0.23416300  1
  O  O34  1  0.83487000  0.28029600  0.73416300  1
  O  O35  1  0.16513000  0.78029600  0.76583700  1
  O  O36  1  0.13381400  0.05963200  0.37915700  1
  O  O37  1  0.86618600  0.55963200  0.12084300  1
  O  O38  1  0.86618600  0.94036800  0.62084300  1
  O  O39  1  0.13381400  0.44036800  0.87915700  1
  O  O40  1  0.06759000  0.47003900  0.35051900  1
  O  O41  1  0.93241000  0.97003900  0.14948100  1
  O  O42  1  0.93241000  0.52996100  0.64948100  1
  O  O43  1  0.06759000  0.02996100  0.85051900  1
  O  O44  1  0.68909600  0.98690400  0.31885000  1
  O  O45  1  0.31090400  0.48690400  0.18115000  1
  O  O46  1  0.31090400  0.01309600  0.68115000  1
  O  O47  1  0.68909600  0.51309600  0.81885000  1
  O  O48  1  0.35368300  0.58506600  0.37158900  1
  O  O49  1  0.64631700  0.08506600  0.12841100  1
  O  O50  1  0.64631700  0.41493400  0.62841100  1
  O  O51  1  0.35368300  0.91493400  0.87158900  1
  O  O52  1  0.42578600  0.30210700  0.42531100  1
  O  O53  1  0.57421400  0.80210700  0.07468900  1
  O  O54  1  0.57421400  0.69789300  0.57468900  1
  O  O55  1  0.42578600  0.19789300  0.92531100  1
  O  O56  1  0.48793200  0.86528000  0.38566700  1
  O  O57  1  0.51206800  0.36528000  0.11433300  1
  O  O58  1  0.51206800  0.13472000  0.61433300  1
  O  O59  1  0.48793200  0.63472000  0.88566700  1
