# generated using pymatgen
data_Ba3Nb2CdO9
_symmetry_space_group_name_H-M   'P 1'
_cell_length_a   5.97633035
_cell_length_b   5.97633035
_cell_length_c   7.37927600
_cell_angle_alpha   90.00000000
_cell_angle_beta   90.00000000
_cell_angle_gamma   120.00000382
_symmetry_Int_Tables_number   1
_chemical_formula_structural   Ba3Nb2CdO9
_chemical_formula_sum   'Ba3 Nb2 Cd1 O9'
_cell_volume   228.25145773
_cell_formula_units_Z   1
loop_
 _symmetry_equiv_pos_site_id
 _symmetry_equiv_pos_as_xyz
  1  'x, y, z'
loop_
 _atom_site_type_symbol
 _atom_site_label
 _atom_site_symmetry_multiplicity
 _atom_site_fract_x
 _atom_site_fract_y
 _atom_site_fract_z
 _atom_site_occupancy
  Ba  Ba0  1  0.00000000  0.00000000  0.00000000  1
  Ba  Ba1  1  0.33333300  0.66666700  0.66842200  1
  Ba  Ba2  1  0.66666700  0.33333300  0.33157800  1
  Nb  Nb3  1  0.33333300  0.66666700  0.16989600  1
  Nb  Nb4  1  0.66666700  0.33333300  0.83010400  1
  Cd  Cd5  1  0.00000000  0.00000000  0.50000000  1
  O  O6  1  0.17613500  0.82386500  0.31398500  1
  O  O7  1  0.82386500  0.17613500  0.68601500  1
  O  O8  1  0.17613500  0.35227000  0.31398500  1
  O  O9  1  0.82386500  0.64773000  0.68601500  1
  O  O10  1  0.64773000  0.82386500  0.31398500  1
  O  O11  1  0.35227000  0.17613500  0.68601500  1
  O  O12  1  0.50000000  0.00000000  0.00000000  1
  O  O13  1  0.00000000  0.50000000  0.00000000  1
  O  O14  1  0.50000000  0.50000000  0.00000000  1
