# generated using pymatgen
data_TaTl3Se4
_symmetry_space_group_name_H-M   'P 1'
_cell_length_a   6.98297068
_cell_length_b   6.98297068
_cell_length_c   6.98297068
_cell_angle_alpha   109.47122063
_cell_angle_beta   109.47122063
_cell_angle_gamma   109.47122063
_symmetry_Int_Tables_number   1
_chemical_formula_structural   TaTl3Se4
_chemical_formula_sum   'Ta1 Tl3 Se4'
_cell_volume   262.11915803
_cell_formula_units_Z   1
loop_
 _symmetry_equiv_pos_site_id
 _symmetry_equiv_pos_as_xyz
  1  'x, y, z'
loop_
 _atom_site_type_symbol
 _atom_site_label
 _atom_site_symmetry_multiplicity
 _atom_site_fract_x
 _atom_site_fract_y
 _atom_site_fract_z
 _atom_site_occupancy
  Ta  Ta0  1  0.00000000  0.00000000  0.00000000  1
  Tl  Tl1  1  0.00000000  0.50000000  0.50000000  1
  Tl  Tl2  1  0.50000000  0.00000000  0.50000000  1
  Tl  Tl3  1  0.50000000  0.50000000  0.00000000  1
  Se  Se4  1  0.34645700  0.00000000  0.00000000  1
  Se  Se5  1  0.00000000  0.34645700  0.00000000  1
  Se  Se6  1  0.00000000  0.00000000  0.34645700  1
  Se  Se7  1  0.65354300  0.65354300  0.65354300  1
