# generated using pymatgen
data_Rb8Zr6MnBr20
_symmetry_space_group_name_H-M   'P 1'
_cell_length_a   12.08424134
_cell_length_b   12.08424134
_cell_length_c   12.08424134
_cell_angle_alpha   60.00000000
_cell_angle_beta   60.00000000
_cell_angle_gamma   60.00000000
_symmetry_Int_Tables_number   1
_chemical_formula_structural   Rb8Zr6MnBr20
_chemical_formula_sum   'Rb8 Zr6 Mn1 Br20'
_cell_volume   1247.79480499
_cell_formula_units_Z   1
loop_
 _symmetry_equiv_pos_site_id
 _symmetry_equiv_pos_as_xyz
  1  'x, y, z'
loop_
 _atom_site_type_symbol
 _atom_site_label
 _atom_site_symmetry_multiplicity
 _atom_site_fract_x
 _atom_site_fract_y
 _atom_site_fract_z
 _atom_site_occupancy
  Rb  Rb0  1  0.35961800  0.35961800  0.35961800  1
  Rb  Rb1  1  0.64038200  0.64038200  0.64038200  1
  Rb  Rb2  1  0.35961800  0.35961800  0.92114700  1
  Rb  Rb3  1  0.35961800  0.92114700  0.35961800  1
  Rb  Rb4  1  0.64038200  0.64038200  0.07885300  1
  Rb  Rb5  1  0.64038200  0.07885300  0.64038200  1
  Rb  Rb6  1  0.92114700  0.35961800  0.35961800  1
  Rb  Rb7  1  0.07885300  0.64038200  0.64038200  1
  Zr  Zr8  1  0.85729400  0.14270600  0.14270600  1
  Zr  Zr9  1  0.14270600  0.85729400  0.85729400  1
  Zr  Zr10  1  0.14270600  0.85729400  0.14270600  1
  Zr  Zr11  1  0.85729400  0.14270600  0.85729400  1
  Zr  Zr12  1  0.14270600  0.14270600  0.85729400  1
  Zr  Zr13  1  0.85729400  0.85729400  0.14270600  1
  Mn  Mn14  1  0.00000000  0.00000000  0.00000000  1
  Br  Br15  1  0.32344200  0.00000000  0.00000000  1
  Br  Br16  1  0.67655800  0.00000000  0.00000000  1
  Br  Br17  1  0.00000000  0.32344200  0.67655800  1
  Br  Br18  1  0.00000000  0.67655800  0.32344200  1
  Br  Br19  1  0.00000000  0.32344200  0.00000000  1
  Br  Br20  1  0.67655800  0.00000000  0.32344200  1
  Br  Br21  1  0.00000000  0.67655800  0.00000000  1
  Br  Br22  1  0.32344200  0.00000000  0.67655800  1
  Br  Br23  1  0.00000000  0.00000000  0.32344200  1
  Br  Br24  1  0.00000000  0.00000000  0.67655800  1
  Br  Br25  1  0.67655800  0.32344200  0.00000000  1
  Br  Br26  1  0.32344200  0.67655800  0.00000000  1
  Br  Br27  1  0.68518500  0.31481500  0.31481500  1
  Br  Br28  1  0.31481500  0.68518500  0.68518500  1
  Br  Br29  1  0.31481500  0.68518500  0.31481500  1
  Br  Br30  1  0.68518500  0.31481500  0.68518500  1
  Br  Br31  1  0.31481500  0.31481500  0.68518500  1
  Br  Br32  1  0.68518500  0.68518500  0.31481500  1
  Br  Br33  1  0.25000000  0.25000000  0.25000000  1
  Br  Br34  1  0.75000000  0.75000000  0.75000000  1
