# generated using pymatgen
data_YAu
_symmetry_space_group_name_H-M   'P 1'
_cell_length_a   5.84125707
_cell_length_b   5.84125707
_cell_length_c   4.70094100
_cell_angle_alpha   90.00000000
_cell_angle_beta   90.00000000
_cell_angle_gamma   142.71920985
_symmetry_Int_Tables_number   1
_chemical_formula_structural   YAu
_chemical_formula_sum   'Y2 Au2'
_cell_volume   97.15620597
_cell_formula_units_Z   2
loop_
 _symmetry_equiv_pos_site_id
 _symmetry_equiv_pos_as_xyz
  1  'x, y, z'
loop_
 _atom_site_type_symbol
 _atom_site_label
 _atom_site_symmetry_multiplicity
 _atom_site_fract_x
 _atom_site_fract_y
 _atom_site_fract_z
 _atom_site_occupancy
  Y  Y0  1  0.86097600  0.13902400  0.75000000  1
  Y  Y1  1  0.13902400  0.86097600  0.25000000  1
  Au  Au2  1  0.58702700  0.41297300  0.75000000  1
  Au  Au3  1  0.41297300  0.58702700  0.25000000  1
