# generated using pymatgen
data_SrMgSi
_symmetry_space_group_name_H-M   'P 1'
_cell_length_a   4.59633500
_cell_length_b   7.82278800
_cell_length_c   8.53059100
_cell_angle_alpha   90.00000000
_cell_angle_beta   90.00000000
_cell_angle_gamma   90.00000000
_symmetry_Int_Tables_number   1
_chemical_formula_structural   SrMgSi
_chemical_formula_sum   'Sr4 Mg4 Si4'
_cell_volume   306.72724611
_cell_formula_units_Z   4
loop_
 _symmetry_equiv_pos_site_id
 _symmetry_equiv_pos_as_xyz
  1  'x, y, z'
loop_
 _atom_site_type_symbol
 _atom_site_label
 _atom_site_symmetry_multiplicity
 _atom_site_fract_x
 _atom_site_fract_y
 _atom_site_fract_z
 _atom_site_occupancy
  Sr  Sr0  1  0.25000000  0.01497400  0.18346200  1
  Sr  Sr1  1  0.25000000  0.51497400  0.31653800  1
  Sr  Sr2  1  0.75000000  0.48502600  0.68346200  1
  Sr  Sr3  1  0.75000000  0.98502600  0.81653800  1
  Mg  Mg4  1  0.75000000  0.35687500  0.06374600  1
  Mg  Mg5  1  0.25000000  0.64312500  0.93625400  1
  Mg  Mg6  1  0.75000000  0.85687500  0.43625400  1
  Mg  Mg7  1  0.25000000  0.14312500  0.56374600  1
  Si  Si8  1  0.75000000  0.21874500  0.39049000  1
  Si  Si9  1  0.25000000  0.28125500  0.89049000  1
  Si  Si10  1  0.25000000  0.78125500  0.60951000  1
  Si  Si11  1  0.75000000  0.71874500  0.10951000  1
