# generated using pymatgen
data_SrUI6
_symmetry_space_group_name_H-M   'P 1'
_cell_length_a   8.10149845
_cell_length_b   8.10149845
_cell_length_c   15.32603996
_cell_angle_alpha   84.13799126
_cell_angle_beta   84.13799126
_cell_angle_gamma   119.43775390
_symmetry_Int_Tables_number   1
_chemical_formula_structural   SrUI6
_chemical_formula_sum   'Sr2 U2 I12'
_cell_volume   857.88211399
_cell_formula_units_Z   2
loop_
 _symmetry_equiv_pos_site_id
 _symmetry_equiv_pos_as_xyz
  1  'x, y, z'
loop_
 _atom_site_type_symbol
 _atom_site_label
 _atom_site_symmetry_multiplicity
 _atom_site_fract_x
 _atom_site_fract_y
 _atom_site_fract_z
 _atom_site_occupancy
  Sr  Sr0  1  0.08438400  0.91561600  0.25000000  1
  Sr  Sr1  1  0.91561600  0.08438400  0.75000000  1
  U  U2  1  0.41825400  0.58174600  0.25000000  1
  U  U3  1  0.58174600  0.41825400  0.75000000  1
  I  I4  1  0.31987500  0.46204300  0.63339800  1
  I  I5  1  0.46204300  0.31987500  0.13339800  1
  I  I6  1  0.23512800  0.07812800  0.86921800  1
  I  I7  1  0.07812800  0.23512800  0.36921800  1
  I  I8  1  0.17107400  0.63962500  0.12842200  1
  I  I9  1  0.63962500  0.17107400  0.62842200  1
  I  I10  1  0.36037500  0.82892600  0.37157800  1
  I  I11  1  0.82892600  0.36037500  0.87157800  1
  I  I12  1  0.76487200  0.92187200  0.13078200  1
  I  I13  1  0.92187200  0.76487200  0.63078200  1
  I  I14  1  0.53795700  0.68012500  0.86660200  1
  I  I15  1  0.68012500  0.53795700  0.36660200  1
