# generated using pymatgen
data_EuSiPt2
_symmetry_space_group_name_H-M   'P 1'
_cell_length_a   4.13860200
_cell_length_b   4.17220700
_cell_length_c   9.35871157
_cell_angle_alpha   90.00000000
_cell_angle_beta   102.77420739
_cell_angle_gamma   90.00000000
_symmetry_Int_Tables_number   1
_chemical_formula_structural   EuSiPt2
_chemical_formula_sum   'Eu2 Si2 Pt4'
_cell_volume   157.59813812
_cell_formula_units_Z   2
loop_
 _symmetry_equiv_pos_site_id
 _symmetry_equiv_pos_as_xyz
  1  'x, y, z'
loop_
 _atom_site_type_symbol
 _atom_site_label
 _atom_site_symmetry_multiplicity
 _atom_site_fract_x
 _atom_site_fract_y
 _atom_site_fract_z
 _atom_site_occupancy
  Eu  Eu0  1  0.59883500  0.25000000  0.19766900  1
  Eu  Eu1  1  0.40116500  0.75000000  0.80233100  1
  Si  Si2  1  0.82398900  0.25000000  0.64797800  1
  Si  Si3  1  0.17601100  0.75000000  0.35202200  1
  Pt  Pt4  1  0.95286900  0.25000000  0.90573800  1
  Pt  Pt5  1  0.04713100  0.75000000  0.09426200  1
  Pt  Pt6  1  0.25106600  0.25000000  0.50213100  1
  Pt  Pt7  1  0.74893400  0.75000000  0.49786900  1
