# generated using pymatgen
data_K2H2Se(IO5)2
_symmetry_space_group_name_H-M   'P 1'
_cell_length_a   4.99993600
_cell_length_b   10.62786980
_cell_length_c   10.94277629
_cell_angle_alpha   84.29163383
_cell_angle_beta   76.79367797
_cell_angle_gamma   76.39496231
_symmetry_Int_Tables_number   1
_chemical_formula_structural   K2H2Se(IO5)2
_chemical_formula_sum   'K4 H4 Se2 I4 O20'
_cell_volume   549.57888472
_cell_formula_units_Z   2
loop_
 _symmetry_equiv_pos_site_id
 _symmetry_equiv_pos_as_xyz
  1  'x, y, z'
loop_
 _atom_site_type_symbol
 _atom_site_label
 _atom_site_symmetry_multiplicity
 _atom_site_fract_x
 _atom_site_fract_y
 _atom_site_fract_z
 _atom_site_occupancy
  K  K0  1  0.14343400  0.54135600  0.65153900  1
  K  K1  1  0.33632900  0.95864400  0.84846100  1
  K  K2  1  0.85656600  0.45864400  0.34846100  1
  K  K3  1  0.66367100  0.04135600  0.15153900  1
  H  H4  1  0.00842300  0.85261800  0.61579400  1
  H  H5  1  0.47683500  0.64738200  0.88420600  1
  H  H6  1  0.99157700  0.14738200  0.38420600  1
  H  H7  1  0.52316500  0.35261800  0.11579400  1
  Se  Se8  1  0.67890600  0.25000000  0.75000000  1
  Se  Se9  1  0.32109400  0.75000000  0.25000000  1
  I  I10  1  0.64458500  0.81847000  0.50353000  1
  I  I11  1  0.96658500  0.68153000  0.99647000  1
  I  I12  1  0.35541500  0.18153000  0.49647000  1
  I  I13  1  0.03341500  0.31847000  0.00353000  1
  O  O14  1  0.84371800  0.80849200  0.64130700  1
  O  O15  1  0.29351700  0.69150800  0.85869300  1
  O  O16  1  0.15628200  0.19150800  0.35869300  1
  O  O17  1  0.70648300  0.30849200  0.14130700  1
  O  O18  1  0.59430100  0.65527200  0.53529400  1
  O  O19  1  0.78486600  0.84472800  0.96470600  1
  O  O20  1  0.40569900  0.34472800  0.46470600  1
  O  O21  1  0.21513400  0.15527200  0.03529400  1
  O  O22  1  0.31082500  0.91175400  0.59000100  1
  O  O23  1  0.81258100  0.58824600  0.90999900  1
  O  O24  1  0.68917500  0.08824600  0.40999900  1
  O  O25  1  0.18741900  0.41175400  0.09000100  1
  O  O26  1  0.39340900  0.35885400  0.81913600  1
  O  O27  1  0.57139900  0.14114600  0.68086400  1
  O  O28  1  0.60659100  0.64114600  0.18086400  1
  O  O29  1  0.42860100  0.85885400  0.31913600  1
  O  O30  1  0.85023800  0.17008600  0.85867000  1
  O  O31  1  0.87899300  0.32991400  0.64133000  1
  O  O32  1  0.14976200  0.82991400  0.14133000  1
  O  O33  1  0.12100700  0.67008600  0.35867000  1
