# generated using pymatgen
data_HfCrP
_symmetry_space_group_name_H-M   'P 1'
_cell_length_a   3.60899800
_cell_length_b   6.35056600
_cell_length_c   7.54701400
_cell_angle_alpha   90.00000000
_cell_angle_beta   90.00000000
_cell_angle_gamma   90.00000000
_symmetry_Int_Tables_number   1
_chemical_formula_structural   HfCrP
_chemical_formula_sum   'Hf4 Cr4 P4'
_cell_volume   172.97137227
_cell_formula_units_Z   4
loop_
 _symmetry_equiv_pos_site_id
 _symmetry_equiv_pos_as_xyz
  1  'x, y, z'
loop_
 _atom_site_type_symbol
 _atom_site_label
 _atom_site_symmetry_multiplicity
 _atom_site_fract_x
 _atom_site_fract_y
 _atom_site_fract_z
 _atom_site_occupancy
  Hf  Hf0  1  0.25000000  0.53745300  0.17141800  1
  Hf  Hf1  1  0.75000000  0.46254700  0.82858200  1
  Hf  Hf2  1  0.75000000  0.96254700  0.67141800  1
  Hf  Hf3  1  0.25000000  0.03745300  0.32858200  1
  Cr  Cr4  1  0.25000000  0.62760600  0.55173800  1
  Cr  Cr5  1  0.75000000  0.37239400  0.44826200  1
  Cr  Cr6  1  0.75000000  0.87239400  0.05173800  1
  Cr  Cr7  1  0.25000000  0.12760600  0.94826200  1
  P  P8  1  0.25000000  0.76257700  0.86064300  1
  P  P9  1  0.75000000  0.23742300  0.13935700  1
  P  P10  1  0.75000000  0.73742300  0.36064300  1
  P  P11  1  0.25000000  0.26257700  0.63935700  1
