# generated using pymatgen
data_Yb3Ga9Pt2
_symmetry_space_group_name_H-M   'P 1'
_cell_length_a   8.15825496
_cell_length_b   8.15825496
_cell_length_c   8.15825496
_cell_angle_alpha   149.44334390
_cell_angle_beta   106.91890144
_cell_angle_gamma   81.24876497
_symmetry_Int_Tables_number   1
_chemical_formula_structural   Yb3Ga9Pt2
_chemical_formula_sum   'Yb3 Ga9 Pt2'
_cell_volume   258.63488634
_cell_formula_units_Z   1
loop_
 _symmetry_equiv_pos_site_id
 _symmetry_equiv_pos_as_xyz
  1  'x, y, z'
loop_
 _atom_site_type_symbol
 _atom_site_label
 _atom_site_symmetry_multiplicity
 _atom_site_fract_x
 _atom_site_fract_y
 _atom_site_fract_z
 _atom_site_occupancy
  Yb  Yb0  1  0.50000000  0.50000000  0.00000000  1
  Yb  Yb1  1  0.20173300  0.20173300  0.00000000  1
  Yb  Yb2  1  0.79826700  0.79826700  0.00000000  1
  Ga  Ga3  1  0.64368800  0.36359200  0.28009600  1
  Ga  Ga4  1  0.35631200  0.63640800  0.71990400  1
  Ga  Ga5  1  0.08349500  0.36359200  0.71990400  1
  Ga  Ga6  1  0.91650500  0.63640800  0.28009600  1
  Ga  Ga7  1  0.52367200  0.15673200  0.36694000  1
  Ga  Ga8  1  0.47632800  0.84326800  0.63306000  1
  Ga  Ga9  1  0.78979200  0.15673200  0.63306000  1
  Ga  Ga10  1  0.21020800  0.84326800  0.36694000  1
  Ga  Ga11  1  0.00000000  0.50000000  0.50000000  1
  Pt  Pt12  1  0.18182900  0.00000000  0.18182900  1
  Pt  Pt13  1  0.81817100  0.00000000  0.81817100  1
