# generated using pymatgen
data_ErGa4Ni
_symmetry_space_group_name_H-M   'P 1'
_cell_length_a   7.85145151
_cell_length_b   7.85145151
_cell_length_c   6.59365900
_cell_angle_alpha   90.00000000
_cell_angle_beta   90.00000000
_cell_angle_gamma   149.57806384
_symmetry_Int_Tables_number   1
_chemical_formula_structural   ErGa4Ni
_chemical_formula_sum   'Er2 Ga8 Ni2'
_cell_volume   205.82075423
_cell_formula_units_Z   2
loop_
 _symmetry_equiv_pos_site_id
 _symmetry_equiv_pos_as_xyz
  1  'x, y, z'
loop_
 _atom_site_type_symbol
 _atom_site_label
 _atom_site_symmetry_multiplicity
 _atom_site_fract_x
 _atom_site_fract_y
 _atom_site_fract_z
 _atom_site_occupancy
  Er  Er0  1  0.88054200  0.11945800  0.75000000  1
  Er  Er1  1  0.11945800  0.88054200  0.25000000  1
  Ga  Ga2  1  0.50000000  0.50000000  0.00000000  1
  Ga  Ga3  1  0.50000000  0.50000000  0.50000000  1
  Ga  Ga4  1  0.07102400  0.92897600  0.75000000  1
  Ga  Ga5  1  0.92897600  0.07102400  0.25000000  1
  Ga  Ga6  1  0.68495700  0.31504300  0.94868700  1
  Ga  Ga7  1  0.31504300  0.68495700  0.05131300  1
  Ga  Ga8  1  0.68495700  0.31504300  0.55131300  1
  Ga  Ga9  1  0.31504300  0.68495700  0.44868700  1
  Ni  Ni10  1  0.22548400  0.77451600  0.75000000  1
  Ni  Ni11  1  0.77451600  0.22548400  0.25000000  1
