# generated using pymatgen
data_Te2Mo
_symmetry_space_group_name_H-M   'P 1'
_cell_length_a   3.55871064
_cell_length_b   3.55871064
_cell_length_c   40.69329000
_cell_angle_alpha   90.00000000
_cell_angle_beta   90.00000000
_cell_angle_gamma   120.00001184
_symmetry_Int_Tables_number   1
_chemical_formula_structural   Te2Mo
_chemical_formula_sum   'Te8 Mo4'
_cell_volume   446.31217702
_cell_formula_units_Z   4
loop_
 _symmetry_equiv_pos_site_id
 _symmetry_equiv_pos_as_xyz
  1  'x, y, z'
loop_
 _atom_site_type_symbol
 _atom_site_label
 _atom_site_symmetry_multiplicity
 _atom_site_fract_x
 _atom_site_fract_y
 _atom_site_fract_z
 _atom_site_occupancy
  Te  Te0  1  0.33333300  0.66666700  0.86124700  1
  Te  Te1  1  0.33333300  0.66666700  0.23837700  1
  Te  Te2  1  0.66666700  0.33333300  0.67268200  1
  Te  Te3  1  0.66666700  0.33333300  0.04981200  1
  Te  Te4  1  0.66666700  0.33333300  0.76162300  1
  Te  Te5  1  0.66666700  0.33333300  0.13875300  1
  Te  Te6  1  0.33333300  0.66666700  0.95018800  1
  Te  Te7  1  0.33333300  0.66666700  0.32731800  1
  Mo  Mo8  1  0.33333300  0.66666700  0.71715300  1
  Mo  Mo9  1  0.33333300  0.66666700  0.09428300  1
  Mo  Mo10  1  0.66666700  0.33333300  0.90571700  1
  Mo  Mo11  1  0.66666700  0.33333300  0.28284700  1
