# generated using pymatgen
data_Ba4NbFeO8
_symmetry_space_group_name_H-M   'P 1'
_cell_length_a   6.13406100
_cell_length_b   7.65502900
_cell_length_c   21.23204158
_cell_angle_alpha   82.01595790
_cell_angle_beta   90.00000000
_cell_angle_gamma   90.00000000
_symmetry_Int_Tables_number   1
_chemical_formula_structural   Ba4NbFeO8
_chemical_formula_sum   'Ba16 Nb4 Fe4 O32'
_cell_volume   987.31661324
_cell_formula_units_Z   4
loop_
 _symmetry_equiv_pos_site_id
 _symmetry_equiv_pos_as_xyz
  1  'x, y, z'
loop_
 _atom_site_type_symbol
 _atom_site_label
 _atom_site_symmetry_multiplicity
 _atom_site_fract_x
 _atom_site_fract_y
 _atom_site_fract_z
 _atom_site_occupancy
  Ba  Ba0  1  0.76062900  0.03141200  0.09825600  1
  Ba  Ba1  1  0.26062900  0.96858800  0.40174400  1
  Ba  Ba2  1  0.23937100  0.96858800  0.90174400  1
  Ba  Ba3  1  0.73937100  0.03141200  0.59825600  1
  Ba  Ba4  1  0.75777700  0.51167900  0.13854200  1
  Ba  Ba5  1  0.25777700  0.48832100  0.36145800  1
  Ba  Ba6  1  0.24222300  0.48832100  0.86145800  1
  Ba  Ba7  1  0.74222300  0.51167900  0.63854200  1
  Ba  Ba8  1  0.27457900  0.29672500  0.04744700  1
  Ba  Ba9  1  0.77457900  0.70327500  0.45255300  1
  Ba  Ba10  1  0.72542100  0.70327500  0.95255300  1
  Ba  Ba11  1  0.22542100  0.29672500  0.54744700  1
  Ba  Ba12  1  0.28085200  0.84602900  0.21150700  1
  Ba  Ba13  1  0.78085200  0.15397100  0.28849300  1
  Ba  Ba14  1  0.71914800  0.15397100  0.78849300  1
  Ba  Ba15  1  0.21914800  0.84602900  0.71150700  1
  Nb  Nb16  1  0.26518100  0.34206100  0.21178300  1
  Nb  Nb17  1  0.76518100  0.65793900  0.28821700  1
  Nb  Nb18  1  0.73481900  0.65793900  0.78821700  1
  Nb  Nb19  1  0.23481900  0.34206100  0.71178300  1
  Fe  Fe20  1  0.22174600  0.73448200  0.05901000  1
  Fe  Fe21  1  0.72174600  0.26551800  0.44099000  1
  Fe  Fe22  1  0.77825400  0.26551800  0.94099000  1
  Fe  Fe23  1  0.27825400  0.73448200  0.55901000  1
  O  O24  1  0.49656300  0.49852900  0.25176900  1
  O  O25  1  0.99656300  0.50147100  0.24823100  1
  O  O26  1  0.50343700  0.50147100  0.74823100  1
  O  O27  1  0.00343700  0.49852900  0.75176900  1
  O  O28  1  0.49537500  0.21229700  0.17812600  1
  O  O29  1  0.99537500  0.78770300  0.32187400  1
  O  O30  1  0.50462500  0.78770300  0.82187400  1
  O  O31  1  0.00462500  0.21229700  0.67812600  1
  O  O32  1  0.23588000  0.18972500  0.29233800  1
  O  O33  1  0.73588000  0.81027500  0.20766200  1
  O  O34  1  0.76412000  0.81027500  0.70766200  1
  O  O35  1  0.26412000  0.18972500  0.79233800  1
  O  O36  1  0.03255500  0.22518000  0.16872700  1
  O  O37  1  0.53255500  0.77482000  0.33127300  1
  O  O38  1  0.96744500  0.77482000  0.83127300  1
  O  O39  1  0.46744500  0.22518000  0.66872700  1
  O  O40  1  0.27457200  0.54893900  0.13138400  1
  O  O41  1  0.77457200  0.45106100  0.36861600  1
  O  O42  1  0.72542800  0.45106100  0.86861600  1
  O  O43  1  0.22542800  0.54893900  0.63138400  1
  O  O44  1  0.34551300  0.94164000  0.08199500  1
  O  O45  1  0.84551300  0.05836000  0.41800500  1
  O  O46  1  0.65448700  0.05836000  0.91800500  1
  O  O47  1  0.15448700  0.94164000  0.58199500  1
  O  O48  1  0.30331900  0.65761100  0.98028100  1
  O  O49  1  0.80331900  0.34238900  0.51971900  1
  O  O50  1  0.69668100  0.34238900  0.01971900  1
  O  O51  1  0.19668100  0.65761100  0.48028100  1
  O  O52  1  0.91507600  0.76061700  0.05522200  1
  O  O53  1  0.41507600  0.23938300  0.44477800  1
  O  O54  1  0.08492400  0.23938300  0.94477800  1
  O  O55  1  0.58492400  0.76061700  0.55522200  1
