# generated using pymatgen
data_Hg2GeO4
_symmetry_space_group_name_H-M   'P 1'
_cell_length_a   8.10385473
_cell_length_b   6.73428451
_cell_length_c   6.55948717
_cell_angle_alpha   75.10797800
_cell_angle_beta   53.42581523
_cell_angle_gamma   51.46620676
_symmetry_Int_Tables_number   1
_chemical_formula_structural   Hg2GeO4
_chemical_formula_sum   'Hg4 Ge2 O8'
_cell_volume   221.13475202
_cell_formula_units_Z   2
loop_
 _symmetry_equiv_pos_site_id
 _symmetry_equiv_pos_as_xyz
  1  'x, y, z'
loop_
 _atom_site_type_symbol
 _atom_site_label
 _atom_site_symmetry_multiplicity
 _atom_site_fract_x
 _atom_site_fract_y
 _atom_site_fract_z
 _atom_site_occupancy
  Hg  Hg0  1  0.68206200  0.31793800  0.68206200  1
  Hg  Hg1  1  0.31793800  0.68206200  0.31793800  1
  Hg  Hg2  1  0.56793800  0.93206200  0.56793800  1
  Hg  Hg3  1  0.93206200  0.56793800  0.93206200  1
  Ge  Ge4  1  0.00000000  0.00000000  0.00000000  1
  Ge  Ge5  1  0.25000000  0.25000000  0.25000000  1
  O  O6  1  0.96236100  0.87158100  0.83656400  1
  O  O7  1  0.32949400  0.83656400  0.87158100  1
  O  O8  1  0.83656400  0.32949400  0.96236100  1
  O  O9  1  0.87158100  0.96236100  0.32949400  1
  O  O10  1  0.28763900  0.37841900  0.41343600  1
  O  O11  1  0.92050600  0.41343600  0.37841900  1
  O  O12  1  0.37841900  0.28763900  0.92050600  1
  O  O13  1  0.41343600  0.92050600  0.28763900  1
