# generated using pymatgen
data_KNaFe(Si2O5)2
_symmetry_space_group_name_H-M   'P 1'
_cell_length_a   7.05698800
_cell_length_b   8.30659430
_cell_length_c   10.06901065
_cell_angle_alpha   105.21923465
_cell_angle_beta   101.12915932
_cell_angle_gamma   113.83963667
_symmetry_Int_Tables_number   1
_chemical_formula_structural   KNaFe(Si2O5)2
_chemical_formula_sum   'K2 Na2 Fe2 Si8 O20'
_cell_volume   490.11655222
_cell_formula_units_Z   2
loop_
 _symmetry_equiv_pos_site_id
 _symmetry_equiv_pos_as_xyz
  1  'x, y, z'
loop_
 _atom_site_type_symbol
 _atom_site_label
 _atom_site_symmetry_multiplicity
 _atom_site_fract_x
 _atom_site_fract_y
 _atom_site_fract_z
 _atom_site_occupancy
  K  K0  1  0.82788500  0.18653000  0.98448200  1
  K  K1  1  0.17211500  0.81347000  0.01551800  1
  Na  Na2  1  0.75184800  0.71896500  0.58998700  1
  Na  Na3  1  0.24815200  0.28103500  0.41001300  1
  Fe  Fe4  1  0.24873600  0.69908800  0.59164600  1
  Fe  Fe5  1  0.75126400  0.30091200  0.40835400  1
  Si  Si6  1  0.74227000  0.90806900  0.21535300  1
  Si  Si7  1  0.25773000  0.09193100  0.78464700  1
  Si  Si8  1  0.67266600  0.37349400  0.72997200  1
  Si  Si9  1  0.32733400  0.62650600  0.27002800  1
  Si  Si10  1  0.57460300  0.69528100  0.86868700  1
  Si  Si11  1  0.42539700  0.30471900  0.13131300  1
  Si  Si12  1  0.10530800  0.37420300  0.73019500  1
  Si  Si13  1  0.89469200  0.62579700  0.26980500  1
  O  O14  1  0.09499900  0.16771800  0.71389900  1
  O  O15  1  0.90500100  0.83228200  0.28610100  1
  O  O16  1  0.33199200  0.54408200  0.86593200  1
  O  O17  1  0.66800800  0.45591800  0.13406800  1
  O  O18  1  0.60412400  0.35078400  0.56241600  1
  O  O19  1  0.39587600  0.64921600  0.43758400  1
  O  O20  1  0.71839100  0.58212400  0.84000600  1
  O  O21  1  0.28160900  0.41787600  0.15999400  1
  O  O22  1  0.90666600  0.37365400  0.79351900  1
  O  O23  1  0.09333400  0.62634600  0.20648100  1
  O  O24  1  0.49908600  0.20460500  0.76870100  1
  O  O25  1  0.50091400  0.79539500  0.23129900  1
  O  O26  1  0.70832100  0.85132700  0.03877300  1
  O  O27  1  0.29167900  0.14867300  0.96122700  1
  O  O28  1  0.85078900  0.13424200  0.28837000  1
  O  O29  1  0.14921100  0.86575800  0.71163000  1
  O  O30  1  0.43881600  0.19984100  0.24215000  1
  O  O31  1  0.56118400  0.80015900  0.75785000  1
  O  O32  1  0.91350000  0.58694600  0.41850700  1
  O  O33  1  0.08650000  0.41305400  0.58149300  1
