# generated using pymatgen
data_YbGe2Pd
_symmetry_space_group_name_H-M   'P 1'
_cell_length_a   9.49064408
_cell_length_b   9.49064408
_cell_length_c   9.49064408
_cell_angle_alpha   153.03421899
_cell_angle_beta   123.27673001
_cell_angle_gamma   63.89861845
_symmetry_Int_Tables_number   1
_chemical_formula_structural   YbGe2Pd
_chemical_formula_sum   'Yb4 Ge8 Pd4'
_cell_volume   321.34962427
_cell_formula_units_Z   4
loop_
 _symmetry_equiv_pos_site_id
 _symmetry_equiv_pos_as_xyz
  1  'x, y, z'
loop_
 _atom_site_type_symbol
 _atom_site_label
 _atom_site_symmetry_multiplicity
 _atom_site_fract_x
 _atom_site_fract_y
 _atom_site_fract_z
 _atom_site_occupancy
  Yb  Yb0  1  0.25879900  0.00000000  0.25879900  1
  Yb  Yb1  1  0.74120100  0.00000000  0.74120100  1
  Yb  Yb2  1  0.29686500  0.79686500  0.50000000  1
  Yb  Yb3  1  0.70313500  0.20313500  0.50000000  1
  Ge  Ge4  1  0.92015300  0.42015300  0.50000000  1
  Ge  Ge5  1  0.07984700  0.57984700  0.50000000  1
  Ge  Ge6  1  0.42472300  0.42472300  0.00000000  1
  Ge  Ge7  1  0.57527700  0.57527700  0.00000000  1
  Ge  Ge8  1  0.04691100  0.19390700  0.85300400  1
  Ge  Ge9  1  0.95308900  0.80609300  0.14699600  1
  Ge  Ge10  1  0.34090300  0.19390700  0.14699600  1
  Ge  Ge11  1  0.65909700  0.80609300  0.85300400  1
  Pd  Pd12  1  0.10501700  0.35205500  0.75296200  1
  Pd  Pd13  1  0.89498300  0.64794500  0.24703800  1
  Pd  Pd14  1  0.59909300  0.35205500  0.24703800  1
  Pd  Pd15  1  0.40090700  0.64794500  0.75296200  1
