# generated using pymatgen
data_TmPt
_symmetry_space_group_name_H-M   'P 1'
_cell_length_a   4.42250500
_cell_length_b   5.57786100
_cell_length_c   6.97508100
_cell_angle_alpha   90.00000000
_cell_angle_beta   90.00000000
_cell_angle_gamma   90.00000000
_symmetry_Int_Tables_number   1
_chemical_formula_structural   TmPt
_chemical_formula_sum   'Tm4 Pt4'
_cell_volume   172.06212230
_cell_formula_units_Z   4
loop_
 _symmetry_equiv_pos_site_id
 _symmetry_equiv_pos_as_xyz
  1  'x, y, z'
loop_
 _atom_site_type_symbol
 _atom_site_label
 _atom_site_symmetry_multiplicity
 _atom_site_fract_x
 _atom_site_fract_y
 _atom_site_fract_z
 _atom_site_occupancy
  Tm  Tm0  1  0.25000000  0.64164900  0.18097400  1
  Tm  Tm1  1  0.75000000  0.35835100  0.81902600  1
  Tm  Tm2  1  0.75000000  0.14164900  0.31902600  1
  Tm  Tm3  1  0.25000000  0.85835100  0.68097400  1
  Pt  Pt4  1  0.25000000  0.15752100  0.04471700  1
  Pt  Pt5  1  0.75000000  0.84247900  0.95528300  1
  Pt  Pt6  1  0.75000000  0.65752100  0.45528300  1
  Pt  Pt7  1  0.25000000  0.34247900  0.54471700  1
