# generated using pymatgen
data_UP2O7
_symmetry_space_group_name_H-M   'P 1'
_cell_length_a   8.83796400
_cell_length_b   8.84792368
_cell_length_c   8.86326852
_cell_angle_alpha   89.82049308
_cell_angle_beta   89.83579736
_cell_angle_gamma   89.72531616
_symmetry_Int_Tables_number   1
_chemical_formula_structural   UP2O7
_chemical_formula_sum   'U4 P8 O28'
_cell_volume   693.07241769
_cell_formula_units_Z   4
loop_
 _symmetry_equiv_pos_site_id
 _symmetry_equiv_pos_as_xyz
  1  'x, y, z'
loop_
 _atom_site_type_symbol
 _atom_site_label
 _atom_site_symmetry_multiplicity
 _atom_site_fract_x
 _atom_site_fract_y
 _atom_site_fract_z
 _atom_site_occupancy
  U  U0  1  0.99587900  0.98338300  0.99967500  1
  U  U1  1  0.49241900  0.99082100  0.49705700  1
  U  U2  1  0.49221000  0.49611600  0.99505800  1
  U  U3  1  0.99611000  0.48455300  0.48921500  1
  P  P4  1  0.59598600  0.59105200  0.59635500  1
  P  P5  1  0.39365200  0.38861400  0.39287200  1
  P  P6  1  0.38925400  0.89044500  0.10400900  1
  P  P7  1  0.59271100  0.09434700  0.89779000  1
  P  P8  1  0.89052200  0.08281100  0.39770800  1
  P  P9  1  0.09497500  0.88209500  0.60137100  1
  P  P10  1  0.09411900  0.38088600  0.89120800  1
  P  P11  1  0.89092400  0.58659900  0.09145000  1
  O  O12  1  0.47135300  0.48424400  0.52343800  1
  O  O13  1  0.75293000  0.53603800  0.54728700  1
  O  O14  1  0.56907300  0.57432900  0.76532700  1
  O  O15  1  0.56345900  0.75220700  0.54119800  1
  O  O16  1  0.22638000  0.43271800  0.40067200  1
  O  O17  1  0.46449500  0.42702400  0.24106200  1
  O  O18  1  0.41853600  0.22315700  0.43749900  1
  O  O19  1  0.46478900  0.01134400  0.99408300  1
  O  O20  1  0.22109700  0.92698400  0.09811600  1
  O  O21  1  0.45501000  0.91341900  0.26086500  1
  O  O22  1  0.42402900  0.73225400  0.04359900  1
  O  O23  1  0.74870100  0.04143800  0.94968400  1
  O  O24  1  0.56087900  0.05277400  0.73350400  1
  O  O25  1  0.56565000  0.26311500  0.92838900  1
  O  O26  1  0.95747900  0.96758300  0.51999700  1
  O  O27  1  0.71976800  0.06551900  0.41638100  1
  O  O28  1  0.94365500  0.03361900  0.24096000  1
  O  O29  1  0.94437000  0.24123100  0.43679100  1
  O  O30  1  0.24504000  0.94780900  0.54684500  1
  O  O31  1  0.06868000  0.91148200  0.76968400  1
  O  O32  1  0.07765200  0.71560500  0.56050300  1
  O  O33  1  0.96162800  0.45454400  0.99087800  1
  O  O34  1  0.24580100  0.45225000  0.93315400  1
  O  O35  1  0.05145900  0.41095800  0.72657500  1
  O  O36  1  0.08617900  0.21309200  0.93221000  1
  O  O37  1  0.72062200  0.56755000  0.07379600  1
  O  O38  1  0.94268000  0.55915700  0.25368400  1
  O  O39  1  0.94504600  0.73823300  0.02995000  1
