# generated using pymatgen
data_DyAl3Ni2
_symmetry_space_group_name_H-M   'P 1'
_cell_length_a   9.02151237
_cell_length_b   9.02151237
_cell_length_c   4.04957800
_cell_angle_alpha   90.00000000
_cell_angle_beta   90.00000000
_cell_angle_gamma   120.00000271
_symmetry_Int_Tables_number   1
_chemical_formula_structural   DyAl3Ni2
_chemical_formula_sum   'Dy3 Al9 Ni6'
_cell_volume   285.42965079
_cell_formula_units_Z   3
loop_
 _symmetry_equiv_pos_site_id
 _symmetry_equiv_pos_as_xyz
  1  'x, y, z'
loop_
 _atom_site_type_symbol
 _atom_site_label
 _atom_site_symmetry_multiplicity
 _atom_site_fract_x
 _atom_site_fract_y
 _atom_site_fract_z
 _atom_site_occupancy
  Dy  Dy0  1  0.33333300  0.66666700  0.50000000  1
  Dy  Dy1  1  0.66666700  0.33333300  0.50000000  1
  Dy  Dy2  1  0.00000000  0.00000000  0.00000000  1
  Al  Al3  1  0.50000000  0.00000000  0.00000000  1
  Al  Al4  1  0.00000000  0.50000000  0.00000000  1
  Al  Al5  1  0.50000000  0.50000000  0.00000000  1
  Al  Al6  1  0.29746600  0.00000000  0.50000000  1
  Al  Al7  1  0.70253400  0.00000000  0.50000000  1
  Al  Al8  1  0.00000000  0.29746600  0.50000000  1
  Al  Al9  1  0.00000000  0.70253400  0.50000000  1
  Al  Al10  1  0.70253400  0.70253400  0.50000000  1
  Al  Al11  1  0.29746600  0.29746600  0.50000000  1
  Ni  Ni12  1  0.18131900  0.36263800  0.00000000  1
  Ni  Ni13  1  0.81868100  0.63736200  0.00000000  1
  Ni  Ni14  1  0.63736200  0.81868100  0.00000000  1
  Ni  Ni15  1  0.36263800  0.18131900  0.00000000  1
  Ni  Ni16  1  0.18131900  0.81868100  0.00000000  1
  Ni  Ni17  1  0.81868100  0.18131900  0.00000000  1
