# generated using pymatgen
data_Dy3Ga5O12
_symmetry_space_group_name_H-M   'P 1'
_cell_length_a   10.74867257
_cell_length_b   10.74867257
_cell_length_c   10.74867257
_cell_angle_alpha   109.47122063
_cell_angle_beta   109.47122063
_cell_angle_gamma   109.47122063
_symmetry_Int_Tables_number   1
_chemical_formula_structural   Dy3Ga5O12
_chemical_formula_sum   'Dy12 Ga20 O48'
_cell_volume   955.96635847
_cell_formula_units_Z   4
loop_
 _symmetry_equiv_pos_site_id
 _symmetry_equiv_pos_as_xyz
  1  'x, y, z'
loop_
 _atom_site_type_symbol
 _atom_site_label
 _atom_site_symmetry_multiplicity
 _atom_site_fract_x
 _atom_site_fract_y
 _atom_site_fract_z
 _atom_site_occupancy
  Dy  Dy0  1  0.75000000  0.62500000  0.87500000  1
  Dy  Dy1  1  0.25000000  0.87500000  0.62500000  1
  Dy  Dy2  1  0.62500000  0.25000000  0.87500000  1
  Dy  Dy3  1  0.87500000  0.75000000  0.62500000  1
  Dy  Dy4  1  0.87500000  0.62500000  0.25000000  1
  Dy  Dy5  1  0.62500000  0.87500000  0.75000000  1
  Dy  Dy6  1  0.25000000  0.37500000  0.12500000  1
  Dy  Dy7  1  0.75000000  0.12500000  0.37500000  1
  Dy  Dy8  1  0.37500000  0.75000000  0.12500000  1
  Dy  Dy9  1  0.12500000  0.25000000  0.37500000  1
  Dy  Dy10  1  0.12500000  0.37500000  0.75000000  1
  Dy  Dy11  1  0.37500000  0.12500000  0.25000000  1
  Ga  Ga12  1  0.37500000  0.62500000  0.75000000  1
  Ga  Ga13  1  0.62500000  0.37500000  0.25000000  1
  Ga  Ga14  1  0.62500000  0.75000000  0.37500000  1
  Ga  Ga15  1  0.25000000  0.12500000  0.87500000  1
  Ga  Ga16  1  0.87500000  0.25000000  0.12500000  1
  Ga  Ga17  1  0.75000000  0.37500000  0.62500000  1
  Ga  Ga18  1  0.25000000  0.62500000  0.37500000  1
  Ga  Ga19  1  0.75000000  0.87500000  0.12500000  1
  Ga  Ga20  1  0.12500000  0.75000000  0.87500000  1
  Ga  Ga21  1  0.37500000  0.25000000  0.62500000  1
  Ga  Ga22  1  0.87500000  0.12500000  0.75000000  1
  Ga  Ga23  1  0.12500000  0.87500000  0.25000000  1
  Ga  Ga24  1  0.50000000  0.00000000  0.50000000  1
  Ga  Ga25  1  0.00000000  0.50000000  0.00000000  1
  Ga  Ga26  1  0.50000000  0.50000000  0.50000000  1
  Ga  Ga27  1  0.00000000  0.00000000  0.50000000  1
  Ga  Ga28  1  0.00000000  0.00000000  0.00000000  1
  Ga  Ga29  1  0.00000000  0.50000000  0.50000000  1
  Ga  Ga30  1  0.50000000  0.50000000  0.00000000  1
  Ga  Ga31  1  0.50000000  0.00000000  0.00000000  1
  O  O32  1  0.52879300  0.40529900  0.82261700  1
  O  O33  1  0.82261700  0.52879300  0.40529900  1
  O  O34  1  0.79382400  0.87650600  0.97120700  1
  O  O35  1  0.41731800  0.09470100  0.62349400  1
  O  O36  1  0.87650600  0.40529900  0.08268200  1
  O  O37  1  0.67738300  0.08268200  0.70617600  1
  O  O38  1  0.82261700  0.79382400  0.41731800  1
  O  O39  1  0.40529900  0.82261700  0.52879300  1
  O  O40  1  0.62349400  0.70617600  0.52879300  1
  O  O41  1  0.41731800  0.82261700  0.79382400  1
  O  O42  1  0.40529900  0.08268200  0.87650600  1
  O  O43  1  0.09470100  0.97120700  0.67738300  1
  O  O44  1  0.97120700  0.67738300  0.09470100  1
  O  O45  1  0.79382400  0.41731800  0.82261700  1
  O  O46  1  0.52879300  0.62349400  0.70617600  1
  O  O47  1  0.70617600  0.52879300  0.62349400  1
  O  O48  1  0.08268200  0.87650600  0.40529900  1
  O  O49  1  0.97120700  0.79382400  0.87650600  1
  O  O50  1  0.08268200  0.70617600  0.67738300  1
  O  O51  1  0.37650600  0.29382400  0.47120700  1
  O  O52  1  0.62349400  0.41731800  0.09470100  1
  O  O53  1  0.09470100  0.62349400  0.41731800  1
  O  O54  1  0.70617600  0.67738300  0.08268200  1
  O  O55  1  0.67738300  0.09470100  0.97120700  1
  O  O56  1  0.47120700  0.59470100  0.17738300  1
  O  O57  1  0.17738300  0.47120700  0.59470100  1
  O  O58  1  0.20617600  0.12349400  0.02879300  1
  O  O59  1  0.58268200  0.90529900  0.37650600  1
  O  O60  1  0.12349400  0.59470100  0.91731800  1
  O  O61  1  0.32261700  0.91731800  0.29382400  1
  O  O62  1  0.17738300  0.20617600  0.58268200  1
  O  O63  1  0.59470100  0.17738300  0.47120700  1
  O  O64  1  0.32261700  0.90529900  0.02879300  1
  O  O65  1  0.29382400  0.32261700  0.91731800  1
  O  O66  1  0.90529900  0.37650600  0.58268200  1
  O  O67  1  0.12349400  0.02879300  0.20617600  1
  O  O68  1  0.37650600  0.58268200  0.90529900  1
  O  O69  1  0.91731800  0.29382400  0.32261700  1
  O  O70  1  0.02879300  0.20617600  0.12349400  1
  O  O71  1  0.91731800  0.12349400  0.59470100  1
  O  O72  1  0.29382400  0.47120700  0.37650600  1
  O  O73  1  0.47120700  0.37650600  0.29382400  1
  O  O74  1  0.20617600  0.58268200  0.17738300  1
  O  O75  1  0.02879300  0.32261700  0.90529900  1
  O  O76  1  0.90529900  0.02879300  0.32261700  1
  O  O77  1  0.59470100  0.91731800  0.12349400  1
  O  O78  1  0.58268200  0.17738300  0.20617600  1
  O  O79  1  0.87650600  0.97120700  0.79382400  1
