# generated using pymatgen
data_Nd2Si3Pd
_symmetry_space_group_name_H-M   'P 1'
_cell_length_a   8.24718326
_cell_length_b   8.24718326
_cell_length_c   8.52146400
_cell_angle_alpha   90.00000000
_cell_angle_beta   90.00000000
_cell_angle_gamma   119.99999407
_symmetry_Int_Tables_number   1
_chemical_formula_structural   Nd2Si3Pd
_chemical_formula_sum   'Nd8 Si12 Pd4'
_cell_volume   501.94503356
_cell_formula_units_Z   4
loop_
 _symmetry_equiv_pos_site_id
 _symmetry_equiv_pos_as_xyz
  1  'x, y, z'
loop_
 _atom_site_type_symbol
 _atom_site_label
 _atom_site_symmetry_multiplicity
 _atom_site_fract_x
 _atom_site_fract_y
 _atom_site_fract_z
 _atom_site_occupancy
  Nd  Nd0  1  0.49671800  0.50328200  0.75000000  1
  Nd  Nd1  1  0.50328200  0.49671800  0.25000000  1
  Nd  Nd2  1  0.00656400  0.50328200  0.75000000  1
  Nd  Nd3  1  0.99343600  0.49671800  0.25000000  1
  Nd  Nd4  1  0.49671800  0.99343600  0.75000000  1
  Nd  Nd5  1  0.50328200  0.00656400  0.25000000  1
  Nd  Nd6  1  0.00000000  0.00000000  0.75000000  1
  Nd  Nd7  1  0.00000000  0.00000000  0.25000000  1
  Si  Si8  1  0.83413900  0.16586100  0.99945700  1
  Si  Si9  1  0.16586100  0.83413900  0.00054300  1
  Si  Si10  1  0.33172200  0.16586100  0.99945700  1
  Si  Si11  1  0.16586100  0.83413900  0.49945700  1
  Si  Si12  1  0.66827800  0.83413900  0.00054300  1
  Si  Si13  1  0.83413900  0.16586100  0.50054300  1
  Si  Si14  1  0.83413900  0.66827800  0.99945700  1
  Si  Si15  1  0.66827800  0.83413900  0.49945700  1
  Si  Si16  1  0.16586100  0.33172200  0.00054300  1
  Si  Si17  1  0.33172200  0.16586100  0.50054300  1
  Si  Si18  1  0.16586100  0.33172200  0.49945700  1
  Si  Si19  1  0.83413900  0.66827800  0.50054300  1
  Pd  Pd20  1  0.66666700  0.33333300  0.98823500  1
  Pd  Pd21  1  0.33333300  0.66666700  0.01176500  1
  Pd  Pd22  1  0.33333300  0.66666700  0.48823500  1
  Pd  Pd23  1  0.66666700  0.33333300  0.51176500  1
