# generated using pymatgen
data_Y4MgCo
_symmetry_space_group_name_H-M   'P 1'
_cell_length_a   9.63647667
_cell_length_b   9.63647667
_cell_length_c   9.63647667
_cell_angle_alpha   60.00000000
_cell_angle_beta   60.00000000
_cell_angle_gamma   60.00000000
_symmetry_Int_Tables_number   1
_chemical_formula_structural   Y4MgCo
_chemical_formula_sum   'Y16 Mg4 Co4'
_cell_volume   632.76117681
_cell_formula_units_Z   4
loop_
 _symmetry_equiv_pos_site_id
 _symmetry_equiv_pos_as_xyz
  1  'x, y, z'
loop_
 _atom_site_type_symbol
 _atom_site_label
 _atom_site_symmetry_multiplicity
 _atom_site_fract_x
 _atom_site_fract_y
 _atom_site_fract_z
 _atom_site_occupancy
  Y  Y0  1  0.34442800  0.34442800  0.34442800  1
  Y  Y1  1  0.34442800  0.34442800  0.96671600  1
  Y  Y2  1  0.34442800  0.96671600  0.34442800  1
  Y  Y3  1  0.96671600  0.34442800  0.34442800  1
  Y  Y4  1  0.81363000  0.18637000  0.18637000  1
  Y  Y5  1  0.18637000  0.81363000  0.81363000  1
  Y  Y6  1  0.18637000  0.81363000  0.18637000  1
  Y  Y7  1  0.81363000  0.18637000  0.81363000  1
  Y  Y8  1  0.18637000  0.18637000  0.81363000  1
  Y  Y9  1  0.81363000  0.81363000  0.18637000  1
  Y  Y10  1  0.93699300  0.56300700  0.56300700  1
  Y  Y11  1  0.56300700  0.93699300  0.93699300  1
  Y  Y12  1  0.56300700  0.93699300  0.56300700  1
  Y  Y13  1  0.93699300  0.56300700  0.93699300  1
  Y  Y14  1  0.56300700  0.56300700  0.93699300  1
  Y  Y15  1  0.93699300  0.93699300  0.56300700  1
  Mg  Mg16  1  0.57875300  0.57875300  0.57875300  1
  Mg  Mg17  1  0.57875300  0.57875300  0.26374100  1
  Mg  Mg18  1  0.57875300  0.26374100  0.57875300  1
  Mg  Mg19  1  0.26374100  0.57875300  0.57875300  1
  Co  Co20  1  0.14069200  0.14069200  0.14069200  1
  Co  Co21  1  0.14069200  0.14069200  0.57792400  1
  Co  Co22  1  0.14069200  0.57792400  0.14069200  1
  Co  Co23  1  0.57792400  0.14069200  0.14069200  1
