# generated using pymatgen
data_Er2MgNi2
_symmetry_space_group_name_H-M   'P 1'
_cell_length_a   7.26142600
_cell_length_b   7.26142600
_cell_length_c   3.74352900
_cell_angle_alpha   90.00000000
_cell_angle_beta   90.00000000
_cell_angle_gamma   90.00000000
_symmetry_Int_Tables_number   1
_chemical_formula_structural   Er2MgNi2
_chemical_formula_sum   'Er4 Mg2 Ni4'
_cell_volume   197.38994845
_cell_formula_units_Z   2
loop_
 _symmetry_equiv_pos_site_id
 _symmetry_equiv_pos_as_xyz
  1  'x, y, z'
loop_
 _atom_site_type_symbol
 _atom_site_label
 _atom_site_symmetry_multiplicity
 _atom_site_fract_x
 _atom_site_fract_y
 _atom_site_fract_z
 _atom_site_occupancy
  Er  Er0  1  0.67383300  0.17383300  0.50000000  1
  Er  Er1  1  0.32616700  0.82616700  0.50000000  1
  Er  Er2  1  0.17383300  0.32616700  0.50000000  1
  Er  Er3  1  0.82616700  0.67383300  0.50000000  1
  Mg  Mg4  1  0.00000000  0.00000000  0.00000000  1
  Mg  Mg5  1  0.50000000  0.50000000  0.00000000  1
  Ni  Ni6  1  0.11973300  0.61973300  0.00000000  1
  Ni  Ni7  1  0.88026700  0.38026700  0.00000000  1
  Ni  Ni8  1  0.61973300  0.88026700  0.00000000  1
  Ni  Ni9  1  0.38026700  0.11973300  0.00000000  1
