# generated using pymatgen
data_CsY(MoO4)2
_symmetry_space_group_name_H-M   'P 1'
_cell_length_a   6.11088059
_cell_length_b   6.11088059
_cell_length_c   8.39138100
_cell_angle_alpha   90.00000000
_cell_angle_beta   90.00000000
_cell_angle_gamma   120.00000638
_symmetry_Int_Tables_number   1
_chemical_formula_structural   CsY(MoO4)2
_chemical_formula_sum   'Cs1 Y1 Mo2 O8'
_cell_volume   271.37612616
_cell_formula_units_Z   1
loop_
 _symmetry_equiv_pos_site_id
 _symmetry_equiv_pos_as_xyz
  1  'x, y, z'
loop_
 _atom_site_type_symbol
 _atom_site_label
 _atom_site_symmetry_multiplicity
 _atom_site_fract_x
 _atom_site_fract_y
 _atom_site_fract_z
 _atom_site_occupancy
  Cs  Cs0  1  0.00000000  0.00000000  0.00000000  1
  Y  Y1  1  0.00000000  0.00000000  0.50000000  1
  Mo  Mo2  1  0.33333300  0.66666700  0.27028000  1
  Mo  Mo3  1  0.66666700  0.33333300  0.72972000  1
  O  O4  1  0.17060800  0.82939200  0.33784800  1
  O  O5  1  0.82939200  0.17060800  0.66215200  1
  O  O6  1  0.17060800  0.34121700  0.33784800  1
  O  O7  1  0.82939200  0.65878300  0.66215200  1
  O  O8  1  0.65878300  0.82939200  0.33784800  1
  O  O9  1  0.34121700  0.17060800  0.66215200  1
  O  O10  1  0.33333300  0.66666700  0.06174200  1
  O  O11  1  0.66666700  0.33333300  0.93825800  1
