# generated using pymatgen
data_CsInTe2
_symmetry_space_group_name_H-M   'P 1'
_cell_length_a   9.07172566
_cell_length_b   9.07172566
_cell_length_c   18.36186694
_cell_angle_alpha   82.91073881
_cell_angle_beta   82.91073881
_cell_angle_gamma   90.03091358
_symmetry_Int_Tables_number   1
_chemical_formula_structural   CsInTe2
_chemical_formula_sum   'Cs8 In8 Te16'
_cell_volume   1487.90482774
_cell_formula_units_Z   8
loop_
 _symmetry_equiv_pos_site_id
 _symmetry_equiv_pos_as_xyz
  1  'x, y, z'
loop_
 _atom_site_type_symbol
 _atom_site_label
 _atom_site_symmetry_multiplicity
 _atom_site_fract_x
 _atom_site_fract_y
 _atom_site_fract_z
 _atom_site_occupancy
  Cs  Cs0  1  0.77849900  0.65272900  0.38833400  1
  Cs  Cs1  1  0.34727100  0.22150100  0.11166600  1
  Cs  Cs2  1  0.22150100  0.34727100  0.61166600  1
  Cs  Cs3  1  0.65272900  0.77849900  0.88833400  1
  Cs  Cs4  1  0.84864800  0.22331200  0.10383000  1
  Cs  Cs5  1  0.77668800  0.15135200  0.39617000  1
  Cs  Cs6  1  0.15135200  0.77668800  0.89617000  1
  Cs  Cs7  1  0.22331200  0.84864800  0.60383000  1
  In  In8  1  0.08539700  0.70901500  0.16583700  1
  In  In9  1  0.29098500  0.91460300  0.33416300  1
  In  In10  1  0.91460300  0.29098500  0.83416300  1
  In  In11  1  0.70901500  0.08539700  0.66583700  1
  In  In12  1  0.29116800  0.41856200  0.33319900  1
  In  In13  1  0.58143800  0.70883200  0.16680100  1
  In  In14  1  0.70883200  0.58143800  0.66680100  1
  In  In15  1  0.41856200  0.29116800  0.83319900  1
  Te  Te16  1  0.26686100  0.64179600  0.42940000  1
  Te  Te17  1  0.35820400  0.73313900  0.07060000  1
  Te  Te18  1  0.73313900  0.35820400  0.57060000  1
  Te  Te19  1  0.64179600  0.26686100  0.92940000  1
  Te  Te20  1  0.85633400  0.73316000  0.07181100  1
  Te  Te21  1  0.26684000  0.14366600  0.42818900  1
  Te  Te22  1  0.14366600  0.26684000  0.92818900  1
  Te  Te23  1  0.73316000  0.85633400  0.57181100  1
  Te  Te24  1  0.05053800  0.42589400  0.24930600  1
  Te  Te25  1  0.57410600  0.94946200  0.25069400  1
  Te  Te26  1  0.94946200  0.57410600  0.75069400  1
  Te  Te27  1  0.42589400  0.05053800  0.74930600  1
  Te  Te28  1  0.05049400  0.94950600  0.25000000  1
  Te  Te29  1  0.94950600  0.05049400  0.75000000  1
  Te  Te30  1  0.57448700  0.42551300  0.25000000  1
  Te  Te31  1  0.42551300  0.57448700  0.75000000  1
