# generated using pymatgen
data_CsNd(PO3)4
_symmetry_space_group_name_H-M   'P 1'
_cell_length_a   13.33543853
_cell_length_b   13.33543853
_cell_length_c   13.33231934
_cell_angle_alpha   70.53176342
_cell_angle_beta   70.53176342
_cell_angle_gamma   109.48443881
_symmetry_Int_Tables_number   1
_chemical_formula_structural   CsNd(PO3)4
_chemical_formula_sum   'Cs6 Nd6 P24 O72'
_cell_volume   1824.98604063
_cell_formula_units_Z   6
loop_
 _symmetry_equiv_pos_site_id
 _symmetry_equiv_pos_as_xyz
  1  'x, y, z'
loop_
 _atom_site_type_symbol
 _atom_site_label
 _atom_site_symmetry_multiplicity
 _atom_site_fract_x
 _atom_site_fract_y
 _atom_site_fract_z
 _atom_site_occupancy
  Cs  Cs0  1  0.76317600  0.49943800  0.50130300  1
  Cs  Cs1  1  0.00134900  0.00091700  0.23538800  1
  Cs  Cs2  1  0.73542300  0.23613400  0.26312600  1
  Cs  Cs3  1  0.49943800  0.76317600  0.00130300  1
  Cs  Cs4  1  0.00091700  0.00134900  0.73538800  1
  Cs  Cs5  1  0.23613400  0.73542300  0.76312600  1
  Nd  Nd6  1  0.62104000  0.87225700  0.25196500  1
  Nd  Nd7  1  0.87225700  0.62104000  0.75196500  1
  Nd  Nd8  1  0.37484100  0.25195500  0.37289500  1
  Nd  Nd9  1  0.12610500  0.75087000  0.12523400  1
  Nd  Nd10  1  0.75087000  0.12610500  0.62523400  1
  Nd  Nd11  1  0.25195500  0.37484100  0.87289500  1
  P  P12  1  0.75808300  0.08079400  0.91433200  1
  P  P13  1  0.49396700  0.67153300  0.58518400  1
  P  P14  1  0.74147700  0.82680900  0.67828200  1
  P  P15  1  0.00664500  0.42025600  0.82041000  1
  P  P16  1  0.08079400  0.75808300  0.41433200  1
  P  P17  1  0.67153300  0.49396700  0.08518400  1
  P  P18  1  0.82680900  0.74147700  0.17828200  1
  P  P19  1  0.42025600  0.00664500  0.32041000  1
  P  P20  1  0.57873100  0.58486500  0.24268700  1
  P  P21  1  0.17307400  0.91429100  0.50530000  1
  P  P22  1  0.32772400  0.82151700  0.25869200  1
  P  P23  1  0.91931800  0.67733700  0.99494400  1
  P  P24  1  0.25867100  0.08643500  0.91989500  1
  P  P25  1  0.99508800  0.41432400  0.32766900  1
  P  P26  1  0.24253200  0.32138300  0.17224600  1
  P  P27  1  0.50505000  0.17832700  0.58030100  1
  P  P28  1  0.08643500  0.25867100  0.41989500  1
  P  P29  1  0.41432400  0.99508800  0.82766900  1
  P  P30  1  0.32138300  0.24253200  0.67224600  1
  P  P31  1  0.17832700  0.50505000  0.08030100  1
  P  P32  1  0.58486500  0.57873100  0.74268700  1
  P  P33  1  0.91429100  0.17307400  0.00530000  1
  P  P34  1  0.82151700  0.32772400  0.75869200  1
  P  P35  1  0.67733700  0.91931800  0.49494400  1
  O  O36  1  0.88906400  0.12696400  0.91287900  1
  O  O37  1  0.53998200  0.80185900  0.58747700  1
  O  O38  1  0.61081900  0.69797500  0.76199900  1
  O  O39  1  0.95924900  0.37185000  0.73884800  1
  O  O40  1  0.12696400  0.88906400  0.41287900  1
  O  O41  1  0.80185900  0.53998200  0.08747700  1
  O  O42  1  0.69797500  0.61081900  0.26199900  1
  O  O43  1  0.37185000  0.95924900  0.23884800  1
  O  O44  1  0.62751800  0.58747500  0.11065900  1
  O  O45  1  0.30187200  0.91252900  0.45976700  1
  O  O46  1  0.19805100  0.73835100  0.38902200  1
  O  O47  1  0.87291100  0.76205000  0.03997800  1
  O  O48  1  0.38908900  0.08711500  0.87247200  1
  O  O49  1  0.03984800  0.41291100  0.19800800  1
  O  O50  1  0.11047300  0.23851300  0.30175400  1
  O  O51  1  0.45999200  0.26196400  0.62720000  1
  O  O52  1  0.08711500  0.38908900  0.37247200  1
  O  O53  1  0.41291100  0.03984800  0.69800800  1
  O  O54  1  0.23851300  0.11047300  0.80175400  1
  O  O55  1  0.26196400  0.45999200  0.12720000  1
  O  O56  1  0.58747500  0.62751800  0.61065900  1
  O  O57  1  0.91252900  0.30187200  0.95976700  1
  O  O58  1  0.73835100  0.19805100  0.88902200  1
  O  O59  1  0.76205000  0.87291100  0.53997800  1
  O  O60  1  0.65708300  0.97669400  0.04045900  1
  O  O61  1  0.52006900  0.69927100  0.45808100  1
  O  O62  1  0.84358400  0.80294800  0.67957200  1
  O  O63  1  0.98215200  0.52272500  0.82029000  1
  O  O64  1  0.97669400  0.65708300  0.54045900  1
  O  O65  1  0.69927100  0.52006900  0.95808100  1
  O  O66  1  0.80294800  0.84358400  0.17957200  1
  O  O67  1  0.52272500  0.98215200  0.32029000  1
  O  O68  1  0.47786500  0.45811200  0.34317900  1
  O  O69  1  0.19688200  0.04032400  0.48274600  1
  O  O70  1  0.30177400  0.81955100  0.15746200  1
  O  O71  1  0.02299100  0.67985900  0.01782700  1
  O  O72  1  0.15723700  0.95909700  0.02256800  1
  O  O73  1  0.01728400  0.54064200  0.30223500  1
  O  O74  1  0.34294900  0.32090500  0.19870900  1
  O  O75  1  0.48263600  0.17947700  0.47687900  1
  O  O76  1  0.95909700  0.15723700  0.52256800  1
  O  O77  1  0.54064200  0.01728400  0.80223500  1
  O  O78  1  0.32090500  0.34294900  0.69870900  1
  O  O79  1  0.17947700  0.48263600  0.97687900  1
  O  O80  1  0.45811200  0.47786500  0.84317900  1
  O  O81  1  0.04032400  0.19688200  0.98274600  1
  O  O82  1  0.81955100  0.30177400  0.65746200  1
  O  O83  1  0.67985900  0.02299100  0.51782700  1
  O  O84  1  0.78120800  0.06106000  0.80647800  1
  O  O85  1  0.36800000  0.58836700  0.69500000  1
  O  O86  1  0.71860700  0.91232600  0.71976900  1
  O  O87  1  0.13249400  0.43832900  0.78211500  1
  O  O88  1  0.06106000  0.78120800  0.30647800  1
  O  O89  1  0.58836700  0.36800000  0.19500000  1
  O  O90  1  0.91232600  0.71860700  0.21976900  1
  O  O91  1  0.43832900  0.13249400  0.28211500  1
  O  O92  1  0.56362000  0.69517700  0.21665600  1
  O  O93  1  0.08744800  0.80620700  0.63232200  1
  O  O94  1  0.41427100  0.78168300  0.27950900  1
  O  O95  1  0.93898600  0.72040900  0.86759500  1
  O  O96  1  0.27956800  0.19376500  0.93888900  1
  O  O97  1  0.86756300  0.30646100  0.41216600  1
  O  O98  1  0.21662800  0.28018300  0.08799800  1
  O  O99  1  0.63211000  0.21965400  0.56158000  1
  O  O100  1  0.19376500  0.27956800  0.43888900  1
  O  O101  1  0.30646100  0.86756300  0.91216600  1
  O  O102  1  0.28018300  0.21662800  0.58799800  1
  O  O103  1  0.21965400  0.63211000  0.06158000  1
  O  O104  1  0.69517700  0.56362000  0.71665600  1
  O  O105  1  0.80620700  0.08744800  0.13232200  1
  O  O106  1  0.78168300  0.41427100  0.77950900  1
  O  O107  1  0.72040900  0.93898600  0.36759500  1
