# generated using pymatgen
data_Lu2GaNi2
_symmetry_space_group_name_H-M   'P 1'
_cell_length_a   4.12155700
_cell_length_b   5.24761725
_cell_length_c   5.24761725
_cell_angle_alpha   60.62833241
_cell_angle_beta   66.87693453
_cell_angle_gamma   66.87693453
_symmetry_Int_Tables_number   1
_chemical_formula_structural   Lu2GaNi2
_chemical_formula_sum   'Lu2 Ga1 Ni2'
_cell_volume   88.08143459
_cell_formula_units_Z   1
loop_
 _symmetry_equiv_pos_site_id
 _symmetry_equiv_pos_as_xyz
  1  'x, y, z'
loop_
 _atom_site_type_symbol
 _atom_site_label
 _atom_site_symmetry_multiplicity
 _atom_site_fract_x
 _atom_site_fract_y
 _atom_site_fract_z
 _atom_site_occupancy
  Lu  Lu0  1  0.20282500  0.29717500  0.29717500  1
  Lu  Lu1  1  0.79717500  0.70282500  0.70282500  1
  Ga  Ga2  1  0.00000000  0.00000000  0.00000000  1
  Ni  Ni3  1  0.50000000  0.27063800  0.72936200  1
  Ni  Ni4  1  0.50000000  0.72936200  0.27063800  1
