# generated using pymatgen
data_TmOs2
_symmetry_space_group_name_H-M   'P 1'
_cell_length_a   5.30898873
_cell_length_b   5.30898873
_cell_length_c   8.71476800
_cell_angle_alpha   90.00000000
_cell_angle_beta   90.00000000
_cell_angle_gamma   119.98976521
_symmetry_Int_Tables_number   1
_chemical_formula_structural   TmOs2
_chemical_formula_sum   'Tm4 Os8'
_cell_volume   212.74278913
_cell_formula_units_Z   4
loop_
 _symmetry_equiv_pos_site_id
 _symmetry_equiv_pos_as_xyz
  1  'x, y, z'
loop_
 _atom_site_type_symbol
 _atom_site_label
 _atom_site_symmetry_multiplicity
 _atom_site_fract_x
 _atom_site_fract_y
 _atom_site_fract_z
 _atom_site_occupancy
  Tm  Tm0  1  0.66668200  0.33331800  0.56462500  1
  Tm  Tm1  1  0.33331800  0.66668200  0.43537500  1
  Tm  Tm2  1  0.33331800  0.66668200  0.06462500  1
  Tm  Tm3  1  0.66668200  0.33331800  0.93537500  1
  Os  Os4  1  0.00000000  0.00000000  0.50000000  1
  Os  Os5  1  0.00000000  0.00000000  0.00000000  1
  Os  Os6  1  0.17296000  0.34585700  0.75000000  1
  Os  Os7  1  0.17288700  0.82711300  0.75000000  1
  Os  Os8  1  0.65414300  0.82704000  0.75000000  1
  Os  Os9  1  0.82704000  0.65414300  0.25000000  1
  Os  Os10  1  0.82711300  0.17288700  0.25000000  1
  Os  Os11  1  0.34585700  0.17296000  0.25000000  1
