# generated using pymatgen
data_Cs3Zr7MnCl20
_symmetry_space_group_name_H-M   'P 1'
_cell_length_a   14.17370857
_cell_length_b   14.17370857
_cell_length_c   14.17370895
_cell_angle_alpha   55.42994738
_cell_angle_beta   55.42994738
_cell_angle_gamma   55.42994644
_symmetry_Int_Tables_number   1
_chemical_formula_structural   Cs3Zr7MnCl20
_chemical_formula_sum   'Cs6 Zr14 Mn2 Cl40'
_cell_volume   1799.71968134
_cell_formula_units_Z   2
loop_
 _symmetry_equiv_pos_site_id
 _symmetry_equiv_pos_as_xyz
  1  'x, y, z'
loop_
 _atom_site_type_symbol
 _atom_site_label
 _atom_site_symmetry_multiplicity
 _atom_site_fract_x
 _atom_site_fract_y
 _atom_site_fract_z
 _atom_site_occupancy
  Cs  Cs0  1  0.00000000  0.00000000  0.50000000  1
  Cs  Cs1  1  0.50000000  0.00000000  0.00000000  1
  Cs  Cs2  1  0.00000000  0.50000000  0.00000000  1
  Cs  Cs3  1  0.00000000  0.50000000  0.50000000  1
  Cs  Cs4  1  0.50000000  0.00000000  0.50000000  1
  Cs  Cs5  1  0.50000000  0.50000000  0.00000000  1
  Zr  Zr6  1  0.45457500  0.31344800  0.61379800  1
  Zr  Zr7  1  0.61379800  0.45457500  0.31344800  1
  Zr  Zr8  1  0.31344800  0.61379800  0.45457500  1
  Zr  Zr9  1  0.11379800  0.81344800  0.95457500  1
  Zr  Zr10  1  0.95457500  0.11379800  0.81344800  1
  Zr  Zr11  1  0.81344800  0.95457500  0.11379800  1
  Zr  Zr12  1  0.54542500  0.68655200  0.38620200  1
  Zr  Zr13  1  0.38620200  0.54542500  0.68655200  1
  Zr  Zr14  1  0.68655200  0.38620200  0.54542500  1
  Zr  Zr15  1  0.88620200  0.18655200  0.04542500  1
  Zr  Zr16  1  0.04542500  0.88620200  0.18655200  1
  Zr  Zr17  1  0.18655200  0.04542500  0.88620200  1
  Zr  Zr18  1  0.25000000  0.25000000  0.25000000  1
  Zr  Zr19  1  0.75000000  0.75000000  0.75000000  1
  Mn  Mn20  1  0.50000000  0.50000000  0.50000000  1
  Mn  Mn21  1  0.00000000  0.00000000  0.00000000  1
  Cl  Cl22  1  0.25360000  0.42306500  0.57277300  1
  Cl  Cl23  1  0.57277300  0.25360000  0.42306500  1
  Cl  Cl24  1  0.42306500  0.57277300  0.25360000  1
  Cl  Cl25  1  0.07277300  0.92306500  0.75360000  1
  Cl  Cl26  1  0.75360000  0.07277300  0.92306500  1
  Cl  Cl27  1  0.92306500  0.75360000  0.07277300  1
  Cl  Cl28  1  0.74640000  0.57693500  0.42722700  1
  Cl  Cl29  1  0.42722700  0.74640000  0.57693500  1
  Cl  Cl30  1  0.57693500  0.42722700  0.74640000  1
  Cl  Cl31  1  0.92722700  0.07693500  0.24640000  1
  Cl  Cl32  1  0.24640000  0.92722700  0.07693500  1
  Cl  Cl33  1  0.07693500  0.24640000  0.92722700  1
  Cl  Cl34  1  0.17877000  0.66964700  0.65135800  1
  Cl  Cl35  1  0.65135800  0.17877000  0.66964700  1
  Cl  Cl36  1  0.66964700  0.65135800  0.17877000  1
  Cl  Cl37  1  0.15135800  0.16964700  0.67877000  1
  Cl  Cl38  1  0.67877000  0.15135800  0.16964700  1
  Cl  Cl39  1  0.16964700  0.67877000  0.15135800  1
  Cl  Cl40  1  0.82123000  0.33035300  0.34864200  1
  Cl  Cl41  1  0.34864200  0.82123000  0.33035300  1
  Cl  Cl42  1  0.33035300  0.34864200  0.82123000  1
  Cl  Cl43  1  0.84864200  0.83035300  0.32123000  1
  Cl  Cl44  1  0.32123000  0.84864200  0.83035300  1
  Cl  Cl45  1  0.83035300  0.32123000  0.84864200  1
  Cl  Cl46  1  0.59682300  0.90317700  0.25000000  1
  Cl  Cl47  1  0.25000000  0.59682300  0.90317700  1
  Cl  Cl48  1  0.90317700  0.25000000  0.59682300  1
  Cl  Cl49  1  0.75000000  0.40317700  0.09682300  1
  Cl  Cl50  1  0.09682300  0.75000000  0.40317700  1
  Cl  Cl51  1  0.40317700  0.09682300  0.75000000  1
  Cl  Cl52  1  0.06866500  0.43133500  0.25000000  1
  Cl  Cl53  1  0.25000000  0.06866500  0.43133500  1
  Cl  Cl54  1  0.43133500  0.25000000  0.06866500  1
  Cl  Cl55  1  0.75000000  0.93133500  0.56866500  1
  Cl  Cl56  1  0.56866500  0.75000000  0.93133500  1
  Cl  Cl57  1  0.93133500  0.56866500  0.75000000  1
  Cl  Cl58  1  0.31884500  0.31884500  0.31884500  1
  Cl  Cl59  1  0.81884500  0.81884500  0.81884500  1
  Cl  Cl60  1  0.68115500  0.68115500  0.68115500  1
  Cl  Cl61  1  0.18115500  0.18115500  0.18115500  1
