# generated using pymatgen
data_Rb7GdFe6(P4O17)2
_symmetry_space_group_name_H-M   'P 1'
_cell_length_a   9.39366900
_cell_length_b   10.01447009
_cell_length_c   10.07915246
_cell_angle_alpha   90.79136998
_cell_angle_beta   95.25030960
_cell_angle_gamma   116.25831962
_symmetry_Int_Tables_number   1
_chemical_formula_structural   Rb7GdFe6(P4O17)2
_chemical_formula_sum   'Rb7 Gd1 Fe6 P8 O34'
_cell_volume   845.19486563
_cell_formula_units_Z   1
loop_
 _symmetry_equiv_pos_site_id
 _symmetry_equiv_pos_as_xyz
  1  'x, y, z'
loop_
 _atom_site_type_symbol
 _atom_site_label
 _atom_site_symmetry_multiplicity
 _atom_site_fract_x
 _atom_site_fract_y
 _atom_site_fract_z
 _atom_site_occupancy
  Rb  Rb0  1  0.07160800  0.20695300  0.34138900  1
  Rb  Rb1  1  0.92839200  0.79304700  0.65861100  1
  Rb  Rb2  1  0.62562300  0.97435000  0.37448600  1
  Rb  Rb3  1  0.37437700  0.02565000  0.62551400  1
  Rb  Rb4  1  0.67815900  0.43958300  0.90636400  1
  Rb  Rb5  1  0.32184100  0.56041700  0.09363600  1
  Rb  Rb6  1  0.50000000  0.00000000  0.00000000  1
  Gd  Gd7  1  0.50000000  0.50000000  0.50000000  1
  Fe  Fe8  1  0.15680000  0.10766700  0.96599800  1
  Fe  Fe9  1  0.84320000  0.89233300  0.03400200  1
  Fe  Fe10  1  0.83790800  0.09809200  0.75729900  1
  Fe  Fe11  1  0.16209200  0.90190800  0.24270100  1
  Fe  Fe12  1  0.84263900  0.42243300  0.27417200  1
  Fe  Fe13  1  0.15736100  0.57756700  0.72582800  1
  P  P14  1  0.78796000  0.33138000  0.57217100  1
  P  P15  1  0.21204000  0.66862000  0.42782900  1
  P  P16  1  0.19204300  0.26400500  0.69212500  1
  P  P17  1  0.80795700  0.73599500  0.30787500  1
  P  P18  1  0.91149100  0.23325700  0.03950000  1
  P  P19  1  0.08850900  0.76674300  0.96050000  1
  P  P20  1  0.56052200  0.75705300  0.78389100  1
  P  P21  1  0.43947800  0.24294700  0.21610900  1
  O  O22  1  0.37188400  0.21971300  0.06474600  1
  O  O23  1  0.62811600  0.78028700  0.93525400  1
  O  O24  1  0.83346500  0.30682000  0.43163100  1
  O  O25  1  0.16653500  0.69318000  0.56836900  1
  O  O26  1  0.01441900  0.15528400  0.64171500  1
  O  O27  1  0.98558100  0.84471600  0.35828500  1
  O  O28  1  0.17875100  0.91237800  0.88930600  1
  O  O29  1  0.82124900  0.08762200  0.11069400  1
  O  O30  1  0.25917500  0.19477400  0.80333500  1
  O  O31  1  0.74082500  0.80522600  0.19666500  1
  O  O32  1  0.93640500  0.00677000  0.87673700  1
  O  O33  1  0.06359500  0.99323000  0.12326300  1
  O  O34  1  0.20905100  0.41525100  0.74816500  1
  O  O35  1  0.79094900  0.58474900  0.25183500  1
  O  O36  1  0.08771800  0.26976400  0.02982400  1
  O  O37  1  0.91228200  0.73023600  0.97017600  1
  O  O38  1  0.61636400  0.27442100  0.21379100  1
  O  O39  1  0.38363600  0.72557900  0.78620900  1
  O  O40  1  0.29201200  0.28873300  0.57322700  1
  O  O41  1  0.70798800  0.71126700  0.42677300  1
  O  O42  1  0.71862200  0.17395400  0.63224600  1
  O  O43  1  0.28137800  0.82604600  0.36775400  1
  O  O44  1  0.65562700  0.38362000  0.55804600  1
  O  O45  1  0.34437300  0.61638000  0.44195400  1
  O  O46  1  0.81591300  0.21974700  0.89962700  1
  O  O47  1  0.18408700  0.78025300  0.10037300  1
  O  O48  1  0.91144300  0.36802800  0.11807400  1
  O  O49  1  0.08855700  0.63197200  0.88192600  1
  O  O50  1  0.57825500  0.62860900  0.71167600  1
  O  O51  1  0.42174500  0.37139100  0.28832400  1
  O  O52  1  0.64569900  0.90364300  0.71069800  1
  O  O53  1  0.35430100  0.09635700  0.28930200  1
  O  O54  1  0.93037200  0.44555800  0.66384600  1
  O  O55  1  0.06962800  0.55444200  0.33615400  1
