# generated using pymatgen
data_CrSiH8(O2F3)2
_symmetry_space_group_name_H-M   'P 1'
_cell_length_a   9.87427700
_cell_length_b   5.55563000
_cell_length_c   7.40326018
_cell_angle_alpha   74.95768082
_cell_angle_beta   90.00000000
_cell_angle_gamma   90.00000000
_symmetry_Int_Tables_number   1
_chemical_formula_structural   CrSiH8(O2F3)2
_chemical_formula_sum   'Cr2 Si2 H16 O8 F12'
_cell_volume   392.21060542
_cell_formula_units_Z   2
loop_
 _symmetry_equiv_pos_site_id
 _symmetry_equiv_pos_as_xyz
  1  'x, y, z'
loop_
 _atom_site_type_symbol
 _atom_site_label
 _atom_site_symmetry_multiplicity
 _atom_site_fract_x
 _atom_site_fract_y
 _atom_site_fract_z
 _atom_site_occupancy
  Cr  Cr0  1  0.00000000  0.00000000  0.00000000  1
  Cr  Cr1  1  0.50000000  0.00000000  0.50000000  1
  Si  Si2  1  0.00000000  0.50000000  0.50000000  1
  Si  Si3  1  0.50000000  0.50000000  0.00000000  1
  H  H4  1  0.85384900  0.22452500  0.21745600  1
  H  H5  1  0.35384900  0.77547500  0.28254400  1
  H  H6  1  0.14615100  0.77547500  0.78254400  1
  H  H7  1  0.64615100  0.22452500  0.71745600  1
  H  H8  1  0.76328700  0.22592900  0.04064200  1
  H  H9  1  0.26328700  0.77407100  0.45935800  1
  H  H10  1  0.23671300  0.77407100  0.95935800  1
  H  H11  1  0.73671300  0.22592900  0.54064200  1
  H  H12  1  0.22790000  0.24169300  0.05191200  1
  H  H13  1  0.72790000  0.75830700  0.44808800  1
  H  H14  1  0.77210000  0.75830700  0.94808800  1
  H  H15  1  0.27210000  0.24169300  0.55191200  1
  H  H16  1  0.12770600  0.25385100  0.21750600  1
  H  H17  1  0.62770600  0.74614900  0.28249400  1
  H  H18  1  0.87229400  0.74614900  0.78249400  1
  H  H19  1  0.37229400  0.25385100  0.71750600  1
  O  O20  1  0.83541800  0.13282300  0.12258600  1
  O  O21  1  0.33541800  0.86717700  0.37741400  1
  O  O22  1  0.16458200  0.86717700  0.87741400  1
  O  O23  1  0.66458200  0.13282300  0.62258600  1
  O  O24  1  0.13155900  0.24055900  0.08706800  1
  O  O25  1  0.63155900  0.75944100  0.41293200  1
  O  O26  1  0.86844100  0.75944100  0.91293200  1
  O  O27  1  0.36844100  0.24055900  0.58706800  1
  F  F28  1  0.04056400  0.69427100  0.29082000  1
  F  F29  1  0.54056400  0.30572900  0.20918000  1
  F  F30  1  0.95943600  0.30572900  0.70918000  1
  F  F31  1  0.45943600  0.69427100  0.79082000  1
  F  F32  1  0.10958500  0.27918600  0.45443700  1
  F  F33  1  0.60958500  0.72081400  0.04556300  1
  F  F34  1  0.89041500  0.72081400  0.54556300  1
  F  F35  1  0.39041500  0.27918600  0.95443700  1
  F  F36  1  0.86755300  0.37615800  0.39692300  1
  F  F37  1  0.36755300  0.62384200  0.10307700  1
  F  F38  1  0.13244700  0.62384200  0.60307700  1
  F  F39  1  0.63244700  0.37615800  0.89692300  1
