# generated using pymatgen
data_Tb11In9Pd4
_symmetry_space_group_name_H-M   'P 1'
_cell_length_a   13.20839119
_cell_length_b   13.20839119
_cell_length_c   3.68669900
_cell_angle_alpha   90.00000000
_cell_angle_beta   90.00000000
_cell_angle_gamma   110.62505646
_symmetry_Int_Tables_number   1
_chemical_formula_structural   Tb11In9Pd4
_chemical_formula_sum   'Tb11 In9 Pd4'
_cell_volume   601.96267446
_cell_formula_units_Z   1
loop_
 _symmetry_equiv_pos_site_id
 _symmetry_equiv_pos_as_xyz
  1  'x, y, z'
loop_
 _atom_site_type_symbol
 _atom_site_label
 _atom_site_symmetry_multiplicity
 _atom_site_fract_x
 _atom_site_fract_y
 _atom_site_fract_z
 _atom_site_occupancy
  Tb  Tb0  1  0.41791400  0.07133100  0.00000000  1
  Tb  Tb1  1  0.58208600  0.92866900  0.00000000  1
  Tb  Tb2  1  0.07133100  0.41791400  0.00000000  1
  Tb  Tb3  1  0.92866900  0.58208600  0.00000000  1
  Tb  Tb4  1  0.15824400  0.84175600  0.00000000  1
  Tb  Tb5  1  0.84175600  0.15824400  0.00000000  1
  Tb  Tb6  1  0.37171600  0.62828400  0.00000000  1
  Tb  Tb7  1  0.62828400  0.37171600  0.00000000  1
  Tb  Tb8  1  0.30859500  0.30859500  0.00000000  1
  Tb  Tb9  1  0.69140500  0.69140500  0.00000000  1
  Tb  Tb10  1  0.00000000  0.00000000  0.00000000  1
  In  In11  1  0.36636500  0.84230200  0.50000000  1
  In  In12  1  0.63363500  0.15769800  0.50000000  1
  In  In13  1  0.84230200  0.36636500  0.50000000  1
  In  In14  1  0.15769800  0.63363500  0.50000000  1
  In  In15  1  0.21713500  0.07290700  0.50000000  1
  In  In16  1  0.78286500  0.92709300  0.50000000  1
  In  In17  1  0.07290700  0.21713500  0.50000000  1
  In  In18  1  0.92709300  0.78286500  0.50000000  1
  In  In19  1  0.50000000  0.50000000  0.50000000  1
  Pd  Pd20  1  0.45096200  0.24830200  0.50000000  1
  Pd  Pd21  1  0.54903800  0.75169800  0.50000000  1
  Pd  Pd22  1  0.24830200  0.45096200  0.50000000  1
  Pd  Pd23  1  0.75169800  0.54903800  0.50000000  1
