# generated using pymatgen
data_MgZr4(PO4)6
_symmetry_space_group_name_H-M   'P 1'
_cell_length_a   9.11107100
_cell_length_b   8.98352200
_cell_length_c   15.49944670
_cell_angle_alpha   54.89387414
_cell_angle_beta   90.00000000
_cell_angle_gamma   90.00000000
_symmetry_Int_Tables_number   1
_chemical_formula_structural   MgZr4(PO4)6
_chemical_formula_sum   'Mg2 Zr8 P12 O48'
_cell_volume   1037.84478866
_cell_formula_units_Z   2
loop_
 _symmetry_equiv_pos_site_id
 _symmetry_equiv_pos_as_xyz
  1  'x, y, z'
loop_
 _atom_site_type_symbol
 _atom_site_label
 _atom_site_symmetry_multiplicity
 _atom_site_fract_x
 _atom_site_fract_y
 _atom_site_fract_z
 _atom_site_occupancy
  Mg  Mg0  1  0.52863700  0.46658000  0.32045200  1
  Mg  Mg1  1  0.47136300  0.46658000  0.82045200  1
  Zr  Zr2  1  0.72212300  0.87096600  0.38294300  1
  Zr  Zr3  1  0.27787700  0.87096600  0.88294300  1
  Zr  Zr4  1  0.77665400  0.13171400  0.62127000  1
  Zr  Zr5  1  0.22334600  0.13171400  0.12127000  1
  Zr  Zr6  1  0.72284900  0.64636600  0.10471200  1
  Zr  Zr7  1  0.27715100  0.64636600  0.60471200  1
  Zr  Zr8  1  0.80498800  0.35784800  0.88661200  1
  Zr  Zr9  1  0.19501200  0.35784800  0.38661200  1
  P  P10  1  0.49982500  0.04179800  0.99512800  1
  P  P11  1  0.50017500  0.04179800  0.49512800  1
  P  P12  1  0.00280400  0.95855800  0.00695400  1
  P  P13  1  0.99719600  0.95855800  0.50695400  1
  P  P14  1  0.37068800  0.74667100  0.35282800  1
  P  P15  1  0.62931200  0.74667100  0.85282800  1
  P  P16  1  0.13789200  0.24800000  0.64520500  1
  P  P17  1  0.86210800  0.24800000  0.14520500  1
  P  P18  1  0.35412700  0.47003700  0.14750800  1
  P  P19  1  0.64587300  0.47003700  0.64750800  1
  P  P20  1  0.15487200  0.53193100  0.85751700  1
  P  P21  1  0.84512800  0.53193100  0.35751700  1
  O  O22  1  0.26915800  0.90142000  0.27199600  1
  O  O23  1  0.73084200  0.90142000  0.77199600  1
  O  O24  1  0.23112400  0.08395800  0.72785200  1
  O  O25  1  0.76887600  0.08395800  0.22785200  1
  O  O26  1  0.41253800  0.01854400  0.91866300  1
  O  O27  1  0.58746200  0.01854400  0.41866300  1
  O  O28  1  0.08822500  0.99124800  0.07971200  1
  O  O29  1  0.91177500  0.99124800  0.57971200  1
  O  O30  1  0.24968900  0.43490100  0.23614200  1
  O  O31  1  0.75031100  0.43490100  0.73614200  1
  O  O32  1  0.26791100  0.56379300  0.77049200  1
  O  O33  1  0.73208900  0.56379300  0.27049200  1
  O  O34  1  0.35548900  0.30190100  0.14422500  1
  O  O35  1  0.64451100  0.30190100  0.64422500  1
  O  O36  1  0.15373200  0.69877700  0.86033100  1
  O  O37  1  0.84626800  0.69877700  0.36033100  1
  O  O38  1  0.31332000  0.64286300  0.04083100  1
  O  O39  1  0.68668000  0.64286300  0.54083100  1
  O  O40  1  0.21459100  0.36182100  0.96018700  1
  O  O41  1  0.78540900  0.36182100  0.46018700  1
  O  O42  1  0.51104300  0.50006300  0.18021700  1
  O  O43  1  0.48895700  0.50006300  0.68021700  1
  O  O44  1  0.99914500  0.50048300  0.83193600  1
  O  O45  1  0.00085500  0.50048300  0.33193600  1
  O  O46  1  0.53340900  0.79896200  0.33451400  1
  O  O47  1  0.46659100  0.79896200  0.83451400  1
  O  O48  1  0.97188100  0.20324200  0.66058500  1
  O  O49  1  0.02811900  0.20324200  0.16058500  1
  O  O50  1  0.61322800  0.88886100  0.05711800  1
  O  O51  1  0.38677200  0.88886100  0.55711800  1
  O  O52  1  0.89277900  0.11582400  0.93728700  1
  O  O53  1  0.10722100  0.11582400  0.43728700  1
  O  O54  1  0.57790000  0.23317100  0.92497400  1
  O  O55  1  0.42210000  0.23317100  0.42497400  1
  O  O56  1  0.91493200  0.77938800  0.07386100  1
  O  O57  1  0.08506800  0.77938800  0.57386100  1
  O  O58  1  0.35674000  0.58125500  0.34409400  1
  O  O59  1  0.64326000  0.58125500  0.84409400  1
  O  O60  1  0.17091900  0.40813200  0.65345000  1
  O  O61  1  0.82908100  0.40813200  0.15345000  1
  O  O62  1  0.39899900  0.04879700  0.07200400  1
  O  O63  1  0.60100100  0.04879700  0.57200400  1
  O  O64  1  0.10195500  0.94645600  0.93179500  1
  O  O65  1  0.89804500  0.94645600  0.43179500  1
  O  O66  1  0.32349600  0.68403500  0.46467700  1
  O  O67  1  0.67650400  0.68403500  0.96467700  1
  O  O68  1  0.18147100  0.30663600  0.53292700  1
  O  O69  1  0.81852900  0.30663600  0.03292700  1
