# generated using pymatgen
data_SrNd10Se12(Cl2O9)4
_symmetry_space_group_name_H-M   'P 1'
_cell_length_a   12.07199035
_cell_length_b   12.07199035
_cell_length_c   16.03222647
_cell_angle_alpha   89.94624649
_cell_angle_beta   89.94624649
_cell_angle_gamma   82.43692160
_symmetry_Int_Tables_number   1
_chemical_formula_structural   SrNd10Se12(Cl2O9)4
_chemical_formula_sum   'Sr2 Nd20 Se24 Cl16 O72'
_cell_volume   2316.09629855
_cell_formula_units_Z   2
loop_
 _symmetry_equiv_pos_site_id
 _symmetry_equiv_pos_as_xyz
  1  'x, y, z'
loop_
 _atom_site_type_symbol
 _atom_site_label
 _atom_site_symmetry_multiplicity
 _atom_site_fract_x
 _atom_site_fract_y
 _atom_site_fract_z
 _atom_site_occupancy
  Sr  Sr0  1  0.45057100  0.18742400  0.86956400  1
  Sr  Sr1  1  0.18742400  0.45057100  0.36956400  1
  Nd  Nd2  1  0.25035000  0.75052300  0.74992200  1
  Nd  Nd3  1  0.75052300  0.25035000  0.24992200  1
  Nd  Nd4  1  0.74755900  0.25077700  0.98659100  1
  Nd  Nd5  1  0.25077700  0.74755900  0.48659100  1
  Nd  Nd6  1  0.25050300  0.74925000  0.01309400  1
  Nd  Nd7  1  0.74925000  0.25050300  0.51309400  1
  Nd  Nd8  1  0.51255000  0.48569600  0.75131200  1
  Nd  Nd9  1  0.48569600  0.51255000  0.25131200  1
  Nd  Nd10  1  0.01287800  0.98662600  0.25009400  1
  Nd  Nd11  1  0.98662600  0.01287800  0.75009400  1
  Nd  Nd12  1  0.49876300  0.49783100  0.99946200  1
  Nd  Nd13  1  0.49783100  0.49876300  0.49946200  1
  Nd  Nd14  1  0.00047500  0.99977800  0.49999300  1
  Nd  Nd15  1  0.99977800  0.00047500  0.99999300  1
  Nd  Nd16  1  0.30534500  0.04569600  0.37004800  1
  Nd  Nd17  1  0.04569600  0.30534500  0.87004800  1
  Nd  Nd18  1  0.54395600  0.80547700  0.12939700  1
  Nd  Nd19  1  0.80547700  0.54395600  0.62939700  1
  Nd  Nd20  1  0.69374300  0.95703800  0.63131000  1
  Nd  Nd21  1  0.95703800  0.69374300  0.13131000  1
  Se  Se22  1  0.49737800  0.75347600  0.89910900  1
  Se  Se23  1  0.75347600  0.49737800  0.39910900  1
  Se  Se24  1  0.74619800  0.00309200  0.39941500  1
  Se  Se25  1  0.00309200  0.74619800  0.89941500  1
  Se  Se26  1  0.50423400  0.24836600  0.10179400  1
  Se  Se27  1  0.24836600  0.50423400  0.60179400  1
  Se  Se28  1  0.25327500  0.99723000  0.60046800  1
  Se  Se29  1  0.99723000  0.25327500  0.10046800  1
  Se  Se30  1  0.75299400  0.47292400  0.86002600  1
  Se  Se31  1  0.47292400  0.75299400  0.36002600  1
  Se  Se32  1  0.02698700  0.75036900  0.36116900  1
  Se  Se33  1  0.75036900  0.02698700  0.86116900  1
  Se  Se34  1  0.25008000  0.52760500  0.13833100  1
  Se  Se35  1  0.52760500  0.25008000  0.63833100  1
  Se  Se36  1  0.97276200  0.25180500  0.64004600  1
  Se  Se37  1  0.25180500  0.97276200  0.14004600  1
  Se  Se38  1  0.22286800  0.02195200  0.87231900  1
  Se  Se39  1  0.02195200  0.22286800  0.37231900  1
  Se  Se40  1  0.47950200  0.27706900  0.37218400  1
  Se  Se41  1  0.27706900  0.47950200  0.87218400  1
  Se  Se42  1  0.77695600  0.97811100  0.12768300  1
  Se  Se43  1  0.97811100  0.77695600  0.62768300  1
  Se  Se44  1  0.52232500  0.72308700  0.62761700  1
  Se  Se45  1  0.72308700  0.52232500  0.12761700  1
  Cl  Cl46  1  0.23937800  0.25449200  0.76466100  1
  Cl  Cl47  1  0.25449200  0.23937800  0.26466100  1
  Cl  Cl48  1  0.74921000  0.75132200  0.23243000  1
  Cl  Cl49  1  0.75132200  0.74921000  0.73243000  1
  Cl  Cl50  1  0.23875900  0.25381500  0.98180700  1
  Cl  Cl51  1  0.25381500  0.23875900  0.48180700  1
  Cl  Cl52  1  0.75064500  0.74989100  0.02158000  1
  Cl  Cl53  1  0.74989100  0.75064500  0.52158000  1
  Cl  Cl54  1  0.50507900  0.98883900  0.74217000  1
  Cl  Cl55  1  0.98883900  0.50507900  0.24217000  1
  Cl  Cl56  1  0.50032000  0.99887700  0.25037200  1
  Cl  Cl57  1  0.99887700  0.50032000  0.75037200  1
  Cl  Cl58  1  0.50568700  0.99001600  0.00796700  1
  Cl  Cl59  1  0.99001600  0.50568700  0.50796700  1
  Cl  Cl60  1  0.50052400  0.99941500  0.49936600  1
  Cl  Cl61  1  0.99941500  0.50052400  0.99936600  1
  O  O62  1  0.63587400  0.40953500  0.88719200  1
  O  O63  1  0.40953500  0.63587400  0.38719200  1
  O  O64  1  0.08793800  0.87038700  0.38688300  1
  O  O65  1  0.87038700  0.08793800  0.88688300  1
  O  O66  1  0.36635200  0.59270500  0.10873500  1
  O  O67  1  0.59270500  0.36635200  0.60873500  1
  O  O68  1  0.90984000  0.13411300  0.61252400  1
  O  O69  1  0.13411300  0.90984000  0.11252400  1
  O  O70  1  0.53156200  0.61362000  0.87212100  1
  O  O71  1  0.61362000  0.53156200  0.37212100  1
  O  O72  1  0.88590600  0.96941900  0.37187200  1
  O  O73  1  0.96941900  0.88590600  0.87187200  1
  O  O74  1  0.46880700  0.38787800  0.13030600  1
  O  O75  1  0.38787800  0.46880700  0.63030600  1
  O  O76  1  0.11309400  0.03086000  0.62802400  1
  O  O77  1  0.03086000  0.11309400  0.12802400  1
  O  O78  1  0.35758400  0.78477900  0.87515000  1
  O  O79  1  0.78477900  0.35758400  0.37515000  1
  O  O80  1  0.71553100  0.14263900  0.37511200  1
  O  O81  1  0.14263900  0.71553100  0.87511200  1
  O  O82  1  0.64371700  0.21456400  0.12651200  1
  O  O83  1  0.21456400  0.64371700  0.62651300  1
  O  O84  1  0.28421300  0.85765700  0.62482300  1
  O  O85  1  0.85765700  0.28421300  0.12482300  1
  O  O86  1  0.19848700  0.94211100  0.95881400  1
  O  O87  1  0.94211100  0.19848700  0.45881400  1
  O  O88  1  0.56008000  0.29929500  0.45882800  1
  O  O89  1  0.29929500  0.56008000  0.95882800  1
  O  O90  1  0.80182900  0.05809200  0.04119300  1
  O  O91  1  0.05809200  0.80182900  0.54119300  1
  O  O92  1  0.44263600  0.69840500  0.54112300  1
  O  O93  1  0.69840500  0.44263600  0.04112300  1
  O  O94  1  0.84641800  0.35318300  0.87825700  1
  O  O95  1  0.35318300  0.84641800  0.37825700  1
  O  O96  1  0.14593500  0.65934000  0.37877300  1
  O  O97  1  0.65934000  0.14593500  0.87877300  1
  O  O98  1  0.15477100  0.64756300  0.12099100  1
  O  O99  1  0.64756300  0.15477100  0.62099100  1
  O  O100  1  0.85258000  0.34482000  0.62251700  1
  O  O101  1  0.34482000  0.85258000  0.12251700  1
  O  O102  1  0.47195700  0.72273400  0.00457200  1
  O  O103  1  0.72273400  0.47195700  0.50457200  1
  O  O104  1  0.77731200  0.02777900  0.50485700  1
  O  O105  1  0.02777900  0.77731200  0.00485700  1
  O  O106  1  0.53143200  0.28133800  0.99768200  1
  O  O107  1  0.28133800  0.53143200  0.49768200  1
  O  O108  1  0.22221900  0.97136700  0.49515200  1
  O  O109  1  0.97136700  0.22221900  0.99515200  1
  O  O110  1  0.72168400  0.47927600  0.75400700  1
  O  O111  1  0.47927600  0.72168400  0.25400700  1
  O  O112  1  0.02044700  0.78025100  0.25412000  1
  O  O113  1  0.78025100  0.02044700  0.75412000  1
  O  O114  1  0.28096400  0.52260000  0.24285900  1
  O  O115  1  0.52260000  0.28096400  0.74285900  1
  O  O116  1  0.97786300  0.22103300  0.74606000  1
  O  O117  1  0.22103300  0.97786300  0.24606000  1
  O  O118  1  0.19404800  0.94508700  0.78674900  1
  O  O119  1  0.94508700  0.19404800  0.28674900  1
  O  O120  1  0.55679600  0.30408900  0.28583000  1
  O  O121  1  0.30408900  0.55679600  0.78583000  1
  O  O122  1  0.80625100  0.05464200  0.21343600  1
  O  O123  1  0.05464200  0.80625100  0.71343600  1
  O  O124  1  0.44501800  0.69407700  0.71312400  1
  O  O125  1  0.69407700  0.44501800  0.21312400  1
  O  O126  1  0.08894800  0.09925000  0.87447700  1
  O  O127  1  0.09925000  0.08894800  0.37447700  1
  O  O128  1  0.40551400  0.41141800  0.37514800  1
  O  O129  1  0.41141800  0.40551400  0.87514800  1
  O  O130  1  0.91082600  0.90014300  0.12535900  1
  O  O131  1  0.90014300  0.91082600  0.62535900  1
  O  O132  1  0.60036600  0.58943000  0.62551400  1
  O  O133  1  0.58943000  0.60036600  0.12551400  1
