# generated using pymatgen
data_NaCa10(PO4)7
_symmetry_space_group_name_H-M   'P 1'
_cell_length_a   13.93192178
_cell_length_b   13.93192178
_cell_length_c   13.93192172
_cell_angle_alpha   44.53057249
_cell_angle_beta   44.53057249
_cell_angle_gamma   44.53057302
_symmetry_Int_Tables_number   1
_chemical_formula_structural   NaCa10(PO4)7
_chemical_formula_sum   'Na2 Ca20 P14 O56'
_cell_volume   1209.27566372
_cell_formula_units_Z   2
loop_
 _symmetry_equiv_pos_site_id
 _symmetry_equiv_pos_as_xyz
  1  'x, y, z'
loop_
 _atom_site_type_symbol
 _atom_site_label
 _atom_site_symmetry_multiplicity
 _atom_site_fract_x
 _atom_site_fract_y
 _atom_site_fract_z
 _atom_site_occupancy
  Na  Na0  1  0.66984000  0.66984000  0.66984000  1
  Na  Na1  1  0.18486700  0.18486700  0.18486700  1
  Ca  Ca2  1  0.94703800  0.96962700  0.56044000  1
  Ca  Ca3  1  0.56044000  0.94703800  0.96962700  1
  Ca  Ca4  1  0.96962700  0.56044000  0.94703800  1
  Ca  Ca5  1  0.06089100  0.47045500  0.44714900  1
  Ca  Ca6  1  0.44714900  0.06089100  0.47045500  1
  Ca  Ca7  1  0.47045500  0.44714900  0.06089100  1
  Ca  Ca8  1  0.65772200  0.06554600  0.07319200  1
  Ca  Ca9  1  0.07319200  0.65772200  0.06554600  1
  Ca  Ca10  1  0.06554600  0.07319200  0.65772200  1
  Ca  Ca11  1  0.57377700  0.56574200  0.15720900  1
  Ca  Ca12  1  0.15720900  0.57377700  0.56574200  1
  Ca  Ca13  1  0.56574200  0.15720900  0.57377700  1
  Ca  Ca14  1  0.50086900  0.50086900  0.50086900  1
  Ca  Ca15  1  0.00114700  0.00114700  0.00114700  1
  Ca  Ca16  1  0.35039500  0.93938800  0.90825300  1
  Ca  Ca17  1  0.90825300  0.35039500  0.93938800  1
  Ca  Ca18  1  0.93938800  0.90825300  0.35039500  1
  Ca  Ca19  1  0.40847000  0.43960300  0.84909400  1
  Ca  Ca20  1  0.84909400  0.40847000  0.43960300  1
  Ca  Ca21  1  0.43960300  0.84909400  0.40847000  1
  P  P22  1  0.76732800  0.76732800  0.76732800  1
  P  P23  1  0.26764200  0.26764200  0.26764200  1
  P  P24  1  0.32552400  0.81005000  0.76822900  1
  P  P25  1  0.76822900  0.32552400  0.81005000  1
  P  P26  1  0.81005000  0.76822900  0.32552400  1
  P  P27  1  0.26816800  0.30917600  0.82669000  1
  P  P28  1  0.82669000  0.26816800  0.30917600  1
  P  P29  1  0.30917600  0.82669000  0.26816800  1
  P  P30  1  0.18589900  0.72755100  0.68559900  1
  P  P31  1  0.68559900  0.18589900  0.72755100  1
  P  P32  1  0.72755100  0.68559900  0.18589900  1
  P  P33  1  0.18558500  0.22749800  0.68589600  1
  P  P34  1  0.68589600  0.18558500  0.22749800  1
  P  P35  1  0.22749800  0.68589600  0.18558500  1
  O  O36  1  0.34074600  0.89483900  0.60485000  1
  O  O37  1  0.60485000  0.34074600  0.89483900  1
  O  O38  1  0.89483900  0.60485000  0.34074600  1
  O  O39  1  0.10503500  0.39484400  0.84077100  1
  O  O40  1  0.84077100  0.10503500  0.39484400  1
  O  O41  1  0.39484400  0.84077100  0.10503500  1
  O  O42  1  0.40933400  0.85464700  0.75743800  1
  O  O43  1  0.75743800  0.40933400  0.85464700  1
  O  O44  1  0.85464700  0.75743800  0.40933400  1
  O  O45  1  0.25786400  0.35443400  0.90972400  1
  O  O46  1  0.90972400  0.25786400  0.35443400  1
  O  O47  1  0.35443400  0.90972400  0.25786400  1
  O  O48  1  0.36123800  0.64454500  0.62410600  1
  O  O49  1  0.62410600  0.36123800  0.64454500  1
  O  O50  1  0.64454500  0.62410600  0.36123800  1
  O  O51  1  0.12409100  0.14443700  0.86107400  1
  O  O52  1  0.86107400  0.12409100  0.14443700  1
  O  O53  1  0.14443700  0.86107400  0.12409100  1
  O  O54  1  0.39040700  0.63679300  0.83767600  1
  O  O55  1  0.83767600  0.39040700  0.63679300  1
  O  O56  1  0.63679300  0.83767600  0.39040700  1
  O  O57  1  0.33901200  0.13644700  0.88896700  1
  O  O58  1  0.88896700  0.33901200  0.13644700  1
  O  O59  1  0.13644700  0.88896700  0.33901200  1
  O  O60  1  0.14327300  0.89930200  0.59205500  1
  O  O61  1  0.59205500  0.14327300  0.89930200  1
  O  O62  1  0.89930200  0.59205500  0.14327300  1
  O  O63  1  0.09218400  0.39914100  0.64303500  1
  O  O64  1  0.64303500  0.09218400  0.39914100  1
  O  O65  1  0.39914100  0.64303500  0.09218400  1
  O  O66  1  0.76278200  0.61008300  0.89056900  1
  O  O67  1  0.89056900  0.76278200  0.61008300  1
  O  O68  1  0.61008300  0.89056900  0.76278200  1
  O  O69  1  0.38958700  0.11054100  0.26234100  1
  O  O70  1  0.26234100  0.38958700  0.11054100  1
  O  O71  1  0.11054100  0.26234100  0.38958700  1
  O  O72  1  0.80882000  0.80882000  0.80882000  1
  O  O73  1  0.30899400  0.30899400  0.30899400  1
  O  O74  1  0.12247200  0.67311900  0.85611400  1
  O  O75  1  0.85611400  0.12247200  0.67311900  1
  O  O76  1  0.67311900  0.85611400  0.12247200  1
  O  O77  1  0.35615300  0.17300100  0.62210000  1
  O  O78  1  0.62210000  0.35615300  0.17300100  1
  O  O79  1  0.17300100  0.62210000  0.35615300  1
  O  O80  1  0.15117200  0.87007400  0.86470400  1
  O  O81  1  0.86470400  0.15117200  0.87007400  1
  O  O82  1  0.87007400  0.86470400  0.15117200  1
  O  O83  1  0.36430000  0.37024000  0.65184400  1
  O  O84  1  0.65184400  0.36430000  0.37024000  1
  O  O85  1  0.37024000  0.65184400  0.36430000  1
  O  O86  1  0.12250800  0.68822700  0.66597800  1
  O  O87  1  0.66597800  0.12250800  0.68822700  1
  O  O88  1  0.68822700  0.66597800  0.12250800  1
  O  O89  1  0.16591700  0.18822200  0.62227900  1
  O  O90  1  0.62227900  0.16591700  0.18822200  1
  O  O91  1  0.18822200  0.62227900  0.16591700  1
