# generated using pymatgen
data_Ba(ClO4)2
_symmetry_space_group_name_H-M   'P 1'
_cell_length_a   9.44472160
_cell_length_b   8.26928819
_cell_length_c   6.96373593
_cell_angle_alpha   76.09751513
_cell_angle_beta   58.20055603
_cell_angle_gamma   45.70192884
_symmetry_Int_Tables_number   1
_chemical_formula_structural   Ba(ClO4)2
_chemical_formula_sum   'Ba2 Cl4 O16'
_cell_volume   323.45401780
_cell_formula_units_Z   2
loop_
 _symmetry_equiv_pos_site_id
 _symmetry_equiv_pos_as_xyz
  1  'x, y, z'
loop_
 _atom_site_type_symbol
 _atom_site_label
 _atom_site_symmetry_multiplicity
 _atom_site_fract_x
 _atom_site_fract_y
 _atom_site_fract_z
 _atom_site_occupancy
  Ba  Ba0  1  0.25000000  0.25000000  0.25000000  1
  Ba  Ba1  1  0.00000000  0.00000000  0.00000000  1
  Cl  Cl2  1  0.94581600  0.55418400  0.94581600  1
  Cl  Cl3  1  0.55418400  0.94581600  0.55418400  1
  Cl  Cl4  1  0.30418400  0.69581600  0.30418400  1
  Cl  Cl5  1  0.69581600  0.30418400  0.69581600  1
  O  O6  1  0.97621800  0.36704100  0.06658000  1
  O  O7  1  0.36704100  0.97621800  0.59016100  1
  O  O8  1  0.06658000  0.59016100  0.97621800  1
  O  O9  1  0.59016100  0.06658000  0.36704100  1
  O  O10  1  0.27378200  0.88295900  0.18342000  1
  O  O11  1  0.88295900  0.27378200  0.65983900  1
  O  O12  1  0.18342000  0.65983900  0.27378200  1
  O  O13  1  0.65983900  0.18342000  0.88295900  1
  O  O14  1  0.04849000  0.48521600  0.70388100  1
  O  O15  1  0.48521600  0.04849000  0.76241300  1
  O  O16  1  0.70388100  0.76241200  0.04849000  1
  O  O17  1  0.76241300  0.70388100  0.48521600  1
  O  O18  1  0.20151000  0.76478400  0.54611900  1
  O  O19  1  0.76478400  0.20151000  0.48758700  1
  O  O20  1  0.54611900  0.48758800  0.20151000  1
  O  O21  1  0.48758800  0.54611900  0.76478400  1
