# generated using pymatgen
data_Tb2SO2
_symmetry_space_group_name_H-M   'P 1'
_cell_length_a   3.83263005
_cell_length_b   3.83263005
_cell_length_c   6.64590500
_cell_angle_alpha   90.00000000
_cell_angle_beta   90.00000000
_cell_angle_gamma   120.00000085
_symmetry_Int_Tables_number   1
_chemical_formula_structural   Tb2SO2
_chemical_formula_sum   'Tb2 S1 O2'
_cell_volume   84.54317576
_cell_formula_units_Z   1
loop_
 _symmetry_equiv_pos_site_id
 _symmetry_equiv_pos_as_xyz
  1  'x, y, z'
loop_
 _atom_site_type_symbol
 _atom_site_label
 _atom_site_symmetry_multiplicity
 _atom_site_fract_x
 _atom_site_fract_y
 _atom_site_fract_z
 _atom_site_occupancy
  Tb  Tb0  1  0.66666700  0.33333300  0.71785200  1
  Tb  Tb1  1  0.33333300  0.66666700  0.28214800  1
  S  S2  1  0.00000000  0.00000000  0.00000000  1
  O  O3  1  0.66666700  0.33333300  0.37058200  1
  O  O4  1  0.33333300  0.66666700  0.62941800  1
