# generated using pymatgen
data_V2PO5
_symmetry_space_group_name_H-M   'P 1'
_cell_length_a   5.47400718
_cell_length_b   5.47400668
_cell_length_c   7.38890595
_cell_angle_alpha   111.74156791
_cell_angle_beta   111.74156383
_cell_angle_gamma   89.99999497
_symmetry_Int_Tables_number   1
_chemical_formula_structural   V2PO5
_chemical_formula_sum   'V4 P2 O10'
_cell_volume   188.59604660
_cell_formula_units_Z   2
loop_
 _symmetry_equiv_pos_site_id
 _symmetry_equiv_pos_as_xyz
  1  'x, y, z'
loop_
 _atom_site_type_symbol
 _atom_site_label
 _atom_site_symmetry_multiplicity
 _atom_site_fract_x
 _atom_site_fract_y
 _atom_site_fract_z
 _atom_site_occupancy
  V  V0  1  0.00000000  0.50000000  0.50000000  1
  V  V1  1  0.50000000  0.00000000  0.00000000  1
  V  V2  1  0.50000000  0.50000000  0.00000000  1
  V  V3  1  0.50000000  0.50000000  0.50000000  1
  P  P4  1  0.87500000  0.12500000  0.75000000  1
  P  P5  1  0.12500000  0.87500000  0.25000000  1
  O  O6  1  0.37500000  0.62500000  0.75000000  1
  O  O7  1  0.62500000  0.37500000  0.25000000  1
  O  O8  1  0.19189700  0.70481100  0.38379400  1
  O  O9  1  0.82101600  0.80810300  0.11620600  1
  O  O10  1  0.29518900  0.80810300  0.11620600  1
  O  O11  1  0.80810300  0.29518900  0.61620600  1
  O  O12  1  0.19189700  0.17898400  0.38379400  1
  O  O13  1  0.70481100  0.19189700  0.88379400  1
  O  O14  1  0.17898400  0.19189700  0.88379400  1
  O  O15  1  0.80810300  0.82101600  0.61620600  1
