# generated using pymatgen
data_YCu
_symmetry_space_group_name_H-M   'P 1'
_cell_length_a   4.44800000
_cell_length_b   5.41755200
_cell_length_c   7.20772700
_cell_angle_alpha   90.00000000
_cell_angle_beta   90.00000000
_cell_angle_gamma   90.00000000
_symmetry_Int_Tables_number   1
_chemical_formula_structural   YCu
_chemical_formula_sum   'Y4 Cu4'
_cell_volume   173.68655295
_cell_formula_units_Z   4
loop_
 _symmetry_equiv_pos_site_id
 _symmetry_equiv_pos_as_xyz
  1  'x, y, z'
loop_
 _atom_site_type_symbol
 _atom_site_label
 _atom_site_symmetry_multiplicity
 _atom_site_fract_x
 _atom_site_fract_y
 _atom_site_fract_z
 _atom_site_occupancy
  Y  Y0  1  0.25000000  0.36675300  0.68114400  1
  Y  Y1  1  0.25000000  0.13324700  0.18114400  1
  Y  Y2  1  0.75000000  0.63324700  0.31885600  1
  Y  Y3  1  0.75000000  0.86675300  0.81885600  1
  Cu  Cu4  1  0.25000000  0.87592300  0.53201100  1
  Cu  Cu5  1  0.25000000  0.62407700  0.03201100  1
  Cu  Cu6  1  0.75000000  0.12407700  0.46798900  1
  Cu  Cu7  1  0.75000000  0.37592300  0.96798900  1
