# generated using pymatgen
data_TbCuSn
_symmetry_space_group_name_H-M   'P 1'
_cell_length_a   4.55252089
_cell_length_b   4.55252089
_cell_length_c   7.33240000
_cell_angle_alpha   90.00000000
_cell_angle_beta   90.00000000
_cell_angle_gamma   120.00001295
_symmetry_Int_Tables_number   1
_chemical_formula_structural   TbCuSn
_chemical_formula_sum   'Tb2 Cu2 Sn2'
_cell_volume   131.60749369
_cell_formula_units_Z   2
loop_
 _symmetry_equiv_pos_site_id
 _symmetry_equiv_pos_as_xyz
  1  'x, y, z'
loop_
 _atom_site_type_symbol
 _atom_site_label
 _atom_site_symmetry_multiplicity
 _atom_site_fract_x
 _atom_site_fract_y
 _atom_site_fract_z
 _atom_site_occupancy
  Tb  Tb0  1  0.00000000  0.00000000  0.03321800  1
  Tb  Tb1  1  0.00000000  0.00000000  0.53321800  1
  Cu  Cu2  1  0.66666700  0.33333300  0.71895400  1
  Cu  Cu3  1  0.33333300  0.66666700  0.21895400  1
  Sn  Sn4  1  0.66666700  0.33333300  0.30282800  1
  Sn  Sn5  1  0.33333300  0.66666700  0.80282800  1
