# generated using pymatgen
data_PrPIr
_symmetry_space_group_name_H-M   'P 1'
_cell_length_a   7.71949205
_cell_length_b   7.71949205
_cell_length_c   7.71949205
_cell_angle_alpha   148.87437891
_cell_angle_beta   148.87437891
_cell_angle_gamma   44.59624682
_symmetry_Int_Tables_number   1
_chemical_formula_structural   PrPIr
_chemical_formula_sum   'Pr2 P2 Ir2'
_cell_volume   122.54512343
_cell_formula_units_Z   2
loop_
 _symmetry_equiv_pos_site_id
 _symmetry_equiv_pos_as_xyz
  1  'x, y, z'
loop_
 _atom_site_type_symbol
 _atom_site_label
 _atom_site_symmetry_multiplicity
 _atom_site_fract_x
 _atom_site_fract_y
 _atom_site_fract_z
 _atom_site_occupancy
  Pr  Pr0  1  0.75106400  0.75106400  0.00000000  1
  Pr  Pr1  1  0.50106400  0.00106400  0.50000000  1
  P  P2  1  0.32966800  0.32966800  0.00000000  1
  P  P3  1  0.07966800  0.57966800  0.50000000  1
  Ir  Ir4  1  0.91228800  0.41228800  0.50000000  1
  Ir  Ir5  1  0.16228800  0.16228800  0.00000000  1
