# generated using pymatgen
data_ScGePt
_symmetry_space_group_name_H-M   'P 1'
_cell_length_a   4.25745300
_cell_length_b   6.65504800
_cell_length_c   7.50221100
_cell_angle_alpha   90.00000000
_cell_angle_beta   90.00000000
_cell_angle_gamma   90.00000000
_symmetry_Int_Tables_number   1
_chemical_formula_structural   ScGePt
_chemical_formula_sum   'Sc4 Ge4 Pt4'
_cell_volume   212.56430103
_cell_formula_units_Z   4
loop_
 _symmetry_equiv_pos_site_id
 _symmetry_equiv_pos_as_xyz
  1  'x, y, z'
loop_
 _atom_site_type_symbol
 _atom_site_label
 _atom_site_symmetry_multiplicity
 _atom_site_fract_x
 _atom_site_fract_y
 _atom_site_fract_z
 _atom_site_occupancy
  Sc  Sc0  1  0.25000000  0.99891200  0.29602700  1
  Sc  Sc1  1  0.25000000  0.49891200  0.20397300  1
  Sc  Sc2  1  0.75000000  0.00108800  0.70397300  1
  Sc  Sc3  1  0.75000000  0.50108800  0.79602700  1
  Ge  Ge4  1  0.25000000  0.30261000  0.59286300  1
  Ge  Ge5  1  0.25000000  0.80261000  0.90713700  1
  Ge  Ge6  1  0.75000000  0.69739000  0.40713700  1
  Ge  Ge7  1  0.75000000  0.19739000  0.09286300  1
  Pt  Pt8  1  0.25000000  0.20516900  0.91725300  1
  Pt  Pt9  1  0.25000000  0.70516900  0.58274700  1
  Pt  Pt10  1  0.75000000  0.79483100  0.08274700  1
  Pt  Pt11  1  0.75000000  0.29483100  0.41725300  1
