# generated using pymatgen
data_Cs3Er2I9
_symmetry_space_group_name_H-M   'P 1'
_cell_length_a   8.71373983
_cell_length_b   8.71373983
_cell_length_c   21.70686800
_cell_angle_alpha   90.00000000
_cell_angle_beta   90.00000000
_cell_angle_gamma   119.99999867
_symmetry_Int_Tables_number   1
_chemical_formula_structural   Cs3Er2I9
_chemical_formula_sum   'Cs6 Er4 I18'
_cell_volume   1427.37136529
_cell_formula_units_Z   2
loop_
 _symmetry_equiv_pos_site_id
 _symmetry_equiv_pos_as_xyz
  1  'x, y, z'
loop_
 _atom_site_type_symbol
 _atom_site_label
 _atom_site_symmetry_multiplicity
 _atom_site_fract_x
 _atom_site_fract_y
 _atom_site_fract_z
 _atom_site_occupancy
  Cs  Cs0  1  0.33333300  0.66666700  0.43044200  1
  Cs  Cs1  1  0.66666700  0.33333300  0.56955800  1
  Cs  Cs2  1  0.66666700  0.33333300  0.93044200  1
  Cs  Cs3  1  0.33333300  0.66666700  0.06955800  1
  Cs  Cs4  1  0.00000000  0.00000000  0.25000000  1
  Cs  Cs5  1  0.00000000  0.00000000  0.75000000  1
  Er  Er6  1  0.66666700  0.33333300  0.34356300  1
  Er  Er7  1  0.33333300  0.66666700  0.65643700  1
  Er  Er8  1  0.33333300  0.66666700  0.84356300  1
  Er  Er9  1  0.66666700  0.33333300  0.15643700  1
  I  I10  1  0.83228700  0.66457400  0.41285000  1
  I  I11  1  0.33542600  0.16771300  0.41285000  1
  I  I12  1  0.83228700  0.16771300  0.41285000  1
  I  I13  1  0.16771300  0.33542600  0.58715000  1
  I  I14  1  0.66457400  0.83228700  0.58715000  1
  I  I15  1  0.16771300  0.83228700  0.58715000  1
  I  I16  1  0.16771300  0.33542600  0.91285000  1
  I  I17  1  0.66457400  0.83228700  0.91285000  1
  I  I18  1  0.16771300  0.83228700  0.91285000  1
  I  I19  1  0.83228700  0.66457400  0.08715000  1
  I  I20  1  0.33542600  0.16771300  0.08715000  1
  I  I21  1  0.83228700  0.16771300  0.08715000  1
  I  I22  1  0.50867900  0.01735700  0.25000000  1
  I  I23  1  0.98264300  0.49132100  0.25000000  1
  I  I24  1  0.50867900  0.49132100  0.25000000  1
  I  I25  1  0.49132100  0.98264300  0.75000000  1
  I  I26  1  0.01735700  0.50867900  0.75000000  1
  I  I27  1  0.49132100  0.50867900  0.75000000  1
