# generated using pymatgen
data_Sm(ErS2)3
_symmetry_space_group_name_H-M   'P 1'
_cell_length_a   3.94832500
_cell_length_b   10.99931100
_cell_length_c   11.26554663
_cell_angle_alpha   71.21301837
_cell_angle_beta   90.00000000
_cell_angle_gamma   90.00000000
_symmetry_Int_Tables_number   1
_chemical_formula_structural   Sm(ErS2)3
_chemical_formula_sum   'Sm2 Er6 S12'
_cell_volume   463.18376074
_cell_formula_units_Z   2
loop_
 _symmetry_equiv_pos_site_id
 _symmetry_equiv_pos_as_xyz
  1  'x, y, z'
loop_
 _atom_site_type_symbol
 _atom_site_label
 _atom_site_symmetry_multiplicity
 _atom_site_fract_x
 _atom_site_fract_y
 _atom_site_fract_z
 _atom_site_occupancy
  Sm  Sm0  1  0.25000000  0.45283600  0.19347300  1
  Sm  Sm1  1  0.75000000  0.54716400  0.80652700  1
  Er  Er2  1  0.25000000  0.33919900  0.58570100  1
  Er  Er3  1  0.75000000  0.66080100  0.41429900  1
  Er  Er4  1  0.25000000  0.81899300  0.00213900  1
  Er  Er5  1  0.75000000  0.18100700  0.99786100  1
  Er  Er6  1  0.25000000  0.06209300  0.33232700  1
  Er  Er7  1  0.75000000  0.93790700  0.66767300  1
  S  S8  1  0.25000000  0.69501600  0.25100500  1
  S  S9  1  0.75000000  0.30498400  0.74899500  1
  S  S10  1  0.25000000  0.58207600  0.59529700  1
  S  S11  1  0.75000000  0.41792400  0.40470300  1
  S  S12  1  0.25000000  0.38422600  0.96330300  1
  S  S13  1  0.75000000  0.61577400  0.03669700  1
  S  S14  1  0.25000000  0.02247800  0.11200300  1
  S  S15  1  0.75000000  0.97752200  0.88799700  1
  S  S16  1  0.75000000  0.89597300  0.43946100  1
  S  S17  1  0.25000000  0.10402700  0.56053900  1
  S  S18  1  0.75000000  0.23881500  0.22623100  1
  S  S19  1  0.25000000  0.76118500  0.77376900  1
