# generated using pymatgen
data_NdSiIr
_symmetry_space_group_name_H-M   'P 1'
_cell_length_a   6.36526600
_cell_length_b   6.36526600
_cell_length_c   6.36526600
_cell_angle_alpha   90.00000000
_cell_angle_beta   90.00000000
_cell_angle_gamma   90.00000000
_symmetry_Int_Tables_number   1
_chemical_formula_structural   NdSiIr
_chemical_formula_sum   'Nd4 Si4 Ir4'
_cell_volume   257.89900803
_cell_formula_units_Z   4
loop_
 _symmetry_equiv_pos_site_id
 _symmetry_equiv_pos_as_xyz
  1  'x, y, z'
loop_
 _atom_site_type_symbol
 _atom_site_label
 _atom_site_symmetry_multiplicity
 _atom_site_fract_x
 _atom_site_fract_y
 _atom_site_fract_z
 _atom_site_occupancy
  Nd  Nd0  1  0.86804800  0.86804800  0.86804800  1
  Nd  Nd1  1  0.63195200  0.13195200  0.36804800  1
  Nd  Nd2  1  0.13195200  0.36804800  0.63195200  1
  Nd  Nd3  1  0.36804800  0.63195200  0.13195200  1
  Si  Si4  1  0.58371900  0.58371900  0.58371900  1
  Si  Si5  1  0.91628100  0.41628100  0.08371900  1
  Si  Si6  1  0.41628100  0.08371900  0.91628100  1
  Si  Si7  1  0.08371900  0.91628100  0.41628100  1
  Ir  Ir8  1  0.18200600  0.18200600  0.18200600  1
  Ir  Ir9  1  0.31799400  0.81799400  0.68200600  1
  Ir  Ir10  1  0.81799400  0.68200600  0.31799400  1
  Ir  Ir11  1  0.68200600  0.31799400  0.81799400  1
