# generated using pymatgen
data_Sr2ZnSi2O7
_symmetry_space_group_name_H-M   'P 1'
_cell_length_a   8.09770100
_cell_length_b   8.09770100
_cell_length_c   5.24027700
_cell_angle_alpha   90.00000000
_cell_angle_beta   90.00000000
_cell_angle_gamma   90.00000000
_symmetry_Int_Tables_number   1
_chemical_formula_structural   Sr2ZnSi2O7
_chemical_formula_sum   'Sr4 Zn2 Si4 O14'
_cell_volume   343.61943384
_cell_formula_units_Z   2
loop_
 _symmetry_equiv_pos_site_id
 _symmetry_equiv_pos_as_xyz
  1  'x, y, z'
loop_
 _atom_site_type_symbol
 _atom_site_label
 _atom_site_symmetry_multiplicity
 _atom_site_fract_x
 _atom_site_fract_y
 _atom_site_fract_z
 _atom_site_occupancy
  Sr  Sr0  1  0.33378000  0.83378000  0.50701900  1
  Sr  Sr1  1  0.16622000  0.33378000  0.49298100  1
  Sr  Sr2  1  0.66622000  0.16622000  0.50701900  1
  Sr  Sr3  1  0.83378000  0.66622000  0.49298100  1
  Zn  Zn4  1  0.50000000  0.50000000  0.00000000  1
  Zn  Zn5  1  0.00000000  0.00000000  0.00000000  1
  Si  Si6  1  0.13852800  0.63852800  0.94939900  1
  Si  Si7  1  0.36147200  0.13852800  0.05060100  1
  Si  Si8  1  0.86147200  0.36147200  0.94939900  1
  Si  Si9  1  0.63852800  0.86147200  0.05060100  1
  O  O10  1  0.50000000  0.00000000  0.15839800  1
  O  O11  1  0.00000000  0.50000000  0.84160200  1
  O  O12  1  0.14028700  0.64028700  0.25817700  1
  O  O13  1  0.35971300  0.14028700  0.74182300  1
  O  O14  1  0.85971300  0.35971300  0.25817700  1
  O  O15  1  0.64028700  0.85971300  0.74182300  1
  O  O16  1  0.30887400  0.57982700  0.80209700  1
  O  O17  1  0.19112600  0.07982700  0.19790300  1
  O  O18  1  0.69112600  0.42017300  0.80209700  1
  O  O19  1  0.80887400  0.92017300  0.19790300  1
  O  O20  1  0.57982700  0.69112600  0.19790300  1
  O  O21  1  0.92017300  0.19112600  0.80209700  1
  O  O22  1  0.42017300  0.30887400  0.19790300  1
  O  O23  1  0.07982700  0.80887400  0.80209700  1
