# generated using pymatgen
data_Sc4FeCl5
_symmetry_space_group_name_H-M   'P 1'
_cell_length_a   10.73115400
_cell_length_b   10.73115400
_cell_length_c   15.51487100
_cell_angle_alpha   90.00000000
_cell_angle_beta   90.00000000
_cell_angle_gamma   90.00000000
_symmetry_Int_Tables_number   1
_chemical_formula_structural   Sc4FeCl5
_chemical_formula_sum   'Sc32 Fe8 Cl40'
_cell_volume   1786.65633532
_cell_formula_units_Z   8
loop_
 _symmetry_equiv_pos_site_id
 _symmetry_equiv_pos_as_xyz
  1  'x, y, z'
loop_
 _atom_site_type_symbol
 _atom_site_label
 _atom_site_symmetry_multiplicity
 _atom_site_fract_x
 _atom_site_fract_y
 _atom_site_fract_z
 _atom_site_occupancy
  Sc  Sc0  1  0.36636300  0.63363700  0.09513700  1
  Sc  Sc1  1  0.86636300  0.86636300  0.59513700  1
  Sc  Sc2  1  0.13363700  0.13363700  0.59513700  1
  Sc  Sc3  1  0.63363700  0.36636300  0.09513700  1
  Sc  Sc4  1  0.13363700  0.86636300  0.40486300  1
  Sc  Sc5  1  0.63363700  0.63363700  0.90486300  1
  Sc  Sc6  1  0.36636300  0.36636300  0.90486300  1
  Sc  Sc7  1  0.86636300  0.13363700  0.40486300  1
  Sc  Sc8  1  0.38374800  0.17347600  0.07690900  1
  Sc  Sc9  1  0.88374800  0.32652400  0.57690900  1
  Sc  Sc10  1  0.11625200  0.67347600  0.57690900  1
  Sc  Sc11  1  0.61625200  0.82652400  0.07690900  1
  Sc  Sc12  1  0.11625200  0.32652400  0.42309100  1
  Sc  Sc13  1  0.61625200  0.17347600  0.92309100  1
  Sc  Sc14  1  0.38374800  0.82652400  0.92309100  1
  Sc  Sc15  1  0.88374800  0.67347600  0.42309100  1
  Sc  Sc16  1  0.17347600  0.38374800  0.07690900  1
  Sc  Sc17  1  0.32652400  0.88374800  0.57690900  1
  Sc  Sc18  1  0.67347600  0.11625200  0.57690900  1
  Sc  Sc19  1  0.82652400  0.61625200  0.07690900  1
  Sc  Sc20  1  0.32652400  0.11625200  0.42309100  1
  Sc  Sc21  1  0.17347600  0.61625200  0.92309100  1
  Sc  Sc22  1  0.82652400  0.38374800  0.92309100  1
  Sc  Sc23  1  0.67347600  0.88374800  0.42309100  1
  Sc  Sc24  1  0.38693700  0.38693700  0.22728200  1
  Sc  Sc25  1  0.88693700  0.11306300  0.72728200  1
  Sc  Sc26  1  0.11306300  0.88693700  0.72728200  1
  Sc  Sc27  1  0.61306300  0.61306300  0.22728200  1
  Sc  Sc28  1  0.11306300  0.11306300  0.27271800  1
  Sc  Sc29  1  0.61306300  0.38693700  0.77271800  1
  Sc  Sc30  1  0.38693700  0.61306300  0.77271800  1
  Sc  Sc31  1  0.88693700  0.88693700  0.27271800  1
  Fe  Fe32  1  0.39972600  0.39972600  0.06868800  1
  Fe  Fe33  1  0.89972600  0.10027400  0.56868800  1
  Fe  Fe34  1  0.10027400  0.89972600  0.56868800  1
  Fe  Fe35  1  0.60027400  0.60027400  0.06868800  1
  Fe  Fe36  1  0.10027400  0.10027400  0.43131200  1
  Fe  Fe37  1  0.60027400  0.39972600  0.93131200  1
  Fe  Fe38  1  0.39972600  0.60027400  0.93131200  1
  Fe  Fe39  1  0.89972600  0.89972600  0.43131200  1
  Cl  Cl40  1  0.36515900  0.13484100  0.25000000  1
  Cl  Cl41  1  0.86515900  0.36515900  0.75000000  1
  Cl  Cl42  1  0.13484100  0.63484100  0.75000000  1
  Cl  Cl43  1  0.63484100  0.86515900  0.25000000  1
  Cl  Cl44  1  0.13484100  0.36515900  0.25000000  1
  Cl  Cl45  1  0.63484100  0.13484100  0.75000000  1
  Cl  Cl46  1  0.36515900  0.86515900  0.75000000  1
  Cl  Cl47  1  0.86515900  0.63484100  0.25000000  1
  Cl  Cl48  1  0.14512000  0.14512000  0.08890700  1
  Cl  Cl49  1  0.64512000  0.35488000  0.58890700  1
  Cl  Cl50  1  0.35488000  0.64512000  0.58890700  1
  Cl  Cl51  1  0.85488000  0.85488000  0.08890700  1
  Cl  Cl52  1  0.35488000  0.35488000  0.41109300  1
  Cl  Cl53  1  0.85488000  0.14512000  0.91109300  1
  Cl  Cl54  1  0.14512000  0.85488000  0.91109300  1
  Cl  Cl55  1  0.64512000  0.64512000  0.41109300  1
  Cl  Cl56  1  0.12212400  0.87787600  0.23171800  1
  Cl  Cl57  1  0.62212400  0.62212400  0.73171800  1
  Cl  Cl58  1  0.37787600  0.37787600  0.73171800  1
  Cl  Cl59  1  0.87787600  0.12212400  0.23171800  1
  Cl  Cl60  1  0.37787600  0.62212400  0.26828200  1
  Cl  Cl61  1  0.87787600  0.87787600  0.76828200  1
  Cl  Cl62  1  0.12212400  0.12212400  0.76828200  1
  Cl  Cl63  1  0.62212400  0.37787600  0.26828200  1
  Cl  Cl64  1  0.38025500  0.89524900  0.08562300  1
  Cl  Cl65  1  0.88025500  0.60475100  0.58562300  1
  Cl  Cl66  1  0.11974500  0.39524900  0.58562300  1
  Cl  Cl67  1  0.61974500  0.10475100  0.08562300  1
  Cl  Cl68  1  0.11974500  0.60475100  0.41437700  1
  Cl  Cl69  1  0.61974500  0.89524900  0.91437700  1
  Cl  Cl70  1  0.38025500  0.10475100  0.91437700  1
  Cl  Cl71  1  0.88025500  0.39524900  0.41437700  1
  Cl  Cl72  1  0.89524900  0.38025500  0.08562300  1
  Cl  Cl73  1  0.60475100  0.88025500  0.58562300  1
  Cl  Cl74  1  0.39524900  0.11974500  0.58562300  1
  Cl  Cl75  1  0.10475100  0.61974500  0.08562300  1
  Cl  Cl76  1  0.60475100  0.11974500  0.41437700  1
  Cl  Cl77  1  0.89524900  0.61974500  0.91437700  1
  Cl  Cl78  1  0.10475100  0.38025500  0.91437700  1
  Cl  Cl79  1  0.39524900  0.88025500  0.41437700  1
