# generated using pymatgen
data_Tb3Sc2S7
_symmetry_space_group_name_H-M   'P 1'
_cell_length_a   6.50977700
_cell_length_b   6.50977700
_cell_length_c   11.42063999
_cell_angle_alpha   75.72198150
_cell_angle_beta   75.72198150
_cell_angle_gamma   33.57340218
_symmetry_Int_Tables_number   1
_chemical_formula_structural   Tb3Sc2S7
_chemical_formula_sum   'Tb3 Sc2 S7'
_cell_volume   258.60759682
_cell_formula_units_Z   1
loop_
 _symmetry_equiv_pos_site_id
 _symmetry_equiv_pos_as_xyz
  1  'x, y, z'
loop_
 _atom_site_type_symbol
 _atom_site_label
 _atom_site_symmetry_multiplicity
 _atom_site_fract_x
 _atom_site_fract_y
 _atom_site_fract_z
 _atom_site_occupancy
  Tb  Tb0  1  0.30433000  0.30433000  0.79893100  1
  Tb  Tb1  1  0.69567000  0.69567000  0.20106900  1
  Tb  Tb2  1  0.00000000  0.00000000  0.00000000  1
  Sc  Sc3  1  0.11147900  0.11147900  0.57075800  1
  Sc  Sc4  1  0.88852100  0.88852100  0.42924200  1
  S  S5  1  0.26312800  0.26312800  0.36206700  1
  S  S6  1  0.73687200  0.73687200  0.63793300  1
  S  S7  1  0.66260600  0.66260600  0.94690900  1
  S  S8  1  0.33739400  0.33739400  0.05309100  1
  S  S9  1  0.96861300  0.96861300  0.77565800  1
  S  S10  1  0.03138700  0.03138700  0.22434200  1
  S  S11  1  0.50000000  0.50000000  0.50000000  1
