# generated using pymatgen
data_TaAs2
_symmetry_space_group_name_H-M   'P 1'
_cell_length_a   5.02115168
_cell_length_b   5.02115168
_cell_length_c   7.84777342
_cell_angle_alpha   62.24068545
_cell_angle_beta   62.24068545
_cell_angle_gamma   39.89398287
_symmetry_Int_Tables_number   1
_chemical_formula_structural   TaAs2
_chemical_formula_sum   'Ta2 As4'
_cell_volume   110.22745040
_cell_formula_units_Z   2
loop_
 _symmetry_equiv_pos_site_id
 _symmetry_equiv_pos_as_xyz
  1  'x, y, z'
loop_
 _atom_site_type_symbol
 _atom_site_label
 _atom_site_symmetry_multiplicity
 _atom_site_fract_x
 _atom_site_fract_y
 _atom_site_fract_z
 _atom_site_occupancy
  Ta  Ta0  1  0.84308900  0.84308900  0.19538000  1
  Ta  Ta1  1  0.15691100  0.15691100  0.80462000  1
  As  As2  1  0.14062200  0.14062200  0.47233700  1
  As  As3  1  0.85937800  0.85937800  0.52766300  1
  As  As4  1  0.59432300  0.59432300  0.10765500  1
  As  As5  1  0.40567700  0.40567700  0.89234500  1
