# generated using pymatgen
data_K2TbF5
_symmetry_space_group_name_H-M   'P 1'
_cell_length_a   6.69610100
_cell_length_b   7.32976500
_cell_length_c   11.02485900
_cell_angle_alpha   90.00000000
_cell_angle_beta   90.00000000
_cell_angle_gamma   90.00000000
_symmetry_Int_Tables_number   1
_chemical_formula_structural   K2TbF5
_chemical_formula_sum   'K8 Tb4 F20'
_cell_volume   541.10941498
_cell_formula_units_Z   4
loop_
 _symmetry_equiv_pos_site_id
 _symmetry_equiv_pos_as_xyz
  1  'x, y, z'
loop_
 _atom_site_type_symbol
 _atom_site_label
 _atom_site_symmetry_multiplicity
 _atom_site_fract_x
 _atom_site_fract_y
 _atom_site_fract_z
 _atom_site_occupancy
  K  K0  1  0.52822800  0.49744600  0.82774200  1
  K  K1  1  0.47177200  0.50255400  0.17225800  1
  K  K2  1  0.02822800  0.50255400  0.67225800  1
  K  K3  1  0.47177200  0.99744600  0.17225800  1
  K  K4  1  0.97177200  0.49744600  0.32774200  1
  K  K5  1  0.52822800  0.00255400  0.82774200  1
  K  K6  1  0.97177200  0.00255400  0.32774200  1
  K  K7  1  0.02822800  0.99744600  0.67225800  1
  Tb  Tb8  1  0.56486400  0.75000000  0.50151000  1
  Tb  Tb9  1  0.43513600  0.25000000  0.49849000  1
  Tb  Tb10  1  0.06486400  0.25000000  0.99849000  1
  Tb  Tb11  1  0.93513600  0.75000000  0.00151000  1
  F  F12  1  0.83466000  0.75000000  0.80840500  1
  F  F13  1  0.16534000  0.25000000  0.19159500  1
  F  F14  1  0.33466000  0.25000000  0.69159500  1
  F  F15  1  0.66534000  0.75000000  0.30840400  1
  F  F16  1  0.36669600  0.75000000  0.66236600  1
  F  F17  1  0.63330400  0.25000000  0.33763400  1
  F  F18  1  0.86669600  0.25000000  0.83763400  1
  F  F19  1  0.13330400  0.75000000  0.16236600  1
  F  F20  1  0.89471600  0.75000000  0.51268700  1
  F  F21  1  0.10528400  0.25000000  0.48731300  1
  F  F22  1  0.39471600  0.25000000  0.98731300  1
  F  F23  1  0.60528400  0.75000000  0.01268700  1
  F  F24  1  0.64394300  0.03348000  0.57897400  1
  F  F25  1  0.35605700  0.96652000  0.42102600  1
  F  F26  1  0.14394300  0.96652000  0.92102600  1
  F  F27  1  0.35605700  0.53348000  0.42102600  1
  F  F28  1  0.85605700  0.03348000  0.07897400  1
  F  F29  1  0.64394300  0.46652000  0.57897400  1
  F  F30  1  0.85605700  0.46652000  0.07897400  1
  F  F31  1  0.14394300  0.53348000  0.92102600  1
