# generated using pymatgen
data_EuNi5As3
_symmetry_space_group_name_H-M   'P 1'
_cell_length_a   6.38025627
_cell_length_b   6.38025627
_cell_length_c   11.85014100
_cell_angle_alpha   90.00000000
_cell_angle_beta   90.00000000
_cell_angle_gamma   145.92639765
_symmetry_Int_Tables_number   1
_chemical_formula_structural   EuNi5As3
_chemical_formula_sum   'Eu2 Ni10 As6'
_cell_volume   270.26349282
_cell_formula_units_Z   2
loop_
 _symmetry_equiv_pos_site_id
 _symmetry_equiv_pos_as_xyz
  1  'x, y, z'
loop_
 _atom_site_type_symbol
 _atom_site_label
 _atom_site_symmetry_multiplicity
 _atom_site_fract_x
 _atom_site_fract_y
 _atom_site_fract_z
 _atom_site_occupancy
  Eu  Eu0  1  0.16294100  0.83705900  0.25000000  1
  Eu  Eu1  1  0.83705900  0.16294100  0.75000000  1
  Ni  Ni2  1  0.19383000  0.80617000  0.93347500  1
  Ni  Ni3  1  0.80617000  0.19383000  0.43347500  1
  Ni  Ni4  1  0.00000000  0.00000000  0.00000000  1
  Ni  Ni5  1  0.00000000  0.00000000  0.50000000  1
  Ni  Ni6  1  0.54971600  0.45028400  0.64456800  1
  Ni  Ni7  1  0.45028400  0.54971600  0.35543200  1
  Ni  Ni8  1  0.45028400  0.54971600  0.14456800  1
  Ni  Ni9  1  0.19383000  0.80617000  0.56652500  1
  Ni  Ni10  1  0.80617000  0.19383000  0.06652500  1
  Ni  Ni11  1  0.54971600  0.45028400  0.85543200  1
  As  As12  1  0.62051700  0.37948300  0.45608300  1
  As  As13  1  0.11579800  0.88420200  0.75000000  1
  As  As14  1  0.62051700  0.37948300  0.04391700  1
  As  As15  1  0.37948300  0.62051700  0.95608300  1
  As  As16  1  0.88420200  0.11579800  0.25000000  1
  As  As17  1  0.37948300  0.62051700  0.54391700  1
