# generated using pymatgen
data_Tm2InAu2
_symmetry_space_group_name_H-M   'P 1'
_cell_length_a   7.96701600
_cell_length_b   7.96701600
_cell_length_c   3.63510700
_cell_angle_alpha   90.00000000
_cell_angle_beta   90.00000000
_cell_angle_gamma   90.00000000
_symmetry_Int_Tables_number   1
_chemical_formula_structural   Tm2InAu2
_chemical_formula_sum   'Tm4 In2 Au4'
_cell_volume   230.73239689
_cell_formula_units_Z   2
loop_
 _symmetry_equiv_pos_site_id
 _symmetry_equiv_pos_as_xyz
  1  'x, y, z'
loop_
 _atom_site_type_symbol
 _atom_site_label
 _atom_site_symmetry_multiplicity
 _atom_site_fract_x
 _atom_site_fract_y
 _atom_site_fract_z
 _atom_site_occupancy
  Tm  Tm0  1  0.16935600  0.33064400  0.00000000  1
  Tm  Tm1  1  0.83064400  0.66935600  0.00000000  1
  Tm  Tm2  1  0.66935600  0.16935600  0.00000000  1
  Tm  Tm3  1  0.33064400  0.83064400  0.00000000  1
  In  In4  1  0.00000000  0.00000000  0.50000000  1
  In  In5  1  0.50000000  0.50000000  0.50000000  1
  Au  Au6  1  0.37093000  0.12907000  0.50000000  1
  Au  Au7  1  0.62907000  0.87093000  0.50000000  1
  Au  Au8  1  0.87093000  0.37093000  0.50000000  1
  Au  Au9  1  0.12907000  0.62907000  0.50000000  1
