# generated using pymatgen
data_Rb2Mg2Be3F12
_symmetry_space_group_name_H-M   'P 1'
_cell_length_a   10.10441500
_cell_length_b   10.10441500
_cell_length_c   10.10441500
_cell_angle_alpha   90.00000000
_cell_angle_beta   90.00000000
_cell_angle_gamma   90.00000000
_symmetry_Int_Tables_number   1
_chemical_formula_structural   Rb2Mg2Be3F12
_chemical_formula_sum   'Rb8 Mg8 Be12 F48'
_cell_volume   1031.65271315
_cell_formula_units_Z   4
loop_
 _symmetry_equiv_pos_site_id
 _symmetry_equiv_pos_as_xyz
  1  'x, y, z'
loop_
 _atom_site_type_symbol
 _atom_site_label
 _atom_site_symmetry_multiplicity
 _atom_site_fract_x
 _atom_site_fract_y
 _atom_site_fract_z
 _atom_site_occupancy
  Rb  Rb0  1  0.04859200  0.04859200  0.04859200  1
  Rb  Rb1  1  0.45140800  0.95140800  0.54859200  1
  Rb  Rb2  1  0.95140800  0.54859200  0.45140800  1
  Rb  Rb3  1  0.54859200  0.45140800  0.95140800  1
  Rb  Rb4  1  0.81618900  0.81618900  0.81618900  1
  Rb  Rb5  1  0.68381100  0.18381100  0.31618900  1
  Rb  Rb6  1  0.18381100  0.31618900  0.68381100  1
  Rb  Rb7  1  0.31618900  0.68381100  0.18381100  1
  Mg  Mg8  1  0.33469500  0.33469500  0.33469500  1
  Mg  Mg9  1  0.16530500  0.66530500  0.83469500  1
  Mg  Mg10  1  0.66530500  0.83469500  0.16530500  1
  Mg  Mg11  1  0.83469500  0.16530500  0.66530500  1
  Mg  Mg12  1  0.59874800  0.59874800  0.59874800  1
  Mg  Mg13  1  0.90125200  0.40125200  0.09874800  1
  Mg  Mg14  1  0.40125200  0.09874800  0.90125200  1
  Mg  Mg15  1  0.09874800  0.90125200  0.40125200  1
  Be  Be16  1  0.01959900  0.21521100  0.37573900  1
  Be  Be17  1  0.48040100  0.78478900  0.87573900  1
  Be  Be18  1  0.98040100  0.71521100  0.12426100  1
  Be  Be19  1  0.37573900  0.01959900  0.21521100  1
  Be  Be20  1  0.51959900  0.28478900  0.62426100  1
  Be  Be21  1  0.87573900  0.48040100  0.78478900  1
  Be  Be22  1  0.12426100  0.98040100  0.71521100  1
  Be  Be23  1  0.62426100  0.51959900  0.28478900  1
  Be  Be24  1  0.21521100  0.37573900  0.01959900  1
  Be  Be25  1  0.71521100  0.12426100  0.98040100  1
  Be  Be26  1  0.28478900  0.62426100  0.51959900  1
  Be  Be27  1  0.78478900  0.87573900  0.48040100  1
  F  F28  1  0.01345000  0.06752000  0.33162000  1
  F  F29  1  0.48655000  0.93248000  0.83162000  1
  F  F30  1  0.98655000  0.56752000  0.16838000  1
  F  F31  1  0.33162000  0.01345000  0.06752000  1
  F  F32  1  0.51345000  0.43248000  0.66838000  1
  F  F33  1  0.83162000  0.48655000  0.93248000  1
  F  F34  1  0.16838000  0.98655000  0.56752000  1
  F  F35  1  0.66838000  0.51345000  0.43248000  1
  F  F36  1  0.06752000  0.33162000  0.01345000  1
  F  F37  1  0.56752000  0.16838000  0.98655000  1
  F  F38  1  0.43248000  0.66838000  0.51345000  1
  F  F39  1  0.93248000  0.83162000  0.48655000  1
  F  F40  1  0.26774800  0.49440400  0.43659000  1
  F  F41  1  0.23225200  0.50559600  0.93659000  1
  F  F42  1  0.73225200  0.99440400  0.06341000  1
  F  F43  1  0.43659000  0.26774800  0.49440400  1
  F  F44  1  0.76774800  0.00559600  0.56341000  1
  F  F45  1  0.93659000  0.23225200  0.50559600  1
  F  F46  1  0.06341000  0.73225200  0.99440400  1
  F  F47  1  0.56341000  0.76774800  0.00559600  1
  F  F48  1  0.49440400  0.43659000  0.26774800  1
  F  F49  1  0.99440400  0.06341000  0.73225200  1
  F  F50  1  0.00559600  0.56341000  0.76774800  1
  F  F51  1  0.50559600  0.93659000  0.23225200  1
  F  F52  1  0.04567600  0.80676500  0.23189200  1
  F  F53  1  0.45432400  0.19323500  0.73189200  1
  F  F54  1  0.95432400  0.30676500  0.26810800  1
  F  F55  1  0.23189200  0.04567600  0.80676500  1
  F  F56  1  0.54567600  0.69323500  0.76810800  1
  F  F57  1  0.73189200  0.45432400  0.19323500  1
  F  F58  1  0.26810800  0.95432400  0.30676500  1
  F  F59  1  0.76810800  0.54567600  0.69323500  1
  F  F60  1  0.80676500  0.23189200  0.04567600  1
  F  F61  1  0.30676500  0.26810800  0.95432400  1
  F  F62  1  0.69323500  0.76810800  0.54567600  1
  F  F63  1  0.19323500  0.73189200  0.45432400  1
  F  F64  1  0.16483600  0.25746800  0.40001300  1
  F  F65  1  0.33516400  0.74253200  0.90001300  1
  F  F66  1  0.83516400  0.75746800  0.09998700  1
  F  F67  1  0.40001300  0.16483600  0.25746800  1
  F  F68  1  0.66483600  0.24253200  0.59998700  1
  F  F69  1  0.90001300  0.33516400  0.74253200  1
  F  F70  1  0.09998700  0.83516400  0.75746800  1
  F  F71  1  0.59998700  0.66483600  0.24253200  1
  F  F72  1  0.25746800  0.40001300  0.16483600  1
  F  F73  1  0.75746800  0.09998700  0.83516400  1
  F  F74  1  0.24253200  0.59998700  0.66483600  1
  F  F75  1  0.74253200  0.90001300  0.33516400  1
