# generated using pymatgen
data_RbBaPO4
_symmetry_space_group_name_H-M   'P 1'
_cell_length_a   5.80588100
_cell_length_b   7.94987600
_cell_length_c   10.26222700
_cell_angle_alpha   90.00000000
_cell_angle_beta   90.00000000
_cell_angle_gamma   90.00000000
_symmetry_Int_Tables_number   1
_chemical_formula_structural   RbBaPO4
_chemical_formula_sum   'Rb4 Ba4 P4 O16'
_cell_volume   473.66369854
_cell_formula_units_Z   4
loop_
 _symmetry_equiv_pos_site_id
 _symmetry_equiv_pos_as_xyz
  1  'x, y, z'
loop_
 _atom_site_type_symbol
 _atom_site_label
 _atom_site_symmetry_multiplicity
 _atom_site_fract_x
 _atom_site_fract_y
 _atom_site_fract_z
 _atom_site_occupancy
  Rb  Rb0  1  0.75000000  0.65629700  0.08426700  1
  Rb  Rb1  1  0.25000000  0.84370300  0.58426700  1
  Rb  Rb2  1  0.25000000  0.34370300  0.91573300  1
  Rb  Rb3  1  0.75000000  0.15629700  0.41573300  1
  Ba  Ba4  1  0.25000000  0.00075500  0.19170800  1
  Ba  Ba5  1  0.25000000  0.50075500  0.30829200  1
  Ba  Ba6  1  0.75000000  0.49924500  0.69170800  1
  Ba  Ba7  1  0.75000000  0.99924500  0.80829200  1
  P  P8  1  0.25000000  0.27026900  0.58582400  1
  P  P9  1  0.75000000  0.72973100  0.41417600  1
  P  P10  1  0.25000000  0.77026900  0.91417600  1
  P  P11  1  0.75000000  0.22973100  0.08582400  1
  O  O12  1  0.52893900  0.79102200  0.34152300  1
  O  O13  1  0.02893900  0.20897800  0.65847700  1
  O  O14  1  0.97106100  0.29102200  0.15847700  1
  O  O15  1  0.47106100  0.70897800  0.84152300  1
  O  O16  1  0.47106100  0.20897800  0.65847700  1
  O  O17  1  0.97106100  0.79102200  0.34152300  1
  O  O18  1  0.02893900  0.70897800  0.84152300  1
  O  O19  1  0.52893900  0.29102200  0.15847700  1
  O  O20  1  0.25000000  0.46670800  0.58148200  1
  O  O21  1  0.75000000  0.53329200  0.41851800  1
  O  O22  1  0.25000000  0.96670800  0.91851800  1
  O  O23  1  0.75000000  0.03329200  0.08148200  1
  O  O24  1  0.75000000  0.30031300  0.94314100  1
  O  O25  1  0.25000000  0.69968700  0.05685900  1
  O  O26  1  0.75000000  0.80031300  0.55685900  1
  O  O27  1  0.25000000  0.19968700  0.44314100  1
