# generated using pymatgen
data_GdHSO5
_symmetry_space_group_name_H-M   'P 1'
_cell_length_a   4.44566696
_cell_length_b   6.88364933
_cell_length_c   12.34516100
_cell_angle_alpha   90.00000000
_cell_angle_beta   90.00000000
_cell_angle_gamma   106.56491702
_symmetry_Int_Tables_number   1
_chemical_formula_structural   GdHSO5
_chemical_formula_sum   'Gd4 H4 S4 O20'
_cell_volume   362.11234190
_cell_formula_units_Z   4
loop_
 _symmetry_equiv_pos_site_id
 _symmetry_equiv_pos_as_xyz
  1  'x, y, z'
loop_
 _atom_site_type_symbol
 _atom_site_label
 _atom_site_symmetry_multiplicity
 _atom_site_fract_x
 _atom_site_fract_y
 _atom_site_fract_z
 _atom_site_occupancy
  Gd  Gd0  1  0.63583400  0.79877900  0.93941900  1
  Gd  Gd1  1  0.13583400  0.29877900  0.56058100  1
  Gd  Gd2  1  0.36416600  0.20122100  0.06058100  1
  Gd  Gd3  1  0.86416600  0.70122100  0.43941900  1
  H  H4  1  0.22798800  0.01392900  0.84706200  1
  H  H5  1  0.72798800  0.51392900  0.65293800  1
  H  H6  1  0.77201200  0.98607100  0.15293800  1
  H  H7  1  0.27201200  0.48607100  0.34706200  1
  S  S8  1  0.47942100  0.89242800  0.64847600  1
  S  S9  1  0.97942100  0.39242800  0.85152400  1
  S  S10  1  0.52057900  0.10757200  0.35152400  1
  S  S11  1  0.02057900  0.60757200  0.14847600  1
  O  O12  1  0.36307700  0.06901500  0.66543500  1
  O  O13  1  0.86307700  0.56901500  0.83456500  1
  O  O14  1  0.63692300  0.93098500  0.33456500  1
  O  O15  1  0.13692300  0.43098500  0.16543500  1
  O  O16  1  0.75433900  0.94915200  0.57022000  1
  O  O17  1  0.25433900  0.44915200  0.92978000  1
  O  O18  1  0.24566100  0.05084800  0.42978000  1
  O  O19  1  0.74566100  0.55084800  0.07022000  1
  O  O20  1  0.58933600  0.82921100  0.75157500  1
  O  O21  1  0.08933600  0.32921100  0.74842500  1
  O  O22  1  0.41066400  0.17078900  0.24842500  1
  O  O23  1  0.91066400  0.67078900  0.25157500  1
  O  O24  1  0.23690900  0.71983600  0.60051300  1
  O  O25  1  0.73690900  0.21983600  0.89948700  1
  O  O26  1  0.76309100  0.28016400  0.39948700  1
  O  O27  1  0.26309100  0.78016400  0.10051300  1
  O  O28  1  0.19157900  0.95367700  0.91946500  1
  O  O29  1  0.69157900  0.45367700  0.58053500  1
  O  O30  1  0.80842100  0.04632300  0.08053500  1
  O  O31  1  0.30842100  0.54632300  0.41946500  1
