# generated using pymatgen
data_Th2S5
_symmetry_space_group_name_H-M   'P 1'
_cell_length_a   7.62854100
_cell_length_b   7.66887100
_cell_length_c   10.23166400
_cell_angle_alpha   90.00000000
_cell_angle_beta   90.00000000
_cell_angle_gamma   90.00000000
_symmetry_Int_Tables_number   1
_chemical_formula_structural   Th2S5
_chemical_formula_sum   'Th8 S20'
_cell_volume   598.57584457
_cell_formula_units_Z   4
loop_
 _symmetry_equiv_pos_site_id
 _symmetry_equiv_pos_as_xyz
  1  'x, y, z'
loop_
 _atom_site_type_symbol
 _atom_site_label
 _atom_site_symmetry_multiplicity
 _atom_site_fract_x
 _atom_site_fract_y
 _atom_site_fract_z
 _atom_site_occupancy
  Th  Th0  1  0.23310000  0.01979100  0.85347200  1
  Th  Th1  1  0.26690000  0.51979100  0.64652800  1
  Th  Th2  1  0.73310000  0.98020900  0.64652800  1
  Th  Th3  1  0.76690000  0.48020900  0.85347200  1
  Th  Th4  1  0.76690000  0.98020900  0.14652800  1
  Th  Th5  1  0.73310000  0.48020900  0.35347200  1
  Th  Th6  1  0.26690000  0.01979100  0.35347200  1
  Th  Th7  1  0.23310000  0.51979100  0.14652800  1
  S  S8  1  0.36220400  0.38836000  0.39165100  1
  S  S9  1  0.13779600  0.88836000  0.10834900  1
  S  S10  1  0.86220400  0.61164000  0.10834900  1
  S  S11  1  0.63779600  0.11164000  0.39165100  1
  S  S12  1  0.63779600  0.61164000  0.60834900  1
  S  S13  1  0.86220400  0.11164000  0.89165100  1
  S  S14  1  0.13779600  0.38836000  0.89165100  1
  S  S15  1  0.36220400  0.88836000  0.60834900  1
  S  S16  1  0.90092300  0.85043000  0.39922300  1
  S  S17  1  0.59907700  0.35043000  0.10077700  1
  S  S18  1  0.40092300  0.14957000  0.10077700  1
  S  S19  1  0.09907700  0.64957000  0.39922300  1
  S  S20  1  0.09907700  0.14957000  0.60077700  1
  S  S21  1  0.40092300  0.64957000  0.89922300  1
  S  S22  1  0.59907700  0.85043000  0.89922300  1
  S  S23  1  0.90092300  0.35043000  0.60077700  1
  S  S24  1  0.00000000  0.25000000  0.24732500  1
  S  S25  1  0.50000000  0.75000000  0.25267500  1
  S  S26  1  0.00000000  0.75000000  0.75267500  1
  S  S27  1  0.50000000  0.25000000  0.74732500  1
