# generated using pymatgen
data_Nd3FeO6
_symmetry_space_group_name_H-M   'P 1'
_cell_length_a   7.42948587
_cell_length_b   7.42948587
_cell_length_c   5.67456200
_cell_angle_alpha   90.00000000
_cell_angle_beta   90.00000000
_cell_angle_gamma   102.78011773
_symmetry_Int_Tables_number   1
_chemical_formula_structural   Nd3FeO6
_chemical_formula_sum   'Nd6 Fe2 O12'
_cell_volume   305.46061121
_cell_formula_units_Z   2
loop_
 _symmetry_equiv_pos_site_id
 _symmetry_equiv_pos_as_xyz
  1  'x, y, z'
loop_
 _atom_site_type_symbol
 _atom_site_label
 _atom_site_symmetry_multiplicity
 _atom_site_fract_x
 _atom_site_fract_y
 _atom_site_fract_z
 _atom_site_occupancy
  Nd  Nd0  1  0.20076000  0.41296700  0.03233000  1
  Nd  Nd1  1  0.79924000  0.58703300  0.53233000  1
  Nd  Nd2  1  0.58703300  0.79924000  0.03233000  1
  Nd  Nd3  1  0.41296700  0.20076000  0.53233000  1
  Nd  Nd4  1  0.89613600  0.10386400  0.57724200  1
  Nd  Nd5  1  0.10386400  0.89613600  0.07724200  1
  Fe  Fe6  1  0.30960900  0.69039100  0.50050900  1
  Fe  Fe7  1  0.69039100  0.30960900  0.00050900  1
  O  O8  1  0.71665400  0.28334600  0.33302200  1
  O  O9  1  0.28334600  0.71665400  0.83302200  1
  O  O10  1  0.46067300  0.53932700  0.35795700  1
  O  O11  1  0.53932700  0.46067300  0.85795700  1
  O  O12  1  0.08462400  0.60462000  0.32963400  1
  O  O13  1  0.91537600  0.39538000  0.82963400  1
  O  O14  1  0.39538000  0.91537600  0.32963400  1
  O  O15  1  0.60462000  0.08462400  0.82963400  1
  O  O16  1  0.14628300  0.17305500  0.30391900  1
  O  O17  1  0.85371700  0.82694500  0.80391900  1
  O  O18  1  0.82694500  0.85371700  0.30391900  1
  O  O19  1  0.17305500  0.14628300  0.80391900  1
