# generated using pymatgen
data_La2Zn5Sn
_symmetry_space_group_name_H-M   'P 1'
_cell_length_a   8.70987549
_cell_length_b   8.70987549
_cell_length_c   9.16035600
_cell_angle_alpha   90.00000000
_cell_angle_beta   90.00000000
_cell_angle_gamma   149.53841457
_symmetry_Int_Tables_number   1
_chemical_formula_structural   La2Zn5Sn
_chemical_formula_sum   'La4 Zn10 Sn2'
_cell_volume   352.29819662
_cell_formula_units_Z   2
loop_
 _symmetry_equiv_pos_site_id
 _symmetry_equiv_pos_as_xyz
  1  'x, y, z'
loop_
 _atom_site_type_symbol
 _atom_site_label
 _atom_site_symmetry_multiplicity
 _atom_site_fract_x
 _atom_site_fract_y
 _atom_site_fract_z
 _atom_site_occupancy
  La  La0  1  0.20709800  0.79290200  0.25000000  1
  La  La1  1  0.79290200  0.20709800  0.75000000  1
  La  La2  1  0.00000000  0.00000000  0.50000000  1
  La  La3  1  0.00000000  0.00000000  0.00000000  1
  Zn  Zn4  1  0.81475500  0.18524500  0.39189300  1
  Zn  Zn5  1  0.18524500  0.81475500  0.60810700  1
  Zn  Zn6  1  0.81475500  0.18524500  0.10810700  1
  Zn  Zn7  1  0.18524500  0.81475500  0.89189300  1
  Zn  Zn8  1  0.65618000  0.34382000  0.48563700  1
  Zn  Zn9  1  0.34382000  0.65618000  0.51436300  1
  Zn  Zn10  1  0.65618000  0.34382000  0.01436300  1
  Zn  Zn11  1  0.34382000  0.65618000  0.98563700  1
  Zn  Zn12  1  0.39756500  0.60243500  0.25000000  1
  Zn  Zn13  1  0.60243500  0.39756500  0.75000000  1
  Sn  Sn14  1  0.55645100  0.44354900  0.25000000  1
  Sn  Sn15  1  0.44354900  0.55645100  0.75000000  1
