# generated using pymatgen
data_SbPdS
_symmetry_space_group_name_H-M   'P 1'
_cell_length_a   6.27498600
_cell_length_b   6.27498600
_cell_length_c   6.27498600
_cell_angle_alpha   90.00000000
_cell_angle_beta   90.00000000
_cell_angle_gamma   90.00000000
_symmetry_Int_Tables_number   1
_chemical_formula_structural   SbPdS
_chemical_formula_sum   'Sb4 Pd4 S4'
_cell_volume   247.08039310
_cell_formula_units_Z   4
loop_
 _symmetry_equiv_pos_site_id
 _symmetry_equiv_pos_as_xyz
  1  'x, y, z'
loop_
 _atom_site_type_symbol
 _atom_site_label
 _atom_site_symmetry_multiplicity
 _atom_site_fract_x
 _atom_site_fract_y
 _atom_site_fract_z
 _atom_site_occupancy
  Sb  Sb0  1  0.12042900  0.62042900  0.87957100  1
  Sb  Sb1  1  0.62042900  0.87957100  0.12042900  1
  Sb  Sb2  1  0.87957100  0.12042900  0.62042900  1
  Sb  Sb3  1  0.37957100  0.37957100  0.37957100  1
  Pd  Pd4  1  0.48981100  0.98981100  0.51018900  1
  Pd  Pd5  1  0.98981100  0.51018900  0.48981100  1
  Pd  Pd6  1  0.51018900  0.48981100  0.98981100  1
  Pd  Pd7  1  0.01018900  0.01018900  0.01018900  1
  S  S8  1  0.88969000  0.38969000  0.11031000  1
  S  S9  1  0.38969000  0.11031000  0.88969000  1
  S  S10  1  0.11031000  0.88969000  0.38969000  1
  S  S11  1  0.61031000  0.61031000  0.61031000  1
