# generated using pymatgen
data_Pr2SiTeO4
_symmetry_space_group_name_H-M   'P 1'
_cell_length_a   6.40156200
_cell_length_b   7.32151500
_cell_length_c   11.35593300
_cell_angle_alpha   90.00000000
_cell_angle_beta   90.00000000
_cell_angle_gamma   90.00000000
_symmetry_Int_Tables_number   1
_chemical_formula_structural   Pr2SiTeO4
_chemical_formula_sum   'Pr8 Si4 Te4 O16'
_cell_volume   532.24272510
_cell_formula_units_Z   4
loop_
 _symmetry_equiv_pos_site_id
 _symmetry_equiv_pos_as_xyz
  1  'x, y, z'
loop_
 _atom_site_type_symbol
 _atom_site_label
 _atom_site_symmetry_multiplicity
 _atom_site_fract_x
 _atom_site_fract_y
 _atom_site_fract_z
 _atom_site_occupancy
  Pr  Pr0  1  0.38799900  0.75000000  0.50000000  1
  Pr  Pr1  1  0.38799900  0.75000000  0.00000000  1
  Pr  Pr2  1  0.61200100  0.25000000  0.50000000  1
  Pr  Pr3  1  0.61200100  0.25000000  0.00000000  1
  Pr  Pr4  1  0.88707800  0.54037200  0.75000000  1
  Pr  Pr5  1  0.88707800  0.95962800  0.25000000  1
  Pr  Pr6  1  0.11292200  0.04037200  0.75000000  1
  Pr  Pr7  1  0.11292200  0.45962800  0.25000000  1
  Si  Si8  1  0.11426500  0.25000000  0.00000000  1
  Si  Si9  1  0.88573500  0.75000000  0.00000000  1
  Si  Si10  1  0.88573500  0.75000000  0.50000000  1
  Si  Si11  1  0.11426500  0.25000000  0.50000000  1
  Te  Te12  1  0.59659500  0.92439700  0.75000000  1
  Te  Te13  1  0.59659500  0.57560300  0.25000000  1
  Te  Te14  1  0.40340500  0.42439700  0.75000000  1
  Te  Te15  1  0.40340500  0.07560300  0.25000000  1
  O  O16  1  0.26851500  0.42151600  0.03581900  1
  O  O17  1  0.26851500  0.07848400  0.96418100  1
  O  O18  1  0.73148500  0.92151600  0.46418100  1
  O  O19  1  0.73148500  0.57848400  0.53581900  1
  O  O20  1  0.73148500  0.57848400  0.96418100  1
  O  O21  1  0.73148500  0.92151600  0.03581900  1
  O  O22  1  0.26851500  0.07848400  0.53581900  1
  O  O23  1  0.26851500  0.42151600  0.46418100  1
  O  O24  1  0.04664700  0.72943100  0.11455700  1
  O  O25  1  0.04664700  0.72943100  0.38544300  1
  O  O26  1  0.95335300  0.22943100  0.38544300  1
  O  O27  1  0.95335300  0.27056900  0.61455700  1
  O  O28  1  0.95335300  0.27056900  0.88544300  1
  O  O29  1  0.95335300  0.22943100  0.11455700  1
  O  O30  1  0.04664700  0.77056900  0.61455700  1
  O  O31  1  0.04664700  0.77056900  0.88544300  1
