# generated using pymatgen
data_Rb2MgCl4
_symmetry_space_group_name_H-M   'P 1'
_cell_length_a   8.93944748
_cell_length_b   8.93944748
_cell_length_c   8.93944748
_cell_angle_alpha   147.12756460
_cell_angle_beta   147.12756460
_cell_angle_gamma   47.17493906
_symmetry_Int_Tables_number   1
_chemical_formula_structural   Rb2MgCl4
_chemical_formula_sum   'Rb2 Mg1 Cl4'
_cell_volume   209.65902764
_cell_formula_units_Z   1
loop_
 _symmetry_equiv_pos_site_id
 _symmetry_equiv_pos_as_xyz
  1  'x, y, z'
loop_
 _atom_site_type_symbol
 _atom_site_label
 _atom_site_symmetry_multiplicity
 _atom_site_fract_x
 _atom_site_fract_y
 _atom_site_fract_z
 _atom_site_occupancy
  Rb  Rb0  1  0.35631700  0.35631700  0.00000000  1
  Rb  Rb1  1  0.64368300  0.64368300  0.00000000  1
  Mg  Mg2  1  0.00000000  0.00000000  0.00000000  1
  Cl  Cl3  1  0.15397100  0.15397100  0.00000000  1
  Cl  Cl4  1  0.84602900  0.84602900  0.00000000  1
  Cl  Cl5  1  0.50000000  0.00000000  0.50000000  1
  Cl  Cl6  1  0.00000000  0.50000000  0.50000000  1
