# generated using pymatgen
data_Tb2ZrS5
_symmetry_space_group_name_H-M   'P 1'
_cell_length_a   7.28405500
_cell_length_b   7.79344000
_cell_length_c   11.63518900
_cell_angle_alpha   90.00000000
_cell_angle_beta   90.00000000
_cell_angle_gamma   90.00000000
_symmetry_Int_Tables_number   1
_chemical_formula_structural   Tb2ZrS5
_chemical_formula_sum   'Tb8 Zr4 S20'
_cell_volume   660.50461267
_cell_formula_units_Z   4
loop_
 _symmetry_equiv_pos_site_id
 _symmetry_equiv_pos_as_xyz
  1  'x, y, z'
loop_
 _atom_site_type_symbol
 _atom_site_label
 _atom_site_symmetry_multiplicity
 _atom_site_fract_x
 _atom_site_fract_y
 _atom_site_fract_z
 _atom_site_occupancy
  Tb  Tb0  1  0.52426700  0.49801300  0.32162300  1
  Tb  Tb1  1  0.97573300  0.00198700  0.82162300  1
  Tb  Tb2  1  0.47573300  0.99801300  0.67837700  1
  Tb  Tb3  1  0.02426700  0.50198700  0.17837700  1
  Tb  Tb4  1  0.47573300  0.50198700  0.67837700  1
  Tb  Tb5  1  0.02426700  0.99801300  0.17837700  1
  Tb  Tb6  1  0.52426700  0.00198700  0.32162300  1
  Tb  Tb7  1  0.97573300  0.49801300  0.82162300  1
  Zr  Zr8  1  0.07757100  0.75000000  0.49332200  1
  Zr  Zr9  1  0.42242900  0.75000000  0.99332200  1
  Zr  Zr10  1  0.92242900  0.25000000  0.50667800  1
  Zr  Zr11  1  0.57757100  0.25000000  0.00667800  1
  S  S12  1  0.83851400  0.96304200  0.59441500  1
  S  S13  1  0.66148600  0.53695800  0.09441500  1
  S  S14  1  0.16148600  0.46304200  0.40558500  1
  S  S15  1  0.33851400  0.03695800  0.90558500  1
  S  S16  1  0.16148600  0.03695800  0.40558500  1
  S  S17  1  0.33851400  0.46304200  0.90558500  1
  S  S18  1  0.83851400  0.53695800  0.59441500  1
  S  S19  1  0.66148600  0.96304200  0.09441500  1
  S  S20  1  0.83193100  0.75000000  0.31757700  1
  S  S21  1  0.66806900  0.75000000  0.81757700  1
  S  S22  1  0.16806900  0.25000000  0.68242300  1
  S  S23  1  0.33193100  0.25000000  0.18242300  1
  S  S24  1  0.44840600  0.75000000  0.49752800  1
  S  S25  1  0.05159400  0.75000000  0.99752800  1
  S  S26  1  0.55159400  0.25000000  0.50247200  1
  S  S27  1  0.94840600  0.25000000  0.00247200  1
  S  S28  1  0.18948100  0.75000000  0.70806900  1
  S  S29  1  0.31051900  0.75000000  0.20806900  1
  S  S30  1  0.81051900  0.25000000  0.29193100  1
  S  S31  1  0.68948100  0.25000000  0.79193100  1
