# generated using pymatgen
data_CsRb2Sb4F15
_symmetry_space_group_name_H-M   'P 1'
_cell_length_a   29.19293900
_cell_length_b   8.06271700
_cell_length_c   8.14372312
_cell_angle_alpha   64.59844981
_cell_angle_beta   90.00000000
_cell_angle_gamma   90.00000000
_symmetry_Int_Tables_number   1
_chemical_formula_structural   CsRb2Sb4F15
_chemical_formula_sum   'Cs4 Rb8 Sb16 F60'
_cell_volume   1731.51251377
_cell_formula_units_Z   4
loop_
 _symmetry_equiv_pos_site_id
 _symmetry_equiv_pos_as_xyz
  1  'x, y, z'
loop_
 _atom_site_type_symbol
 _atom_site_label
 _atom_site_symmetry_multiplicity
 _atom_site_fract_x
 _atom_site_fract_y
 _atom_site_fract_z
 _atom_site_occupancy
  Cs  Cs0  1  0.56876800  0.79380400  0.70726300  1
  Cs  Cs1  1  0.06876800  0.20619600  0.79273700  1
  Cs  Cs2  1  0.43123200  0.20619600  0.29273700  1
  Cs  Cs3  1  0.93123200  0.79380400  0.20726300  1
  Rb  Rb4  1  0.28443200  0.64344200  0.86512800  1
  Rb  Rb5  1  0.78443200  0.35655800  0.63487200  1
  Rb  Rb6  1  0.71556800  0.35655800  0.13487200  1
  Rb  Rb7  1  0.21556800  0.64344200  0.36512800  1
  Rb  Rb8  1  0.64879400  0.82311200  0.16168600  1
  Rb  Rb9  1  0.14879400  0.17688800  0.33831400  1
  Rb  Rb10  1  0.35120600  0.17688800  0.83831400  1
  Rb  Rb11  1  0.85120600  0.82311200  0.66168600  1
  Sb  Sb12  1  0.42797300  0.71942600  0.80969200  1
  Sb  Sb13  1  0.92797300  0.28057400  0.69030800  1
  Sb  Sb14  1  0.57202700  0.28057400  0.19030800  1
  Sb  Sb15  1  0.07202700  0.71942600  0.30969200  1
  Sb  Sb16  1  0.35854900  0.65676500  0.33701700  1
  Sb  Sb17  1  0.85854900  0.34323500  0.16298300  1
  Sb  Sb18  1  0.64145100  0.34323500  0.66298300  1
  Sb  Sb19  1  0.14145100  0.65676500  0.83701700  1
  Sb  Sb20  1  0.49814600  0.24636300  0.74984400  1
  Sb  Sb21  1  0.99814600  0.75363700  0.75015600  1
  Sb  Sb22  1  0.50185400  0.75363700  0.25015600  1
  Sb  Sb23  1  0.00185400  0.24636300  0.24984400  1
  Sb  Sb24  1  0.28971200  0.13631000  0.37418700  1
  Sb  Sb25  1  0.78971200  0.86369000  0.12581300  1
  Sb  Sb26  1  0.71028800  0.86369000  0.62581300  1
  Sb  Sb27  1  0.21028800  0.13631000  0.87418700  1
  F  F28  1  0.43370400  0.77604400  0.54370100  1
  F  F29  1  0.93370400  0.22395600  0.95629900  1
  F  F30  1  0.56629600  0.22395600  0.45629900  1
  F  F31  1  0.06629600  0.77604400  0.04370100  1
  F  F32  1  0.38442200  0.52139400  0.83406000  1
  F  F33  1  0.88442200  0.47860600  0.66594000  1
  F  F34  1  0.61557800  0.47860600  0.16594000  1
  F  F35  1  0.11557800  0.52139400  0.33406000  1
  F  F36  1  0.37710800  0.89917100  0.72826800  1
  F  F37  1  0.87710800  0.10082900  0.77173200  1
  F  F38  1  0.62289200  0.10082900  0.27173200  1
  F  F39  1  0.12289200  0.89917100  0.22826800  1
  F  F40  1  0.39597300  0.66690300  0.09105200  1
  F  F41  1  0.89597300  0.33309700  0.40894800  1
  F  F42  1  0.60402700  0.33309700  0.90894800  1
  F  F43  1  0.10402700  0.66690300  0.59105200  1
  F  F44  1  0.30625400  0.70200500  0.17045400  1
  F  F45  1  0.80625400  0.29799500  0.32954600  1
  F  F46  1  0.69374600  0.29799500  0.82954600  1
  F  F47  1  0.19374600  0.70200500  0.67045400  1
  F  F48  1  0.36745800  0.92790900  0.22570400  1
  F  F49  1  0.86745800  0.07209100  0.27429600  1
  F  F50  1  0.63254200  0.07209100  0.77429600  1
  F  F51  1  0.13254200  0.92790900  0.72570400  1
  F  F52  1  0.31033000  0.68726400  0.50152700  1
  F  F53  1  0.81033000  0.31273600  0.99847300  1
  F  F54  1  0.68967000  0.31273600  0.49847300  1
  F  F55  1  0.18967000  0.68726400  0.00152700  1
  F  F56  1  0.47841100  0.02669500  0.69006500  1
  F  F57  1  0.97841100  0.97330500  0.80993500  1
  F  F58  1  0.52158900  0.97330500  0.30993500  1
  F  F59  1  0.02158900  0.02669500  0.19006500  1
  F  F60  1  0.45145600  0.37564500  0.56437400  1
  F  F61  1  0.95145600  0.62435500  0.93562600  1
  F  F62  1  0.54854400  0.62435500  0.43562600  1
  F  F63  1  0.04854400  0.37564500  0.06437400  1
  F  F64  1  0.45347100  0.12548700  0.94933600  1
  F  F65  1  0.95347100  0.87451300  0.55066400  1
  F  F66  1  0.54652900  0.87451300  0.05066400  1
  F  F67  1  0.04652900  0.12548700  0.44933600  1
  F  F68  1  0.48977700  0.46202300  0.82174300  1
  F  F69  1  0.98977700  0.53797700  0.67825700  1
  F  F70  1  0.51022300  0.53797700  0.17825700  1
  F  F71  1  0.01022300  0.46202300  0.32174300  1
  F  F72  1  0.33383300  0.31562900  0.43519100  1
  F  F73  1  0.83383300  0.68437100  0.06480900  1
  F  F74  1  0.66616700  0.68437100  0.56480900  1
  F  F75  1  0.16616700  0.31562900  0.93519100  1
  F  F76  1  0.31770700  0.26473300  0.13230400  1
  F  F77  1  0.81770700  0.73526700  0.36769600  1
  F  F78  1  0.68229300  0.73526700  0.86769600  1
  F  F79  1  0.18229300  0.26473300  0.63230400  1
  F  F80  1  0.24496700  0.33521900  0.31604500  1
  F  F81  1  0.74496700  0.66478100  0.18395500  1
  F  F82  1  0.75503300  0.66478100  0.68395500  1
  F  F83  1  0.25503300  0.33521900  0.81604500  1
  F  F84  1  0.24043900  0.04449200  0.24480900  1
  F  F85  1  0.74043900  0.95550800  0.25519100  1
  F  F86  1  0.75956100  0.95550800  0.75519100  1
  F  F87  1  0.25956100  0.04449200  0.74480900  1
