# generated using pymatgen
data_RbTaGeO5
_symmetry_space_group_name_H-M   'P 1'
_cell_length_a   7.54124000
_cell_length_b   10.53036200
_cell_length_c   20.89603600
_cell_angle_alpha   90.00000000
_cell_angle_beta   90.00000000
_cell_angle_gamma   90.00000000
_symmetry_Int_Tables_number   1
_chemical_formula_structural   RbTaGeO5
_chemical_formula_sum   'Rb12 Ta12 Ge12 O60'
_cell_volume   1659.39574188
_cell_formula_units_Z   12
loop_
 _symmetry_equiv_pos_site_id
 _symmetry_equiv_pos_as_xyz
  1  'x, y, z'
loop_
 _atom_site_type_symbol
 _atom_site_label
 _atom_site_symmetry_multiplicity
 _atom_site_fract_x
 _atom_site_fract_y
 _atom_site_fract_z
 _atom_site_occupancy
  Rb  Rb0  1  0.24023300  0.38133300  0.34920500  1
  Rb  Rb1  1  0.25976700  0.61866700  0.84920500  1
  Rb  Rb2  1  0.75976700  0.88133300  0.15079500  1
  Rb  Rb3  1  0.74023300  0.11866700  0.65079500  1
  Rb  Rb4  1  0.25920700  0.68535900  0.16651300  1
  Rb  Rb5  1  0.24079300  0.31464100  0.66651300  1
  Rb  Rb6  1  0.74079300  0.18535900  0.33348700  1
  Rb  Rb7  1  0.75920700  0.81464100  0.83348700  1
  Rb  Rb8  1  0.22229900  0.38651900  0.01703800  1
  Rb  Rb9  1  0.27770100  0.61348100  0.51703800  1
  Rb  Rb10  1  0.77770100  0.88651900  0.48296200  1
  Rb  Rb11  1  0.72229900  0.11348100  0.98296200  1
  Ta  Ta12  1  0.25385400  0.02026100  0.40024900  1
  Ta  Ta13  1  0.24614600  0.97973900  0.90024900  1
  Ta  Ta14  1  0.74614600  0.52026100  0.09975100  1
  Ta  Ta15  1  0.75385400  0.47973900  0.59975100  1
  Ta  Ta16  1  0.48726100  0.25973200  0.49976200  1
  Ta  Ta17  1  0.01273900  0.74026800  0.99976200  1
  Ta  Ta18  1  0.51273900  0.75973200  0.00023800  1
  Ta  Ta19  1  0.98726100  0.24026800  0.50023800  1
  Ta  Ta20  1  0.24031900  0.01448600  0.07399600  1
  Ta  Ta21  1  0.25968100  0.98551400  0.57399600  1
  Ta  Ta22  1  0.75968100  0.51448600  0.42600400  1
  Ta  Ta23  1  0.74031900  0.48551400  0.92600400  1
  Ge  Ge24  1  0.51934500  0.24601700  0.14844500  1
  Ge  Ge25  1  0.98065500  0.75398300  0.64844500  1
  Ge  Ge26  1  0.48065500  0.74601700  0.35155500  1
  Ge  Ge27  1  0.01934500  0.25398300  0.85155500  1
  Ge  Ge28  1  0.23505100  0.11636100  0.23127300  1
  Ge  Ge29  1  0.26494900  0.88363900  0.73127300  1
  Ge  Ge30  1  0.76494900  0.61636100  0.26872700  1
  Ge  Ge31  1  0.73505100  0.38363900  0.76872700  1
  Ge  Ge32  1  0.06401700  0.73039900  0.35208700  1
  Ge  Ge33  1  0.43598300  0.26960100  0.85208700  1
  Ge  Ge34  1  0.93598300  0.23039900  0.14791300  1
  Ge  Ge35  1  0.56401700  0.76960100  0.64791300  1
  O  O36  1  0.06116900  0.10334800  0.56245700  1
  O  O37  1  0.43883100  0.89665200  0.06245700  1
  O  O38  1  0.93883100  0.60334800  0.93754300  1
  O  O39  1  0.56116900  0.39665200  0.43754300  1
  O  O40  1  0.24036400  0.08869600  0.31244100  1
  O  O41  1  0.25963600  0.91130400  0.81244100  1
  O  O42  1  0.75963600  0.58869600  0.18755900  1
  O  O43  1  0.74036400  0.41130400  0.68755900  1
  O  O44  1  0.03105900  0.13776900  0.08792300  1
  O  O45  1  0.46894100  0.86223100  0.58792300  1
  O  O46  1  0.96894100  0.63776900  0.41207700  1
  O  O47  1  0.53105900  0.36223100  0.91207700  1
  O  O48  1  0.03590500  0.20860800  0.22463400  1
  O  O49  1  0.46409500  0.79139200  0.72463400  1
  O  O50  1  0.96409500  0.70860800  0.27536600  1
  O  O51  1  0.53590500  0.29139200  0.77536600  1
  O  O52  1  0.41019400  0.16609800  0.08692000  1
  O  O53  1  0.08980600  0.83390200  0.58692000  1
  O  O54  1  0.58980600  0.66609800  0.41308000  1
  O  O55  1  0.91019400  0.33390200  0.91308000  1
  O  O56  1  0.40958500  0.23162300  0.22369000  1
  O  O57  1  0.09041500  0.76837700  0.72369000  1
  O  O58  1  0.59041500  0.73162300  0.27631000  1
  O  O59  1  0.90958500  0.26837700  0.77631000  1
  O  O60  1  0.23746700  0.31167200  0.50151700  1
  O  O61  1  0.26253300  0.68832800  0.00151700  1
  O  O62  1  0.76253300  0.81167200  0.99848300  1
  O  O63  1  0.73746700  0.18832800  0.49848300  1
  O  O64  1  0.42761700  0.14635600  0.42530400  1
  O  O65  1  0.07238300  0.85364400  0.92530400  1
  O  O66  1  0.57238300  0.64635600  0.07469600  1
  O  O67  1  0.92761700  0.35364400  0.57469600  1
  O  O68  1  0.73458100  0.43856700  0.01446300  1
  O  O69  1  0.76541900  0.56143300  0.51446300  1
  O  O70  1  0.26541900  0.93856700  0.48553700  1
  O  O71  1  0.23458100  0.06143300  0.98553700  1
  O  O72  1  0.05586400  0.12597300  0.42889100  1
  O  O73  1  0.44413600  0.87402700  0.92889100  1
  O  O74  1  0.94413600  0.62597300  0.07110900  1
  O  O75  1  0.55586400  0.37402700  0.57110900  1
  O  O76  1  0.72221000  0.16375900  0.16444800  1
  O  O77  1  0.77779000  0.83624100  0.66444800  1
  O  O78  1  0.27779000  0.66375900  0.33555200  1
  O  O79  1  0.22221000  0.33624100  0.83555200  1
  O  O80  1  0.24618300  0.99324900  0.17509600  1
  O  O81  1  0.25381700  0.00675100  0.67509600  1
  O  O82  1  0.75381700  0.49324900  0.32490400  1
  O  O83  1  0.74618300  0.50675100  0.82490400  1
  O  O84  1  0.54447400  0.40521500  0.12991700  1
  O  O85  1  0.95552600  0.59478500  0.62991700  1
  O  O86  1  0.45552600  0.90521500  0.37008300  1
  O  O87  1  0.04447400  0.09478500  0.87008300  1
  O  O88  1  0.06618800  0.88887200  0.37350400  1
  O  O89  1  0.43381200  0.11112800  0.87350400  1
  O  O90  1  0.93381200  0.38887200  0.12649600  1
  O  O91  1  0.56618800  0.61112800  0.62649600  1
  O  O92  1  0.42535200  0.12444200  0.56494700  1
  O  O93  1  0.07464800  0.87555800  0.06494700  1
  O  O94  1  0.57464800  0.62444200  0.93505300  1
  O  O95  1  0.92535200  0.37555800  0.43505300  1
