# generated using pymatgen
data_CeGe
_symmetry_space_group_name_H-M   'P 1'
_cell_length_a   4.07125300
_cell_length_b   5.93355600
_cell_length_c   8.20691900
_cell_angle_alpha   90.00000000
_cell_angle_beta   90.00000000
_cell_angle_gamma   90.00000000
_symmetry_Int_Tables_number   1
_chemical_formula_structural   CeGe
_chemical_formula_sum   'Ce4 Ge4'
_cell_volume   198.25460519
_cell_formula_units_Z   4
loop_
 _symmetry_equiv_pos_site_id
 _symmetry_equiv_pos_as_xyz
  1  'x, y, z'
loop_
 _atom_site_type_symbol
 _atom_site_label
 _atom_site_symmetry_multiplicity
 _atom_site_fract_x
 _atom_site_fract_y
 _atom_site_fract_z
 _atom_site_occupancy
  Ce  Ce0  1  0.25000000  0.37978200  0.68161900  1
  Ce  Ce1  1  0.25000000  0.12021800  0.18161900  1
  Ce  Ce2  1  0.75000000  0.62021800  0.31838100  1
  Ce  Ce3  1  0.75000000  0.87978200  0.81838100  1
  Ge  Ge4  1  0.25000000  0.85987200  0.53872500  1
  Ge  Ge5  1  0.25000000  0.64012800  0.03872500  1
  Ge  Ge6  1  0.75000000  0.14012800  0.46127500  1
  Ge  Ge7  1  0.75000000  0.35987200  0.96127500  1
