# generated using pymatgen
data_ThH2SO6
_symmetry_space_group_name_H-M   'P 1'
_cell_length_a   6.09898400
_cell_length_b   7.22133800
_cell_length_c   11.80585500
_cell_angle_alpha   90.00000000
_cell_angle_beta   90.00000000
_cell_angle_gamma   90.00000000
_symmetry_Int_Tables_number   1
_chemical_formula_structural   ThH2SO6
_chemical_formula_sum   'Th4 H8 S4 O24'
_cell_volume   519.96320480
_cell_formula_units_Z   4
loop_
 _symmetry_equiv_pos_site_id
 _symmetry_equiv_pos_as_xyz
  1  'x, y, z'
loop_
 _atom_site_type_symbol
 _atom_site_label
 _atom_site_symmetry_multiplicity
 _atom_site_fract_x
 _atom_site_fract_y
 _atom_site_fract_z
 _atom_site_occupancy
  Th  Th0  1  0.25000000  0.35108900  0.56242900  1
  Th  Th1  1  0.25000000  0.14891100  0.06242900  1
  Th  Th2  1  0.75000000  0.64891100  0.43757100  1
  Th  Th3  1  0.75000000  0.85108900  0.93757100  1
  H  H4  1  0.99202300  0.32033100  0.34586000  1
  H  H5  1  0.50797700  0.17966900  0.84586000  1
  H  H6  1  0.49202300  0.67966900  0.65414000  1
  H  H7  1  0.00797700  0.82033100  0.15414000  1
  H  H8  1  0.00797700  0.67966900  0.65414000  1
  H  H9  1  0.49202300  0.82033100  0.15414000  1
  H  H10  1  0.50797700  0.32033100  0.34586000  1
  H  H11  1  0.99202300  0.17966900  0.84586000  1
  S  S12  1  0.25000000  0.94673100  0.36017100  1
  S  S13  1  0.25000000  0.55326900  0.86017100  1
  S  S14  1  0.75000000  0.05326900  0.63982900  1
  S  S15  1  0.75000000  0.44673100  0.13982900  1
  O  O16  1  0.25000000  0.04037800  0.47174200  1
  O  O17  1  0.25000000  0.45962200  0.97174200  1
  O  O18  1  0.75000000  0.95962200  0.52825800  1
  O  O19  1  0.75000000  0.54037800  0.02825800  1
  O  O20  1  0.94864100  0.17081100  0.65304400  1
  O  O21  1  0.55135900  0.32918900  0.15304400  1
  O  O22  1  0.44864100  0.82918900  0.34695600  1
  O  O23  1  0.05135900  0.67081100  0.84695600  1
  O  O24  1  0.05135900  0.82918900  0.34695600  1
  O  O25  1  0.44864100  0.67081100  0.84695600  1
  O  O26  1  0.55135900  0.17081100  0.65304400  1
  O  O27  1  0.94864100  0.32918900  0.15304400  1
  O  O28  1  0.25000000  0.41029800  0.76912400  1
  O  O29  1  0.25000000  0.08970200  0.26912400  1
  O  O30  1  0.75000000  0.58970200  0.23087600  1
  O  O31  1  0.75000000  0.91029800  0.73087600  1
  O  O32  1  0.99425300  0.39300500  0.41551300  1
  O  O33  1  0.50574700  0.10699500  0.91551300  1
  O  O34  1  0.49425300  0.60699500  0.58448700  1
  O  O35  1  0.00574700  0.89300500  0.08448700  1
  O  O36  1  0.00574700  0.60699500  0.58448700  1
  O  O37  1  0.49425300  0.89300500  0.08448700  1
  O  O38  1  0.50574700  0.39300500  0.41551300  1
  O  O39  1  0.99425300  0.10699500  0.91551300  1
