# generated using pymatgen
data_Y(Ni2B)6
_symmetry_space_group_name_H-M   'P 1'
_cell_length_a   6.03406496
_cell_length_b   6.03406496
_cell_length_c   10.95468100
_cell_angle_alpha   90.00000000
_cell_angle_beta   90.00000000
_cell_angle_gamma   104.91370512
_symmetry_Int_Tables_number   1
_chemical_formula_structural   Y(Ni2B)6
_chemical_formula_sum   'Y2 Ni24 B12'
_cell_volume   385.42352188
_cell_formula_units_Z   2
loop_
 _symmetry_equiv_pos_site_id
 _symmetry_equiv_pos_as_xyz
  1  'x, y, z'
loop_
 _atom_site_type_symbol
 _atom_site_label
 _atom_site_symmetry_multiplicity
 _atom_site_fract_x
 _atom_site_fract_y
 _atom_site_fract_z
 _atom_site_occupancy
  Y  Y0  1  0.83535500  0.83535500  0.49667700  1
  Y  Y1  1  0.16464500  0.16464500  0.99667700  1
  Ni  Ni2  1  0.56422600  0.56422600  0.91967600  1
  Ni  Ni3  1  0.43577400  0.43577400  0.41967600  1
  Ni  Ni4  1  0.78238900  0.78238900  0.09924700  1
  Ni  Ni5  1  0.21761100  0.21761100  0.59924700  1
  Ni  Ni6  1  0.54407600  0.80489000  0.73358300  1
  Ni  Ni7  1  0.80489000  0.54407600  0.73358300  1
  Ni  Ni8  1  0.45592400  0.19511000  0.23358300  1
  Ni  Ni9  1  0.19511000  0.45592400  0.23358300  1
  Ni  Ni10  1  0.14541000  0.88215100  0.75545200  1
  Ni  Ni11  1  0.88215100  0.14541000  0.75545200  1
  Ni  Ni12  1  0.85459000  0.11784900  0.25545200  1
  Ni  Ni13  1  0.11784900  0.85459000  0.25545200  1
  Ni  Ni14  1  0.65976400  0.27009100  0.56815900  1
  Ni  Ni15  1  0.27009100  0.65976400  0.56815900  1
  Ni  Ni16  1  0.34023600  0.72990900  0.06815900  1
  Ni  Ni17  1  0.72990900  0.34023600  0.06815900  1
  Ni  Ni18  1  0.63043400  0.99587000  0.93696500  1
  Ni  Ni19  1  0.99587000  0.63043400  0.93696500  1
  Ni  Ni20  1  0.36956600  0.00413000  0.43696500  1
  Ni  Ni21  1  0.00413000  0.36956600  0.43696500  1
  Ni  Ni22  1  0.47354800  0.21280900  0.77634300  1
  Ni  Ni23  1  0.21280900  0.47354800  0.77634300  1
  Ni  Ni24  1  0.52645200  0.78719100  0.27634300  1
  Ni  Ni25  1  0.78719100  0.52645200  0.27634300  1
  B  B26  1  0.83607900  0.83607900  0.83865400  1
  B  B27  1  0.16392100  0.16392100  0.33865400  1
  B  B28  1  0.48897300  0.48897300  0.65225700  1
  B  B29  1  0.51102700  0.51102700  0.15225700  1
  B  B30  1  0.32626900  0.75701600  0.88492300  1
  B  B31  1  0.75701600  0.32626900  0.88492300  1
  B  B32  1  0.67373100  0.24298400  0.38492300  1
  B  B33  1  0.24298400  0.67373100  0.38492300  1
  B  B34  1  0.40184500  0.98905500  0.62282000  1
  B  B35  1  0.98905500  0.40184500  0.62282000  1
  B  B36  1  0.59815500  0.01094500  0.12282000  1
  B  B37  1  0.01094500  0.59815500  0.12282000  1
