# generated using pymatgen
data_DyClO
_symmetry_space_group_name_H-M   'P 1'
_cell_length_a   9.74467988
_cell_length_b   9.74467988
_cell_length_c   9.74467979
_cell_angle_alpha   22.59843310
_cell_angle_beta   22.59843310
_cell_angle_gamma   22.59843567
_symmetry_Int_Tables_number   1
_chemical_formula_structural   DyClO
_chemical_formula_sum   'Dy2 Cl2 O2'
_cell_volume   119.86651670
_cell_formula_units_Z   2
loop_
 _symmetry_equiv_pos_site_id
 _symmetry_equiv_pos_as_xyz
  1  'x, y, z'
loop_
 _atom_site_type_symbol
 _atom_site_label
 _atom_site_symmetry_multiplicity
 _atom_site_fract_x
 _atom_site_fract_y
 _atom_site_fract_z
 _atom_site_occupancy
  Dy  Dy0  1  0.21687900  0.21687900  0.21687900  1
  Dy  Dy1  1  0.78312100  0.78312100  0.78312100  1
  Cl  Cl2  1  0.38881200  0.38881200  0.38881200  1
  Cl  Cl3  1  0.61118800  0.61118800  0.61118800  1
  O  O4  1  0.13678400  0.13678400  0.13678400  1
  O  O5  1  0.86321600  0.86321600  0.86321600  1
