# generated using pymatgen
data_Lu5Pt4
_symmetry_space_group_name_H-M   'P 1'
_cell_length_a   7.31365800
_cell_length_b   7.40541900
_cell_length_c   14.60029300
_cell_angle_alpha   90.00000000
_cell_angle_beta   90.00000000
_cell_angle_gamma   90.00000000
_symmetry_Int_Tables_number   1
_chemical_formula_structural   Lu5Pt4
_chemical_formula_sum   'Lu20 Pt16'
_cell_volume   790.76211701
_cell_formula_units_Z   4
loop_
 _symmetry_equiv_pos_site_id
 _symmetry_equiv_pos_as_xyz
  1  'x, y, z'
loop_
 _atom_site_type_symbol
 _atom_site_label
 _atom_site_symmetry_multiplicity
 _atom_site_fract_x
 _atom_site_fract_y
 _atom_site_fract_z
 _atom_site_occupancy
  Lu  Lu0  1  0.62490500  0.16365900  0.61857800  1
  Lu  Lu1  1  0.12490500  0.33634100  0.88142200  1
  Lu  Lu2  1  0.37509500  0.83634100  0.11857800  1
  Lu  Lu3  1  0.87509500  0.66365900  0.38142200  1
  Lu  Lu4  1  0.37509500  0.83634100  0.38142200  1
  Lu  Lu5  1  0.87509500  0.66365900  0.11857800  1
  Lu  Lu6  1  0.62490500  0.16365900  0.88142200  1
  Lu  Lu7  1  0.12490500  0.33634100  0.61857800  1
  Lu  Lu8  1  0.47197600  0.67495400  0.59887700  1
  Lu  Lu9  1  0.97197600  0.82504600  0.90112300  1
  Lu  Lu10  1  0.52802400  0.32504600  0.09887700  1
  Lu  Lu11  1  0.02802400  0.17495400  0.40112300  1
  Lu  Lu12  1  0.52802400  0.32504600  0.40112300  1
  Lu  Lu13  1  0.02802400  0.17495400  0.09887700  1
  Lu  Lu14  1  0.47197600  0.67495400  0.90112300  1
  Lu  Lu15  1  0.97197600  0.82504600  0.59887700  1
  Lu  Lu16  1  0.79096700  0.50444300  0.75000000  1
  Lu  Lu17  1  0.29096700  0.99555700  0.75000000  1
  Lu  Lu18  1  0.20903300  0.49555700  0.25000000  1
  Lu  Lu19  1  0.70903300  0.00444300  0.25000000  1
  Pt  Pt20  1  0.71180800  0.97413200  0.45589700  1
  Pt  Pt21  1  0.21180800  0.52586800  0.04410300  1
  Pt  Pt22  1  0.28819200  0.02586800  0.95589700  1
  Pt  Pt23  1  0.78819200  0.47413200  0.54410300  1
  Pt  Pt24  1  0.28819200  0.02586800  0.54410300  1
  Pt  Pt25  1  0.78819200  0.47413200  0.95589700  1
  Pt  Pt26  1  0.71180800  0.97413200  0.04410300  1
  Pt  Pt27  1  0.21180800  0.52586800  0.45589700  1
  Pt  Pt28  1  0.42402700  0.37742600  0.75000000  1
  Pt  Pt29  1  0.92402700  0.12257400  0.75000000  1
  Pt  Pt30  1  0.57597300  0.62257400  0.25000000  1
  Pt  Pt31  1  0.07597300  0.87742600  0.25000000  1
  Pt  Pt32  1  0.65872100  0.85769100  0.75000000  1
  Pt  Pt33  1  0.15872100  0.64230900  0.75000000  1
  Pt  Pt34  1  0.34127900  0.14230900  0.25000000  1
  Pt  Pt35  1  0.84127900  0.35769100  0.25000000  1
