# generated using pymatgen
data_LaGeRu
_symmetry_space_group_name_H-M   'P 1'
_cell_length_a   4.35825900
_cell_length_b   4.35825900
_cell_length_c   7.06964500
_cell_angle_alpha   90.00000000
_cell_angle_beta   90.00000000
_cell_angle_gamma   90.00000000
_symmetry_Int_Tables_number   1
_chemical_formula_structural   LaGeRu
_chemical_formula_sum   'La2 Ge2 Ru2'
_cell_volume   134.28381706
_cell_formula_units_Z   2
loop_
 _symmetry_equiv_pos_site_id
 _symmetry_equiv_pos_as_xyz
  1  'x, y, z'
loop_
 _atom_site_type_symbol
 _atom_site_label
 _atom_site_symmetry_multiplicity
 _atom_site_fract_x
 _atom_site_fract_y
 _atom_site_fract_z
 _atom_site_occupancy
  La  La0  1  0.00000000  0.50000000  0.30987700  1
  La  La1  1  0.50000000  0.00000000  0.69012300  1
  Ge  Ge2  1  0.00000000  0.50000000  0.81563500  1
  Ge  Ge3  1  0.50000000  0.00000000  0.18436500  1
  Ru  Ru4  1  0.00000000  0.00000000  0.00000000  1
  Ru  Ru5  1  0.50000000  0.50000000  0.00000000  1
