# generated using pymatgen
data_Ca(GaS2)2
_symmetry_space_group_name_H-M   'P 1'
_cell_length_a   14.37700489
_cell_length_b   11.88680385
_cell_length_c   11.83970068
_cell_angle_alpha   74.59374370
_cell_angle_beta   52.85245867
_cell_angle_gamma   52.55379763
_symmetry_Int_Tables_number   1
_chemical_formula_structural   Ca(GaS2)2
_chemical_formula_sum   'Ca8 Ga16 S32'
_cell_volume   1263.85607767
_cell_formula_units_Z   8
loop_
 _symmetry_equiv_pos_site_id
 _symmetry_equiv_pos_as_xyz
  1  'x, y, z'
loop_
 _atom_site_type_symbol
 _atom_site_label
 _atom_site_symmetry_multiplicity
 _atom_site_fract_x
 _atom_site_fract_y
 _atom_site_fract_z
 _atom_site_occupancy
  Ca  Ca0  1  0.50000000  0.50000000  0.50000000  1
  Ca  Ca1  1  0.75000000  0.75000000  0.75000000  1
  Ca  Ca2  1  0.00000000  0.00000000  0.00000000  1
  Ca  Ca3  1  0.25000000  0.25000000  0.25000000  1
  Ca  Ca4  1  0.24781200  0.24781200  0.75218800  1
  Ca  Ca5  1  0.75218800  0.75218800  0.24781200  1
  Ca  Ca6  1  0.00218800  0.00218800  0.49781200  1
  Ca  Ca7  1  0.49781200  0.49781200  0.00218800  1
  Ga  Ga8  1  0.59255200  0.15694900  0.26589000  1
  Ga  Ga9  1  0.98460900  0.26589000  0.15694900  1
  Ga  Ga10  1  0.26589000  0.98460900  0.59255200  1
  Ga  Ga11  1  0.15694900  0.59255200  0.98460900  1
  Ga  Ga12  1  0.65744800  0.09305100  0.98411000  1
  Ga  Ga13  1  0.26539100  0.98411000  0.09305100  1
  Ga  Ga14  1  0.98411000  0.26539100  0.65744800  1
  Ga  Ga15  1  0.09305100  0.65744800  0.26539100  1
  Ga  Ga16  1  0.73783500  0.01346100  0.48799800  1
  Ga  Ga17  1  0.76070600  0.48799800  0.01346100  1
  Ga  Ga18  1  0.48799800  0.76070600  0.73783500  1
  Ga  Ga19  1  0.01346100  0.73783500  0.76070600  1
  Ga  Ga20  1  0.51216500  0.23653900  0.76200200  1
  Ga  Ga21  1  0.48929400  0.76200200  0.23653900  1
  Ga  Ga22  1  0.76200200  0.48929400  0.51216500  1
  Ga  Ga23  1  0.23653900  0.51216500  0.48929400  1
  S  S24  1  0.30856100  0.43876500  0.77807600  1
  S  S25  1  0.47459800  0.77807600  0.43876500  1
  S  S26  1  0.77807600  0.47459800  0.30856100  1
  S  S27  1  0.43876500  0.30856100  0.47459800  1
  S  S28  1  0.94143900  0.81123500  0.47192400  1
  S  S29  1  0.77540200  0.47192400  0.81123500  1
  S  S30  1  0.47192400  0.77540200  0.94143900  1
  S  S31  1  0.81123500  0.94143900  0.77540200  1
  S  S32  1  0.97019300  0.78230700  0.96817900  1
  S  S33  1  0.27932200  0.96817900  0.78230700  1
  S  S34  1  0.96817900  0.27932200  0.97019300  1
  S  S35  1  0.78230700  0.97019300  0.27932200  1
  S  S36  1  0.27980700  0.46769300  0.28182100  1
  S  S37  1  0.97067800  0.28182100  0.46769300  1
  S  S38  1  0.28182100  0.97067800  0.27980700  1
  S  S39  1  0.46769300  0.27980700  0.97067800  1
  S  S40  1  0.21186800  0.20913600  0.03779200  1
  S  S41  1  0.54120500  0.03779200  0.20913600  1
  S  S42  1  0.03779200  0.54120500  0.21186800  1
  S  S43  1  0.20913600  0.21186800  0.54120500  1
  S  S44  1  0.03813200  0.04086400  0.21220800  1
  S  S45  1  0.70879500  0.21220800  0.04086400  1
  S  S46  1  0.21220800  0.70879500  0.03813200  1
  S  S47  1  0.04086400  0.03813200  0.70879500  1
  S  S48  1  0.54155500  0.53844000  0.70856800  1
  S  S49  1  0.21143700  0.70856800  0.53844000  1
  S  S50  1  0.70856800  0.21143700  0.54155500  1
  S  S51  1  0.53844000  0.54155500  0.21143700  1
  S  S52  1  0.70844500  0.71156000  0.54143200  1
  S  S53  1  0.03856300  0.54143200  0.71156000  1
  S  S54  1  0.54143200  0.03856300  0.70844500  1
  S  S55  1  0.71156000  0.70844500  0.03856300  1
