# generated using pymatgen
data_Ba2TaFeO6
_symmetry_space_group_name_H-M   'P 1'
_cell_length_a   5.79980013
_cell_length_b   5.79980013
_cell_length_c   10.04554850
_cell_angle_alpha   73.22134512
_cell_angle_beta   90.00000000
_cell_angle_gamma   120.00000000
_symmetry_Int_Tables_number   1
_chemical_formula_structural   Ba2TaFeO6
_chemical_formula_sum   'Ba4 Ta2 Fe2 O12'
_cell_volume   275.90151134
_cell_formula_units_Z   2
loop_
 _symmetry_equiv_pos_site_id
 _symmetry_equiv_pos_as_xyz
  1  'x, y, z'
loop_
 _atom_site_type_symbol
 _atom_site_label
 _atom_site_symmetry_multiplicity
 _atom_site_fract_x
 _atom_site_fract_y
 _atom_site_fract_z
 _atom_site_occupancy
  Ba  Ba0  1  0.87500000  0.75000000  0.37500000  1
  Ba  Ba1  1  0.37500000  0.75000000  0.87500000  1
  Ba  Ba2  1  0.62500000  0.25000000  0.12500000  1
  Ba  Ba3  1  0.12500000  0.25000000  0.62500000  1
  Ta  Ta4  1  0.25000000  0.50000000  0.25000000  1
  Ta  Ta5  1  0.75000000  0.50000000  0.75000000  1
  Fe  Fe6  1  0.50000000  0.00000000  0.50000000  1
  Fe  Fe7  1  0.00000000  0.00000000  0.00000000  1
  O  O8  1  0.61904100  0.74602700  0.12698600  1
  O  O9  1  0.11904100  0.74602700  0.62698600  1
  O  O10  1  0.88095900  0.25397300  0.37301400  1
  O  O11  1  0.38095900  0.25397300  0.87301400  1
  O  O12  1  0.37301400  0.25397300  0.37301400  1
  O  O13  1  0.87301400  0.25397300  0.87301400  1
  O  O14  1  0.12698600  0.74602700  0.12698600  1
  O  O15  1  0.62698600  0.74602700  0.62698600  1
  O  O16  1  0.37301400  0.74602700  0.37301400  1
  O  O17  1  0.87301400  0.74602700  0.87301400  1
  O  O18  1  0.12698600  0.25397300  0.12698600  1
  O  O19  1  0.62698600  0.25397300  0.62698600  1
