# generated using pymatgen
data_V20Ga2Ge3S40
_symmetry_space_group_name_H-M   'P 1'
_cell_length_a   11.89608008
_cell_length_b   11.89608008
_cell_length_c   15.35803614
_cell_angle_alpha   49.78836588
_cell_angle_beta   49.78836588
_cell_angle_gamma   48.14404753
_symmetry_Int_Tables_number   1
_chemical_formula_structural   V20Ga2Ge3S40
_chemical_formula_sum   'V20 Ga2 Ge3 S40'
_cell_volume   1144.67479094
_cell_formula_units_Z   1
loop_
 _symmetry_equiv_pos_site_id
 _symmetry_equiv_pos_as_xyz
  1  'x, y, z'
loop_
 _atom_site_type_symbol
 _atom_site_label
 _atom_site_symmetry_multiplicity
 _atom_site_fract_x
 _atom_site_fract_y
 _atom_site_fract_z
 _atom_site_occupancy
  V  V0  1  0.11216300  0.92068500  0.24194300  1
  V  V1  1  0.51225300  0.32055900  0.04223100  1
  V  V2  1  0.91239400  0.72079100  0.84157100  1
  V  V3  1  0.31108700  0.12181600  0.64144700  1
  V  V4  1  0.71181600  0.52169300  0.44155800  1
  V  V5  1  0.36255600  0.75351200  0.32593800  1
  V  V6  1  0.76215500  0.15367900  0.12542600  1
  V  V7  1  0.16248100  0.55450300  0.92464000  1
  V  V8  1  0.56330100  0.95365000  0.72478900  1
  V  V9  1  0.96376400  0.35310400  0.52535500  1
  V  V10  1  0.44549700  0.83751900  0.07536000  1
  V  V11  1  0.84632100  0.23784500  0.87457400  1
  V  V12  1  0.24648800  0.63744400  0.67406200  1
  V  V13  1  0.64689600  0.03623600  0.47464500  1
  V  V14  1  0.04635000  0.43669900  0.27521100  1
  V  V15  1  0.27920900  0.08760600  0.15842900  1
  V  V16  1  0.67944100  0.48774700  0.95776900  1
  V  V17  1  0.07931500  0.88783700  0.75805700  1
  V  V18  1  0.47830700  0.28818400  0.55844200  1
  V  V19  1  0.87818400  0.68891300  0.35855300  1
  Ga  Ga20  1  0.00019700  0.59983400  0.59996400  1
  Ga  Ga21  1  0.40016600  0.99980300  0.40003600  1
  Ge  Ge22  1  0.79998200  0.39996300  0.20001300  1
  Ge  Ge23  1  0.19967900  0.80032100  0.00000000  1
  Ge  Ge24  1  0.60003700  0.20001800  0.79998700  1
  S  S25  1  0.53248100  0.87456700  0.14838200  1
  S  S26  1  0.93239600  0.27441700  0.94866400  1
  S  S27  1  0.33266000  0.67473100  0.74780500  1
  S  S28  1  0.73272600  0.07440400  0.54807100  1
  S  S29  1  0.13269700  0.47457000  0.34822800  1
  S  S30  1  0.22274700  0.08086900  0.04478700  1
  S  S31  1  0.62242000  0.48053700  0.84482900  1
  S  S32  1  0.02301100  0.88079100  0.64443600  1
  S  S33  1  0.42272400  0.28079500  0.44455500  1
  S  S34  1  0.82276400  0.68102000  0.24463400  1
  S  S35  1  0.11920900  0.97698900  0.35556400  1
  S  S36  1  0.51946300  0.37758000  0.15517100  1
  S  S37  1  0.91913100  0.77725300  0.95521300  1
  S  S38  1  0.31898000  0.17723600  0.75536600  1
  S  S39  1  0.71920500  0.57727600  0.55544500  1
  S  S40  1  0.32526900  0.66734000  0.25219500  1
  S  S41  1  0.72558300  0.06760400  0.05133600  1
  S  S42  1  0.12543300  0.46751900  0.85161800  1
  S  S43  1  0.52543000  0.86730300  0.65177200  1
  S  S44  1  0.92559600  0.26727400  0.45192900  1
  S  S45  1  0.84479000  0.17254000  0.74578600  1
  S  S46  1  0.24717000  0.57219600  0.54521000  1
  S  S47  1  0.64699600  0.97284300  0.34485400  1
  S  S48  1  0.04522400  0.37286900  0.14535100  1
  S  S49  1  0.44508500  0.77273600  0.94562700  1
  S  S50  1  0.11824100  0.99039000  0.83686100  1
  S  S51  1  0.51859400  0.39023000  0.63675900  1
  S  S52  1  0.91786800  0.79216200  0.43528000  1
  S  S53  1  0.31745000  0.19253200  0.23500400  1
  S  S54  1  0.71801700  0.59090100  0.03664500  1
  S  S55  1  0.20783800  0.08213200  0.56472000  1
  S  S56  1  0.60977000  0.48140600  0.36324100  1
  S  S57  1  0.00961000  0.88175900  0.16313900  1
  S  S58  1  0.40909900  0.28198300  0.96335500  1
  S  S59  1  0.80746800  0.68255000  0.76499600  1
  S  S60  1  0.02715700  0.35300400  0.65514600  1
  S  S61  1  0.42780400  0.75283000  0.45479000  1
  S  S62  1  0.82746000  0.15521000  0.25421400  1
  S  S63  1  0.22726400  0.55491500  0.05437300  1
  S  S64  1  0.62713100  0.95477600  0.85464900  1
