# generated using pymatgen
data_AlH7C2SCl4
_symmetry_space_group_name_H-M   'P 1'
_cell_length_a   11.46491300
_cell_length_b   13.09498300
_cell_length_c   15.32075705
_cell_angle_alpha   89.51316489
_cell_angle_beta   90.00000000
_cell_angle_gamma   90.00000000
_symmetry_Int_Tables_number   1
_chemical_formula_structural   AlH7C2SCl4
_chemical_formula_sum   'Al8 H56 C16 S8 Cl32'
_cell_volume   2300.06574864
_cell_formula_units_Z   8
loop_
 _symmetry_equiv_pos_site_id
 _symmetry_equiv_pos_as_xyz
  1  'x, y, z'
loop_
 _atom_site_type_symbol
 _atom_site_label
 _atom_site_symmetry_multiplicity
 _atom_site_fract_x
 _atom_site_fract_y
 _atom_site_fract_z
 _atom_site_occupancy
  Al  Al0  1  0.22928100  0.60069700  0.37633000  1
  Al  Al1  1  0.72928100  0.89930300  0.62367000  1
  Al  Al2  1  0.77071900  0.39930300  0.62367000  1
  Al  Al3  1  0.27071900  0.10069700  0.37633000  1
  Al  Al4  1  0.72971400  0.47103000  0.12445800  1
  Al  Al5  1  0.22971400  0.02897000  0.87554200  1
  Al  Al6  1  0.27028600  0.52897000  0.87554200  1
  Al  Al7  1  0.77028600  0.97103000  0.12445800  1
  H  H8  1  0.64677100  0.64807400  0.48286800  1
  H  H9  1  0.14677100  0.85192600  0.51713200  1
  H  H10  1  0.35322900  0.35192600  0.51713200  1
  H  H11  1  0.85322900  0.14807400  0.48286800  1
  H  H12  1  0.11306400  0.84568000  0.22217100  1
  H  H13  1  0.61306400  0.65432000  0.77782900  1
  H  H14  1  0.88693600  0.15432000  0.77782900  1
  H  H15  1  0.38693600  0.34568000  0.22217100  1
  H  H16  1  0.50459500  0.76084600  0.37443100  1
  H  H17  1  0.00459500  0.73915400  0.62556900  1
  H  H18  1  0.49540500  0.23915400  0.62556900  1
  H  H19  1  0.99540500  0.26084600  0.37443100  1
  H  H20  1  0.65030800  0.81126100  0.38963500  1
  H  H21  1  0.15030800  0.68873900  0.61036500  1
  H  H22  1  0.34969200  0.18873900  0.61036500  1
  H  H23  1  0.84969200  0.31126100  0.38963500  1
  H  H24  1  0.60892900  0.75447800  0.28737200  1
  H  H25  1  0.10892900  0.74552200  0.71262800  1
  H  H26  1  0.39107100  0.24552200  0.71262800  1
  H  H27  1  0.89107100  0.25447800  0.28737200  1
  H  H28  1  0.82834500  0.55276600  0.39681800  1
  H  H29  1  0.32834500  0.94723400  0.60318200  1
  H  H30  1  0.17165500  0.44723400  0.60318200  1
  H  H31  1  0.67165500  0.05276600  0.39681800  1
  H  H32  1  0.80298400  0.62901200  0.30072900  1
  H  H33  1  0.30298400  0.87098800  0.69927100  1
  H  H34  1  0.19701600  0.37098800  0.69927100  1
  H  H35  1  0.69701600  0.12901200  0.30072900  1
  H  H36  1  0.83907300  0.69026500  0.40225800  1
  H  H37  1  0.33907300  0.80973500  0.59774200  1
  H  H38  1  0.16092700  0.30973500  0.59774200  1
  H  H39  1  0.66092700  0.19026500  0.40225800  1
  H  H40  1  0.30977100  0.92727000  0.14231900  1
  H  H41  1  0.80977100  0.57273000  0.85768100  1
  H  H42  1  0.69022900  0.07273000  0.85768100  1
  H  H43  1  0.19022900  0.42727000  0.14231900  1
  H  H44  1  0.31565600  0.79231100  0.16889200  1
  H  H45  1  0.81565600  0.70768900  0.83110800  1
  H  H46  1  0.68434400  0.20768900  0.83110800  1
  H  H47  1  0.18434400  0.29231100  0.16889200  1
  H  H48  1  0.29992400  0.83446300  0.05730600  1
  H  H49  1  0.79992400  0.66553700  0.94269400  1
  H  H50  1  0.70007600  0.16553700  0.94269400  1
  H  H51  1  0.20007600  0.33446300  0.05730600  1
  H  H52  1  0.98170000  0.72529700  0.11356700  1
  H  H53  1  0.48170000  0.77470300  0.88643300  1
  H  H54  1  0.01830000  0.27470300  0.88643300  1
  H  H55  1  0.51830000  0.22529700  0.11356700  1
  H  H56  1  0.10276600  0.71238400  0.04010600  1
  H  H57  1  0.60276600  0.78761600  0.95989400  1
  H  H58  1  0.89723400  0.28761600  0.95989400  1
  H  H59  1  0.39723400  0.21238400  0.04010600  1
  H  H60  1  0.11804700  0.67140100  0.15194900  1
  H  H61  1  0.61804700  0.82859900  0.84805100  1
  H  H62  1  0.88195300  0.32859900  0.84805100  1
  H  H63  1  0.38195300  0.17140100  0.15194900  1
  C  C64  1  0.59703700  0.75268900  0.35842800  1
  C  C65  1  0.09703700  0.74731100  0.64157200  1
  C  C66  1  0.40296300  0.24731100  0.64157200  1
  C  C67  1  0.90296300  0.25268900  0.35842800  1
  C  C68  1  0.79474100  0.62563400  0.37194800  1
  C  C69  1  0.29474100  0.87436600  0.62805200  1
  C  C70  1  0.20525900  0.37436600  0.62805200  1
  C  C71  1  0.70525900  0.12563400  0.37194800  1
  C  C72  1  0.27884900  0.85067400  0.12543500  1
  C  C73  1  0.77884900  0.64932600  0.87456500  1
  C  C74  1  0.72115100  0.14932600  0.87456500  1
  C  C75  1  0.22115100  0.35067400  0.12543500  1
  C  C76  1  0.07702500  0.72662900  0.10771600  1
  C  C77  1  0.57702500  0.77337100  0.89228400  1
  C  C78  1  0.92297500  0.27337100  0.89228400  1
  C  C79  1  0.42297500  0.22662900  0.10771600  1
  S  S80  1  0.64077500  0.62762600  0.39576900  1
  S  S81  1  0.14077500  0.87237400  0.60423100  1
  S  S82  1  0.35922500  0.37237400  0.60423100  1
  S  S83  1  0.85922500  0.12762600  0.39576900  1
  S  S84  1  0.12196800  0.85471700  0.13380400  1
  S  S85  1  0.62196800  0.64528300  0.86619600  1
  S  S86  1  0.87803200  0.14528300  0.86619600  1
  S  S87  1  0.37803200  0.35471700  0.13380400  1
  Cl  Cl88  1  0.33953200  0.61852800  0.49041600  1
  Cl  Cl89  1  0.83953200  0.88147200  0.50958400  1
  Cl  Cl90  1  0.66046800  0.38147200  0.50958400  1
  Cl  Cl91  1  0.16046800  0.11852800  0.49041600  1
  Cl  Cl92  1  0.33658400  0.59758300  0.26102500  1
  Cl  Cl93  1  0.83658400  0.90241700  0.73897500  1
  Cl  Cl94  1  0.66341600  0.40241700  0.73897500  1
  Cl  Cl95  1  0.16341600  0.09758300  0.26102500  1
  Cl  Cl96  1  0.13219200  0.46122700  0.38947700  1
  Cl  Cl97  1  0.63219200  0.03877300  0.61052300  1
  Cl  Cl98  1  0.86780800  0.53877300  0.61052300  1
  Cl  Cl99  1  0.36780800  0.96122700  0.38947700  1
  Cl  Cl100  1  0.11225500  0.73148400  0.36902600  1
  Cl  Cl101  1  0.61225500  0.76851600  0.63097400  1
  Cl  Cl102  1  0.88774500  0.26851600  0.63097400  1
  Cl  Cl103  1  0.38774500  0.23148400  0.36902600  1
  Cl  Cl104  1  0.91658500  0.45411300  0.12966200  1
  Cl  Cl105  1  0.41658500  0.04588700  0.87033800  1
  Cl  Cl106  1  0.08341500  0.54588700  0.87033800  1
  Cl  Cl107  1  0.58341500  0.95411300  0.12966200  1
  Cl  Cl108  1  0.65146900  0.39944800  0.23855200  1
  Cl  Cl109  1  0.15146900  0.10055200  0.76144800  1
  Cl  Cl110  1  0.34853100  0.60055200  0.76144800  1
  Cl  Cl111  1  0.84853100  0.89944800  0.23855200  1
  Cl  Cl112  1  0.68682200  0.63210800  0.12508600  1
  Cl  Cl113  1  0.18682200  0.86789200  0.87491400  1
  Cl  Cl114  1  0.31317800  0.36789200  0.87491400  1
  Cl  Cl115  1  0.81317800  0.13210800  0.12508600  1
  Cl  Cl116  1  0.66027500  0.40197000  0.00841800  1
  Cl  Cl117  1  0.16027500  0.09803000  0.99158200  1
  Cl  Cl118  1  0.33972500  0.59803000  0.99158200  1
  Cl  Cl119  1  0.83972500  0.90197000  0.00841800  1
