# generated using pymatgen
data_CsLu(NbBr3)6
_symmetry_space_group_name_H-M   'P 1'
_cell_length_a   9.91257049
_cell_length_b   9.91257049
_cell_length_c   18.50041300
_cell_angle_alpha   90.00000000
_cell_angle_beta   90.00000000
_cell_angle_gamma   120.00000326
_symmetry_Int_Tables_number   1
_chemical_formula_structural   CsLu(NbBr3)6
_chemical_formula_sum   'Cs2 Lu2 Nb12 Br36'
_cell_volume   1574.28957026
_cell_formula_units_Z   2
loop_
 _symmetry_equiv_pos_site_id
 _symmetry_equiv_pos_as_xyz
  1  'x, y, z'
loop_
 _atom_site_type_symbol
 _atom_site_label
 _atom_site_symmetry_multiplicity
 _atom_site_fract_x
 _atom_site_fract_y
 _atom_site_fract_z
 _atom_site_occupancy
  Cs  Cs0  1  0.33333300  0.66666700  0.75000000  1
  Cs  Cs1  1  0.66666700  0.33333300  0.25000000  1
  Lu  Lu2  1  0.66666700  0.33333300  0.75000000  1
  Lu  Lu3  1  0.33333300  0.66666700  0.25000000  1
  Nb  Nb4  1  0.85074000  0.03922100  0.56503800  1
  Nb  Nb5  1  0.14926000  0.96077900  0.43496200  1
  Nb  Nb6  1  0.96077900  0.81151900  0.56503800  1
  Nb  Nb7  1  0.85074000  0.81151900  0.93496200  1
  Nb  Nb8  1  0.03922100  0.18848100  0.43496200  1
  Nb  Nb9  1  0.14926000  0.18848100  0.06503800  1
  Nb  Nb10  1  0.18848100  0.14926000  0.56503800  1
  Nb  Nb11  1  0.96077900  0.14926000  0.93496200  1
  Nb  Nb12  1  0.81151900  0.85074000  0.43496200  1
  Nb  Nb13  1  0.03922100  0.85074000  0.06503800  1
  Nb  Nb14  1  0.18848100  0.03922100  0.93496200  1
  Nb  Nb15  1  0.81151900  0.96077900  0.06503800  1
  Br  Br16  1  0.63674000  0.08891500  0.66297900  1
  Br  Br17  1  0.36326000  0.91108500  0.33702100  1
  Br  Br18  1  0.91108500  0.54782500  0.66297900  1
  Br  Br19  1  0.63674000  0.54782500  0.83702100  1
  Br  Br20  1  0.08891500  0.45217500  0.33702100  1
  Br  Br21  1  0.36326000  0.45217500  0.16297900  1
  Br  Br22  1  0.45217500  0.36326000  0.66297900  1
  Br  Br23  1  0.91108500  0.36326000  0.83702100  1
  Br  Br24  1  0.54782500  0.63674000  0.33702100  1
  Br  Br25  1  0.08891500  0.63674000  0.16297900  1
  Br  Br26  1  0.45217500  0.08891500  0.83702100  1
  Br  Br27  1  0.54782500  0.91108500  0.16297900  1
  Br  Br28  1  0.04709200  0.23286900  0.65987500  1
  Br  Br29  1  0.95290800  0.76713100  0.34012500  1
  Br  Br30  1  0.76713100  0.81422200  0.65987500  1
  Br  Br31  1  0.04709200  0.81422200  0.84012500  1
  Br  Br32  1  0.23286900  0.18577800  0.34012500  1
  Br  Br33  1  0.95290800  0.18577800  0.15987500  1
  Br  Br34  1  0.18577800  0.95290800  0.65987500  1
  Br  Br35  1  0.76713100  0.95290800  0.84012500  1
  Br  Br36  1  0.81422200  0.04709200  0.34012500  1
  Br  Br37  1  0.23286900  0.04709200  0.15987500  1
  Br  Br38  1  0.18577800  0.23286900  0.84012500  1
  Br  Br39  1  0.81422200  0.76713100  0.15987500  1
  Br  Br40  1  0.27761700  0.41704600  0.50118500  1
  Br  Br41  1  0.72238300  0.58295400  0.49881500  1
  Br  Br42  1  0.58295400  0.86057100  0.50118500  1
  Br  Br43  1  0.27761700  0.86057100  0.99881500  1
  Br  Br44  1  0.41704600  0.13942900  0.49881500  1
  Br  Br45  1  0.72238300  0.13942900  0.00118500  1
  Br  Br46  1  0.13942900  0.72238300  0.50118500  1
  Br  Br47  1  0.58295400  0.72238300  0.99881500  1
  Br  Br48  1  0.86057100  0.27761700  0.49881500  1
  Br  Br49  1  0.41704600  0.27761700  0.00118500  1
  Br  Br50  1  0.13942900  0.41704600  0.99881500  1
  Br  Br51  1  0.86057100  0.58295400  0.00118500  1
