# generated using pymatgen
data_CdSb5OF28
_symmetry_space_group_name_H-M   'P 1'
_cell_length_a   12.78374900
_cell_length_b   10.23164900
_cell_length_c   18.60350856
_cell_angle_alpha   81.75807324
_cell_angle_beta   90.00000000
_cell_angle_gamma   90.00000000
_symmetry_Int_Tables_number   1
_chemical_formula_structural   CdSb5OF28
_chemical_formula_sum   'Cd4 Sb20 O4 F112'
_cell_volume   2408.18491910
_cell_formula_units_Z   4
loop_
 _symmetry_equiv_pos_site_id
 _symmetry_equiv_pos_as_xyz
  1  'x, y, z'
loop_
 _atom_site_type_symbol
 _atom_site_label
 _atom_site_symmetry_multiplicity
 _atom_site_fract_x
 _atom_site_fract_y
 _atom_site_fract_z
 _atom_site_occupancy
  Cd  Cd0  1  0.64304800  0.69507200  0.26043800  1
  Cd  Cd1  1  0.14304800  0.80492800  0.73956200  1
  Cd  Cd2  1  0.35695200  0.30492800  0.73956200  1
  Cd  Cd3  1  0.85695200  0.19507200  0.26043800  1
  Sb  Sb4  1  0.71922600  0.47378400  0.09626300  1
  Sb  Sb5  1  0.21922600  0.02621600  0.90373700  1
  Sb  Sb6  1  0.28077400  0.52621600  0.90373700  1
  Sb  Sb7  1  0.78077400  0.97378400  0.09626300  1
  Sb  Sb8  1  0.75983200  0.40352800  0.43040500  1
  Sb  Sb9  1  0.25983200  0.09647200  0.56959500  1
  Sb  Sb10  1  0.24016800  0.59647200  0.56959500  1
  Sb  Sb11  1  0.74016800  0.90352800  0.43040500  1
  Sb  Sb12  1  0.36884100  0.74174000  0.13897500  1
  Sb  Sb13  1  0.86884100  0.75826000  0.86102500  1
  Sb  Sb14  1  0.63115900  0.25826000  0.86102500  1
  Sb  Sb15  1  0.13115900  0.24174000  0.13897500  1
  Sb  Sb16  1  0.39788800  0.55931100  0.33845900  1
  Sb  Sb17  1  0.89788800  0.94068900  0.66154100  1
  Sb  Sb18  1  0.60211200  0.44068900  0.66154100  1
  Sb  Sb19  1  0.10211200  0.05931100  0.33845900  1
  Sb  Sb20  1  0.96335400  0.58991600  0.29200800  1
  Sb  Sb21  1  0.46335400  0.91008400  0.70799200  1
  Sb  Sb22  1  0.03664600  0.41008400  0.70799200  1
  Sb  Sb23  1  0.53664600  0.08991600  0.29200800  1
  O  O24  1  0.95156900  0.32586400  0.93816400  1
  O  O25  1  0.45156900  0.17413600  0.06183600  1
  O  O26  1  0.04843100  0.67413600  0.06183600  1
  O  O27  1  0.54843100  0.82586400  0.93816400  1
  F  F28  1  0.35906800  0.91378000  0.16512200  1
  F  F29  1  0.85906800  0.58622000  0.83487800  1
  F  F30  1  0.64093200  0.08622000  0.83487800  1
  F  F31  1  0.14093200  0.41378000  0.16512200  1
  F  F32  1  0.83093500  0.67431200  0.26480700  1
  F  F33  1  0.33093500  0.82568800  0.73519300  1
  F  F34  1  0.16906500  0.32568800  0.73519300  1
  F  F35  1  0.66906500  0.17431200  0.26480700  1
  F  F36  1  0.64217200  0.30348500  0.46364900  1
  F  F37  1  0.14217200  0.19651500  0.53635100  1
  F  F38  1  0.35782800  0.69651500  0.53635100  1
  F  F39  1  0.85782800  0.80348500  0.46364900  1
  F  F40  1  0.38094400  0.56390300  0.12501000  1
  F  F41  1  0.88094400  0.93609700  0.87499000  1
  F  F42  1  0.61905600  0.43609700  0.87499000  1
  F  F43  1  0.11905600  0.06390300  0.12501000  1
  F  F44  1  0.67391200  0.53462700  0.18600700  1
  F  F45  1  0.17391200  0.96537300  0.81399300  1
  F  F46  1  0.32608800  0.46537300  0.81399300  1
  F  F47  1  0.82608800  0.03462700  0.18600700  1
  F  F48  1  0.68598300  0.50476500  0.34982300  1
  F  F49  1  0.18598300  0.99523500  0.65017700  1
  F  F50  1  0.31401700  0.49523500  0.65017700  1
  F  F51  1  0.81401700  0.00476500  0.34982300  1
  F  F52  1  0.59395300  0.37295800  0.09501200  1
  F  F53  1  0.09395300  0.12704200  0.90498800  1
  F  F54  1  0.40604700  0.62704200  0.90498800  1
  F  F55  1  0.90604700  0.87295800  0.09501200  1
  F  F56  1  0.88794400  0.51105200  0.38575900  1
  F  F57  1  0.38794400  0.98894800  0.61424100  1
  F  F58  1  0.11205600  0.48894800  0.61424100  1
  F  F59  1  0.61205600  0.01105200  0.38575900  1
  F  F60  1  0.84541600  0.57135300  0.10235800  1
  F  F61  1  0.34541600  0.92864700  0.89764200  1
  F  F62  1  0.15458400  0.42864700  0.89764200  1
  F  F63  1  0.65458400  0.07135300  0.10235800  1
  F  F64  1  0.77083200  0.40712900  0.01180900  1
  F  F65  1  0.27083200  0.09287100  0.98819100  1
  F  F66  1  0.22916800  0.59287100  0.98819100  1
  F  F67  1  0.72916800  0.90712900  0.01180900  1
  F  F68  1  0.02528900  0.66443900  0.20223700  1
  F  F69  1  0.52528900  0.83556100  0.79776300  1
  F  F70  1  0.97471100  0.33556100  0.79776300  1
  F  F71  1  0.47471100  0.16443900  0.20223700  1
  F  F72  1  0.78189500  0.32422300  0.15765900  1
  F  F73  1  0.28189500  0.17577700  0.84234100  1
  F  F74  1  0.21810500  0.67577700  0.84234100  1
  F  F75  1  0.71810500  0.82422300  0.15765900  1
  F  F76  1  0.99648000  0.73184100  0.34175500  1
  F  F77  1  0.49648000  0.76815900  0.65824500  1
  F  F78  1  0.00352000  0.26815900  0.65824500  1
  F  F79  1  0.50352000  0.23184100  0.34175500  1
  F  F80  1  0.08072400  0.49217300  0.32842900  1
  F  F81  1  0.58072400  0.00782700  0.67157100  1
  F  F82  1  0.91927600  0.50782700  0.67157100  1
  F  F83  1  0.41927600  0.99217300  0.32842900  1
  F  F84  1  0.90969100  0.43832800  0.25360300  1
  F  F85  1  0.40969100  0.06167200  0.74639700  1
  F  F86  1  0.09030900  0.56167200  0.74639700  1
  F  F87  1  0.59030900  0.93832800  0.25360300  1
  F  F88  1  0.51319200  0.73963100  0.17098500  1
  F  F89  1  0.01319200  0.76036900  0.82901500  1
  F  F90  1  0.48680800  0.26036900  0.82901500  1
  F  F91  1  0.98680800  0.23963100  0.17098500  1
  F  F92  1  0.49783800  0.50446000  0.27174600  1
  F  F93  1  0.99783800  0.99554000  0.72825400  1
  F  F94  1  0.50216200  0.49554000  0.72825400  1
  F  F95  1  0.00216200  0.00446000  0.27174600  1
  F  F96  1  0.45890700  0.46899400  0.42302200  1
  F  F97  1  0.95890700  0.03100600  0.57697800  1
  F  F98  1  0.54109300  0.53100600  0.57697800  1
  F  F99  1  0.04109300  0.96899400  0.42302200  1
  F  F100  1  0.29870000  0.65516300  0.38418800  1
  F  F101  1  0.79870000  0.84483700  0.61581200  1
  F  F102  1  0.70130000  0.34483700  0.61581200  1
  F  F103  1  0.20130000  0.15516300  0.38418800  1
  F  F104  1  0.22184200  0.74312400  0.12093600  1
  F  F105  1  0.72184200  0.75687600  0.87906400  1
  F  F106  1  0.77815800  0.25687600  0.87906400  1
  F  F107  1  0.27815800  0.24312400  0.12093600  1
  F  F108  1  0.85903300  0.31776800  0.49543900  1
  F  F109  1  0.35903300  0.18223200  0.50456100  1
  F  F110  1  0.14096700  0.68223200  0.50456100  1
  F  F111  1  0.64096700  0.81776800  0.49543900  1
  F  F112  1  0.79427100  0.28400300  0.36177700  1
  F  F113  1  0.29427100  0.21599700  0.63822300  1
  F  F114  1  0.20572900  0.71599700  0.63822300  1
  F  F115  1  0.70572900  0.78400300  0.36177700  1
  F  F116  1  0.49620600  0.70702800  0.33492800  1
  F  F117  1  0.99620600  0.79297200  0.66507200  1
  F  F118  1  0.50379400  0.29297200  0.66507200  1
  F  F119  1  0.00379400  0.20702800  0.33492800  1
  F  F120  1  0.33474600  0.67338300  0.24473800  1
  F  F121  1  0.83474600  0.82661700  0.75526200  1
  F  F122  1  0.66525400  0.32661700  0.75526200  1
  F  F123  1  0.16525400  0.17338300  0.24473800  1
  F  F124  1  0.65239600  0.62175300  0.04117700  1
  F  F125  1  0.15239600  0.87824700  0.95882300  1
  F  F126  1  0.34760400  0.37824700  0.95882300  1
  F  F127  1  0.84760400  0.12175300  0.04117700  1
  F  F128  1  0.74067000  0.54481400  0.48394800  1
  F  F129  1  0.24067000  0.95518600  0.51605200  1
  F  F130  1  0.25933000  0.45518600  0.51605200  1
  F  F131  1  0.75933000  0.04481400  0.48394800  1
  F  F132  1  0.30410200  0.42680800  0.31948600  1
  F  F133  1  0.80410200  0.07319200  0.68051400  1
  F  F134  1  0.69589800  0.57319200  0.68051400  1
  F  F135  1  0.19589800  0.92680800  0.31948600  1
  F  F136  1  0.41014700  0.80999400  0.04191300  1
  F  F137  1  0.91014700  0.69000600  0.95808700  1
  F  F138  1  0.58985300  0.19000600  0.95808700  1
  F  F139  1  0.08985300  0.30999400  0.04191300  1
