# generated using pymatgen
data_Sc2AlB2Ir5
_symmetry_space_group_name_H-M   'P 1'
_cell_length_a   9.44962300
_cell_length_b   9.44962300
_cell_length_c   3.02599100
_cell_angle_alpha   90.00000000
_cell_angle_beta   90.00000000
_cell_angle_gamma   90.00000000
_symmetry_Int_Tables_number   1
_chemical_formula_structural   Sc2AlB2Ir5
_chemical_formula_sum   'Sc4 Al2 B4 Ir10'
_cell_volume   270.20700061
_cell_formula_units_Z   2
loop_
 _symmetry_equiv_pos_site_id
 _symmetry_equiv_pos_as_xyz
  1  'x, y, z'
loop_
 _atom_site_type_symbol
 _atom_site_label
 _atom_site_symmetry_multiplicity
 _atom_site_fract_x
 _atom_site_fract_y
 _atom_site_fract_z
 _atom_site_occupancy
  Sc  Sc0  1  0.67563000  0.17563000  0.00000000  1
  Sc  Sc1  1  0.32437000  0.82437000  0.00000000  1
  Sc  Sc2  1  0.17563000  0.32437000  0.00000000  1
  Sc  Sc3  1  0.82437000  0.67563000  0.00000000  1
  Al  Al4  1  0.00000000  0.00000000  0.00000000  1
  Al  Al5  1  0.50000000  0.50000000  0.00000000  1
  B  B6  1  0.12495800  0.62495800  0.00000000  1
  B  B7  1  0.87504200  0.37504200  0.00000000  1
  B  B8  1  0.62495800  0.87504200  0.00000000  1
  B  B9  1  0.37504200  0.12495800  0.00000000  1
  Ir  Ir10  1  0.21546100  0.07039400  0.50000000  1
  Ir  Ir11  1  0.78453900  0.92960600  0.50000000  1
  Ir  Ir12  1  0.07039400  0.78453900  0.50000000  1
  Ir  Ir13  1  0.71546100  0.42960600  0.50000000  1
  Ir  Ir14  1  0.92960600  0.21546100  0.50000000  1
  Ir  Ir15  1  0.28453900  0.57039400  0.50000000  1
  Ir  Ir16  1  0.57039400  0.71546100  0.50000000  1
  Ir  Ir17  1  0.42960600  0.28453900  0.50000000  1
  Ir  Ir18  1  0.50000000  0.00000000  0.50000000  1
  Ir  Ir19  1  0.00000000  0.50000000  0.50000000  1
