# generated using pymatgen
data_NdSi2Rh3
_symmetry_space_group_name_H-M   'P 1'
_cell_length_a   6.69079534
_cell_length_b   6.69079534
_cell_length_c   6.69079534
_cell_angle_alpha   130.29383405
_cell_angle_beta   115.05144480
_cell_angle_gamma   85.97799756
_symmetry_Int_Tables_number   1
_chemical_formula_structural   NdSi2Rh3
_chemical_formula_sum   'Nd2 Si4 Rh6'
_cell_volume   197.77020003
_cell_formula_units_Z   2
loop_
 _symmetry_equiv_pos_site_id
 _symmetry_equiv_pos_as_xyz
  1  'x, y, z'
loop_
 _atom_site_type_symbol
 _atom_site_label
 _atom_site_symmetry_multiplicity
 _atom_site_fract_x
 _atom_site_fract_y
 _atom_site_fract_z
 _atom_site_occupancy
  Nd  Nd0  1  0.75000000  0.03941900  0.28941900  1
  Nd  Nd1  1  0.25000000  0.96058100  0.71058100  1
  Si  Si2  1  0.57851800  0.38063800  0.80212000  1
  Si  Si3  1  0.42148200  0.61936200  0.19788000  1
  Si  Si4  1  0.07851800  0.27639800  0.19788000  1
  Si  Si5  1  0.92148200  0.72360200  0.80212000  1
  Rh  Rh6  1  0.21631900  0.50000000  0.71631900  1
  Rh  Rh7  1  0.71631900  0.00000000  0.71631900  1
  Rh  Rh8  1  0.78368100  0.50000000  0.28368100  1
  Rh  Rh9  1  0.28368100  0.00000000  0.28368100  1
  Rh  Rh10  1  0.50000000  0.50000000  0.50000000  1
  Rh  Rh11  1  0.00000000  0.50000000  0.00000000  1
