# generated using pymatgen
data_Eu3(SiAs2)2
_symmetry_space_group_name_H-M   'P 1'
_cell_length_a   17.96766900
_cell_length_b   7.35648700
_cell_length_c   7.50222372
_cell_angle_alpha   68.55963931
_cell_angle_beta   90.00000000
_cell_angle_gamma   90.00000000
_symmetry_Int_Tables_number   1
_chemical_formula_structural   Eu3(SiAs2)2
_chemical_formula_sum   'Eu12 Si8 As16'
_cell_volume   923.01322079
_cell_formula_units_Z   4
loop_
 _symmetry_equiv_pos_site_id
 _symmetry_equiv_pos_as_xyz
  1  'x, y, z'
loop_
 _atom_site_type_symbol
 _atom_site_label
 _atom_site_symmetry_multiplicity
 _atom_site_fract_x
 _atom_site_fract_y
 _atom_site_fract_z
 _atom_site_occupancy
  Eu  Eu0  1  0.31504400  0.48685000  0.22419700  1
  Eu  Eu1  1  0.81504400  0.01315000  0.77580300  1
  Eu  Eu2  1  0.68495600  0.51315000  0.77580300  1
  Eu  Eu3  1  0.18495600  0.98685000  0.22419700  1
  Eu  Eu4  1  0.06317900  0.48937300  0.25216900  1
  Eu  Eu5  1  0.56317900  0.01062700  0.74783100  1
  Eu  Eu6  1  0.93682100  0.51062700  0.74783100  1
  Eu  Eu7  1  0.43682100  0.98937300  0.25216900  1
  Eu  Eu8  1  0.55866100  0.50018300  0.25911600  1
  Eu  Eu9  1  0.05866100  0.99981700  0.74088400  1
  Eu  Eu10  1  0.44133900  0.49981700  0.74088400  1
  Eu  Eu11  1  0.94133900  0.00018300  0.25911600  1
  Si  Si12  1  0.87066900  0.47057900  0.21103100  1
  Si  Si13  1  0.37066900  0.02942100  0.78896900  1
  Si  Si14  1  0.12933100  0.52942100  0.78896900  1
  Si  Si15  1  0.62933100  0.97057900  0.21103100  1
  Si  Si16  1  0.74014700  0.08251600  0.31277200  1
  Si  Si17  1  0.24014700  0.41748400  0.68722800  1
  Si  Si18  1  0.25985300  0.91748400  0.68722800  1
  Si  Si19  1  0.75985300  0.58251600  0.31277200  1
  As  As20  1  0.56139800  0.24612800  0.01009700  1
  As  As21  1  0.06139800  0.25387200  0.98990300  1
  As  As22  1  0.43860200  0.75387200  0.98990300  1
  As  As23  1  0.93860200  0.74612800  0.01009700  1
  As  As24  1  0.81284600  0.27690200  0.03844700  1
  As  As25  1  0.31284600  0.22309800  0.96155300  1
  As  As26  1  0.18715400  0.72309800  0.96155300  1
  As  As27  1  0.68715400  0.77690200  0.03844700  1
  As  As28  1  0.93234500  0.26238300  0.49441500  1
  As  As29  1  0.43234500  0.23761700  0.50558500  1
  As  As30  1  0.06765500  0.73761700  0.50558500  1
  As  As31  1  0.56765500  0.76238300  0.49441500  1
  As  As32  1  0.69675200  0.27558200  0.49776400  1
  As  As33  1  0.19675200  0.22441800  0.50223600  1
  As  As34  1  0.30324800  0.72441800  0.50223600  1
  As  As35  1  0.80324800  0.77558200  0.49776400  1
