# generated using pymatgen
data_Ba3SmIrRuO9
_symmetry_space_group_name_H-M   'P 1'
_cell_length_a   6.00372133
_cell_length_b   6.00372133
_cell_length_c   14.84284400
_cell_angle_alpha   90.00000000
_cell_angle_beta   90.00000000
_cell_angle_gamma   119.99999266
_symmetry_Int_Tables_number   1
_chemical_formula_structural   Ba3SmIrRuO9
_chemical_formula_sum   'Ba6 Sm2 Ir2 Ru2 O18'
_cell_volume   463.32831195
_cell_formula_units_Z   2
loop_
 _symmetry_equiv_pos_site_id
 _symmetry_equiv_pos_as_xyz
  1  'x, y, z'
loop_
 _atom_site_type_symbol
 _atom_site_label
 _atom_site_symmetry_multiplicity
 _atom_site_fract_x
 _atom_site_fract_y
 _atom_site_fract_z
 _atom_site_occupancy
  Ba  Ba0  1  0.33333300  0.66666700  0.59741100  1
  Ba  Ba1  1  0.66666700  0.33333300  0.40199200  1
  Ba  Ba2  1  0.66666700  0.33333300  0.09741100  1
  Ba  Ba3  1  0.33333300  0.66666700  0.90199200  1
  Ba  Ba4  1  0.00000000  0.00000000  0.25031500  1
  Ba  Ba5  1  0.00000000  0.00000000  0.75031500  1
  Sm  Sm6  1  0.00000000  0.00000000  0.49891000  1
  Sm  Sm7  1  0.00000000  0.00000000  0.99891000  1
  Ir  Ir8  1  0.33333300  0.66666700  0.33434000  1
  Ir  Ir9  1  0.66666700  0.33333300  0.83434000  1
  Ru  Ru10  1  0.66666700  0.33333300  0.66444900  1
  Ru  Ru11  1  0.33333300  0.66666700  0.16444900  1
  O  O12  1  0.17832700  0.35665500  0.08957900  1
  O  O13  1  0.64334500  0.82167300  0.08957900  1
  O  O14  1  0.17832700  0.82167300  0.08957900  1
  O  O15  1  0.82234200  0.64468400  0.91163700  1
  O  O16  1  0.35531600  0.17765800  0.91163700  1
  O  O17  1  0.82234200  0.17765800  0.91163700  1
  O  O18  1  0.82167300  0.64334500  0.58957900  1
  O  O19  1  0.35665500  0.17832700  0.58957900  1
  O  O20  1  0.82167300  0.17832700  0.58957900  1
  O  O21  1  0.17765800  0.35531600  0.41163700  1
  O  O22  1  0.64468400  0.82234200  0.41163700  1
  O  O23  1  0.17765800  0.82234200  0.41163700  1
  O  O24  1  0.48933500  0.51066500  0.24965000  1
  O  O25  1  0.48933500  0.97866900  0.24965000  1
  O  O26  1  0.02133100  0.51066500  0.24965000  1
  O  O27  1  0.51066500  0.48933500  0.74965000  1
  O  O28  1  0.51066500  0.02133100  0.74965000  1
  O  O29  1  0.97866900  0.48933500  0.74965000  1
