# generated using pymatgen
data_Cs2BaP2O7
_symmetry_space_group_name_H-M   'P 1'
_cell_length_a   6.27439500
_cell_length_b   10.92874400
_cell_length_c   15.45586832
_cell_angle_alpha   62.15314779
_cell_angle_beta   90.00000000
_cell_angle_gamma   90.00000000
_symmetry_Int_Tables_number   1
_chemical_formula_structural   Cs2BaP2O7
_chemical_formula_sum   'Cs8 Ba4 P8 O28'
_cell_volume   937.09945704
_cell_formula_units_Z   4
loop_
 _symmetry_equiv_pos_site_id
 _symmetry_equiv_pos_as_xyz
  1  'x, y, z'
loop_
 _atom_site_type_symbol
 _atom_site_label
 _atom_site_symmetry_multiplicity
 _atom_site_fract_x
 _atom_site_fract_y
 _atom_site_fract_z
 _atom_site_occupancy
  Cs  Cs0  1  0.73551400  0.48195700  0.65597400  1
  Cs  Cs1  1  0.76448600  0.48195700  0.15597400  1
  Cs  Cs2  1  0.26448600  0.51804300  0.34402600  1
  Cs  Cs3  1  0.23551400  0.51804300  0.84402600  1
  Cs  Cs4  1  0.72423300  0.03311800  0.82619900  1
  Cs  Cs5  1  0.77576700  0.03311800  0.32619900  1
  Cs  Cs6  1  0.27576700  0.96688200  0.17380100  1
  Cs  Cs7  1  0.22423300  0.96688200  0.67380100  1
  Ba  Ba8  1  0.75771000  0.23975900  0.50854300  1
  Ba  Ba9  1  0.74229000  0.23975900  0.00854300  1
  Ba  Ba10  1  0.24229000  0.76024100  0.49145700  1
  Ba  Ba11  1  0.25771000  0.76024100  0.99145700  1
  P  P12  1  0.22316500  0.17602100  0.86468900  1
  P  P13  1  0.27683500  0.17602100  0.36468900  1
  P  P14  1  0.77683500  0.82397900  0.13531100  1
  P  P15  1  0.72316500  0.82397900  0.63531100  1
  P  P16  1  0.74018200  0.67347700  0.85847500  1
  P  P17  1  0.75981800  0.67347700  0.35847500  1
  P  P18  1  0.25981800  0.32652300  0.14152500  1
  P  P19  1  0.24018200  0.32652300  0.64152500  1
  O  O20  1  0.52813100  0.74564300  0.85506400  1
  O  O21  1  0.97186900  0.74564300  0.35506400  1
  O  O22  1  0.47186900  0.25435700  0.14493600  1
  O  O23  1  0.02813100  0.25435700  0.64493600  1
  O  O24  1  0.21284200  0.03269800  0.86916000  1
  O  O25  1  0.28715800  0.03269800  0.36916000  1
  O  O26  1  0.78715800  0.96730200  0.13084000  1
  O  O27  1  0.71284200  0.96730200  0.63084000  1
  O  O28  1  0.00366300  0.23171400  0.87382100  1
  O  O29  1  0.49633700  0.23171400  0.37382100  1
  O  O30  1  0.99633700  0.76828600  0.12617900  1
  O  O31  1  0.50366300  0.76828600  0.62617900  1
  O  O32  1  0.31468800  0.28538800  0.75501700  1
  O  O33  1  0.18531200  0.28538800  0.25501700  1
  O  O34  1  0.68531200  0.71461200  0.24498300  1
  O  O35  1  0.81468800  0.71461200  0.74498300  1
  O  O36  1  0.39296600  0.18762000  0.93177900  1
  O  O37  1  0.10703400  0.18762000  0.43177900  1
  O  O38  1  0.60703400  0.81238000  0.06822100  1
  O  O39  1  0.89296600  0.81238000  0.56822100  1
  O  O40  1  0.72129100  0.51505000  0.90670200  1
  O  O41  1  0.77870900  0.51505000  0.40670200  1
  O  O42  1  0.27870900  0.48495000  0.09329800  1
  O  O43  1  0.22129100  0.48495000  0.59329800  1
  O  O44  1  0.92717900  0.72352900  0.89769800  1
  O  O45  1  0.57282100  0.72352900  0.39769800  1
  O  O46  1  0.07282100  0.27647100  0.10230200  1
  O  O47  1  0.42717900  0.27647100  0.60230200  1
