# generated using pymatgen
data_EuCdAu
_symmetry_space_group_name_H-M   'P 1'
_cell_length_a   4.55874900
_cell_length_b   7.56832400
_cell_length_c   8.94570700
_cell_angle_alpha   90.00000000
_cell_angle_beta   90.00000000
_cell_angle_gamma   90.00000000
_symmetry_Int_Tables_number   1
_chemical_formula_structural   EuCdAu
_chemical_formula_sum   'Eu4 Cd4 Au4'
_cell_volume   308.64558326
_cell_formula_units_Z   4
loop_
 _symmetry_equiv_pos_site_id
 _symmetry_equiv_pos_as_xyz
  1  'x, y, z'
loop_
 _atom_site_type_symbol
 _atom_site_label
 _atom_site_symmetry_multiplicity
 _atom_site_fract_x
 _atom_site_fract_y
 _atom_site_fract_z
 _atom_site_occupancy
  Eu  Eu0  1  0.75000000  0.46107400  0.81665000  1
  Eu  Eu1  1  0.25000000  0.03892600  0.31665000  1
  Eu  Eu2  1  0.75000000  0.96107400  0.68335000  1
  Eu  Eu3  1  0.25000000  0.53892600  0.18335000  1
  Cd  Cd4  1  0.25000000  0.64512700  0.56019200  1
  Cd  Cd5  1  0.25000000  0.14512700  0.93980800  1
  Cd  Cd6  1  0.75000000  0.35487300  0.43980800  1
  Cd  Cd7  1  0.75000000  0.85487300  0.06019200  1
  Au  Au8  1  0.25000000  0.75527500  0.87430200  1
  Au  Au9  1  0.25000000  0.25527500  0.62569800  1
  Au  Au10  1  0.75000000  0.74472500  0.37430200  1
  Au  Au11  1  0.75000000  0.24472500  0.12569800  1
