# generated using pymatgen
data_K2VCo6Cu2As5O24
_symmetry_space_group_name_H-M   'P 1'
_cell_length_a   6.93547200
_cell_length_b   8.93878973
_cell_length_c   8.94279018
_cell_angle_alpha   92.40957269
_cell_angle_beta   106.07064919
_cell_angle_gamma   106.03934992
_symmetry_Int_Tables_number   1
_chemical_formula_structural   K2VCo6Cu2As5O24
_chemical_formula_sum   'K2 V1 Co6 Cu2 As5 O24'
_cell_volume   507.76739417
_cell_formula_units_Z   1
loop_
 _symmetry_equiv_pos_site_id
 _symmetry_equiv_pos_as_xyz
  1  'x, y, z'
loop_
 _atom_site_type_symbol
 _atom_site_label
 _atom_site_symmetry_multiplicity
 _atom_site_fract_x
 _atom_site_fract_y
 _atom_site_fract_z
 _atom_site_occupancy
  K  K0  1  0.24979300  0.98578700  0.01401100  1
  K  K1  1  0.74981100  0.01348900  0.98629800  1
  V  V2  1  0.37239800  0.64593700  0.87818200  1
  Co  Co3  1  0.12959200  0.37750900  0.06101300  1
  Co  Co4  1  0.36897600  0.94057500  0.62257700  1
  Co  Co5  1  0.87028100  0.62290700  0.94055300  1
  Co  Co6  1  0.62992800  0.05978600  0.37786100  1
  Co  Co7  1  0.24957500  0.25647200  0.74267000  1
  Co  Co8  1  0.75130400  0.74112300  0.25777200  1
  Cu  Cu9  1  0.24996200  0.50152400  0.49716200  1
  Cu  Cu10  1  0.75007600  0.49735700  0.50292900  1
  As  As11  1  0.74980300  0.28566300  0.71443100  1
  As  As12  1  0.25058600  0.71509000  0.28599200  1
  As  As13  1  0.12768500  0.12232300  0.35273900  1
  As  As14  1  0.62776100  0.35262700  0.12265900  1
  As  As15  1  0.87191500  0.87729100  0.64702700  1
  O  O16  1  0.81891000  0.40660200  0.02886400  1
  O  O17  1  0.68050000  0.97123400  0.59305300  1
  O  O18  1  0.17555900  0.59292100  0.97115700  1
  O  O19  1  0.31977800  0.02847200  0.40692800  1
  O  O20  1  0.38205200  0.33083300  0.98957200  1
  O  O21  1  0.11785600  0.01016000  0.66998900  1
  O  O22  1  0.62246700  0.67216500  0.01262200  1
  O  O23  1  0.88189400  0.99066400  0.33020600  1
  O  O24  1  0.97583100  0.25052100  0.82589100  1
  O  O25  1  0.52390000  0.17410000  0.74973500  1
  O  O26  1  0.02524700  0.75110000  0.17462600  1
  O  O27  1  0.47638900  0.82626900  0.24981400  1
  O  O28  1  0.62535800  0.17446700  0.18437900  1
  O  O29  1  0.87410200  0.81566400  0.82521700  1
  O  O30  1  0.37541300  0.82466500  0.81299800  1
  O  O31  1  0.12630200  0.18446300  0.17457000  1
  O  O32  1  0.23631000  0.51584800  0.27624800  1
  O  O33  1  0.26477400  0.72421600  0.48523000  1
  O  O34  1  0.76399400  0.48490200  0.72425700  1
  O  O35  1  0.73660800  0.27641700  0.51533000  1
  O  O36  1  0.18596000  0.27565700  0.49980200  1
  O  O37  1  0.31157000  0.49885500  0.71999600  1
  O  O38  1  0.81414200  0.72386800  0.49941200  1
  O  O39  1  0.68564000  0.50047800  0.27622600  1
