# generated using pymatgen
data_Cs4Os2Cl10O
_symmetry_space_group_name_H-M   'P 1'
_cell_length_a   12.00212500
_cell_length_b   12.67609100
_cell_length_c   14.20922800
_cell_angle_alpha   90.00000000
_cell_angle_beta   90.00000000
_cell_angle_gamma   90.00000000
_symmetry_Int_Tables_number   1
_chemical_formula_structural   Cs4Os2Cl10O
_chemical_formula_sum   'Cs16 Os8 Cl40 O4'
_cell_volume   2161.79235563
_cell_formula_units_Z   4
loop_
 _symmetry_equiv_pos_site_id
 _symmetry_equiv_pos_as_xyz
  1  'x, y, z'
loop_
 _atom_site_type_symbol
 _atom_site_label
 _atom_site_symmetry_multiplicity
 _atom_site_fract_x
 _atom_site_fract_y
 _atom_site_fract_z
 _atom_site_occupancy
  Cs  Cs0  1  0.28761300  0.89552300  0.86324600  1
  Cs  Cs1  1  0.21238700  0.39552300  0.13675400  1
  Cs  Cs2  1  0.78761300  0.10447700  0.63675400  1
  Cs  Cs3  1  0.71238700  0.60447700  0.36324600  1
  Cs  Cs4  1  0.71238700  0.10447700  0.13675400  1
  Cs  Cs5  1  0.78761300  0.60447700  0.86324600  1
  Cs  Cs6  1  0.21238700  0.89552300  0.36324600  1
  Cs  Cs7  1  0.28761300  0.39552300  0.63675400  1
  Cs  Cs8  1  0.02087700  0.78359200  0.63961900  1
  Cs  Cs9  1  0.47912300  0.28359200  0.36038100  1
  Cs  Cs10  1  0.52087700  0.21640800  0.86038100  1
  Cs  Cs11  1  0.97912300  0.71640800  0.13961900  1
  Cs  Cs12  1  0.97912300  0.21640800  0.36038100  1
  Cs  Cs13  1  0.52087700  0.71640800  0.63961900  1
  Cs  Cs14  1  0.47912300  0.78359200  0.13961900  1
  Cs  Cs15  1  0.02087700  0.28359200  0.86038100  1
  Os  Os16  1  0.41387600  0.55444800  0.90635400  1
  Os  Os17  1  0.08612400  0.05444800  0.09364600  1
  Os  Os18  1  0.91387600  0.44555200  0.59364600  1
  Os  Os19  1  0.58612400  0.94555200  0.40635400  1
  Os  Os20  1  0.58612400  0.44555200  0.09364600  1
  Os  Os21  1  0.91387600  0.94555200  0.90635400  1
  Os  Os22  1  0.08612400  0.55444800  0.40635400  1
  Os  Os23  1  0.41387600  0.05444800  0.59364600  1
  Cl  Cl24  1  0.30278500  0.62635100  0.78381900  1
  Cl  Cl25  1  0.19721500  0.12635100  0.21618100  1
  Cl  Cl26  1  0.80278500  0.37364900  0.71618100  1
  Cl  Cl27  1  0.69721500  0.87364900  0.28381900  1
  Cl  Cl28  1  0.69721500  0.37364900  0.21618100  1
  Cl  Cl29  1  0.80278500  0.87364900  0.78381900  1
  Cl  Cl30  1  0.19721500  0.62635100  0.28381900  1
  Cl  Cl31  1  0.30278500  0.12635100  0.71618100  1
  Cl  Cl32  1  0.01890700  0.78411600  0.89913800  1
  Cl  Cl33  1  0.48109300  0.28411600  0.10086200  1
  Cl  Cl34  1  0.51890700  0.21588400  0.60086200  1
  Cl  Cl35  1  0.98109300  0.71588400  0.39913800  1
  Cl  Cl36  1  0.98109300  0.21588400  0.10086200  1
  Cl  Cl37  1  0.51890700  0.71588400  0.89913800  1
  Cl  Cl38  1  0.48109300  0.78411600  0.39913800  1
  Cl  Cl39  1  0.01890700  0.28411600  0.60086200  1
  Cl  Cl40  1  0.21641100  0.63459200  0.51211200  1
  Cl  Cl41  1  0.28358900  0.13459200  0.48788800  1
  Cl  Cl42  1  0.71641100  0.36540800  0.98788800  1
  Cl  Cl43  1  0.78358900  0.86540800  0.01211200  1
  Cl  Cl44  1  0.78358900  0.36540800  0.48788800  1
  Cl  Cl45  1  0.71641100  0.86540800  0.51211200  1
  Cl  Cl46  1  0.28358900  0.63459200  0.01211200  1
  Cl  Cl47  1  0.21641100  0.13459200  0.98788800  1
  Cl  Cl48  1  0.02928700  0.51677700  0.71658400  1
  Cl  Cl49  1  0.47071300  0.01677700  0.28341600  1
  Cl  Cl50  1  0.52928700  0.48322300  0.78341600  1
  Cl  Cl51  1  0.97071300  0.98322300  0.21658400  1
  Cl  Cl52  1  0.97071300  0.48322300  0.28341600  1
  Cl  Cl53  1  0.52928700  0.98322300  0.71658400  1
  Cl  Cl54  1  0.47071300  0.51677700  0.21658400  1
  Cl  Cl55  1  0.02928700  0.01677700  0.78341600  1
  Cl  Cl56  1  0.29762100  0.90084100  0.60389300  1
  Cl  Cl57  1  0.20237900  0.40084100  0.39610700  1
  Cl  Cl58  1  0.79762100  0.09915900  0.89610700  1
  Cl  Cl59  1  0.70237900  0.59915900  0.10389300  1
  Cl  Cl60  1  0.70237900  0.09915900  0.39610700  1
  Cl  Cl61  1  0.79762100  0.59915900  0.60389300  1
  Cl  Cl62  1  0.20237900  0.90084100  0.10389300  1
  Cl  Cl63  1  0.29762100  0.40084100  0.89610700  1
  O  O64  1  0.00000000  0.50000000  0.50000000  1
  O  O65  1  0.50000000  0.00000000  0.50000000  1
  O  O66  1  0.50000000  0.50000000  0.00000000  1
  O  O67  1  0.00000000  0.00000000  0.00000000  1
