# generated using pymatgen
data_NdGeIr
_symmetry_space_group_name_H-M   'P 1'
_cell_length_a   4.47480800
_cell_length_b   7.17251400
_cell_length_c   7.65955300
_cell_angle_alpha   90.00000000
_cell_angle_beta   90.00000000
_cell_angle_gamma   90.00000000
_symmetry_Int_Tables_number   1
_chemical_formula_structural   NdGeIr
_chemical_formula_sum   'Nd4 Ge4 Ir4'
_cell_volume   245.83812565
_cell_formula_units_Z   4
loop_
 _symmetry_equiv_pos_site_id
 _symmetry_equiv_pos_as_xyz
  1  'x, y, z'
loop_
 _atom_site_type_symbol
 _atom_site_label
 _atom_site_symmetry_multiplicity
 _atom_site_fract_x
 _atom_site_fract_y
 _atom_site_fract_z
 _atom_site_occupancy
  Nd  Nd0  1  0.25000000  0.98546000  0.80077100  1
  Nd  Nd1  1  0.25000000  0.48546000  0.69922900  1
  Nd  Nd2  1  0.75000000  0.01454000  0.19922900  1
  Nd  Nd3  1  0.75000000  0.51454000  0.30077100  1
  Ge  Ge4  1  0.25000000  0.81770200  0.41412700  1
  Ge  Ge5  1  0.25000000  0.31770200  0.08587300  1
  Ge  Ge6  1  0.75000000  0.18229800  0.58587300  1
  Ge  Ge7  1  0.75000000  0.68229800  0.91412700  1
  Ir  Ir8  1  0.25000000  0.19690300  0.41341400  1
  Ir  Ir9  1  0.25000000  0.69690300  0.08658600  1
  Ir  Ir10  1  0.75000000  0.80309700  0.58658600  1
  Ir  Ir11  1  0.75000000  0.30309700  0.91341400  1
