# generated using pymatgen
data_LuPPd
_symmetry_space_group_name_H-M   'P 1'
_cell_length_a   3.95764400
_cell_length_b   6.78868600
_cell_length_c   7.69686000
_cell_angle_alpha   90.00000000
_cell_angle_beta   90.00000000
_cell_angle_gamma   90.00000000
_symmetry_Int_Tables_number   1
_chemical_formula_structural   LuPPd
_chemical_formula_sum   'Lu4 P4 Pd4'
_cell_volume   206.79309559
_cell_formula_units_Z   4
loop_
 _symmetry_equiv_pos_site_id
 _symmetry_equiv_pos_as_xyz
  1  'x, y, z'
loop_
 _atom_site_type_symbol
 _atom_site_label
 _atom_site_symmetry_multiplicity
 _atom_site_fract_x
 _atom_site_fract_y
 _atom_site_fract_z
 _atom_site_occupancy
  Lu  Lu0  1  0.25000000  0.53029500  0.18492700  1
  Lu  Lu1  1  0.75000000  0.46970500  0.81507300  1
  Lu  Lu2  1  0.75000000  0.96970500  0.68492700  1
  Lu  Lu3  1  0.25000000  0.03029500  0.31507300  1
  P  P4  1  0.25000000  0.75038700  0.87564400  1
  P  P5  1  0.75000000  0.24961300  0.12435600  1
  P  P6  1  0.75000000  0.74961300  0.37564400  1
  P  P7  1  0.25000000  0.25038700  0.62435600  1
  Pd  Pd8  1  0.25000000  0.64599500  0.56221900  1
  Pd  Pd9  1  0.75000000  0.35400500  0.43778100  1
  Pd  Pd10  1  0.75000000  0.85400500  0.06221900  1
  Pd  Pd11  1  0.25000000  0.14599500  0.93778100  1
