# generated using pymatgen
data_Na2(NbS2)3
_symmetry_space_group_name_H-M   'P 1'
_cell_length_a   14.94539836
_cell_length_b   14.94539836
_cell_length_c   14.94539763
_cell_angle_alpha   22.70266735
_cell_angle_beta   22.70266735
_cell_angle_gamma   22.70267018
_symmetry_Int_Tables_number   1
_chemical_formula_structural   Na2(NbS2)3
_chemical_formula_sum   'Na4 Nb6 S12'
_cell_volume   436.27028101
_cell_formula_units_Z   2
loop_
 _symmetry_equiv_pos_site_id
 _symmetry_equiv_pos_as_xyz
  1  'x, y, z'
loop_
 _atom_site_type_symbol
 _atom_site_label
 _atom_site_symmetry_multiplicity
 _atom_site_fract_x
 _atom_site_fract_y
 _atom_site_fract_z
 _atom_site_occupancy
  Na  Na0  1  0.91649700  0.91649700  0.91649700  1
  Na  Na1  1  0.58315700  0.58315700  0.58315700  1
  Na  Na2  1  0.41684300  0.41684300  0.41684300  1
  Na  Na3  1  0.08350300  0.08350300  0.08350300  1
  Nb  Nb4  1  0.33319100  0.33319100  0.33319100  1
  Nb  Nb5  1  0.66680900  0.66680900  0.66680900  1
  Nb  Nb6  1  0.00000000  0.00000000  0.00000000  1
  Nb  Nb7  1  0.83350400  0.16649600  0.50000000  1
  Nb  Nb8  1  0.50000000  0.83350400  0.16649600  1
  Nb  Nb9  1  0.16649600  0.50000000  0.83350400  1
  S  S10  1  0.96549300  0.62985800  0.29788600  1
  S  S11  1  0.29788600  0.96549300  0.62985800  1
  S  S12  1  0.62985800  0.29788600  0.96549300  1
  S  S13  1  0.70211400  0.37014200  0.03450700  1
  S  S14  1  0.03450700  0.70211400  0.37014200  1
  S  S15  1  0.37014200  0.03450700  0.70211400  1
  S  S16  1  0.86978900  0.53491200  0.20202700  1
  S  S17  1  0.20202700  0.86978900  0.53491200  1
  S  S18  1  0.53491200  0.20202700  0.86978900  1
  S  S19  1  0.79797300  0.46508800  0.13021100  1
  S  S20  1  0.13021100  0.79797300  0.46508800  1
  S  S21  1  0.46508800  0.13021100  0.79797300  1
