# generated using pymatgen
data_K3Np(H3O4)2
_symmetry_space_group_name_H-M   'P 1'
_cell_length_a   7.83359871
_cell_length_b   7.94280364
_cell_length_c   8.59292300
_cell_angle_alpha   90.00000000
_cell_angle_beta   90.00000000
_cell_angle_gamma   118.91173550
_symmetry_Int_Tables_number   1
_chemical_formula_structural   K3Np(H3O4)2
_chemical_formula_sum   'K6 Np2 H12 O16'
_cell_volume   468.02117601
_cell_formula_units_Z   2
loop_
 _symmetry_equiv_pos_site_id
 _symmetry_equiv_pos_as_xyz
  1  'x, y, z'
loop_
 _atom_site_type_symbol
 _atom_site_label
 _atom_site_symmetry_multiplicity
 _atom_site_fract_x
 _atom_site_fract_y
 _atom_site_fract_z
 _atom_site_occupancy
  K  K0  1  0.50000000  0.50000000  0.00000000  1
  K  K1  1  0.00000000  0.50000000  0.50000000  1
  K  K2  1  0.55615900  0.09678400  0.19184900  1
  K  K3  1  0.94384100  0.90321600  0.69184900  1
  K  K4  1  0.44384100  0.90321600  0.80815100  1
  K  K5  1  0.05615900  0.09678400  0.30815100  1
  Np  Np6  1  0.00000000  0.50000000  0.00000000  1
  Np  Np7  1  0.50000000  0.50000000  0.50000000  1
  H  H8  1  0.13480100  0.30466900  0.79350100  1
  H  H9  1  0.36519900  0.69533100  0.29350100  1
  H  H10  1  0.86519900  0.69533100  0.20649900  1
  H  H11  1  0.63480100  0.30466900  0.70649900  1
  H  H12  1  0.13378900  0.93393300  0.03679000  1
  H  H13  1  0.36621100  0.06606700  0.53679000  1
  H  H14  1  0.86621100  0.06606700  0.96321000  1
  H  H15  1  0.63378900  0.93393300  0.46321000  1
  H  H16  1  0.18745000  0.13889000  0.96217600  1
  H  H17  1  0.31255000  0.86111000  0.46217600  1
  H  H18  1  0.81255000  0.86111000  0.03782400  1
  H  H19  1  0.68745000  0.13889000  0.53782400  1
  O  O20  1  0.73468700  0.33377700  0.93618500  1
  O  O21  1  0.76531300  0.66622300  0.43618500  1
  O  O22  1  0.26531300  0.66622300  0.06381500  1
  O  O23  1  0.23468700  0.33377700  0.56381500  1
  O  O24  1  0.94645900  0.37093000  0.19505500  1
  O  O25  1  0.55354100  0.62907000  0.69505500  1
  O  O26  1  0.05354100  0.62907000  0.80494500  1
  O  O27  1  0.44645900  0.37093000  0.30494500  1
  O  O28  1  0.09374600  0.27203700  0.90242900  1
  O  O29  1  0.40625400  0.72796300  0.40242900  1
  O  O30  1  0.90625400  0.72796300  0.09757100  1
  O  O31  1  0.59374600  0.27203700  0.59757100  1
  O  O32  1  0.24572300  0.05647100  0.00077300  1
  O  O33  1  0.25427700  0.94352900  0.50077300  1
  O  O34  1  0.75427700  0.94352900  0.99922700  1
  O  O35  1  0.74572300  0.05647100  0.49922700  1
