# generated using pymatgen
data_Tb3Sb5O12
_symmetry_space_group_name_H-M   'P 1'
_cell_length_a   9.44386673
_cell_length_b   9.44386673
_cell_length_c   9.44386673
_cell_angle_alpha   109.47122063
_cell_angle_beta   109.47122063
_cell_angle_gamma   109.47122063
_symmetry_Int_Tables_number   1
_chemical_formula_structural   Tb3Sb5O12
_chemical_formula_sum   'Tb6 Sb10 O24'
_cell_volume   648.37708692
_cell_formula_units_Z   2
loop_
 _symmetry_equiv_pos_site_id
 _symmetry_equiv_pos_as_xyz
  1  'x, y, z'
loop_
 _atom_site_type_symbol
 _atom_site_label
 _atom_site_symmetry_multiplicity
 _atom_site_fract_x
 _atom_site_fract_y
 _atom_site_fract_z
 _atom_site_occupancy
  Tb  Tb0  1  0.25000000  0.75000000  0.50000000  1
  Tb  Tb1  1  0.75000000  0.25000000  0.50000000  1
  Tb  Tb2  1  0.75000000  0.50000000  0.25000000  1
  Tb  Tb3  1  0.25000000  0.50000000  0.75000000  1
  Tb  Tb4  1  0.50000000  0.25000000  0.75000000  1
  Tb  Tb5  1  0.50000000  0.75000000  0.25000000  1
  Sb  Sb6  1  0.51272800  0.51272800  0.51272800  1
  Sb  Sb7  1  0.48727200  0.00000000  0.00000000  1
  Sb  Sb8  1  0.00000000  0.48727200  0.00000000  1
  Sb  Sb9  1  0.00000000  0.00000000  0.48727200  1
  Sb  Sb10  1  0.71677900  0.71677900  0.00000000  1
  Sb  Sb11  1  0.28322100  0.28322100  0.00000000  1
  Sb  Sb12  1  0.71677900  0.00000000  0.71677900  1
  Sb  Sb13  1  0.28322100  0.00000000  0.28322100  1
  Sb  Sb14  1  0.00000000  0.71677900  0.71677900  1
  Sb  Sb15  1  0.00000000  0.28322100  0.28322100  1
  O  O16  1  0.79847000  0.50268700  0.50268700  1
  O  O17  1  0.20153000  0.70421700  0.70421700  1
  O  O18  1  0.00000000  0.49731300  0.29578300  1
  O  O19  1  0.50268700  0.50268700  0.79847000  1
  O  O20  1  0.00000000  0.29578300  0.49731300  1
  O  O21  1  0.70421700  0.70421700  0.20153000  1
  O  O22  1  0.49731300  0.29578300  0.00000000  1
  O  O23  1  0.29578300  0.49731300  0.00000000  1
  O  O24  1  0.50268700  0.79847000  0.50268700  1
  O  O25  1  0.29578300  0.00000000  0.49731300  1
  O  O26  1  0.49731300  0.00000000  0.29578300  1
  O  O27  1  0.70421700  0.20153000  0.70421700  1
  O  O28  1  0.27727200  0.47859400  0.47859400  1
  O  O29  1  0.72272800  0.20132100  0.20132100  1
  O  O30  1  0.00000000  0.52140600  0.79867900  1
  O  O31  1  0.47859400  0.47859400  0.27727200  1
  O  O32  1  0.00000000  0.79867900  0.52140600  1
  O  O33  1  0.20132100  0.20132100  0.72272800  1
  O  O34  1  0.52140600  0.79867900  0.00000000  1
  O  O35  1  0.79867900  0.52140600  0.00000000  1
  O  O36  1  0.47859400  0.27727200  0.47859400  1
  O  O37  1  0.79867900  0.00000000  0.52140600  1
  O  O38  1  0.52140600  0.00000000  0.79867900  1
  O  O39  1  0.20132100  0.72272800  0.20132100  1
