# generated using pymatgen
data_B2S3
_symmetry_space_group_name_H-M   'P 1'
_cell_length_a   16.26974947
_cell_length_b   16.26974947
_cell_length_c   19.15790271
_cell_angle_alpha   115.12676360
_cell_angle_beta   115.12676360
_cell_angle_gamma   90.00000000
_symmetry_Int_Tables_number   1
_chemical_formula_structural   B2S3
_chemical_formula_sum   'B100 S150'
_cell_volume   4055.02168823
_cell_formula_units_Z   50
loop_
 _symmetry_equiv_pos_site_id
 _symmetry_equiv_pos_as_xyz
  1  'x, y, z'
loop_
 _atom_site_type_symbol
 _atom_site_label
 _atom_site_symmetry_multiplicity
 _atom_site_fract_x
 _atom_site_fract_y
 _atom_site_fract_z
 _atom_site_occupancy
  B  B0  1  0.76324735  0.38178742  0.11132469  1
  B  B1  1  0.34807734  0.22953727  0.11132469  1
  B  B2  1  0.88178742  0.84807734  0.61132469  1
  B  B3  1  0.72953727  0.26324735  0.61132469  1
  B  B4  1  0.23675265  0.61821258  0.88867531  1
  B  B5  1  0.65192266  0.77046273  0.88867531  1
  B  B6  1  0.11821258  0.15192266  0.38867531  1
  B  B7  1  0.27046273  0.73675265  0.38867531  1
  B  B8  1  0.54498549  0.29841239  0.96503137  1
  B  B9  1  0.42004588  0.16661899  0.96503137  1
  B  B10  1  0.79841239  0.92004588  0.46503137  1
  B  B11  1  0.66661899  0.04498549  0.46503137  1
  B  B12  1  0.45501451  0.70158761  0.03496863  1
  B  B13  1  0.57995412  0.83338101  0.03496863  1
  B  B14  1  0.20158761  0.07995412  0.53496863  1
  B  B15  1  0.33338101  0.95501451  0.53496863  1
  B  B16  1  0.66888450  0.44688484  0.96461033  1
  B  B17  1  0.29572584  0.01772549  0.96461033  1
  B  B18  1  0.94688484  0.79572584  0.46461033  1
  B  B19  1  0.51772549  0.16888450  0.46461033  1
  B  B20  1  0.33111550  0.55311516  0.03538967  1
  B  B21  1  0.70427416  0.98227451  0.03538967  1
  B  B22  1  0.05311516  0.20427416  0.53538967  1
  B  B23  1  0.48227451  0.83111550  0.53538967  1
  B  B24  1  0.07127236  0.64234753  0.24822738  1
  B  B25  1  0.17695503  0.10587986  0.24822738  1
  B  B26  1  0.14234753  0.67695503  0.74822738  1
  B  B27  1  0.60587986  0.57127236  0.74822738  1
  B  B28  1  0.92872764  0.35765247  0.75177262  1
  B  B29  1  0.82304497  0.89412014  0.75177262  1
  B  B30  1  0.85765247  0.32304497  0.25177262  1
  B  B31  1  0.39412014  0.42872764  0.25177262  1
  B  B32  1  0.48585517  0.09525076  0.82402723  1
  B  B33  1  0.33817207  0.22877647  0.82402723  1
  B  B34  1  0.59525076  0.83817207  0.32402723  1
  B  B35  1  0.72877647  0.98585517  0.32402723  1
  B  B36  1  0.51414483  0.90474924  0.17597277  1
  B  B37  1  0.66182793  0.77122353  0.17597277  1
  B  B38  1  0.40474924  0.16182793  0.67597277  1
  B  B39  1  0.27122353  0.01414483  0.67597277  1
  B  B40  1  0.36862734  0.67318524  0.53697230  1
  B  B41  1  0.16834496  0.36378706  0.53697230  1
  B  B42  1  0.17318524  0.66834496  0.03697230  1
  B  B43  1  0.86378706  0.86862734  0.03697230  1
  B  B44  1  0.63137266  0.32681476  0.46302770  1
  B  B45  1  0.83165504  0.63621294  0.46302770  1
  B  B46  1  0.82681476  0.33165504  0.96302770  1
  B  B47  1  0.13621294  0.13137266  0.96302770  1
  B  B48  1  0.60986265  0.23457219  0.81700289  1
  B  B49  1  0.20714024  0.08243069  0.81700289  1
  B  B50  1  0.73457219  0.70714024  0.31700289  1
  B  B51  1  0.58243069  0.10986265  0.31700289  1
  B  B52  1  0.39013735  0.76542781  0.18299711  1
  B  B53  1  0.79285976  0.91756931  0.18299711  1
  B  B54  1  0.26542781  0.29285976  0.68299711  1
  B  B55  1  0.41756931  0.89013735  0.68299711  1
  B  B56  1  0.46445557  0.36837604  0.82193191  1
  B  B57  1  0.35747634  0.95355588  0.82193191  1
  B  B58  1  0.86837604  0.85747634  0.32193191  1
  B  B59  1  0.45355588  0.96445557  0.32193191  1
  B  B60  1  0.53554443  0.63162396  0.17806809  1
  B  B61  1  0.64252366  0.04644412  0.17806809  1
  B  B62  1  0.13162396  0.14252366  0.67806809  1
  B  B63  1  0.54644412  0.03554443  0.67806809  1
  B  B64  1  0.96422952  0.48158472  0.24892211  1
  B  B65  1  0.28469259  0.26733739  0.24892211  1
  B  B66  1  0.98158472  0.78469259  0.74892211  1
  B  B67  1  0.76733739  0.46422952  0.74892211  1
  B  B68  1  0.03577048  0.51841528  0.75107789  1
  B  B69  1  0.71530741  0.73266261  0.75107789  1
  B  B70  1  0.01841528  0.21530741  0.25107789  1
  B  B71  1  0.23266261  0.53577048  0.25107789  1
  B  B72  1  0.26855417  0.51855417  0.53710834  1
  B  B73  1  0.01855417  0.76855417  0.03710834  1
  B  B74  1  0.73144583  0.48144583  0.46289166  1
  B  B75  1  0.98144583  0.23144583  0.96289166  1
  B  B76  1  0.87133017  0.54447825  0.10739920  1
  B  B77  1  0.23606903  0.06292096  0.10739920  1
  B  B78  1  0.04447825  0.73606903  0.60739920  1
  B  B79  1  0.56292096  0.37133017  0.60739920  1
  B  B80  1  0.12866983  0.45552175  0.89260080  1
  B  B81  1  0.76393097  0.93707904  0.89260080  1
  B  B82  1  0.95552175  0.26393097  0.39260080  1
  B  B83  1  0.43707904  0.62866983  0.39260080  1
  B  B84  1  0.02610586  0.43509367  0.10585008  1
  B  B85  1  0.07974421  0.17075641  0.10585008  1
  B  B86  1  0.93509367  0.57974421  0.60585008  1
  B  B87  1  0.67075641  0.52610586  0.60585008  1
  B  B88  1  0.97389414  0.56490633  0.89414992  1
  B  B89  1  0.92025579  0.82924359  0.89414992  1
  B  B90  1  0.06490633  0.42025579  0.39414992  1
  B  B91  1  0.32924359  0.47389414  0.39414992  1
  B  B92  1  0.16936062  0.57961136  0.39188550  1
  B  B93  1  0.22252488  0.31227414  0.39188550  1
  B  B94  1  0.07961136  0.72252488  0.89188550  1
  B  B95  1  0.81227414  0.66936062  0.89188550  1
  B  B96  1  0.83063938  0.42038864  0.60811450  1
  B  B97  1  0.77747512  0.68772586  0.60811450  1
  B  B98  1  0.92038864  0.27747512  0.10811450  1
  B  B99  1  0.18772586  0.33063938  0.10811450  1
  S  S100  1  0.64673291  0.40913003  0.04129556  1
  S  S101  1  0.39456265  0.13216553  0.04129556  1
  S  S102  1  0.90913003  0.89456265  0.54129556  1
  S  S103  1  0.63216553  0.14673291  0.54129556  1
  S  S104  1  0.35326709  0.59086997  0.95870444  1
  S  S105  1  0.60543735  0.86783447  0.95870444  1
  S  S106  1  0.09086997  0.10543735  0.45870444  1
  S  S107  1  0.36783447  0.85326709  0.45870444  1
  S  S108  1  0.84808889  0.50467594  0.18231390  1
  S  S109  1  0.33422501  0.17763795  0.18231390  1
  S  S110  1  0.00467594  0.83422501  0.68231390  1
  S  S111  1  0.67763795  0.34808889  0.68231390  1
  S  S112  1  0.15191111  0.49532406  0.81768610  1
  S  S113  1  0.66577499  0.82236205  0.81768610  1
  S  S114  1  0.99532406  0.16577499  0.31768610  1
  S  S115  1  0.32236205  0.65191111  0.31768610  1
  S  S116  1  0.15049338  0.53978007  0.46674240  1
  S  S117  1  0.31624902  0.42696234  0.46674240  1
  S  S118  1  0.03978007  0.81624902  0.96674240  1
  S  S119  1  0.92696234  0.65049338  0.96674240  1
  S  S120  1  0.84950662  0.46021993  0.53325760  1
  S  S121  1  0.68375098  0.57303766  0.53325760  1
  S  S122  1  0.96021993  0.18375098  0.03325760  1
  S  S123  1  0.07303766  0.34950662  0.03325760  1
  S  S124  1  0.51929121  0.26929121  0.03858242  1
  S  S125  1  0.76929121  0.01929121  0.53858242  1
  S  S126  1  0.48070879  0.73070879  0.96141758  1
  S  S127  1  0.23070879  0.98070879  0.46141758  1
  S  S128  1  0.46196328  0.79115631  0.61212295  1
  S  S129  1  0.15015967  0.32096664  0.61212295  1
  S  S130  1  0.29115631  0.65015967  0.11212295  1
  S  S131  1  0.82096664  0.96196328  0.11212295  1
  S  S132  1  0.53803672  0.20884369  0.38787705  1
  S  S133  1  0.84984033  0.67903336  0.38787705  1
  S  S134  1  0.70884369  0.34984033  0.88787705  1
  S  S135  1  0.17903336  0.03803672  0.88787705  1
  S  S136  1  0.91280791  0.45402565  0.03032943  1
  S  S137  1  0.11752152  0.07630378  0.03032943  1
  S  S138  1  0.95402565  0.61752152  0.53032943  1
  S  S139  1  0.57630378  0.41280791  0.53032943  1
  S  S140  1  0.08719209  0.54597435  0.96967057  1
  S  S141  1  0.88247848  0.92369622  0.96967057  1
  S  S142  1  0.04597435  0.38247848  0.46967057  1
  S  S143  1  0.42369622  0.58719209  0.46967057  1
  S  S144  1  0.50403318  0.27070885  0.74660162  1
  S  S145  1  0.24256844  0.97589277  0.74660162  1
  S  S146  1  0.77070885  0.74256844  0.24660162  1
  S  S147  1  0.47589277  0.00403318  0.24660162  1
  S  S148  1  0.49596682  0.72929115  0.25339838  1
  S  S149  1  0.75743156  0.02410723  0.25339838  1
  S  S150  1  0.22929115  0.25743156  0.75339838  1
  S  S151  1  0.52410723  0.99596682  0.75339838  1
  S  S152  1  0.05192464  0.60058215  0.32356974  1
  S  S153  1  0.27164510  0.22298760  0.32356974  1
  S  S154  1  0.10058215  0.77164510  0.82356974  1
  S  S155  1  0.72298760  0.55192464  0.82356974  1
  S  S156  1  0.94807536  0.39941785  0.67643026  1
  S  S157  1  0.72835490  0.77701240  0.67643026  1
  S  S158  1  0.89941785  0.22835490  0.17643026  1
  S  S159  1  0.27701240  0.44807536  0.17643026  1
  S  S160  1  0.64684489  0.13995942  0.74674519  1
  S  S161  1  0.09990030  0.10678577  0.74674519  1
  S  S162  1  0.63995942  0.59990030  0.24674519  1
  S  S163  1  0.60678577  0.14684489  0.24674519  1
  S  S164  1  0.35315511  0.86004058  0.25325481  1
  S  S165  1  0.90009970  0.89321423  0.25325481  1
  S  S166  1  0.36004058  0.40009970  0.75325481  1
  S  S167  1  0.39321423  0.85315511  0.75325481  1
  S  S168  1  0.95828101  0.65981647  0.17694930  1
  S  S169  1  0.21866829  0.01713283  0.17694930  1
  S  S170  1  0.15981647  0.71866829  0.67694930  1
  S  S171  1  0.51713283  0.45828101  0.67694930  1
  S  S172  1  0.04171899  0.34018353  0.82305070  1
  S  S173  1  0.78133171  0.98286717  0.82305070  1
  S  S174  1  0.84018353  0.28133171  0.32305070  1
  S  S175  1  0.48286717  0.54171899  0.32305070  1
  S  S176  1  0.43795482  0.33695191  0.89835972  1
  S  S177  1  0.46040490  0.06140782  0.89835972  1
  S  S178  1  0.83695191  0.96040490  0.39835972  1
  S  S179  1  0.56140782  0.93795482  0.39835972  1
  S  S180  1  0.56204518  0.66304809  0.10164028  1
  S  S181  1  0.53959510  0.93859218  0.10164028  1
  S  S182  1  0.16304809  0.03959510  0.60164028  1
  S  S183  1  0.43859218  0.06204518  0.60164028  1
  S  S184  1  0.74325498  0.34004128  0.18143760  1
  S  S185  1  0.43818262  0.34139632  0.18143760  1
  S  S186  1  0.84004128  0.93818262  0.68143760  1
  S  S187  1  0.84139632  0.24325498  0.68143760  1
  S  S188  1  0.25674502  0.65995872  0.81856240  1
  S  S189  1  0.56181738  0.65860368  0.81856240  1
  S  S190  1  0.15995872  0.06181738  0.31856240  1
  S  S191  1  0.15860368  0.75674502  0.31856240  1
  S  S192  1  0.56175151  0.47537908  0.89535563  1
  S  S193  1  0.33360412  0.91997655  0.89535563  1
  S  S194  1  0.97537908  0.83360412  0.39535563  1
  S  S195  1  0.41997655  0.06175151  0.39535563  1
  S  S196  1  0.43824849  0.52462092  0.10464437  1
  S  S197  1  0.66639588  0.08002345  0.10464437  1
  S  S198  1  0.02462092  0.16639588  0.60464437  1
  S  S199  1  0.58002345  0.93824849  0.60464437  1
  S  S200  1  0.37500000  0.12500000  0.75000000  1
  S  S201  1  0.62500000  0.87500000  0.25000000  1
  S  S202  1  0.11689747  0.55225169  0.17449569  1
  S  S203  1  0.05759822  0.12224400  0.17449569  1
  S  S204  1  0.05225169  0.55759822  0.67449569  1
  S  S205  1  0.62224400  0.61689747  0.67449569  1
  S  S206  1  0.88310253  0.44774831  0.82550431  1
  S  S207  1  0.94240178  0.87775600  0.82550431  1
  S  S208  1  0.94774831  0.44240178  0.32550431  1
  S  S209  1  0.37775600  0.38310253  0.32550431  1
  S  S210  1  0.58694915  0.20110526  0.89480608  1
  S  S211  1  0.30785693  0.19370082  0.89480608  1
  S  S212  1  0.70110526  0.80785693  0.39480608  1
  S  S213  1  0.69370082  0.08694915  0.39480608  1
  S  S214  1  0.41305085  0.79889474  0.10519392  1
  S  S215  1  0.69214307  0.80629918  0.10519392  1
  S  S216  1  0.29889474  0.19214307  0.60519392  1
  S  S217  1  0.30629918  0.91305085  0.60519392  1
  S  S218  1  0.25435806  0.69834235  0.46684725  1
  S  S219  1  0.21248919  0.26850490  0.46684725  1
  S  S220  1  0.19834235  0.71248919  0.96684725  1
  S  S221  1  0.76850490  0.75435806  0.96684725  1
  S  S222  1  0.74564194  0.30165765  0.53315275  1
  S  S223  1  0.78751081  0.73149510  0.53315275  1
  S  S224  1  0.80165765  0.28751081  0.03315275  1
  S  S225  1  0.23149510  0.24564194  0.03315275  1
  S  S226  1  0.25276101  0.47879296  0.60984811  1
  S  S227  1  0.35708709  0.63105515  0.60984811  1
  S  S228  1  0.97879296  0.85708709  0.10984811  1
  S  S229  1  0.13105515  0.75276101  0.10984811  1
  S  S230  1  0.74723899  0.52120704  0.39015189  1
  S  S231  1  0.64291291  0.36894485  0.39015189  1
  S  S232  1  0.02120704  0.14291291  0.89015189  1
  S  S233  1  0.86894485  0.24723899  0.89015189  1
  S  S234  1  0.75830533  0.56100557  0.03392439  1
  S  S235  1  0.27561905  0.97291882  0.03392439  1
  S  S236  1  0.06100557  0.77561905  0.53392439  1
  S  S237  1  0.47291882  0.25830533  0.53392439  1
  S  S238  1  0.24169467  0.43899443  0.96607561  1
  S  S239  1  0.72438095  0.02708118  0.96607561  1
  S  S240  1  0.93899443  0.22438095  0.46607561  1
  S  S241  1  0.52708118  0.74169467  0.46607561  1
  S  S242  1  0.01069146  0.39249258  0.17960586  1
  S  S243  1  0.16891440  0.28711328  0.17960586  1
  S  S244  1  0.89249258  0.66891440  0.67960586  1
  S  S245  1  0.78711328  0.51069146  0.67960586  1
  S  S246  1  0.98930854  0.60750742  0.82039414  1
  S  S247  1  0.83108560  0.71288672  0.82039414  1
  S  S248  1  0.10750742  0.33108560  0.32039414  1
  S  S249  1  0.21288672  0.48930854  0.32039414  1
