# generated using pymatgen
data_Ca(BH4)2
_symmetry_space_group_name_H-M   'P 1'
_cell_length_a   7.92026144
_cell_length_b   7.58205158
_cell_length_c   5.77809771
_cell_angle_alpha   71.26453003
_cell_angle_beta   65.03590700
_cell_angle_gamma   43.69956297
_symmetry_Int_Tables_number   1
_chemical_formula_structural   Ca(BH4)2
_chemical_formula_sum   'Ca2 B4 H16'
_cell_volume   217.25578713
_cell_formula_units_Z   2
loop_
 _symmetry_equiv_pos_site_id
 _symmetry_equiv_pos_as_xyz
  1  'x, y, z'
loop_
 _atom_site_type_symbol
 _atom_site_label
 _atom_site_symmetry_multiplicity
 _atom_site_fract_x
 _atom_site_fract_y
 _atom_site_fract_z
 _atom_site_occupancy
  Ca  Ca0  1  0.75000000  0.75000000  0.75000000  1
  Ca  Ca1  1  0.50000000  0.50000000  0.50000000  1
  B  B2  1  0.97070700  0.97070700  0.52929300  1
  B  B3  1  0.52929300  0.52929300  0.97070700  1
  B  B4  1  0.27929300  0.27929300  0.72070700  1
  B  B5  1  0.72070700  0.72070700  0.27929300  1
  H  H6  1  0.05306100  0.78254500  0.44672200  1
  H  H7  1  0.78254500  0.05306100  0.71767200  1
  H  H8  1  0.44672200  0.71767200  0.05306100  1
  H  H9  1  0.71767200  0.44672200  0.78254500  1
  H  H10  1  0.19693900  0.46745500  0.80327800  1
  H  H11  1  0.46745500  0.19693900  0.53232800  1
  H  H12  1  0.80327800  0.53232800  0.19693900  1
  H  H13  1  0.53232800  0.80327800  0.46745500  1
  H  H14  1  0.12271600  0.32744300  0.65256500  1
  H  H15  1  0.32744300  0.12271600  0.89727600  1
  H  H16  1  0.65256500  0.89727600  0.12271600  1
  H  H17  1  0.89727600  0.65256500  0.32744300  1
  H  H18  1  0.12728400  0.92255700  0.59743500  1
  H  H19  1  0.92255700  0.12728400  0.35272400  1
  H  H20  1  0.59743500  0.35272400  0.12728400  1
  H  H21  1  0.35272400  0.59743500  0.92255700  1
