# generated using pymatgen
data_MnTlF4
_symmetry_space_group_name_H-M   'P 1'
_cell_length_a   7.46346776
_cell_length_b   7.46346776
_cell_length_c   5.49919238
_cell_angle_alpha   68.80629895
_cell_angle_beta   68.80629895
_cell_angle_gamma   43.82991521
_symmetry_Int_Tables_number   1
_chemical_formula_structural   MnTlF4
_chemical_formula_sum   'Mn2 Tl2 F8'
_cell_volume   195.36580058
_cell_formula_units_Z   2
loop_
 _symmetry_equiv_pos_site_id
 _symmetry_equiv_pos_as_xyz
  1  'x, y, z'
loop_
 _atom_site_type_symbol
 _atom_site_label
 _atom_site_symmetry_multiplicity
 _atom_site_fract_x
 _atom_site_fract_y
 _atom_site_fract_z
 _atom_site_occupancy
  Mn  Mn0  1  0.00000000  0.50000000  0.50000000  1
  Mn  Mn1  1  0.50000000  0.00000000  0.00000000  1
  Tl  Tl2  1  0.23532600  0.76467400  0.75000000  1
  Tl  Tl3  1  0.76467400  0.23532600  0.25000000  1
  F  F4  1  0.76641600  0.45140000  0.67122900  1
  F  F5  1  0.54860000  0.23358400  0.82877100  1
  F  F6  1  0.23358400  0.54860000  0.32877100  1
  F  F7  1  0.45140000  0.76641600  0.17122900  1
  F  F8  1  0.27971600  0.14519500  0.75594700  1
  F  F9  1  0.85480500  0.72028400  0.74405300  1
  F  F10  1  0.72028400  0.85480500  0.24405300  1
  F  F11  1  0.14519500  0.27971600  0.25594700  1
