# generated using pymatgen
data_Sr(TmS2)2
_symmetry_space_group_name_H-M   'P 1'
_cell_length_a   3.94442300
_cell_length_b   12.01022100
_cell_length_c   14.19870800
_cell_angle_alpha   90.00000000
_cell_angle_beta   90.00000000
_cell_angle_gamma   90.00000000
_symmetry_Int_Tables_number   1
_chemical_formula_structural   Sr(TmS2)2
_chemical_formula_sum   'Sr4 Tm8 S16'
_cell_volume   672.64095923
_cell_formula_units_Z   4
loop_
 _symmetry_equiv_pos_site_id
 _symmetry_equiv_pos_as_xyz
  1  'x, y, z'
loop_
 _atom_site_type_symbol
 _atom_site_label
 _atom_site_symmetry_multiplicity
 _atom_site_fract_x
 _atom_site_fract_y
 _atom_site_fract_z
 _atom_site_occupancy
  Sr  Sr0  1  0.25000000  0.76074800  0.33471700  1
  Sr  Sr1  1  0.25000000  0.26074800  0.16528300  1
  Sr  Sr2  1  0.75000000  0.23925200  0.66528300  1
  Sr  Sr3  1  0.75000000  0.73925200  0.83471700  1
  Tm  Tm4  1  0.25000000  0.43825100  0.38996200  1
  Tm  Tm5  1  0.25000000  0.93825100  0.11003800  1
  Tm  Tm6  1  0.75000000  0.56174900  0.61003800  1
  Tm  Tm7  1  0.75000000  0.06174900  0.88996200  1
  Tm  Tm8  1  0.25000000  0.41748900  0.90103300  1
  Tm  Tm9  1  0.25000000  0.91748900  0.59896700  1
  Tm  Tm10  1  0.75000000  0.58251100  0.09896700  1
  Tm  Tm11  1  0.75000000  0.08251100  0.40103300  1
  S  S12  1  0.25000000  0.20433400  0.83273300  1
  S  S13  1  0.25000000  0.70433400  0.66726700  1
  S  S14  1  0.75000000  0.79566600  0.16726700  1
  S  S15  1  0.75000000  0.29566600  0.33273300  1
  S  S16  1  0.25000000  0.12661000  0.52910900  1
  S  S17  1  0.25000000  0.62661000  0.97089100  1
  S  S18  1  0.75000000  0.87339000  0.47089100  1
  S  S19  1  0.75000000  0.37339000  0.02910900  1
  S  S20  1  0.25000000  0.02658800  0.28449300  1
  S  S21  1  0.25000000  0.52658800  0.21550700  1
  S  S22  1  0.75000000  0.97341200  0.71550700  1
  S  S23  1  0.75000000  0.47341200  0.78449300  1
  S  S24  1  0.25000000  0.41143900  0.57723900  1
  S  S25  1  0.25000000  0.91143900  0.92276100  1
  S  S26  1  0.75000000  0.58856100  0.42276100  1
  S  S27  1  0.75000000  0.08856100  0.07723900  1
