# generated using pymatgen
data_UPt5
_symmetry_space_group_name_H-M   'P 1'
_cell_length_a   5.29958006
_cell_length_b   5.29958006
_cell_length_c   5.29958006
_cell_angle_alpha   60.00000000
_cell_angle_beta   60.00000000
_cell_angle_gamma   60.00000000
_symmetry_Int_Tables_number   1
_chemical_formula_structural   UPt5
_chemical_formula_sum   'U1 Pt5'
_cell_volume   105.24691509
_cell_formula_units_Z   1
loop_
 _symmetry_equiv_pos_site_id
 _symmetry_equiv_pos_as_xyz
  1  'x, y, z'
loop_
 _atom_site_type_symbol
 _atom_site_label
 _atom_site_symmetry_multiplicity
 _atom_site_fract_x
 _atom_site_fract_y
 _atom_site_fract_z
 _atom_site_occupancy
  U  U0  1  0.00000000  0.00000000  0.00000000  1
  Pt  Pt1  1  0.25000000  0.25000000  0.25000000  1
  Pt  Pt2  1  0.62472300  0.62472300  0.12583100  1
  Pt  Pt3  1  0.62472300  0.12583100  0.62472300  1
  Pt  Pt4  1  0.12583100  0.62472300  0.62472300  1
  Pt  Pt5  1  0.62472300  0.62472300  0.62472300  1
