# generated using pymatgen
data_Rb2GdCl5
_symmetry_space_group_name_H-M   'P 1'
_cell_length_a   8.33295800
_cell_length_b   8.84902200
_cell_length_c   13.50579200
_cell_angle_alpha   90.00000000
_cell_angle_beta   90.00000000
_cell_angle_gamma   90.00000000
_symmetry_Int_Tables_number   1
_chemical_formula_structural   Rb2GdCl5
_chemical_formula_sum   'Rb8 Gd4 Cl20'
_cell_volume   995.89723056
_cell_formula_units_Z   4
loop_
 _symmetry_equiv_pos_site_id
 _symmetry_equiv_pos_as_xyz
  1  'x, y, z'
loop_
 _atom_site_type_symbol
 _atom_site_label
 _atom_site_symmetry_multiplicity
 _atom_site_fract_x
 _atom_site_fract_y
 _atom_site_fract_z
 _atom_site_occupancy
  Rb  Rb0  1  0.94729500  0.00551500  0.82806900  1
  Rb  Rb1  1  0.05270500  0.99448500  0.17193100  1
  Rb  Rb2  1  0.44729500  0.99448500  0.67193100  1
  Rb  Rb3  1  0.05270500  0.50551500  0.17193100  1
  Rb  Rb4  1  0.55270500  0.00551500  0.32806900  1
  Rb  Rb5  1  0.94729500  0.49448500  0.82806900  1
  Rb  Rb6  1  0.55270500  0.49448500  0.32806900  1
  Rb  Rb7  1  0.44729500  0.50551500  0.67193100  1
  Gd  Gd8  1  0.93019400  0.75000000  0.50268400  1
  Gd  Gd9  1  0.06980600  0.25000000  0.49731600  1
  Gd  Gd10  1  0.43019400  0.25000000  0.99731600  1
  Gd  Gd11  1  0.56980600  0.75000000  0.00268400  1
  Cl  Cl12  1  0.11360100  0.75000000  0.66887800  1
  Cl  Cl13  1  0.88639900  0.25000000  0.33112200  1
  Cl  Cl14  1  0.61360100  0.25000000  0.83112200  1
  Cl  Cl15  1  0.38639900  0.75000000  0.16887800  1
  Cl  Cl16  1  0.84339200  0.04110200  0.57081400  1
  Cl  Cl17  1  0.15660800  0.95889800  0.42918600  1
  Cl  Cl18  1  0.34339200  0.95889800  0.92918600  1
  Cl  Cl19  1  0.15660800  0.54110200  0.42918600  1
  Cl  Cl20  1  0.65660800  0.04110200  0.07081400  1
  Cl  Cl21  1  0.84339200  0.45889800  0.57081400  1
  Cl  Cl22  1  0.65660800  0.45889800  0.07081400  1
  Cl  Cl23  1  0.34339200  0.54110200  0.92918600  1
  Cl  Cl24  1  0.60009600  0.75000000  0.51196000  1
  Cl  Cl25  1  0.39990400  0.25000000  0.48804000  1
  Cl  Cl26  1  0.10009600  0.25000000  0.98804000  1
  Cl  Cl27  1  0.89990400  0.75000000  0.01196000  1
  Cl  Cl28  1  0.65369500  0.75000000  0.80775700  1
  Cl  Cl29  1  0.34630500  0.25000000  0.19224300  1
  Cl  Cl30  1  0.15369500  0.25000000  0.69224300  1
  Cl  Cl31  1  0.84630500  0.75000000  0.30775700  1
