# generated using pymatgen
data_GaPH9C3Cl3O
_symmetry_space_group_name_H-M   'P 1'
_cell_length_a   6.92883753
_cell_length_b   6.92883753
_cell_length_c   13.04399288
_cell_angle_alpha   80.98525511
_cell_angle_beta   80.98525511
_cell_angle_gamma   103.22741139
_symmetry_Int_Tables_number   1
_chemical_formula_structural   GaPH9C3Cl3O
_chemical_formula_sum   'Ga2 P2 H18 C6 Cl6 O2'
_cell_volume   589.88550136
_cell_formula_units_Z   2
loop_
 _symmetry_equiv_pos_site_id
 _symmetry_equiv_pos_as_xyz
  1  'x, y, z'
loop_
 _atom_site_type_symbol
 _atom_site_label
 _atom_site_symmetry_multiplicity
 _atom_site_fract_x
 _atom_site_fract_y
 _atom_site_fract_z
 _atom_site_occupancy
  Ga  Ga0  1  0.04430500  0.54161900  0.48630000  1
  Ga  Ga1  1  0.54161900  0.04430500  0.98630000  1
  P  P2  1  0.23571000  0.72341000  0.67809600  1
  P  P3  1  0.72341000  0.23571000  0.17809600  1
  H  H4  1  0.54790200  0.86899800  0.55296200  1
  H  H5  1  0.86899800  0.54790200  0.05296200  1
  H  H6  1  0.56170900  0.93729000  0.67865000  1
  H  H7  1  0.93729000  0.56170900  0.17865000  1
  H  H8  1  0.43056000  0.05896500  0.59148800  1
  H  H9  1  0.05896500  0.43056000  0.09148800  1
  H  H10  1  0.16445300  0.39274500  0.78686600  1
  H  H11  1  0.39274500  0.16445300  0.28686600  1
  H  H12  1  0.41045800  0.54379400  0.78877800  1
  H  H13  1  0.54379400  0.41045800  0.28877800  1
  H  H14  1  0.36925900  0.43474200  0.67608000  1
  H  H15  1  0.43474200  0.36925900  0.17608000  1
  H  H16  1  0.05688400  0.95114700  0.74277500  1
  H  H17  1  0.95114700  0.05688400  0.24277500  1
  H  H18  1  0.18005000  0.84490000  0.84007700  1
  H  H19  1  0.84490000  0.18005000  0.34007700  1
  H  H20  1  0.95110200  0.69652700  0.81452900  1
  H  H21  1  0.69652700  0.95110200  0.31452900  1
  C  C22  1  0.46567500  0.91568100  0.61970500  1
  C  C23  1  0.91568100  0.46567500  0.11970500  1
  C  C24  1  0.30090500  0.50232500  0.73836000  1
  C  C25  1  0.50232500  0.30090500  0.23836000  1
  C  C26  1  0.09258900  0.81264700  0.77862300  1
  C  C27  1  0.81264700  0.09258900  0.27862300  1
  Cl  Cl28  1  0.08413600  0.23611200  0.52387400  1
  Cl  Cl29  1  0.23611200  0.08413600  0.02387400  1
  Cl  Cl30  1  0.72849500  0.53039100  0.47884200  1
  Cl  Cl31  1  0.53039100  0.72849500  0.97884200  1
  Cl  Cl32  1  0.24176500  0.71390600  0.33676600  1
  Cl  Cl33  1  0.71390600  0.24176500  0.83676600  1
  O  O34  1  0.10410500  0.67970000  0.59483000  1
  O  O35  1  0.67970000  0.10410500  0.09483000  1
