# generated using pymatgen
data_ErTe3
_symmetry_space_group_name_H-M   'P 1'
_cell_length_a   13.11046736
_cell_length_b   13.11046736
_cell_length_c   4.34013600
_cell_angle_alpha   90.00000000
_cell_angle_beta   90.00000000
_cell_angle_gamma   160.95687836
_symmetry_Int_Tables_number   1
_chemical_formula_structural   ErTe3
_chemical_formula_sum   'Er2 Te6'
_cell_volume   243.40511736
_cell_formula_units_Z   2
loop_
 _symmetry_equiv_pos_site_id
 _symmetry_equiv_pos_as_xyz
  1  'x, y, z'
loop_
 _atom_site_type_symbol
 _atom_site_label
 _atom_site_symmetry_multiplicity
 _atom_site_fract_x
 _atom_site_fract_y
 _atom_site_fract_z
 _atom_site_occupancy
  Er  Er0  1  0.16973700  0.83026300  0.75000000  1
  Er  Er1  1  0.83026300  0.16973700  0.25000000  1
  Te  Te2  1  0.92539800  0.07460200  0.75000000  1
  Te  Te3  1  0.07460200  0.92539800  0.25000000  1
  Te  Te4  1  0.57471900  0.42528100  0.75000000  1
  Te  Te5  1  0.42528100  0.57471900  0.25000000  1
  Te  Te6  1  0.29332000  0.70668000  0.75000000  1
  Te  Te7  1  0.70668000  0.29332000  0.25000000  1
