# generated using pymatgen
data_Cs2Re(ClO)3
_symmetry_space_group_name_H-M   'P 1'
_cell_length_a   7.18981000
_cell_length_b   10.81605800
_cell_length_c   12.86761100
_cell_angle_alpha   90.00000000
_cell_angle_beta   90.00000000
_cell_angle_gamma   90.00000000
_symmetry_Int_Tables_number   1
_chemical_formula_structural   Cs2Re(ClO)3
_chemical_formula_sum   'Cs8 Re4 Cl12 O12'
_cell_volume   1000.65494180
_cell_formula_units_Z   4
loop_
 _symmetry_equiv_pos_site_id
 _symmetry_equiv_pos_as_xyz
  1  'x, y, z'
loop_
 _atom_site_type_symbol
 _atom_site_label
 _atom_site_symmetry_multiplicity
 _atom_site_fract_x
 _atom_site_fract_y
 _atom_site_fract_z
 _atom_site_occupancy
  Cs  Cs0  1  0.25000000  0.65538000  0.91093900  1
  Cs  Cs1  1  0.25000000  0.15538000  0.58906100  1
  Cs  Cs2  1  0.75000000  0.34462000  0.08906100  1
  Cs  Cs3  1  0.75000000  0.84462000  0.41093900  1
  Cs  Cs4  1  0.25000000  0.96676200  0.18188900  1
  Cs  Cs5  1  0.25000000  0.46676200  0.31811100  1
  Cs  Cs6  1  0.75000000  0.03323800  0.81811100  1
  Cs  Cs7  1  0.75000000  0.53323800  0.68188900  1
  Re  Re8  1  0.25000000  0.68768500  0.56679200  1
  Re  Re9  1  0.25000000  0.18768500  0.93320800  1
  Re  Re10  1  0.75000000  0.31231500  0.43320800  1
  Re  Re11  1  0.75000000  0.81231500  0.06679200  1
  Cl  Cl12  1  0.25000000  0.87681100  0.44588400  1
  Cl  Cl13  1  0.25000000  0.37681100  0.05411600  1
  Cl  Cl14  1  0.75000000  0.12318900  0.55411600  1
  Cl  Cl15  1  0.75000000  0.62318900  0.94588400  1
  Cl  Cl16  1  0.02040200  0.82102600  0.66720900  1
  Cl  Cl17  1  0.47959800  0.32102600  0.83279100  1
  Cl  Cl18  1  0.52040200  0.17897400  0.33279100  1
  Cl  Cl19  1  0.97959800  0.67897400  0.16720900  1
  Cl  Cl20  1  0.97959800  0.17897400  0.33279100  1
  Cl  Cl21  1  0.52040200  0.67897400  0.16720900  1
  Cl  Cl22  1  0.47959800  0.82102600  0.66720900  1
  Cl  Cl23  1  0.02040200  0.32102600  0.83279100  1
  O  O24  1  0.25000000  0.58745300  0.67309400  1
  O  O25  1  0.25000000  0.08745300  0.82690600  1
  O  O26  1  0.75000000  0.41254700  0.32690600  1
  O  O27  1  0.75000000  0.91254700  0.17309400  1
  O  O28  1  0.06022100  0.63529200  0.49373600  1
  O  O29  1  0.43977900  0.13529200  0.00626400  1
  O  O30  1  0.56022100  0.36470800  0.50626400  1
  O  O31  1  0.93977900  0.86470800  0.99373600  1
  O  O32  1  0.93977900  0.36470800  0.50626400  1
  O  O33  1  0.56022100  0.86470800  0.99373600  1
  O  O34  1  0.43977900  0.63529200  0.49373600  1
  O  O35  1  0.06022100  0.13529200  0.00626400  1
