# generated using pymatgen
data_Y4MgNi
_symmetry_space_group_name_H-M   'P 1'
_cell_length_a   9.66316571
_cell_length_b   9.66316571
_cell_length_c   9.66316571
_cell_angle_alpha   60.00000000
_cell_angle_beta   60.00000000
_cell_angle_gamma   60.00000000
_symmetry_Int_Tables_number   1
_chemical_formula_structural   Y4MgNi
_chemical_formula_sum   'Y16 Mg4 Ni4'
_cell_volume   638.03320824
_cell_formula_units_Z   4
loop_
 _symmetry_equiv_pos_site_id
 _symmetry_equiv_pos_as_xyz
  1  'x, y, z'
loop_
 _atom_site_type_symbol
 _atom_site_label
 _atom_site_symmetry_multiplicity
 _atom_site_fract_x
 _atom_site_fract_y
 _atom_site_fract_z
 _atom_site_occupancy
  Y  Y0  1  0.06176600  0.43823400  0.43823400  1
  Y  Y1  1  0.43823400  0.06176600  0.06176600  1
  Y  Y2  1  0.43823400  0.06176600  0.43823400  1
  Y  Y3  1  0.06176600  0.43823400  0.06176600  1
  Y  Y4  1  0.43823400  0.43823400  0.06176600  1
  Y  Y5  1  0.06176600  0.06176600  0.43823400  1
  Y  Y6  1  0.18405500  0.81594500  0.81594500  1
  Y  Y7  1  0.81594500  0.18405500  0.18405500  1
  Y  Y8  1  0.81594500  0.18405500  0.81594500  1
  Y  Y9  1  0.18405500  0.81594500  0.18405500  1
  Y  Y10  1  0.81594500  0.81594500  0.18405500  1
  Y  Y11  1  0.18405500  0.18405500  0.81594500  1
  Y  Y12  1  0.59628600  0.59628600  0.59628600  1
  Y  Y13  1  0.59628600  0.59628600  0.21114200  1
  Y  Y14  1  0.59628600  0.21114200  0.59628600  1
  Y  Y15  1  0.21114200  0.59628600  0.59628600  1
  Mg  Mg16  1  0.82992700  0.82992700  0.82992700  1
  Mg  Mg17  1  0.82992700  0.82992700  0.51021900  1
  Mg  Mg18  1  0.82992700  0.51021900  0.82992700  1
  Mg  Mg19  1  0.51021900  0.82992700  0.82992700  1
  Ni  Ni20  1  0.39128300  0.39128300  0.39128300  1
  Ni  Ni21  1  0.39128300  0.39128300  0.82615000  1
  Ni  Ni22  1  0.39128300  0.82615000  0.39128300  1
  Ni  Ni23  1  0.82615000  0.39128300  0.39128300  1
