# generated using pymatgen
data_Ba5Cr3O13
_symmetry_space_group_name_H-M   'P 1'
_cell_length_a   8.02039200
_cell_length_b   10.54706900
_cell_length_c   10.56212369
_cell_angle_alpha   60.28492168
_cell_angle_beta   90.00000000
_cell_angle_gamma   90.00000000
_symmetry_Int_Tables_number   1
_chemical_formula_structural   Ba5Cr3O13
_chemical_formula_sum   'Ba10 Cr6 O26'
_cell_volume   775.97727389
_cell_formula_units_Z   2
loop_
 _symmetry_equiv_pos_site_id
 _symmetry_equiv_pos_as_xyz
  1  'x, y, z'
loop_
 _atom_site_type_symbol
 _atom_site_label
 _atom_site_symmetry_multiplicity
 _atom_site_fract_x
 _atom_site_fract_y
 _atom_site_fract_z
 _atom_site_occupancy
  Ba  Ba0  1  0.49845400  0.32745500  0.32662400  1
  Ba  Ba1  1  0.99845400  0.67254500  0.67337600  1
  Ba  Ba2  1  0.99999000  0.32718400  0.32674800  1
  Ba  Ba3  1  0.49999000  0.67281600  0.67325200  1
  Ba  Ba4  1  0.25017600  0.21739100  0.76944900  1
  Ba  Ba5  1  0.25030700  0.76256200  0.00868200  1
  Ba  Ba6  1  0.25052800  0.02235900  0.22373100  1
  Ba  Ba7  1  0.75017600  0.78260900  0.23055100  1
  Ba  Ba8  1  0.75030700  0.23743800  0.99131800  1
  Ba  Ba9  1  0.75052800  0.97764100  0.77626900  1
  Cr  Cr10  1  0.24943400  0.40739000  0.96347900  1
  Cr  Cr11  1  0.24932800  0.96731400  0.62488100  1
  Cr  Cr12  1  0.24912600  0.62845700  0.40675700  1
  Cr  Cr13  1  0.74943400  0.59261000  0.03652100  1
  Cr  Cr14  1  0.74932800  0.03268600  0.37511900  1
  Cr  Cr15  1  0.74912600  0.37154300  0.59324300  1
  O  O16  1  0.24919900  0.32499400  0.15328000  1
  O  O17  1  0.24940800  0.15633300  0.51993800  1
  O  O18  1  0.24939400  0.51979300  0.33300600  1
  O  O19  1  0.74919900  0.67500600  0.84672000  1
  O  O20  1  0.74940800  0.84366700  0.48006200  1
  O  O21  1  0.74939400  0.48020700  0.66699400  1
  O  O22  1  0.24930500  0.59605800  0.87034900  1
  O  O23  1  0.24895500  0.86969900  0.53283200  1
  O  O24  1  0.24890100  0.53093500  0.58897500  1
  O  O25  1  0.74930500  0.40394200  0.12965100  1
  O  O26  1  0.74895500  0.13030100  0.46716800  1
  O  O27  1  0.74890100  0.46906500  0.41102500  1
  O  O28  1  0.42528500  0.35789200  0.90497500  1
  O  O29  1  0.42468100  0.90853300  0.73398300  1
  O  O30  1  0.41758900  0.73434000  0.35479900  1
  O  O31  1  0.92528500  0.64210800  0.09502500  1
  O  O32  1  0.92468100  0.09146700  0.26601700  1
  O  O33  1  0.91758900  0.26566000  0.64520100  1
  O  O34  1  0.57343400  0.64397000  0.09373100  1
  O  O35  1  0.57398200  0.09054600  0.26530500  1
  O  O36  1  0.58039800  0.26526600  0.64635600  1
  O  O37  1  0.07343400  0.35603000  0.90626900  1
  O  O38  1  0.07398200  0.90945400  0.73469500  1
  O  O39  1  0.08039800  0.73473400  0.35364400  1
  O  O40  1  0.28112600  0.99824100  0.00410900  1
  O  O41  1  0.78112600  0.00175900  0.99589100  1
