# generated using pymatgen
data_Tb2CoGe4
_symmetry_space_group_name_H-M   'P 1'
_cell_length_a   4.12091600
_cell_length_b   4.14838000
_cell_length_c   8.25120920
_cell_angle_alpha   75.44080409
_cell_angle_beta   90.00000000
_cell_angle_gamma   90.00000000
_symmetry_Int_Tables_number   1
_chemical_formula_structural   Tb2CoGe4
_chemical_formula_sum   'Tb2 Co1 Ge4'
_cell_volume   136.52594615
_cell_formula_units_Z   1
loop_
 _symmetry_equiv_pos_site_id
 _symmetry_equiv_pos_as_xyz
  1  'x, y, z'
loop_
 _atom_site_type_symbol
 _atom_site_label
 _atom_site_symmetry_multiplicity
 _atom_site_fract_x
 _atom_site_fract_y
 _atom_site_fract_z
 _atom_site_occupancy
  Tb  Tb0  1  0.25000000  0.89563600  0.20872900  1
  Tb  Tb1  1  0.75000000  0.10390700  0.79218700  1
  Co  Co2  1  0.25000000  0.69148700  0.61702600  1
  Ge  Ge3  1  0.25000000  0.54789300  0.90421500  1
  Ge  Ge4  1  0.75000000  0.44603100  0.10793800  1
  Ge  Ge5  1  0.25000000  0.25863700  0.48272600  1
  Ge  Ge6  1  0.75000000  0.75741000  0.48518000  1
