# generated using pymatgen
data_Sc7CoBr12
_symmetry_space_group_name_H-M   'P 1'
_cell_length_a   8.72847158
_cell_length_b   8.72847158
_cell_length_c   8.72847193
_cell_angle_alpha   107.03203134
_cell_angle_beta   107.03203134
_cell_angle_gamma   107.03203676
_symmetry_Int_Tables_number   1
_chemical_formula_structural   Sc7CoBr12
_chemical_formula_sum   'Sc7 Co1 Br12'
_cell_volume   553.32476345
_cell_formula_units_Z   1
loop_
 _symmetry_equiv_pos_site_id
 _symmetry_equiv_pos_as_xyz
  1  'x, y, z'
loop_
 _atom_site_type_symbol
 _atom_site_label
 _atom_site_symmetry_multiplicity
 _atom_site_fract_x
 _atom_site_fract_y
 _atom_site_fract_z
 _atom_site_occupancy
  Sc  Sc0  1  0.29886400  0.09484500  0.02321100  1
  Sc  Sc1  1  0.09484500  0.02321100  0.29886400  1
  Sc  Sc2  1  0.02321100  0.29886400  0.09484500  1
  Sc  Sc3  1  0.70113600  0.90515500  0.97678900  1
  Sc  Sc4  1  0.90515500  0.97678900  0.70113600  1
  Sc  Sc5  1  0.97678900  0.70113600  0.90515500  1
  Sc  Sc6  1  0.50000000  0.50000000  0.50000000  1
  Co  Co7  1  0.00000000  0.00000000  0.00000000  1
  Br  Br8  1  0.22002300  0.06979600  0.68019200  1
  Br  Br9  1  0.06979600  0.68019200  0.22002300  1
  Br  Br10  1  0.68019200  0.22002300  0.06979600  1
  Br  Br11  1  0.77997700  0.93020400  0.31980800  1
  Br  Br12  1  0.93020400  0.31980800  0.77997700  1
  Br  Br13  1  0.31980800  0.77997700  0.93020400  1
  Br  Br14  1  0.38545500  0.45850900  0.16442700  1
  Br  Br15  1  0.45850900  0.16442700  0.38545500  1
  Br  Br16  1  0.16442700  0.38545500  0.45850900  1
  Br  Br17  1  0.61454500  0.54149100  0.83557300  1
  Br  Br18  1  0.54149100  0.83557300  0.61454500  1
  Br  Br19  1  0.83557300  0.61454500  0.54149100  1
