# generated using pymatgen
data_Li3GaSiO5
_symmetry_space_group_name_H-M   'P 1'
_cell_length_a   4.90551600
_cell_length_b   5.43322100
_cell_length_c   15.74239000
_cell_angle_alpha   90.00000000
_cell_angle_beta   90.00000000
_cell_angle_gamma   90.00000000
_symmetry_Int_Tables_number   1
_chemical_formula_structural   Li3GaSiO5
_chemical_formula_sum   'Li12 Ga4 Si4 O20'
_cell_volume   419.57802517
_cell_formula_units_Z   4
loop_
 _symmetry_equiv_pos_site_id
 _symmetry_equiv_pos_as_xyz
  1  'x, y, z'
loop_
 _atom_site_type_symbol
 _atom_site_label
 _atom_site_symmetry_multiplicity
 _atom_site_fract_x
 _atom_site_fract_y
 _atom_site_fract_z
 _atom_site_occupancy
  Li  Li0  1  0.49987400  0.33320400  0.40735700  1
  Li  Li1  1  0.99987400  0.66679600  0.59264300  1
  Li  Li2  1  0.99987400  0.16679600  0.90735700  1
  Li  Li3  1  0.49987400  0.83320400  0.09264300  1
  Li  Li4  1  0.50312700  0.83484300  0.50495800  1
  Li  Li5  1  0.00312700  0.16515700  0.49504200  1
  Li  Li6  1  0.00312700  0.66515700  0.00495800  1
  Li  Li7  1  0.50312700  0.33484300  0.99504200  1
  Li  Li8  1  0.50041200  0.82372000  0.69511900  1
  Li  Li9  1  0.00041200  0.17628000  0.30488100  1
  Li  Li10  1  0.00041200  0.67628000  0.19511900  1
  Li  Li11  1  0.50041200  0.32372000  0.80488100  1
  Ga  Ga12  1  0.49922100  0.82920200  0.30065100  1
  Ga  Ga13  1  0.99922100  0.17079800  0.69934900  1
  Ga  Ga14  1  0.99922100  0.67079800  0.80065100  1
  Ga  Ga15  1  0.49922100  0.32920200  0.19934900  1
  Si  Si16  1  0.00491900  0.66600200  0.40217000  1
  Si  Si17  1  0.50491900  0.33399800  0.59783000  1
  Si  Si18  1  0.50491900  0.83399800  0.90217000  1
  Si  Si19  1  0.00491900  0.16600200  0.09783000  1
  O  O20  1  0.59600900  0.15755400  0.29671500  1
  O  O21  1  0.16216300  0.81808300  0.89469900  1
  O  O22  1  0.16216300  0.31808300  0.60530100  1
  O  O23  1  0.66216300  0.18191700  0.10530100  1
  O  O24  1  0.10335900  0.31620700  0.01439200  1
  O  O25  1  0.60335900  0.68379300  0.98560800  1
  O  O26  1  0.60335900  0.18379300  0.51439200  1
  O  O27  1  0.10335900  0.81620700  0.48560800  1
  O  O28  1  0.10103800  0.88023400  0.10153800  1
  O  O29  1  0.60103800  0.11976600  0.89846200  1
  O  O30  1  0.60103800  0.61976600  0.60153800  1
  O  O31  1  0.10103800  0.38023400  0.39846200  1
  O  O32  1  0.11688000  0.31224500  0.18699300  1
  O  O33  1  0.61688000  0.68775500  0.81300700  1
  O  O34  1  0.61688000  0.18775500  0.68699300  1
  O  O35  1  0.11688000  0.81224500  0.31300700  1
  O  O36  1  0.09600900  0.34244600  0.79671500  1
  O  O37  1  0.59600900  0.65755400  0.20328500  1
  O  O38  1  0.66216300  0.68191700  0.39469900  1
  O  O39  1  0.09600900  0.84244600  0.70328500  1
