# generated using pymatgen
data_LaH3(SO4)3
_symmetry_space_group_name_H-M   'P 1'
_cell_length_a   9.61281166
_cell_length_b   9.61281166
_cell_length_c   6.00284500
_cell_angle_alpha   90.00000000
_cell_angle_beta   90.00000000
_cell_angle_gamma   119.99999765
_symmetry_Int_Tables_number   1
_chemical_formula_structural   LaH3(SO4)3
_chemical_formula_sum   'La2 H6 S6 O24'
_cell_volume   480.38411529
_cell_formula_units_Z   2
loop_
 _symmetry_equiv_pos_site_id
 _symmetry_equiv_pos_as_xyz
  1  'x, y, z'
loop_
 _atom_site_type_symbol
 _atom_site_label
 _atom_site_symmetry_multiplicity
 _atom_site_fract_x
 _atom_site_fract_y
 _atom_site_fract_z
 _atom_site_occupancy
  La  La0  1  0.66666700  0.33333300  0.74781600  1
  La  La1  1  0.33333300  0.66666700  0.24781600  1
  H  H2  1  0.93287600  0.77614300  0.86130400  1
  H  H3  1  0.84326700  0.06712400  0.86130400  1
  H  H4  1  0.22385700  0.15673300  0.86130400  1
  H  H5  1  0.06712400  0.22385700  0.36130400  1
  H  H6  1  0.15673300  0.93287600  0.36130400  1
  H  H7  1  0.77614300  0.84326700  0.36130400  1
  S  S8  1  0.09520600  0.69878900  0.75272600  1
  S  S9  1  0.60358300  0.90479400  0.75272600  1
  S  S10  1  0.30121100  0.39641700  0.75272600  1
  S  S11  1  0.90479400  0.30121100  0.25272600  1
  S  S12  1  0.39641700  0.09520600  0.25272600  1
  S  S13  1  0.69878900  0.60358300  0.25272600  1
  O  O14  1  0.01818600  0.81280300  0.74769500  1
  O  O15  1  0.79461700  0.98181400  0.74769500  1
  O  O16  1  0.18719700  0.20538300  0.74769500  1
  O  O17  1  0.98181400  0.18719700  0.24769500  1
  O  O18  1  0.20538300  0.01818600  0.24769500  1
  O  O19  1  0.81280300  0.79461700  0.24769500  1
  O  O20  1  0.96485700  0.53284000  0.75289400  1
  O  O21  1  0.56798300  0.03514300  0.75289400  1
  O  O22  1  0.46716000  0.43201700  0.75289400  1
  O  O23  1  0.03514300  0.46716000  0.25289400  1
  O  O24  1  0.43201700  0.96485700  0.25289400  1
  O  O25  1  0.53284000  0.56798300  0.25289400  1
  O  O26  1  0.44223600  0.19114900  0.04770100  1
  O  O27  1  0.74891300  0.55776400  0.04770100  1
  O  O28  1  0.80885100  0.25108700  0.04770100  1
  O  O29  1  0.55776400  0.80885100  0.54770100  1
  O  O30  1  0.25108700  0.44223600  0.54770100  1
  O  O31  1  0.19114900  0.74891300  0.54770100  1
  O  O32  1  0.54671600  0.80565000  0.95340600  1
  O  O33  1  0.25893400  0.45328400  0.95340600  1
  O  O34  1  0.19435000  0.74106600  0.95340600  1
  O  O35  1  0.45328400  0.19435000  0.45340600  1
  O  O36  1  0.74106600  0.54671600  0.45340600  1
  O  O37  1  0.80565000  0.25893400  0.45340600  1
