# generated using pymatgen
data_RbTb(WO4)2
_symmetry_space_group_name_H-M   'P 1'
_cell_length_a   7.64378455
_cell_length_b   7.64378455
_cell_length_c   7.51982135
_cell_angle_alpha   62.47404909
_cell_angle_beta   62.47404909
_cell_angle_gamma   88.51655729
_symmetry_Int_Tables_number   1
_chemical_formula_structural   RbTb(WO4)2
_chemical_formula_sum   'Rb2 Tb2 W4 O16'
_cell_volume   335.53785399
_cell_formula_units_Z   2
loop_
 _symmetry_equiv_pos_site_id
 _symmetry_equiv_pos_as_xyz
  1  'x, y, z'
loop_
 _atom_site_type_symbol
 _atom_site_label
 _atom_site_symmetry_multiplicity
 _atom_site_fract_x
 _atom_site_fract_y
 _atom_site_fract_z
 _atom_site_occupancy
  Rb  Rb0  1  0.20018600  0.79981400  0.75000000  1
  Rb  Rb1  1  0.79981400  0.20018600  0.25000000  1
  Tb  Tb2  1  0.77586400  0.22413600  0.75000000  1
  Tb  Tb3  1  0.22413600  0.77586400  0.25000000  1
  W  W4  1  0.69972800  0.68915700  0.78210100  1
  W  W5  1  0.30027200  0.31084300  0.21789900  1
  W  W6  1  0.31084300  0.30027200  0.71789900  1
  W  W7  1  0.68915700  0.69972800  0.28210100  1
  O  O8  1  0.62117200  0.75175500  0.56114100  1
  O  O9  1  0.37882800  0.24824500  0.43885900  1
  O  O10  1  0.24824500  0.37882800  0.93885900  1
  O  O11  1  0.75175500  0.62117200  0.06114100  1
  O  O12  1  0.37426900  0.06097200  0.87325700  1
  O  O13  1  0.62573100  0.93902800  0.12674300  1
  O  O14  1  0.93902800  0.62573100  0.62674300  1
  O  O15  1  0.06097200  0.37426900  0.37325700  1
  O  O16  1  0.59104000  0.37024900  0.96750800  1
  O  O17  1  0.40896000  0.62975100  0.03249200  1
  O  O18  1  0.62975100  0.40896000  0.53249200  1
  O  O19  1  0.37024900  0.59104000  0.46750800  1
  O  O20  1  0.78282600  0.95396600  0.69228100  1
  O  O21  1  0.21717400  0.04603400  0.30771900  1
  O  O22  1  0.04603400  0.21717400  0.80771900  1
  O  O23  1  0.95396600  0.78282600  0.19228100  1
