# generated using pymatgen
data_GaPd
_symmetry_space_group_name_H-M   'P 1'
_cell_length_a   4.96338600
_cell_length_b   4.96338600
_cell_length_c   4.96338600
_cell_angle_alpha   90.00000000
_cell_angle_beta   90.00000000
_cell_angle_gamma   90.00000000
_symmetry_Int_Tables_number   1
_chemical_formula_structural   GaPd
_chemical_formula_sum   'Ga4 Pd4'
_cell_volume   122.27400969
_cell_formula_units_Z   4
loop_
 _symmetry_equiv_pos_site_id
 _symmetry_equiv_pos_as_xyz
  1  'x, y, z'
loop_
 _atom_site_type_symbol
 _atom_site_label
 _atom_site_symmetry_multiplicity
 _atom_site_fract_x
 _atom_site_fract_y
 _atom_site_fract_z
 _atom_site_occupancy
  Ga  Ga0  1  0.40734900  0.90734900  0.59265100  1
  Ga  Ga1  1  0.90734900  0.59265100  0.40734900  1
  Ga  Ga2  1  0.59265100  0.40734900  0.90734900  1
  Ga  Ga3  1  0.09265100  0.09265100  0.09265100  1
  Pd  Pd4  1  0.10838500  0.60838500  0.89161500  1
  Pd  Pd5  1  0.60838500  0.89161500  0.10838500  1
  Pd  Pd6  1  0.89161500  0.10838500  0.60838500  1
  Pd  Pd7  1  0.39161500  0.39161500  0.39161500  1
