# generated using pymatgen
data_BaGd2Sc2O7
_symmetry_space_group_name_H-M   'P 1'
_cell_length_a   5.82842600
_cell_length_b   5.82842600
_cell_length_c   20.06448500
_cell_angle_alpha   90.00000000
_cell_angle_beta   90.00000000
_cell_angle_gamma   90.00000000
_symmetry_Int_Tables_number   1
_chemical_formula_structural   BaGd2Sc2O7
_chemical_formula_sum   'Ba4 Gd8 Sc8 O28'
_cell_volume   681.60158364
_cell_formula_units_Z   4
loop_
 _symmetry_equiv_pos_site_id
 _symmetry_equiv_pos_as_xyz
  1  'x, y, z'
loop_
 _atom_site_type_symbol
 _atom_site_label
 _atom_site_symmetry_multiplicity
 _atom_site_fract_x
 _atom_site_fract_y
 _atom_site_fract_z
 _atom_site_occupancy
  Ba  Ba0  1  0.23611300  0.76388700  0.50000000  1
  Ba  Ba1  1  0.76388700  0.23611300  0.50000000  1
  Ba  Ba2  1  0.26388700  0.26388700  0.00000000  1
  Ba  Ba3  1  0.73611300  0.73611300  0.00000000  1
  Gd  Gd4  1  0.21651400  0.78348600  0.31440000  1
  Gd  Gd5  1  0.78348600  0.21651400  0.31440000  1
  Gd  Gd6  1  0.28348600  0.28348600  0.81440000  1
  Gd  Gd7  1  0.71651400  0.71651400  0.81440000  1
  Gd  Gd8  1  0.78348600  0.21651400  0.68560000  1
  Gd  Gd9  1  0.21651400  0.78348600  0.68560000  1
  Gd  Gd10  1  0.71651400  0.71651400  0.18560000  1
  Gd  Gd11  1  0.28348600  0.28348600  0.18560000  1
  Sc  Sc12  1  0.23847700  0.76152300  0.10422000  1
  Sc  Sc13  1  0.76152300  0.23847700  0.10422000  1
  Sc  Sc14  1  0.26152300  0.26152300  0.60422000  1
  Sc  Sc15  1  0.73847700  0.73847700  0.60422000  1
  Sc  Sc16  1  0.76152300  0.23847700  0.89578000  1
  Sc  Sc17  1  0.23847700  0.76152300  0.89578000  1
  Sc  Sc18  1  0.73847700  0.73847700  0.39578000  1
  Sc  Sc19  1  0.26152300  0.26152300  0.39578000  1
  O  O20  1  0.28689400  0.28689400  0.50000000  1
  O  O21  1  0.71310600  0.71310600  0.50000000  1
  O  O22  1  0.21310600  0.78689400  0.00000000  1
  O  O23  1  0.78689400  0.21310600  0.00000000  1
  O  O24  1  0.32099300  0.67900700  0.21287200  1
  O  O25  1  0.67900700  0.32099300  0.21287200  1
  O  O26  1  0.17900700  0.17900700  0.71287200  1
  O  O27  1  0.82099300  0.82099300  0.71287200  1
  O  O28  1  0.67900700  0.32099300  0.78712800  1
  O  O29  1  0.32099300  0.67900700  0.78712800  1
  O  O30  1  0.82099300  0.82099300  0.28712800  1
  O  O31  1  0.17900700  0.17900700  0.28712800  1
  O  O32  1  0.00000000  0.50000000  0.38309600  1
  O  O33  1  0.50000000  0.00000000  0.88309600  1
  O  O34  1  0.00000000  0.50000000  0.61690400  1
  O  O35  1  0.50000000  0.00000000  0.11690400  1
  O  O36  1  0.50000000  0.00000000  0.38309600  1
  O  O37  1  0.00000000  0.50000000  0.88309600  1
  O  O38  1  0.50000000  0.00000000  0.61690400  1
  O  O39  1  0.00000000  0.50000000  0.11690400  1
  O  O40  1  0.50000000  0.50000000  0.36560200  1
  O  O41  1  0.00000000  0.00000000  0.86560200  1
  O  O42  1  0.50000000  0.50000000  0.63439800  1
  O  O43  1  0.00000000  0.00000000  0.13439800  1
  O  O44  1  0.50000000  0.50000000  0.09565600  1
  O  O45  1  0.00000000  0.00000000  0.59565600  1
  O  O46  1  0.50000000  0.50000000  0.90434400  1
  O  O47  1  0.00000000  0.00000000  0.40434400  1
