# generated using pymatgen
data_Rb3ScF6
_symmetry_space_group_name_H-M   'P 1'
_cell_length_a   6.53651500
_cell_length_b   6.53651500
_cell_length_c   9.46651600
_cell_angle_alpha   90.00000000
_cell_angle_beta   90.00000000
_cell_angle_gamma   90.00000000
_symmetry_Int_Tables_number   1
_chemical_formula_structural   Rb3ScF6
_chemical_formula_sum   'Rb6 Sc2 F12'
_cell_volume   404.46663095
_cell_formula_units_Z   2
loop_
 _symmetry_equiv_pos_site_id
 _symmetry_equiv_pos_as_xyz
  1  'x, y, z'
loop_
 _atom_site_type_symbol
 _atom_site_label
 _atom_site_symmetry_multiplicity
 _atom_site_fract_x
 _atom_site_fract_y
 _atom_site_fract_z
 _atom_site_occupancy
  Rb  Rb0  1  0.00000000  0.50000000  0.25000000  1
  Rb  Rb1  1  0.00000000  0.50000000  0.75000000  1
  Rb  Rb2  1  0.50000000  0.00000000  0.25000000  1
  Rb  Rb3  1  0.50000000  0.00000000  0.75000000  1
  Rb  Rb4  1  0.00000000  0.00000000  0.50000000  1
  Rb  Rb5  1  0.50000000  0.50000000  0.00000000  1
  Sc  Sc6  1  0.00000000  0.00000000  0.00000000  1
  Sc  Sc7  1  0.50000000  0.50000000  0.50000000  1
  F  F8  1  0.14277600  0.27740400  0.00000000  1
  F  F9  1  0.85722400  0.72259600  0.00000000  1
  F  F10  1  0.72259600  0.14277600  0.00000000  1
  F  F11  1  0.35722400  0.77740400  0.50000000  1
  F  F12  1  0.27740400  0.85722400  0.00000000  1
  F  F13  1  0.64277600  0.22259600  0.50000000  1
  F  F14  1  0.77740400  0.64277600  0.50000000  1
  F  F15  1  0.22259600  0.35722400  0.50000000  1
  F  F16  1  0.00000000  0.00000000  0.21575000  1
  F  F17  1  0.00000000  0.00000000  0.78425000  1
  F  F18  1  0.50000000  0.50000000  0.28425000  1
  F  F19  1  0.50000000  0.50000000  0.71575000  1
