# generated using pymatgen
data_Ti3Nb3Sn2
_symmetry_space_group_name_H-M   'P 1'
_cell_length_a   5.29573394
_cell_length_b   5.29573394
_cell_length_c   5.29573396
_cell_angle_alpha   90.07850766
_cell_angle_beta   90.07850766
_cell_angle_gamma   90.07850793
_symmetry_Int_Tables_number   1
_chemical_formula_structural   Ti3Nb3Sn2
_chemical_formula_sum   'Ti3 Nb3 Sn2'
_cell_volume   148.51737011
_cell_formula_units_Z   1
loop_
 _symmetry_equiv_pos_site_id
 _symmetry_equiv_pos_as_xyz
  1  'x, y, z'
loop_
 _atom_site_type_symbol
 _atom_site_label
 _atom_site_symmetry_multiplicity
 _atom_site_fract_x
 _atom_site_fract_y
 _atom_site_fract_z
 _atom_site_occupancy
  Ti  Ti0  1  0.00000000  0.74416400  0.25583600  1
  Ti  Ti1  1  0.74416400  0.25583600  0.00000000  1
  Ti  Ti2  1  0.25583600  0.00000000  0.74416400  1
  Nb  Nb3  1  0.50000000  0.74756500  0.25243500  1
  Nb  Nb4  1  0.74756500  0.25243500  0.50000000  1
  Nb  Nb5  1  0.25243500  0.50000000  0.74756500  1
  Sn  Sn6  1  0.24799900  0.24799900  0.24799900  1
  Sn  Sn7  1  0.75200100  0.75200100  0.75200100  1
