# generated using pymatgen
data_CsReN2
_symmetry_space_group_name_H-M   'P 1'
_cell_length_a   6.20313400
_cell_length_b   8.57714600
_cell_length_c   12.35868800
_cell_angle_alpha   90.00000000
_cell_angle_beta   90.00000000
_cell_angle_gamma   90.00000000
_symmetry_Int_Tables_number   1
_chemical_formula_structural   CsReN2
_chemical_formula_sum   'Cs8 Re8 N16'
_cell_volume   657.54629345
_cell_formula_units_Z   8
loop_
 _symmetry_equiv_pos_site_id
 _symmetry_equiv_pos_as_xyz
  1  'x, y, z'
loop_
 _atom_site_type_symbol
 _atom_site_label
 _atom_site_symmetry_multiplicity
 _atom_site_fract_x
 _atom_site_fract_y
 _atom_site_fract_z
 _atom_site_occupancy
  Cs  Cs0  1  0.75000000  0.12588400  0.50000000  1
  Cs  Cs1  1  0.25000000  0.87411600  0.00000000  1
  Cs  Cs2  1  0.25000000  0.87411600  0.50000000  1
  Cs  Cs3  1  0.75000000  0.12588400  0.00000000  1
  Cs  Cs4  1  0.81645000  0.37663300  0.75000000  1
  Cs  Cs5  1  0.31645000  0.62336700  0.75000000  1
  Cs  Cs6  1  0.18355000  0.62336700  0.25000000  1
  Cs  Cs7  1  0.68355000  0.37663300  0.25000000  1
  Re  Re8  1  0.25000000  0.37482900  0.50000000  1
  Re  Re9  1  0.75000000  0.62517100  0.00000000  1
  Re  Re10  1  0.75000000  0.62517100  0.50000000  1
  Re  Re11  1  0.25000000  0.37482900  0.00000000  1
  Re  Re12  1  0.28977400  0.12429900  0.75000000  1
  Re  Re13  1  0.78977400  0.87570100  0.75000000  1
  Re  Re14  1  0.71022600  0.87570100  0.25000000  1
  Re  Re15  1  0.21022600  0.12429900  0.25000000  1
  N  N16  1  0.55499500  0.01566100  0.75000000  1
  N  N17  1  0.05499500  0.98433900  0.75000000  1
  N  N18  1  0.44500500  0.98433900  0.25000000  1
  N  N19  1  0.94500500  0.01566100  0.25000000  1
  N  N20  1  0.26685100  0.24829900  0.87518800  1
  N  N21  1  0.76685100  0.75170100  0.62481200  1
  N  N22  1  0.73314900  0.75170100  0.37518800  1
  N  N23  1  0.23314900  0.24829900  0.12481200  1
  N  N24  1  0.73314900  0.75170100  0.12481200  1
  N  N25  1  0.23314900  0.24829900  0.37518800  1
  N  N26  1  0.26685100  0.24829900  0.62481200  1
  N  N27  1  0.76685100  0.75170100  0.87518800  1
  N  N28  1  0.00000000  0.50000000  0.00000000  1
  N  N29  1  0.50000000  0.50000000  0.50000000  1
  N  N30  1  0.00000000  0.50000000  0.50000000  1
  N  N31  1  0.50000000  0.50000000  0.00000000  1
