# generated using pymatgen
data_Ba8Sb4H2O
_symmetry_space_group_name_H-M   'P 1'
_cell_length_a   19.33609295
_cell_length_b   19.33609295
_cell_length_c   19.33609295
_cell_angle_alpha   164.35736127
_cell_angle_beta   164.35736127
_cell_angle_gamma   22.19184602
_symmetry_Int_Tables_number   1
_chemical_formula_structural   Ba8Sb4H2O
_chemical_formula_sum   'Ba8 Sb4 H2 O1'
_cell_volume   525.51640181
_cell_formula_units_Z   1
loop_
 _symmetry_equiv_pos_site_id
 _symmetry_equiv_pos_as_xyz
  1  'x, y, z'
loop_
 _atom_site_type_symbol
 _atom_site_label
 _atom_site_symmetry_multiplicity
 _atom_site_fract_x
 _atom_site_fract_y
 _atom_site_fract_z
 _atom_site_occupancy
  Ba  Ba0  1  0.50000000  0.00000000  0.50000000  1
  Ba  Ba1  1  0.00000000  0.50000000  0.50000000  1
  Ba  Ba2  1  0.91493300  0.91493300  0.00000000  1
  Ba  Ba3  1  0.08506700  0.08506700  0.00000000  1
  Ba  Ba4  1  0.25000000  0.75000000  0.50000000  1
  Ba  Ba5  1  0.75000000  0.25000000  0.50000000  1
  Ba  Ba6  1  0.65931600  0.65931600  0.00000000  1
  Ba  Ba7  1  0.34068400  0.34068400  0.00000000  1
  Sb  Sb8  1  0.56707800  0.56707800  0.00000000  1
  Sb  Sb9  1  0.43292200  0.43292200  0.00000000  1
  Sb  Sb10  1  0.81985200  0.81985200  0.00000000  1
  Sb  Sb11  1  0.18014800  0.18014800  0.00000000  1
  H  H12  1  0.72855000  0.72855000  0.00000000  1
  H  H13  1  0.27145000  0.27145000  0.00000000  1
  O  O14  1  0.00000000  0.00000000  0.00000000  1
