# generated using pymatgen
data_Th3Pd4
_symmetry_space_group_name_H-M   'P 1'
_cell_length_a   8.22437690
_cell_length_b   8.22437690
_cell_length_c   8.22437623
_cell_angle_alpha   114.57695450
_cell_angle_beta   114.57695450
_cell_angle_gamma   114.57695094
_symmetry_Int_Tables_number   1
_chemical_formula_structural   Th3Pd4
_chemical_formula_sum   'Th6 Pd8'
_cell_volume   323.01326821
_cell_formula_units_Z   2
loop_
 _symmetry_equiv_pos_site_id
 _symmetry_equiv_pos_as_xyz
  1  'x, y, z'
loop_
 _atom_site_type_symbol
 _atom_site_label
 _atom_site_symmetry_multiplicity
 _atom_site_fract_x
 _atom_site_fract_y
 _atom_site_fract_z
 _atom_site_occupancy
  Th  Th0  1  0.40845400  0.02998700  0.27859700  1
  Th  Th1  1  0.02998700  0.27859700  0.40845400  1
  Th  Th2  1  0.27859700  0.40845400  0.02998700  1
  Th  Th3  1  0.59154600  0.97001300  0.72140300  1
  Th  Th4  1  0.97001300  0.72140300  0.59154600  1
  Th  Th5  1  0.72140300  0.59154600  0.97001300  1
  Pd  Pd6  1  0.00000000  0.00000000  0.00000000  1
  Pd  Pd7  1  0.50000000  0.50000000  0.50000000  1
  Pd  Pd8  1  0.22557500  0.06033900  0.56039400  1
  Pd  Pd9  1  0.06033900  0.56039400  0.22557500  1
  Pd  Pd10  1  0.56039400  0.22557500  0.06033900  1
  Pd  Pd11  1  0.77442500  0.93966100  0.43960600  1
  Pd  Pd12  1  0.93966100  0.43960600  0.77442500  1
  Pd  Pd13  1  0.43960600  0.77442500  0.93966100  1
