# generated using pymatgen
data_CsEr2Cl7
_symmetry_space_group_name_H-M   'P 1'
_cell_length_a   7.02720600
_cell_length_b   12.60801300
_cell_length_c   14.35449900
_cell_angle_alpha   90.00000000
_cell_angle_beta   90.00000000
_cell_angle_gamma   90.00000000
_symmetry_Int_Tables_number   1
_chemical_formula_structural   CsEr2Cl7
_chemical_formula_sum   'Cs4 Er8 Cl28'
_cell_volume   1271.79575841
_cell_formula_units_Z   4
loop_
 _symmetry_equiv_pos_site_id
 _symmetry_equiv_pos_as_xyz
  1  'x, y, z'
loop_
 _atom_site_type_symbol
 _atom_site_label
 _atom_site_symmetry_multiplicity
 _atom_site_fract_x
 _atom_site_fract_y
 _atom_site_fract_z
 _atom_site_occupancy
  Cs  Cs0  1  0.25000000  0.80413400  0.04080600  1
  Cs  Cs1  1  0.75000000  0.19586600  0.95919400  1
  Cs  Cs2  1  0.75000000  0.30413400  0.45919400  1
  Cs  Cs3  1  0.25000000  0.69586600  0.54080600  1
  Er  Er4  1  0.25000000  0.45990000  0.23896500  1
  Er  Er5  1  0.75000000  0.54010000  0.76103500  1
  Er  Er6  1  0.75000000  0.95990000  0.26103500  1
  Er  Er7  1  0.25000000  0.04010000  0.73896500  1
  Er  Er8  1  0.25000000  0.15622500  0.25070100  1
  Er  Er9  1  0.75000000  0.84377500  0.74929900  1
  Er  Er10  1  0.75000000  0.65622500  0.24929900  1
  Er  Er11  1  0.25000000  0.34377500  0.75070100  1
  Cl  Cl12  1  0.01536700  0.30609700  0.18004300  1
  Cl  Cl13  1  0.98463300  0.69390300  0.81995700  1
  Cl  Cl14  1  0.98463300  0.80609700  0.31995700  1
  Cl  Cl15  1  0.51536700  0.69390300  0.81995700  1
  Cl  Cl16  1  0.01536700  0.19390300  0.68004300  1
  Cl  Cl17  1  0.48463300  0.30609700  0.18004300  1
  Cl  Cl18  1  0.48463300  0.19390300  0.68004300  1
  Cl  Cl19  1  0.51536700  0.80609700  0.31995700  1
  Cl  Cl20  1  0.00923900  0.57468000  0.13142500  1
  Cl  Cl21  1  0.99076100  0.42532000  0.86857500  1
  Cl  Cl22  1  0.99076100  0.07468000  0.36857500  1
  Cl  Cl23  1  0.50923900  0.42532000  0.86857500  1
  Cl  Cl24  1  0.00923900  0.92532000  0.63142500  1
  Cl  Cl25  1  0.49076100  0.57468000  0.13142500  1
  Cl  Cl26  1  0.49076100  0.92532000  0.63142500  1
  Cl  Cl27  1  0.50923900  0.07468000  0.36857500  1
  Cl  Cl28  1  0.00988000  0.04042900  0.14155800  1
  Cl  Cl29  1  0.99012000  0.95957100  0.85844200  1
  Cl  Cl30  1  0.99012000  0.54042900  0.35844200  1
  Cl  Cl31  1  0.50988000  0.95957100  0.85844200  1
  Cl  Cl32  1  0.00988000  0.45957100  0.64155800  1
  Cl  Cl33  1  0.49012000  0.04042900  0.14155800  1
  Cl  Cl34  1  0.49012000  0.45957100  0.64155800  1
  Cl  Cl35  1  0.50988000  0.54042900  0.35844200  1
  Cl  Cl36  1  0.25000000  0.31121700  0.38204600  1
  Cl  Cl37  1  0.75000000  0.68878300  0.61795400  1
  Cl  Cl38  1  0.75000000  0.81121700  0.11795400  1
  Cl  Cl39  1  0.25000000  0.18878300  0.88204600  1
