# generated using pymatgen
data_Eu2BiS4
_symmetry_space_group_name_H-M   'P 1'
_cell_length_a   4.06651300
_cell_length_b   11.59124200
_cell_length_c   14.64614100
_cell_angle_alpha   90.00000000
_cell_angle_beta   90.00000000
_cell_angle_gamma   90.00000000
_symmetry_Int_Tables_number   1
_chemical_formula_structural   Eu2BiS4
_chemical_formula_sum   'Eu8 Bi4 S16'
_cell_volume   690.35956891
_cell_formula_units_Z   4
loop_
 _symmetry_equiv_pos_site_id
 _symmetry_equiv_pos_as_xyz
  1  'x, y, z'
loop_
 _atom_site_type_symbol
 _atom_site_label
 _atom_site_symmetry_multiplicity
 _atom_site_fract_x
 _atom_site_fract_y
 _atom_site_fract_z
 _atom_site_occupancy
  Eu  Eu0  1  0.25000000  0.77186300  0.15468900  1
  Eu  Eu1  1  0.25000000  0.27186300  0.34531100  1
  Eu  Eu2  1  0.75000000  0.22813700  0.84531100  1
  Eu  Eu3  1  0.75000000  0.72813700  0.65468900  1
  Eu  Eu4  1  0.25000000  0.61057600  0.40250200  1
  Eu  Eu5  1  0.25000000  0.11057600  0.09749800  1
  Eu  Eu6  1  0.75000000  0.38942400  0.59749800  1
  Eu  Eu7  1  0.75000000  0.88942400  0.90250200  1
  Bi  Bi8  1  0.25000000  0.56362600  0.89193000  1
  Bi  Bi9  1  0.25000000  0.06362600  0.60807000  1
  Bi  Bi10  1  0.75000000  0.43637400  0.10807000  1
  Bi  Bi11  1  0.75000000  0.93637400  0.39193000  1
  S  S12  1  0.25000000  0.51539500  0.21228400  1
  S  S13  1  0.25000000  0.01539500  0.28771600  1
  S  S14  1  0.75000000  0.48460500  0.78771600  1
  S  S15  1  0.75000000  0.98460500  0.71228400  1
  S  S16  1  0.25000000  0.76237100  0.79932600  1
  S  S17  1  0.25000000  0.26237100  0.70067400  1
  S  S18  1  0.75000000  0.23762900  0.20067400  1
  S  S19  1  0.75000000  0.73762900  0.29932600  1
  S  S20  1  0.25000000  0.56130600  0.59503400  1
  S  S21  1  0.25000000  0.06130600  0.90496600  1
  S  S22  1  0.75000000  0.43869400  0.40496600  1
  S  S23  1  0.75000000  0.93869400  0.09503400  1
  S  S24  1  0.25000000  0.82806300  0.51668600  1
  S  S25  1  0.25000000  0.32806300  0.98331400  1
  S  S26  1  0.75000000  0.17193700  0.48331400  1
  S  S27  1  0.75000000  0.67193700  0.01668600  1
