# generated using pymatgen
data_K3Mo2O4F5
_symmetry_space_group_name_H-M   'P 1'
_cell_length_a   6.17135600
_cell_length_b   9.78658200
_cell_length_c   15.33528700
_cell_angle_alpha   90.00000000
_cell_angle_beta   90.00000000
_cell_angle_gamma   90.00000000
_symmetry_Int_Tables_number   1
_chemical_formula_structural   K3Mo2O4F5
_chemical_formula_sum   'K12 Mo8 O16 F20'
_cell_volume   926.19737829
_cell_formula_units_Z   4
loop_
 _symmetry_equiv_pos_site_id
 _symmetry_equiv_pos_as_xyz
  1  'x, y, z'
loop_
 _atom_site_type_symbol
 _atom_site_label
 _atom_site_symmetry_multiplicity
 _atom_site_fract_x
 _atom_site_fract_y
 _atom_site_fract_z
 _atom_site_occupancy
  K  K0  1  0.50000000  0.56677600  0.89198700  1
  K  K1  1  0.50000000  0.43322400  0.10801300  1
  K  K2  1  0.00000000  0.93322400  0.39198700  1
  K  K3  1  0.00000000  0.06677600  0.60801300  1
  K  K4  1  0.50000000  0.84580700  0.70243300  1
  K  K5  1  0.50000000  0.15419300  0.29756700  1
  K  K6  1  0.00000000  0.65419300  0.20243300  1
  K  K7  1  0.00000000  0.34580700  0.79756700  1
  K  K8  1  0.00000000  0.62626400  0.59260400  1
  K  K9  1  0.00000000  0.37373600  0.40739600  1
  K  K10  1  0.50000000  0.87373600  0.09260400  1
  K  K11  1  0.50000000  0.12626400  0.90739600  1
  Mo  Mo12  1  0.50000000  0.44448900  0.67155000  1
  Mo  Mo13  1  0.50000000  0.55551100  0.32845000  1
  Mo  Mo14  1  0.00000000  0.05551100  0.17155000  1
  Mo  Mo15  1  0.00000000  0.94448900  0.82845000  1
  Mo  Mo16  1  0.50000000  0.23253500  0.53089700  1
  Mo  Mo17  1  0.50000000  0.76746500  0.46910300  1
  Mo  Mo18  1  0.00000000  0.26746500  0.03089700  1
  Mo  Mo19  1  0.00000000  0.73253500  0.96910300  1
  O  O20  1  0.50000000  0.09339700  0.59986500  1
  O  O21  1  0.50000000  0.90660300  0.40013500  1
  O  O22  1  0.00000000  0.40660300  0.09986400  1
  O  O23  1  0.00000000  0.59339700  0.90013500  1
  O  O24  1  0.50000000  0.33783600  0.76222500  1
  O  O25  1  0.50000000  0.66216400  0.23777500  1
  O  O26  1  0.00000000  0.16216400  0.26222500  1
  O  O27  1  0.00000000  0.83783600  0.73777500  1
  O  O28  1  0.70969000  0.35620200  0.59064000  1
  O  O29  1  0.70969000  0.64379800  0.40936000  1
  O  O30  1  0.79031000  0.14379800  0.09064000  1
  O  O31  1  0.79031000  0.85620200  0.90936000  1
  O  O32  1  0.29031000  0.64379800  0.40936000  1
  O  O33  1  0.29031000  0.35620200  0.59064000  1
  O  O34  1  0.20969000  0.85620200  0.90936000  1
  O  O35  1  0.20969000  0.14379800  0.09064000  1
  F  F36  1  0.74818500  0.15875400  0.45231400  1
  F  F37  1  0.74818500  0.84124600  0.54768600  1
  F  F38  1  0.75181500  0.34124600  0.95231400  1
  F  F39  1  0.75181500  0.65875400  0.04768600  1
  F  F40  1  0.25181500  0.84124600  0.54768600  1
  F  F41  1  0.25181500  0.15875400  0.45231400  1
  F  F42  1  0.24818500  0.65875400  0.04768600  1
  F  F43  1  0.24818500  0.34124600  0.95231400  1
  F  F44  1  0.73041800  0.56988700  0.72564700  1
  F  F45  1  0.73041800  0.43011300  0.27435300  1
  F  F46  1  0.76958200  0.93011300  0.22564700  1
  F  F47  1  0.76958200  0.06988700  0.77435300  1
  F  F48  1  0.26958200  0.43011300  0.27435300  1
  F  F49  1  0.26958200  0.56988700  0.72564700  1
  F  F50  1  0.23041800  0.06988700  0.77435300  1
  F  F51  1  0.23041800  0.93011300  0.22564700  1
  F  F52  1  0.50000000  0.62196000  0.58069000  1
  F  F53  1  0.50000000  0.37804000  0.41931000  1
  F  F54  1  0.00000000  0.87804000  0.08069000  1
  F  F55  1  0.00000000  0.12196000  0.91931000  1
