# generated using pymatgen
data_DyIn2Ni
_symmetry_space_group_name_H-M   'P 1'
_cell_length_a   5.64698780
_cell_length_b   5.64698780
_cell_length_c   7.49631900
_cell_angle_alpha   90.00000000
_cell_angle_beta   90.00000000
_cell_angle_gamma   135.29369969
_symmetry_Int_Tables_number   1
_chemical_formula_structural   DyIn2Ni
_chemical_formula_sum   'Dy2 In4 Ni2'
_cell_volume   168.16248034
_cell_formula_units_Z   2
loop_
 _symmetry_equiv_pos_site_id
 _symmetry_equiv_pos_as_xyz
  1  'x, y, z'
loop_
 _atom_site_type_symbol
 _atom_site_label
 _atom_site_symmetry_multiplicity
 _atom_site_fract_x
 _atom_site_fract_y
 _atom_site_fract_z
 _atom_site_occupancy
  Dy  Dy0  1  0.56613900  0.43386100  0.25000000  1
  Dy  Dy1  1  0.43386100  0.56613900  0.75000000  1
  In  In2  1  0.85580000  0.14420000  0.44980900  1
  In  In3  1  0.14420000  0.85580000  0.55019100  1
  In  In4  1  0.85580000  0.14420000  0.05019100  1
  In  In5  1  0.14420000  0.85580000  0.94980900  1
  Ni  Ni6  1  0.28176700  0.71823300  0.25000000  1
  Ni  Ni7  1  0.71823300  0.28176700  0.75000000  1
