# generated using pymatgen
data_Pr3CBr5
_symmetry_space_group_name_H-M   'P 1'
_cell_length_a   7.72667700
_cell_length_b   9.21519851
_cell_length_c   9.28340771
_cell_angle_alpha   108.48846860
_cell_angle_beta   97.56764190
_cell_angle_gamma   106.11979954
_symmetry_Int_Tables_number   1
_chemical_formula_structural   Pr3CBr5
_chemical_formula_sum   'Pr6 C2 Br10'
_cell_volume   584.46339767
_cell_formula_units_Z   2
loop_
 _symmetry_equiv_pos_site_id
 _symmetry_equiv_pos_as_xyz
  1  'x, y, z'
loop_
 _atom_site_type_symbol
 _atom_site_label
 _atom_site_symmetry_multiplicity
 _atom_site_fract_x
 _atom_site_fract_y
 _atom_site_fract_z
 _atom_site_occupancy
  Pr  Pr0  1  0.88761900  0.95763800  0.23269000  1
  Pr  Pr1  1  0.11238100  0.04236200  0.76731000  1
  Pr  Pr2  1  0.02522200  0.71716700  0.91506300  1
  Pr  Pr3  1  0.97477800  0.28283300  0.08493700  1
  Pr  Pr4  1  0.60729800  0.84299000  0.79547800  1
  Pr  Pr5  1  0.39270200  0.15701000  0.20452200  1
  C  C6  1  0.90803100  0.96550400  0.95348700  1
  C  C7  1  0.09196900  0.03449600  0.04651300  1
  Br  Br8  1  0.74401400  0.91396800  0.53226400  1
  Br  Br9  1  0.25598600  0.08603200  0.46773600  1
  Br  Br10  1  0.45566100  0.82016700  0.08455700  1
  Br  Br11  1  0.54433900  0.17983300  0.91544300  1
  Br  Br12  1  0.82610300  0.27301000  0.36250900  1
  Br  Br13  1  0.17389700  0.72699000  0.63749100  1
  Br  Br14  1  0.90875200  0.62787000  0.17679100  1
  Br  Br15  1  0.09124800  0.37213000  0.82320900  1
  Br  Br16  1  0.64461700  0.52411900  0.71651000  1
  Br  Br17  1  0.35538300  0.47588100  0.28349000  1
