# generated using pymatgen
data_Cs3MnZn3(PO3)12
_symmetry_space_group_name_H-M   'P 1'
_cell_length_a   9.61584496
_cell_length_b   9.61584496
_cell_length_c   12.49338713
_cell_angle_alpha   58.97508924
_cell_angle_beta   58.97508924
_cell_angle_gamma   62.97273111
_symmetry_Int_Tables_number   1
_chemical_formula_structural   Cs3MnZn3(PO3)12
_chemical_formula_sum   'Cs3 Mn1 Zn3 P12 O36'
_cell_volume   819.81365720
_cell_formula_units_Z   1
loop_
 _symmetry_equiv_pos_site_id
 _symmetry_equiv_pos_as_xyz
  1  'x, y, z'
loop_
 _atom_site_type_symbol
 _atom_site_label
 _atom_site_symmetry_multiplicity
 _atom_site_fract_x
 _atom_site_fract_y
 _atom_site_fract_z
 _atom_site_occupancy
  Cs  Cs0  1  0.99796300  0.99796300  0.49998500  1
  Cs  Cs1  1  0.78632600  0.21235600  0.00107200  1
  Cs  Cs2  1  0.21235600  0.78632600  0.00107200  1
  Mn  Mn3  1  0.20893800  0.20893800  0.58583800  1
  Zn  Zn4  1  0.75157100  0.75157100  0.92781500  1
  Zn  Zn5  1  0.24575100  0.24575100  0.07359700  1
  Zn  Zn6  1  0.79156500  0.79156500  0.41185300  1
  P  P7  1  0.60753300  0.19567200  0.37047000  1
  P  P8  1  0.19567200  0.60753300  0.37047000  1
  P  P9  1  0.39567400  0.80443100  0.62910200  1
  P  P10  1  0.80443100  0.39567400  0.62910200  1
  P  P11  1  0.83662000  0.41942900  0.19599600  1
  P  P12  1  0.41942900  0.83662000  0.19599600  1
  P  P13  1  0.16283200  0.58169400  0.80427400  1
  P  P14  1  0.58169400  0.16283200  0.80427400  1
  P  P15  1  0.76362400  0.76362400  0.17365400  1
  P  P16  1  0.23945700  0.23945700  0.82083400  1
  P  P17  1  0.33039300  0.33039300  0.27373400  1
  P  P18  1  0.67171200  0.67171200  0.72864100  1
  O  O19  1  0.22765000  0.22765000  0.41485200  1
  O  O20  1  0.77446800  0.77446800  0.59406600  1
  O  O21  1  0.67787900  0.34757600  0.32599600  1
  O  O22  1  0.34757600  0.67787900  0.32599600  1
  O  O23  1  0.31960800  0.65488000  0.67554500  1
  O  O24  1  0.65488000  0.31960800  0.67554500  1
  O  O25  1  0.82691500  0.82691500  0.22374300  1
  O  O26  1  0.17917300  0.17917300  0.76363200  1
  O  O27  1  0.80203600  0.49397400  0.07023100  1
  O  O28  1  0.49397400  0.80203600  0.07023100  1
  O  O29  1  0.19800500  0.50227600  0.93057000  1
  O  O30  1  0.50227600  0.19800500  0.93057000  1
  O  O31  1  0.82391800  0.82391800  0.02327700  1
  O  O32  1  0.17289100  0.17289100  0.97144800  1
  O  O33  1  0.32954500  0.32954500  0.15550500  1
  O  O34  1  0.66259100  0.66259100  0.85518200  1
  O  O35  1  0.46923000  0.17757500  0.50659000  1
  O  O36  1  0.17757500  0.46923000  0.50659000  1
  O  O37  1  0.52679400  0.82567700  0.49202000  1
  O  O38  1  0.82567700  0.52679400  0.49202000  1
  O  O39  1  0.75359700  0.05177000  0.34413000  1
  O  O40  1  0.05177000  0.75359700  0.34413000  1
  O  O41  1  0.24716900  0.95030500  0.65659000  1
  O  O42  1  0.95030500  0.24716900  0.65659000  1
  O  O43  1  0.52259900  0.27013300  0.25964700  1
  O  O44  1  0.27013300  0.52259900  0.25964700  1
  O  O45  1  0.47772600  0.73003100  0.74047400  1
  O  O46  1  0.73003100  0.47772600  0.74047400  1
  O  O47  1  0.81545000  0.56213400  0.23900600  1
  O  O48  1  0.56213400  0.81545000  0.23900600  1
  O  O49  1  0.18495400  0.43903000  0.75897700  1
  O  O50  1  0.43903000  0.18495400  0.75897700  1
  O  O51  1  0.99740200  0.28937800  0.20697300  1
  O  O52  1  0.28937800  0.99740200  0.20697300  1
  O  O53  1  0.00208300  0.71003500  0.79351100  1
  O  O54  1  0.71003500  0.00208300  0.79351100  1
