# generated using pymatgen
data_Er4MgCo
_symmetry_space_group_name_H-M   'P 1'
_cell_length_a   9.45721237
_cell_length_b   9.45721237
_cell_length_c   9.45721237
_cell_angle_alpha   60.00000000
_cell_angle_beta   60.00000000
_cell_angle_gamma   60.00000000
_symmetry_Int_Tables_number   1
_chemical_formula_structural   Er4MgCo
_chemical_formula_sum   'Er16 Mg4 Co4'
_cell_volume   598.10086071
_cell_formula_units_Z   4
loop_
 _symmetry_equiv_pos_site_id
 _symmetry_equiv_pos_as_xyz
  1  'x, y, z'
loop_
 _atom_site_type_symbol
 _atom_site_label
 _atom_site_symmetry_multiplicity
 _atom_site_fract_x
 _atom_site_fract_y
 _atom_site_fract_z
 _atom_site_occupancy
  Er  Er0  1  0.59445400  0.59445400  0.59445400  1
  Er  Er1  1  0.59445400  0.59445400  0.21663800  1
  Er  Er2  1  0.59445400  0.21663800  0.59445400  1
  Er  Er3  1  0.21663800  0.59445400  0.59445400  1
  Er  Er4  1  0.06304400  0.43695600  0.43695600  1
  Er  Er5  1  0.43695600  0.06304400  0.06304400  1
  Er  Er6  1  0.43695600  0.06304400  0.43695600  1
  Er  Er7  1  0.06304400  0.43695600  0.06304400  1
  Er  Er8  1  0.43695600  0.43695600  0.06304400  1
  Er  Er9  1  0.06304400  0.06304400  0.43695600  1
  Er  Er10  1  0.18763800  0.81236200  0.81236200  1
  Er  Er11  1  0.81236200  0.18763800  0.18763800  1
  Er  Er12  1  0.81236200  0.18763800  0.81236200  1
  Er  Er13  1  0.18763800  0.81236200  0.18763800  1
  Er  Er14  1  0.81236200  0.81236200  0.18763800  1
  Er  Er15  1  0.18763800  0.18763800  0.81236200  1
  Mg  Mg16  1  0.82959200  0.82959200  0.82959200  1
  Mg  Mg17  1  0.82959200  0.82959200  0.51122400  1
  Mg  Mg18  1  0.82959200  0.51122400  0.82959200  1
  Mg  Mg19  1  0.51122400  0.82959200  0.82959200  1
  Co  Co20  1  0.39038000  0.39038000  0.39038000  1
  Co  Co21  1  0.39038000  0.39038000  0.82886100  1
  Co  Co22  1  0.39038000  0.82886100  0.39038000  1
  Co  Co23  1  0.82886100  0.39038000  0.39038000  1
