# generated using pymatgen
data_Cs4Hf3Se14
_symmetry_space_group_name_H-M   'P 1'
_cell_length_a   12.45681852
_cell_length_b   12.45681852
_cell_length_c   15.04574857
_cell_angle_alpha   68.53544058
_cell_angle_beta   68.53544058
_cell_angle_gamma   43.07944093
_symmetry_Int_Tables_number   1
_chemical_formula_structural   Cs4Hf3Se14
_chemical_formula_sum   'Cs8 Hf6 Se28'
_cell_volume   1466.03882082
_cell_formula_units_Z   2
loop_
 _symmetry_equiv_pos_site_id
 _symmetry_equiv_pos_as_xyz
  1  'x, y, z'
loop_
 _atom_site_type_symbol
 _atom_site_label
 _atom_site_symmetry_multiplicity
 _atom_site_fract_x
 _atom_site_fract_y
 _atom_site_fract_z
 _atom_site_occupancy
  Cs  Cs0  1  0.97627800  0.62148400  0.60985100  1
  Cs  Cs1  1  0.37851600  0.02372200  0.89014900  1
  Cs  Cs2  1  0.02372200  0.37851600  0.39014900  1
  Cs  Cs3  1  0.62148400  0.97627800  0.10985100  1
  Cs  Cs4  1  0.80967000  0.31775900  0.84807100  1
  Cs  Cs5  1  0.68224100  0.19033000  0.65192900  1
  Cs  Cs6  1  0.19033000  0.68224100  0.15192900  1
  Cs  Cs7  1  0.31775900  0.80967000  0.34807100  1
  Hf  Hf8  1  0.07499500  0.58934400  0.91481700  1
  Hf  Hf9  1  0.41065600  0.92500500  0.58518300  1
  Hf  Hf10  1  0.92500500  0.41065600  0.08518300  1
  Hf  Hf11  1  0.58934400  0.07499500  0.41481700  1
  Hf  Hf12  1  0.23906700  0.76093300  0.75000000  1
  Hf  Hf13  1  0.76093300  0.23906700  0.25000000  1
  Se  Se14  1  0.12935300  0.80020300  0.60429900  1
  Se  Se15  1  0.19979700  0.87064700  0.89570100  1
  Se  Se16  1  0.87064700  0.19979700  0.39570100  1
  Se  Se17  1  0.80020300  0.12935300  0.10429900  1
  Se  Se18  1  0.33053400  0.54156500  0.91839900  1
  Se  Se19  1  0.45843500  0.66946600  0.58160100  1
  Se  Se20  1  0.66946600  0.45843500  0.08160100  1
  Se  Se21  1  0.54156500  0.33053400  0.41839900  1
  Se  Se22  1  0.94111900  0.89787400  0.86709700  1
  Se  Se23  1  0.10212600  0.05888100  0.63290300  1
  Se  Se24  1  0.05888100  0.10212600  0.13290300  1
  Se  Se25  1  0.89787400  0.94111900  0.36709700  1
  Se  Se26  1  0.25121800  0.54855200  0.72359700  1
  Se  Se27  1  0.45144800  0.74878200  0.77640300  1
  Se  Se28  1  0.74878200  0.45144800  0.27640300  1
  Se  Se29  1  0.54855200  0.25121800  0.22359700  1
  Se  Se30  1  0.00458000  0.43533100  0.90062600  1
  Se  Se31  1  0.56466900  0.99542000  0.59937400  1
  Se  Se32  1  0.99542000  0.56466900  0.09937400  1
  Se  Se33  1  0.43533100  0.00458000  0.40062600  1
  Se  Se34  1  0.16254200  0.18792100  0.66268900  1
  Se  Se35  1  0.81207900  0.83745800  0.83731100  1
  Se  Se36  1  0.83745800  0.81207900  0.33731100  1
  Se  Se37  1  0.18792100  0.16254200  0.16268900  1
  Se  Se38  1  0.68218500  0.60948000  0.60936800  1
  Se  Se39  1  0.39052000  0.31781500  0.89063200  1
  Se  Se40  1  0.31781500  0.39052000  0.39063200  1
  Se  Se41  1  0.60948000  0.68218500  0.10936800  1
