# generated using pymatgen
data_NaInH12(SeO7)2
_symmetry_space_group_name_H-M   'P 1'
_cell_length_a   7.27136000
_cell_length_b   7.32281120
_cell_length_c   12.72956214
_cell_angle_alpha   93.58076121
_cell_angle_beta   93.59710997
_cell_angle_gamma   107.09246243
_symmetry_Int_Tables_number   1
_chemical_formula_structural   NaInH12(SeO7)2
_chemical_formula_sum   'Na2 In2 H24 Se4 O28'
_cell_volume   644.26529389
_cell_formula_units_Z   2
loop_
 _symmetry_equiv_pos_site_id
 _symmetry_equiv_pos_as_xyz
  1  'x, y, z'
loop_
 _atom_site_type_symbol
 _atom_site_label
 _atom_site_symmetry_multiplicity
 _atom_site_fract_x
 _atom_site_fract_y
 _atom_site_fract_z
 _atom_site_occupancy
  Na  Na0  1  0.91385300  0.58662100  0.74703800  1
  Na  Na1  1  0.08614700  0.41337900  0.25296200  1
  In  In2  1  0.50000000  0.00000000  0.50000000  1
  In  In3  1  0.50000000  0.00000000  0.00000000  1
  H  H4  1  0.91284200  0.66868100  0.51105100  1
  H  H5  1  0.08715800  0.33131900  0.48894900  1
  H  H6  1  0.77795300  0.21122000  0.87783200  1
  H  H7  1  0.22204700  0.78878000  0.12216800  1
  H  H8  1  0.78423000  0.98479200  0.16799600  1
  H  H9  1  0.21577000  0.01520800  0.83200400  1
  H  H10  1  0.74340300  0.67998200  0.57571800  1
  H  H11  1  0.25659700  0.32001800  0.42428200  1
  H  H12  1  0.51136400  0.71906100  0.33291400  1
  H  H13  1  0.48863600  0.28093900  0.66708600  1
  H  H14  1  0.29060300  0.72195800  0.62305300  1
  H  H15  1  0.70939700  0.27804200  0.37694700  1
  H  H16  1  0.88677200  0.23695800  0.99745600  1
  H  H17  1  0.11322800  0.76304200  0.00254400  1
  H  H18  1  0.81616600  0.74521200  0.91805500  1
  H  H19  1  0.18383400  0.25478800  0.08194500  1
  H  H20  1  0.72925900  0.82725400  0.38014900  1
  H  H21  1  0.27074100  0.17274600  0.61985100  1
  H  H22  1  0.83572600  0.58954300  0.99024700  1
  H  H23  1  0.16427400  0.41045700  0.00975300  1
  H  H24  1  0.73615900  0.38648200  0.49563900  1
  H  H25  1  0.26384100  0.61351800  0.50436100  1
  H  H26  1  0.66196200  0.77263200  0.12381100  1
  H  H27  1  0.33803800  0.22736800  0.87618900  1
  Se  Se28  1  0.41635000  0.60113300  0.81354000  1
  Se  Se29  1  0.58365000  0.39886700  0.18646000  1
  Se  Se30  1  0.89857200  0.08603700  0.68607000  1
  Se  Se31  1  0.10142800  0.91396300  0.31393000  1
  O  O32  1  0.55695600  0.52283400  0.73572800  1
  O  O33  1  0.44304400  0.47716600  0.26427200  1
  O  O34  1  0.65838200  0.91013300  0.12927200  1
  O  O35  1  0.34161800  0.08986700  0.87072800  1
  O  O36  1  0.25981900  0.68789800  0.74710500  1
  O  O37  1  0.74018100  0.31210200  0.25289500  1
  O  O38  1  0.71468900  0.93307100  0.60428800  1
  O  O39  1  0.28531100  0.06692900  0.39571200  1
  O  O40  1  0.81073000  0.24162300  0.75223700  1
  O  O41  1  0.18927000  0.75837700  0.24776300  1
  O  O42  1  0.59163400  0.83561100  0.37602400  1
  O  O43  1  0.40836600  0.16438900  0.62397600  1
  O  O44  1  0.97969400  0.94763800  0.76369300  1
  O  O45  1  0.02030600  0.05236200  0.23630700  1
  O  O46  1  0.93131000  0.79201300  0.38705300  1
  O  O47  1  0.06869000  0.20798700  0.61294700  1
  O  O48  1  0.75733100  0.21094800  0.95557200  1
  O  O49  1  0.24266900  0.78905200  0.04442800  1
  O  O50  1  0.29476200  0.42885000  0.88514700  1
  O  O51  1  0.70523800  0.57115000  0.11485300  1
  O  O52  1  0.82409000  0.59587500  0.56002200  1
  O  O53  1  0.17591000  0.40412500  0.43997800  1
  O  O54  1  0.56855500  0.78457100  0.89618900  1
  O  O55  1  0.43144500  0.21542900  0.10381100  1
  O  O56  1  0.90352600  0.66888800  0.93607400  1
  O  O57  1  0.09647400  0.33111200  0.06392600  1
  O  O58  1  0.28887900  0.74268100  0.54520800  1
  O  O59  1  0.71112100  0.25731900  0.45479200  1
