# generated using pymatgen
data_Mn5VO8
_symmetry_space_group_name_H-M   'P 1'
_cell_length_a   5.50217151
_cell_length_b   6.31380291
_cell_length_c   10.40248625
_cell_angle_alpha   106.96788336
_cell_angle_beta   99.42673320
_cell_angle_gamma   90.46109414
_symmetry_Int_Tables_number   1
_chemical_formula_structural   Mn5VO8
_chemical_formula_sum   'Mn10 V2 O16'
_cell_volume   340.38169565
_cell_formula_units_Z   2
loop_
 _symmetry_equiv_pos_site_id
 _symmetry_equiv_pos_as_xyz
  1  'x, y, z'
loop_
 _atom_site_type_symbol
 _atom_site_label
 _atom_site_symmetry_multiplicity
 _atom_site_fract_x
 _atom_site_fract_y
 _atom_site_fract_z
 _atom_site_occupancy
  Mn  Mn0  1  0.24263500  0.36455400  0.73261200  1
  Mn  Mn1  1  0.75736500  0.63544600  0.26738800  1
  Mn  Mn2  1  0.50397900  0.25095500  0.00269400  1
  Mn  Mn3  1  0.49602100  0.74904500  0.99730600  1
  Mn  Mn4  1  0.74444400  0.10961900  0.73628800  1
  Mn  Mn5  1  0.25555600  0.89038100  0.26371200  1
  Mn  Mn6  1  0.24966500  0.37750200  0.26338200  1
  Mn  Mn7  1  0.75033500  0.62249800  0.73661800  1
  Mn  Mn8  1  0.00000000  0.00000000  0.00000000  1
  Mn  Mn9  1  0.00000000  0.50000000  0.00000000  1
  V  V10  1  0.20087600  0.78727800  0.57216300  1
  V  V11  1  0.79912400  0.21272200  0.42783700  1
  O  O12  1  0.36941300  0.59416400  0.63285000  1
  O  O13  1  0.63058700  0.40583600  0.36715000  1
  O  O14  1  0.63503000  0.95623400  0.36777200  1
  O  O15  1  0.36497000  0.04376600  0.63222800  1
  O  O16  1  0.11236100  0.64536500  0.87789600  1
  O  O17  1  0.88763900  0.35463500  0.12210400  1
  O  O18  1  0.90244400  0.79098500  0.10657100  1
  O  O19  1  0.09755600  0.20901500  0.89342900  1
  O  O20  1  0.39280700  0.57418700  0.13998300  1
  O  O21  1  0.60719300  0.42581300  0.86001700  1
  O  O22  1  0.32597500  0.05711500  0.11116900  1
  O  O23  1  0.67402500  0.94288500  0.88883100  1
  O  O24  1  0.91970100  0.81578300  0.63115000  1
  O  O25  1  0.08029900  0.18421700  0.36885000  1
  O  O26  1  0.86257500  0.30474100  0.61297500  1
  O  O27  1  0.13742500  0.69525900  0.38702500  1
