# generated using pymatgen
data_K3TmV2O8
_symmetry_space_group_name_H-M   'P 1'
_cell_length_a   5.97047063
_cell_length_b   5.97066699
_cell_length_c   7.74554800
_cell_angle_alpha   90.00000306
_cell_angle_beta   90.00193002
_cell_angle_gamma   120.00108384
_symmetry_Int_Tables_number   1
_chemical_formula_structural   K3TmV2O8
_chemical_formula_sum   'K3 Tm1 V2 O8'
_cell_volume   239.11644960
_cell_formula_units_Z   1
loop_
 _symmetry_equiv_pos_site_id
 _symmetry_equiv_pos_as_xyz
  1  'x, y, z'
loop_
 _atom_site_type_symbol
 _atom_site_label
 _atom_site_symmetry_multiplicity
 _atom_site_fract_x
 _atom_site_fract_y
 _atom_site_fract_z
 _atom_site_occupancy
  K  K0  1  0.66669500  0.33334800  0.70217300  1
  K  K1  1  0.33330500  0.66665200  0.29782700  1
  K  K2  1  0.00000000  0.00000000  0.00000000  1
  Tm  Tm3  1  0.00000000  0.00000000  0.50000000  1
  V  V4  1  0.66665500  0.33332800  0.25197700  1
  V  V5  1  0.33334500  0.66667200  0.74802300  1
  O  O6  1  0.66663300  0.33331700  0.03452600  1
  O  O7  1  0.33336700  0.66668300  0.96547400  1
  O  O8  1  0.65420600  0.82710300  0.67029500  1
  O  O9  1  0.17290500  0.82709700  0.67029100  1
  O  O10  1  0.17290500  0.34580700  0.67029100  1
  O  O11  1  0.34579400  0.17289700  0.32970500  1
  O  O12  1  0.82709500  0.17290300  0.32970900  1
  O  O13  1  0.82709500  0.65419300  0.32970900  1
