# generated using pymatgen
data_Ba2BrN
_symmetry_space_group_name_H-M   'P 1'
_cell_length_a   8.34226426
_cell_length_b   8.34226426
_cell_length_c   8.34226421
_cell_angle_alpha   29.13036551
_cell_angle_beta   29.13036551
_cell_angle_gamma   29.13036389
_symmetry_Int_Tables_number   1
_chemical_formula_structural   Ba2BrN
_chemical_formula_sum   'Ba2 Br1 N1'
_cell_volume   121.70954965
_cell_formula_units_Z   1
loop_
 _symmetry_equiv_pos_site_id
 _symmetry_equiv_pos_as_xyz
  1  'x, y, z'
loop_
 _atom_site_type_symbol
 _atom_site_label
 _atom_site_symmetry_multiplicity
 _atom_site_fract_x
 _atom_site_fract_y
 _atom_site_fract_z
 _atom_site_occupancy
  Ba  Ba0  1  0.22845800  0.22845800  0.22845800  1
  Ba  Ba1  1  0.77154200  0.77154200  0.77154200  1
  Br  Br2  1  0.00000000  0.00000000  0.00000000  1
  N  N3  1  0.50000000  0.50000000  0.50000000  1
