# generated using pymatgen
data_Sr2NdSbO6
_symmetry_space_group_name_H-M   'P 1'
_cell_length_a   8.50273555
_cell_length_b   8.50273555
_cell_length_c   8.50273555
_cell_angle_alpha   90.00000000
_cell_angle_beta   90.00000000
_cell_angle_gamma   90.00000000
_symmetry_Int_Tables_number   1
_chemical_formula_structural   Sr2NdSbO6
_chemical_formula_sum   'Sr8 Nd4 Sb4 O24'
_cell_volume   614.71812131
_cell_formula_units_Z   4
loop_
 _symmetry_equiv_pos_site_id
 _symmetry_equiv_pos_as_xyz
  1  'x, y, z'
loop_
 _atom_site_type_symbol
 _atom_site_label
 _atom_site_symmetry_multiplicity
 _atom_site_fract_x
 _atom_site_fract_y
 _atom_site_fract_z
 _atom_site_occupancy
  Sr  Sr0  1  0.50000000  0.50000000  0.50000000  1
  Sr  Sr1  1  0.00000000  0.00000000  -0.00000000  1
  Sr  Sr2  1  0.00000000  0.00000000  0.50000000  1
  Sr  Sr3  1  -0.00000000  0.50000000  -0.00000000  1
  Sr  Sr4  1  0.50000000  0.00000000  -0.00000000  1
  Sr  Sr5  1  0.50000000  0.50000000  -0.00000000  1
  Sr  Sr6  1  0.50000000  0.00000000  0.50000000  1
  Sr  Sr7  1  0.00000000  0.50000000  0.50000000  1
  Nd  Nd8  1  0.75000000  0.75000000  0.75000000  1
  Nd  Nd9  1  0.75000000  0.25000000  0.25000000  1
  Nd  Nd10  1  0.25000000  0.75000000  0.25000000  1
  Nd  Nd11  1  0.25000000  0.25000000  0.75000000  1
  Sb  Sb12  1  0.25000000  0.25000000  0.25000000  1
  Sb  Sb13  1  0.25000000  0.75000000  0.75000000  1
  Sb  Sb14  1  0.75000000  0.25000000  0.75000000  1
  Sb  Sb15  1  0.75000000  0.75000000  0.25000000  1
  O  O16  1  0.21601959  0.29145429  0.48111440  1
  O  O17  1  0.21601959  0.70854571  0.51888560  1
  O  O18  1  0.78398041  0.29145429  0.51888560  1
  O  O19  1  0.78398041  0.70854571  0.48111440  1
  O  O20  1  0.29145429  0.48111440  0.21601959  1
  O  O21  1  0.70854571  0.51888560  0.21601959  1
  O  O22  1  0.29145429  0.51888560  0.78398041  1
  O  O23  1  0.70854571  0.48111440  0.78398041  1
  O  O24  1  0.48111440  0.21601959  0.29145429  1
  O  O25  1  0.51888560  0.21601959  0.70854571  1
  O  O26  1  0.51888560  0.78398041  0.29145429  1
  O  O27  1  0.48111440  0.78398041  0.70854571  1
  O  O28  1  0.28398041  0.20854571  0.01888560  1
  O  O29  1  0.28398041  0.79145429  0.98111440  1
  O  O30  1  0.71601959  0.20854571  0.98111440  1
  O  O31  1  0.71601959  0.79145429  0.01888560  1
  O  O32  1  0.20854571  0.01888560  0.28398041  1
  O  O33  1  0.79145429  0.98111440  0.28398041  1
  O  O34  1  0.20854571  0.98111440  0.71601959  1
  O  O35  1  0.79145429  0.01888560  0.71601959  1
  O  O36  1  0.01888560  0.28398041  0.20854571  1
  O  O37  1  0.98111440  0.28398041  0.79145429  1
  O  O38  1  0.98111440  0.71601959  0.20854571  1
  O  O39  1  0.01888560  0.71601959  0.79145429  1
