# generated using pymatgen
data_SrLiGe2
_symmetry_space_group_name_H-M   'P 1'
_cell_length_a   4.49130100
_cell_length_b   7.21651800
_cell_length_c   11.62549600
_cell_angle_alpha   90.00000000
_cell_angle_beta   90.00000000
_cell_angle_gamma   90.00000000
_symmetry_Int_Tables_number   1
_chemical_formula_structural   SrLiGe2
_chemical_formula_sum   'Sr4 Li4 Ge8'
_cell_volume   376.80039731
_cell_formula_units_Z   4
loop_
 _symmetry_equiv_pos_site_id
 _symmetry_equiv_pos_as_xyz
  1  'x, y, z'
loop_
 _atom_site_type_symbol
 _atom_site_label
 _atom_site_symmetry_multiplicity
 _atom_site_fract_x
 _atom_site_fract_y
 _atom_site_fract_z
 _atom_site_occupancy
  Sr  Sr0  1  0.25000000  0.13733800  0.14472200  1
  Sr  Sr1  1  0.75000000  0.86266200  0.85527800  1
  Sr  Sr2  1  0.25000000  0.63733800  0.35527800  1
  Sr  Sr3  1  0.75000000  0.36266200  0.64472200  1
  Li  Li4  1  0.25000000  0.12438800  0.43941800  1
  Li  Li5  1  0.75000000  0.87561200  0.56058200  1
  Li  Li6  1  0.25000000  0.62438800  0.06058200  1
  Li  Li7  1  0.75000000  0.37561200  0.93941800  1
  Ge  Ge8  1  0.75000000  0.46352100  0.16089200  1
  Ge  Ge9  1  0.25000000  0.53647900  0.83910800  1
  Ge  Ge10  1  0.75000000  0.96352100  0.33910800  1
  Ge  Ge11  1  0.25000000  0.03647900  0.66089200  1
  Ge  Ge12  1  0.75000000  0.30923800  0.35707300  1
  Ge  Ge13  1  0.25000000  0.69076200  0.64292700  1
  Ge  Ge14  1  0.75000000  0.80923800  0.14292700  1
  Ge  Ge15  1  0.25000000  0.19076200  0.85707300  1
