# generated using pymatgen
data_Cs2SiS3
_symmetry_space_group_name_H-M   'P 1'
_cell_length_a   7.90419165
_cell_length_b   7.90419165
_cell_length_c   10.16420076
_cell_angle_alpha   58.49954015
_cell_angle_beta   58.49954015
_cell_angle_gamma   54.89609876
_symmetry_Int_Tables_number   1
_chemical_formula_structural   Cs2SiS3
_chemical_formula_sum   'Cs4 Si2 S6'
_cell_volume   419.92042886
_cell_formula_units_Z   2
loop_
 _symmetry_equiv_pos_site_id
 _symmetry_equiv_pos_as_xyz
  1  'x, y, z'
loop_
 _atom_site_type_symbol
 _atom_site_label
 _atom_site_symmetry_multiplicity
 _atom_site_fract_x
 _atom_site_fract_y
 _atom_site_fract_z
 _atom_site_occupancy
  Cs  Cs0  1  0.91995100  0.91995100  0.86005100  1
  Cs  Cs1  1  0.08004900  0.08004900  0.13994900  1
  Cs  Cs2  1  0.69787900  0.69787900  0.68640000  1
  Cs  Cs3  1  0.30212100  0.30212100  0.31360000  1
  Si  Si4  1  0.61148600  0.61148600  0.32765500  1
  Si  Si5  1  0.38851400  0.38851400  0.67234500  1
  S  S6  1  0.72292100  0.27707900  0.50000000  1
  S  S7  1  0.27707900  0.72292100  0.50000000  1
  S  S8  1  0.60896100  0.60896100  0.12429100  1
  S  S9  1  0.39103900  0.39103900  0.87570900  1
  S  S10  1  0.77853800  0.77853800  0.28078200  1
  S  S11  1  0.22146200  0.22146200  0.71921800  1
