# generated using pymatgen
data_K3AlTe3
_symmetry_space_group_name_H-M   'P 1'
_cell_length_a   14.25181200
_cell_length_b   8.76482100
_cell_length_c   11.25627023
_cell_angle_alpha   52.40651323
_cell_angle_beta   90.00000000
_cell_angle_gamma   90.00000000
_symmetry_Int_Tables_number   1
_chemical_formula_structural   K3AlTe3
_chemical_formula_sum   'K12 Al4 Te12'
_cell_volume   1114.11402328
_cell_formula_units_Z   4
loop_
 _symmetry_equiv_pos_site_id
 _symmetry_equiv_pos_as_xyz
  1  'x, y, z'
loop_
 _atom_site_type_symbol
 _atom_site_label
 _atom_site_symmetry_multiplicity
 _atom_site_fract_x
 _atom_site_fract_y
 _atom_site_fract_z
 _atom_site_occupancy
  K  K0  1  0.31126500  0.14802600  0.07281800  1
  K  K1  1  0.68873500  0.85197400  0.92718200  1
  K  K2  1  0.81126500  0.85197400  0.42718200  1
  K  K3  1  0.89453400  0.31716500  0.40316500  1
  K  K4  1  0.61286700  0.36220600  0.47370500  1
  K  K5  1  0.11286700  0.63779400  0.02629500  1
  K  K6  1  0.38713300  0.63779400  0.52629500  1
  K  K7  1  0.88713300  0.36220600  0.97370500  1
  K  K8  1  0.60546600  0.31716500  0.90316500  1
  K  K9  1  0.10546600  0.68283500  0.59683500  1
  K  K10  1  0.39453400  0.68283500  0.09683500  1
  K  K11  1  0.18873500  0.14802600  0.57281800  1
  Al  Al12  1  0.06605800  0.94567400  0.15858400  1
  Al  Al13  1  0.56605800  0.05432600  0.34141600  1
  Al  Al14  1  0.43394200  0.94567400  0.65858400  1
  Al  Al15  1  0.93394200  0.05432600  0.84141600  1
  Te  Te16  1  0.39870100  0.17840100  0.36014900  1
  Te  Te17  1  0.89870100  0.82159900  0.13985100  1
  Te  Te18  1  0.60129900  0.82159900  0.63985100  1
  Te  Te19  1  0.10129900  0.17840100  0.86014900  1
  Te  Te20  1  0.69335300  0.32760100  0.19692200  1
  Te  Te21  1  0.19335300  0.67239900  0.30307800  1
  Te  Te22  1  0.30664700  0.67239900  0.80307800  1
  Te  Te23  1  0.80664700  0.32760100  0.69692200  1
  Te  Te24  1  0.55324100  0.86131700  0.23493300  1
  Te  Te25  1  0.05324100  0.13868300  0.26506700  1
  Te  Te26  1  0.44675900  0.13868300  0.76506700  1
  Te  Te27  1  0.94675900  0.86131700  0.73493300  1
