# generated using pymatgen
data_Eu(CdAs)2
_symmetry_space_group_name_H-M   'P 1'
_cell_length_a   4.50779030
_cell_length_b   4.50779030
_cell_length_c   7.31064300
_cell_angle_alpha   90.00000000
_cell_angle_beta   90.00000000
_cell_angle_gamma   120.00000439
_symmetry_Int_Tables_number   1
_chemical_formula_structural   Eu(CdAs)2
_chemical_formula_sum   'Eu1 Cd2 As2'
_cell_volume   128.65112795
_cell_formula_units_Z   1
loop_
 _symmetry_equiv_pos_site_id
 _symmetry_equiv_pos_as_xyz
  1  'x, y, z'
loop_
 _atom_site_type_symbol
 _atom_site_label
 _atom_site_symmetry_multiplicity
 _atom_site_fract_x
 _atom_site_fract_y
 _atom_site_fract_z
 _atom_site_occupancy
  Eu  Eu0  1  0.00000000  0.00000000  0.00000000  1
  Cd  Cd1  1  0.66666700  0.33333300  0.36579700  1
  Cd  Cd2  1  0.33333300  0.66666700  0.63420300  1
  As  As3  1  0.66666700  0.33333300  0.75753000  1
  As  As4  1  0.33333300  0.66666700  0.24247000  1
