# generated using pymatgen
data_TaMnGe
_symmetry_space_group_name_H-M   'P 1'
_cell_length_a   6.55641976
_cell_length_b   6.55641976
_cell_length_c   3.61595800
_cell_angle_alpha   90.00000000
_cell_angle_beta   90.00000000
_cell_angle_gamma   119.99999757
_symmetry_Int_Tables_number   1
_chemical_formula_structural   TaMnGe
_chemical_formula_sum   'Ta3 Mn3 Ge3'
_cell_volume   134.61316043
_cell_formula_units_Z   3
loop_
 _symmetry_equiv_pos_site_id
 _symmetry_equiv_pos_as_xyz
  1  'x, y, z'
loop_
 _atom_site_type_symbol
 _atom_site_label
 _atom_site_symmetry_multiplicity
 _atom_site_fract_x
 _atom_site_fract_y
 _atom_site_fract_z
 _atom_site_occupancy
  Ta  Ta0  1  0.41546000  0.41546000  0.50000000  1
  Ta  Ta1  1  0.58454000  0.00000000  0.50000000  1
  Ta  Ta2  1  0.00000000  0.58454000  0.50000000  1
  Mn  Mn3  1  0.75006200  0.75006200  0.00000000  1
  Mn  Mn4  1  0.24993800  0.00000000  0.00000000  1
  Mn  Mn5  1  0.00000000  0.24993800  0.00000000  1
  Ge  Ge6  1  0.66666700  0.33333300  0.00000000  1
  Ge  Ge7  1  0.33333300  0.66666700  0.00000000  1
  Ge  Ge8  1  0.00000000  0.00000000  0.50000000  1
