# generated using pymatgen
data_EuFeGe2O7
_symmetry_space_group_name_H-M   'P 1'
_cell_length_a   6.67414300
_cell_length_b   7.40803700
_cell_length_c   13.13279091
_cell_angle_alpha   62.48368884
_cell_angle_beta   90.00000000
_cell_angle_gamma   90.00000000
_symmetry_Int_Tables_number   1
_chemical_formula_structural   EuFeGe2O7
_chemical_formula_sum   'Eu4 Fe4 Ge8 O28'
_cell_volume   575.86438605
_cell_formula_units_Z   4
loop_
 _symmetry_equiv_pos_site_id
 _symmetry_equiv_pos_as_xyz
  1  'x, y, z'
loop_
 _atom_site_type_symbol
 _atom_site_label
 _atom_site_symmetry_multiplicity
 _atom_site_fract_x
 _atom_site_fract_y
 _atom_site_fract_z
 _atom_site_occupancy
  Eu  Eu0  1  0.35509900  0.74630100  0.52470000  1
  Eu  Eu1  1  0.64490100  0.25369900  0.47530000  1
  Eu  Eu2  1  0.85509900  0.25369900  0.97530000  1
  Eu  Eu3  1  0.14490100  0.74630100  0.02470000  1
  Fe  Fe4  1  0.39937000  0.71155000  0.26981900  1
  Fe  Fe5  1  0.60063000  0.28845000  0.73018100  1
  Fe  Fe6  1  0.89937000  0.28845000  0.23018100  1
  Fe  Fe7  1  0.10063000  0.71155000  0.76981900  1
  Ge  Ge8  1  0.65766400  0.71395600  0.04323500  1
  Ge  Ge9  1  0.34233600  0.28604400  0.95676500  1
  Ge  Ge10  1  0.15766400  0.28604400  0.45676500  1
  Ge  Ge11  1  0.84233600  0.71395600  0.54323500  1
  Ge  Ge12  1  0.91038100  0.79969400  0.28104600  1
  Ge  Ge13  1  0.08961900  0.20030600  0.71895400  1
  Ge  Ge14  1  0.41038100  0.20030600  0.21895400  1
  Ge  Ge15  1  0.58961900  0.79969400  0.78104600  1
  O  O16  1  0.37383800  0.93465100  0.30539200  1
  O  O17  1  0.62616200  0.06534900  0.69460800  1
  O  O18  1  0.87383800  0.06534900  0.19460800  1
  O  O19  1  0.12616200  0.93465100  0.80539200  1
  O  O20  1  0.82489300  0.90901300  0.02154900  1
  O  O21  1  0.17510700  0.09098700  0.97845100  1
  O  O22  1  0.32489300  0.09098700  0.47845100  1
  O  O23  1  0.67510700  0.90901300  0.52154900  1
  O  O24  1  0.60981800  0.27728300  0.27907600  1
  O  O25  1  0.39018200  0.72271700  0.72092400  1
  O  O26  1  0.10981800  0.72271700  0.22092400  1
  O  O27  1  0.89018200  0.27728300  0.77907600  1
  O  O28  1  0.99679200  0.75273600  0.42271600  1
  O  O29  1  0.00320800  0.24726400  0.57728400  1
  O  O30  1  0.49679200  0.24726400  0.07728400  1
  O  O31  1  0.50320800  0.75273600  0.92271600  1
  O  O32  1  0.44910500  0.70332300  0.12773200  1
  O  O33  1  0.55089500  0.29667700  0.87226800  1
  O  O34  1  0.94910500  0.29667700  0.37226800  1
  O  O35  1  0.05089500  0.70332300  0.62773200  1
  O  O36  1  0.83750000  0.51394300  0.07816800  1
  O  O37  1  0.16250000  0.48605700  0.92183200  1
  O  O38  1  0.33750000  0.48605700  0.42183200  1
  O  O39  1  0.66250000  0.51394300  0.57816800  1
  O  O40  1  0.68699100  0.65563300  0.31311100  1
  O  O41  1  0.31300900  0.34436700  0.68688900  1
  O  O42  1  0.18699100  0.34436700  0.18688900  1
  O  O43  1  0.81300900  0.65563300  0.81311100  1
