# generated using pymatgen
data_NaMg3Si4O11F
_symmetry_space_group_name_H-M   'P 1'
_cell_length_a   5.35558105
_cell_length_b   9.78254528
_cell_length_c   10.27944542
_cell_angle_alpha   61.61311135
_cell_angle_beta   84.24416787
_cell_angle_gamma   77.83330572
_symmetry_Int_Tables_number   1
_chemical_formula_structural   NaMg3Si4O11F
_chemical_formula_sum   'Na2 Mg6 Si8 O22 F2'
_cell_volume   463.15352219
_cell_formula_units_Z   2
loop_
 _symmetry_equiv_pos_site_id
 _symmetry_equiv_pos_as_xyz
  1  'x, y, z'
loop_
 _atom_site_type_symbol
 _atom_site_label
 _atom_site_symmetry_multiplicity
 _atom_site_fract_x
 _atom_site_fract_y
 _atom_site_fract_z
 _atom_site_occupancy
  Na  Na0  1  0.00043500  0.49848900  0.00244600  1
  Na  Na1  1  0.49990100  0.27051000  0.45960400  1
  Mg  Mg2  1  0.00001100  0.00077700  0.99838100  1
  Mg  Mg3  1  0.99995200  0.18043200  0.63940800  1
  Mg  Mg4  1  0.00032200  0.82140500  0.35688900  1
  Mg  Mg5  1  0.49991600  0.09037800  0.81936900  1
  Mg  Mg6  1  0.50012100  0.74105500  0.51794500  1
  Mg  Mg7  1  0.50014900  0.91152200  0.17679100  1
  Si  Si8  1  0.21564500  0.11675500  0.34439300  1
  Si  Si9  1  0.22256700  0.46354600  0.65946600  1
  Si  Si10  1  0.28063500  0.63422700  0.16822900  1
  Si  Si11  1  0.27217400  0.80178900  0.82791100  1
  Si  Si12  1  0.71939100  0.19702100  0.16883000  1
  Si  Si13  1  0.72752400  0.37006700  0.82853700  1
  Si  Si14  1  0.78443600  0.53890400  0.34392100  1
  Si  Si15  1  0.77713800  0.87761900  0.65875300  1
  O  O16  1  0.05498700  0.53098800  0.24866200  1
  O  O17  1  0.20503200  0.11002500  0.50187900  1
  O  O18  1  0.04977400  0.77122200  0.75092100  1
  O  O19  1  0.22731100  0.62421800  0.50545000  1
  O  O20  1  0.21203700  0.80377100  0.16922900  1
  O  O21  1  0.27686800  0.29080000  0.66641700  1
  O  O22  1  0.28706000  0.65399200  0.99903000  1
  O  O23  1  0.43861600  0.22244400  0.24187200  1
  O  O24  1  0.21302700  0.96960900  0.83172000  1
  O  O25  1  0.28521800  0.94266000  0.34711600  1
  O  O26  1  0.45402500  0.47792600  0.75013700  1
  O  O27  1  0.56101800  0.53558900  0.24166800  1
  O  O28  1  0.71329000  0.34649100  0.99977100  1
  O  O29  1  0.72290700  0.04324700  0.66602200  1
  O  O30  1  0.78819700  0.02676600  0.16927400  1
  O  O31  1  0.54535200  0.77260700  0.74894300  1
  O  O32  1  0.71503500  0.71024800  0.34681600  1
  O  O33  1  0.78687200  0.19869400  0.83178900  1
  O  O34  1  0.79578100  0.38845800  0.50138100  1
  O  O35  1  0.94460600  0.21958100  0.24976600  1
  O  O36  1  0.77299800  0.87092900  0.50471700  1
  O  O37  1  0.94966900  0.47782500  0.75148400  1
  F  F38  1  0.29551800  0.10193100  0.00269600  1
  F  F39  1  0.70448400  0.89548200  0.00236800  1
