# generated using pymatgen
data_SrZrF6
_symmetry_space_group_name_H-M   'P 1'
_cell_length_a   6.75176020
_cell_length_b   6.75176020
_cell_length_c   5.39337000
_cell_angle_alpha   90.00000000
_cell_angle_beta   90.00000000
_cell_angle_gamma   110.59256453
_symmetry_Int_Tables_number   1
_chemical_formula_structural   SrZrF6
_chemical_formula_sum   'Sr2 Zr2 F12'
_cell_volume   230.15418967
_cell_formula_units_Z   2
loop_
 _symmetry_equiv_pos_site_id
 _symmetry_equiv_pos_as_xyz
  1  'x, y, z'
loop_
 _atom_site_type_symbol
 _atom_site_label
 _atom_site_symmetry_multiplicity
 _atom_site_fract_x
 _atom_site_fract_y
 _atom_site_fract_z
 _atom_site_occupancy
  Sr  Sr0  1  0.25000000  0.75000000  0.45750100  1
  Sr  Sr1  1  0.75000000  0.25000000  0.54249900  1
  Zr  Zr2  1  0.75000000  0.75000000  0.00000000  1
  Zr  Zr3  1  0.25000000  0.25000000  0.00000000  1
  F  F4  1  0.68263800  0.93945100  0.26043500  1
  F  F5  1  0.31736200  0.06054900  0.73956500  1
  F  F6  1  0.81736200  0.56054900  0.26043500  1
  F  F7  1  0.56054900  0.81736200  0.73956500  1
  F  F8  1  0.18263800  0.43945100  0.73956500  1
  F  F9  1  0.43945100  0.18263800  0.26043500  1
  F  F10  1  0.93945100  0.68263800  0.73956500  1
  F  F11  1  0.06054900  0.31736200  0.26043500  1
  F  F12  1  0.42408600  0.57591400  0.15683100  1
  F  F13  1  0.57591400  0.42408600  0.84316900  1
  F  F14  1  0.07591400  0.92408600  0.15683100  1
  F  F15  1  0.92408600  0.07591400  0.84316900  1
