# generated using pymatgen
data_Er5Ir3
_symmetry_space_group_name_H-M   'P 1'
_cell_length_a   10.79616600
_cell_length_b   10.79616600
_cell_length_c   6.33359200
_cell_angle_alpha   90.00000000
_cell_angle_beta   90.00000000
_cell_angle_gamma   90.00000000
_symmetry_Int_Tables_number   1
_chemical_formula_structural   Er5Ir3
_chemical_formula_sum   'Er20 Ir12'
_cell_volume   738.22575136
_cell_formula_units_Z   4
loop_
 _symmetry_equiv_pos_site_id
 _symmetry_equiv_pos_as_xyz
  1  'x, y, z'
loop_
 _atom_site_type_symbol
 _atom_site_label
 _atom_site_symmetry_multiplicity
 _atom_site_fract_x
 _atom_site_fract_y
 _atom_site_fract_z
 _atom_site_occupancy
  Er  Er0  1  0.29096200  0.08781500  0.37801400  1
  Er  Er1  1  0.29096200  0.91218500  0.87801400  1
  Er  Er2  1  0.70903800  0.08781500  0.87801400  1
  Er  Er3  1  0.70903800  0.91218500  0.37801400  1
  Er  Er4  1  0.58781500  0.79096200  0.87801400  1
  Er  Er5  1  0.58781500  0.20903800  0.37801400  1
  Er  Er6  1  0.41218500  0.79096200  0.37801400  1
  Er  Er7  1  0.41218500  0.20903800  0.87801400  1
  Er  Er8  1  0.20903800  0.41218500  0.62198600  1
  Er  Er9  1  0.20903800  0.58781500  0.12198600  1
  Er  Er10  1  0.79096200  0.41218500  0.12198600  1
  Er  Er11  1  0.79096200  0.58781500  0.62198600  1
  Er  Er12  1  0.91218500  0.70903800  0.12198600  1
  Er  Er13  1  0.91218500  0.29096200  0.62198600  1
  Er  Er14  1  0.08781500  0.70903800  0.62198600  1
  Er  Er15  1  0.08781500  0.29096200  0.12198600  1
  Er  Er16  1  0.00000000  0.00000000  0.50000000  1
  Er  Er17  1  0.00000000  0.00000000  0.00000000  1
  Er  Er18  1  0.50000000  0.50000000  0.00000000  1
  Er  Er19  1  0.50000000  0.50000000  0.50000000  1
  Ir  Ir20  1  0.84606900  0.15393100  0.25000000  1
  Ir  Ir21  1  0.84606900  0.84606900  0.75000000  1
  Ir  Ir22  1  0.15393100  0.15393100  0.75000000  1
  Ir  Ir23  1  0.15393100  0.84606900  0.25000000  1
  Ir  Ir24  1  0.65393100  0.34606900  0.75000000  1
  Ir  Ir25  1  0.65393100  0.65393100  0.25000000  1
  Ir  Ir26  1  0.34606900  0.34606900  0.25000000  1
  Ir  Ir27  1  0.34606900  0.65393100  0.75000000  1
  Ir  Ir28  1  0.50000000  0.00000000  0.11905400  1
  Ir  Ir29  1  0.50000000  0.00000000  0.61905400  1
  Ir  Ir30  1  0.00000000  0.50000000  0.88094600  1
  Ir  Ir31  1  0.00000000  0.50000000  0.38094600  1
