# generated using pymatgen
data_PmSe2
_symmetry_space_group_name_H-M   'P 1'
_cell_length_a   4.17520800
_cell_length_b   8.38437300
_cell_length_c   8.51774073
_cell_angle_alpha   89.81850821
_cell_angle_beta   90.00000000
_cell_angle_gamma   90.00000000
_symmetry_Int_Tables_number   1
_chemical_formula_structural   PmSe2
_chemical_formula_sum   'Pm4 Se8'
_cell_volume   298.17480547
_cell_formula_units_Z   4
loop_
 _symmetry_equiv_pos_site_id
 _symmetry_equiv_pos_as_xyz
  1  'x, y, z'
loop_
 _atom_site_type_symbol
 _atom_site_label
 _atom_site_symmetry_multiplicity
 _atom_site_fract_x
 _atom_site_fract_y
 _atom_site_fract_z
 _atom_site_occupancy
  Pm  Pm0  1  0.27712800  0.62643100  0.72579800  1
  Pm  Pm1  1  0.72287200  0.37356900  0.27420200  1
  Pm  Pm2  1  0.22287200  0.12643100  0.72579800  1
  Pm  Pm3  1  0.77712800  0.87356900  0.27420200  1
  Se  Se4  1  0.18891400  0.38086400  0.00194400  1
  Se  Se5  1  0.75628600  0.87475800  0.63131900  1
  Se  Se6  1  0.24371400  0.12524200  0.36868100  1
  Se  Se7  1  0.25628600  0.62524200  0.36868100  1
  Se  Se8  1  0.68891400  0.11913600  0.99805600  1
  Se  Se9  1  0.74371400  0.37475800  0.63131900  1
  Se  Se10  1  0.81108600  0.61913600  0.99805600  1
  Se  Se11  1  0.31108600  0.88086400  0.00194400  1
