# generated using pymatgen
data_Li15Pd4
_symmetry_space_group_name_H-M   'P 1'
_cell_length_a   9.20004940
_cell_length_b   9.20004940
_cell_length_c   9.20004940
_cell_angle_alpha   109.47122063
_cell_angle_beta   109.47122063
_cell_angle_gamma   109.47122063
_symmetry_Int_Tables_number   1
_chemical_formula_structural   Li15Pd4
_chemical_formula_sum   'Li30 Pd8'
_cell_volume   599.44395884
_cell_formula_units_Z   2
loop_
 _symmetry_equiv_pos_site_id
 _symmetry_equiv_pos_as_xyz
  1  'x, y, z'
loop_
 _atom_site_type_symbol
 _atom_site_label
 _atom_site_symmetry_multiplicity
 _atom_site_fract_x
 _atom_site_fract_y
 _atom_site_fract_z
 _atom_site_occupancy
  Li  Li0  1  0.87500000  0.25000000  0.12500000  1
  Li  Li1  1  0.62500000  0.75000000  0.37500000  1
  Li  Li2  1  0.25000000  0.12500000  0.87500000  1
  Li  Li3  1  0.75000000  0.37500000  0.62500000  1
  Li  Li4  1  0.12500000  0.87500000  0.25000000  1
  Li  Li5  1  0.37500000  0.62500000  0.75000000  1
  Li  Li6  1  0.77650000  0.69565600  0.15639500  1
  Li  Li7  1  0.46074000  0.80434400  0.58084400  1
  Li  Li8  1  0.03926000  0.62010500  0.34360500  1
  Li  Li9  1  0.72350000  0.87989500  0.91915600  1
  Li  Li10  1  0.65639500  0.19565600  0.27650000  1
  Li  Li11  1  0.08084400  0.30434400  0.96074000  1
  Li  Li12  1  0.84360500  0.12010500  0.53926000  1
  Li  Li13  1  0.41915600  0.37989500  0.22350000  1
  Li  Li14  1  0.69565600  0.15639500  0.77650000  1
  Li  Li15  1  0.80434400  0.58084400  0.46074000  1
  Li  Li16  1  0.62010500  0.34360500  0.03926000  1
  Li  Li17  1  0.87989500  0.91915600  0.72350000  1
  Li  Li18  1  0.19565600  0.27650000  0.65639500  1
  Li  Li19  1  0.30434400  0.96074000  0.08084400  1
  Li  Li20  1  0.12010500  0.53926000  0.84360500  1
  Li  Li21  1  0.37989500  0.22350000  0.41915600  1
  Li  Li22  1  0.15639500  0.77650000  0.69565600  1
  Li  Li23  1  0.58084400  0.46074000  0.80434400  1
  Li  Li24  1  0.34360500  0.03926000  0.62010500  1
  Li  Li25  1  0.91915600  0.72350000  0.87989500  1
  Li  Li26  1  0.27650000  0.65639500  0.19565600  1
  Li  Li27  1  0.96074000  0.08084400  0.30434400  1
  Li  Li28  1  0.53926000  0.84360500  0.12010500  1
  Li  Li29  1  0.22350000  0.41915600  0.37989500  1
  Pd  Pd30  1  0.91493200  0.50000000  0.00000000  1
  Pd  Pd31  1  0.50000000  0.00000000  0.91493200  1
  Pd  Pd32  1  0.00000000  0.91493200  0.50000000  1
  Pd  Pd33  1  0.58506800  0.58506800  0.58506800  1
  Pd  Pd34  1  0.50000000  0.00000000  0.41493200  1
  Pd  Pd35  1  0.41493200  0.50000000  0.00000000  1
  Pd  Pd36  1  0.00000000  0.41493200  0.50000000  1
  Pd  Pd37  1  0.08506800  0.08506800  0.08506800  1
