# generated using pymatgen
data_NaPuF4
_symmetry_space_group_name_H-M   'P 1'
_cell_length_a   6.20969400
_cell_length_b   7.21228911
_cell_length_c   7.23916581
_cell_angle_alpha   95.95197256
_cell_angle_beta   115.17341239
_cell_angle_gamma   115.41074540
_symmetry_Int_Tables_number   1
_chemical_formula_structural   NaPuF4
_chemical_formula_sum   'Na3 Pu3 F12'
_cell_volume   248.25835363
_cell_formula_units_Z   3
loop_
 _symmetry_equiv_pos_site_id
 _symmetry_equiv_pos_as_xyz
  1  'x, y, z'
loop_
 _atom_site_type_symbol
 _atom_site_label
 _atom_site_symmetry_multiplicity
 _atom_site_fract_x
 _atom_site_fract_y
 _atom_site_fract_z
 _atom_site_occupancy
  Na  Na0  1  0.80297300  0.13940400  0.49199400  1
  Na  Na1  1  0.32076400  0.65748500  0.96733000  1
  Na  Na2  1  0.20821100  0.87845800  0.54162900  1
  Pu  Pu3  1  0.99640500  0.99345500  0.99866400  1
  Pu  Pu4  1  0.49686800  0.50060900  0.49580700  1
  Pu  Pu5  1  0.73256900  0.39479300  0.06728600  1
  F  F6  1  0.24432900  0.65312800  0.28581900  1
  F  F7  1  0.79978900  0.19868900  0.82953600  1
  F  F8  1  0.85593300  0.49105400  0.45033000  1
  F  F9  1  0.40108800  0.02499700  0.00407600  1
  F  F10  1  0.35124600  0.32374700  0.71943100  1
  F  F11  1  0.80489500  0.76259900  0.16988400  1
  F  F12  1  0.37647700  0.12413700  0.37457300  1
  F  F13  1  0.89497900  0.62002200  0.86745300  1
  F  F14  1  0.98545900  0.22857600  0.26336100  1
  F  F15  1  0.49884500  0.75180500  0.74509600  1
  F  F16  1  0.87131600  0.87735100  0.61894700  1
  F  F17  1  0.35785500  0.37968800  0.10878500  1
