# generated using pymatgen
data_KPr(PSe3)2
_symmetry_space_group_name_H-M   'P 1'
_cell_length_a   7.89780400
_cell_length_b   11.97874600
_cell_length_c   12.57355096
_cell_angle_alpha   70.47683589
_cell_angle_beta   90.00000000
_cell_angle_gamma   90.00000000
_symmetry_Int_Tables_number   1
_chemical_formula_structural   KPr(PSe3)2
_chemical_formula_sum   'K4 Pr4 P8 Se24'
_cell_volume   1121.14036625
_cell_formula_units_Z   4
loop_
 _symmetry_equiv_pos_site_id
 _symmetry_equiv_pos_as_xyz
  1  'x, y, z'
loop_
 _atom_site_type_symbol
 _atom_site_label
 _atom_site_symmetry_multiplicity
 _atom_site_fract_x
 _atom_site_fract_y
 _atom_site_fract_z
 _atom_site_occupancy
  K  K0  1  0.41282000  0.62588900  0.12824000  1
  K  K1  1  0.58718000  0.37411100  0.87176000  1
  K  K2  1  0.91282000  0.87411100  0.87176000  1
  K  K3  1  0.08718000  0.12588900  0.12824000  1
  Pr  Pr4  1  0.60329800  0.90481200  0.35084400  1
  Pr  Pr5  1  0.39670200  0.09518800  0.64915600  1
  Pr  Pr6  1  0.10329800  0.59518800  0.64915600  1
  Pr  Pr7  1  0.89670200  0.40481200  0.35084400  1
  P  P8  1  0.88336700  0.73264300  0.20990200  1
  P  P9  1  0.11663300  0.26735700  0.79009800  1
  P  P10  1  0.38336700  0.76735700  0.79009800  1
  P  P11  1  0.61663300  0.23264300  0.20990200  1
  P  P12  1  0.59762700  0.75340300  0.67591600  1
  P  P13  1  0.40237300  0.24659700  0.32408400  1
  P  P14  1  0.09762700  0.74659700  0.32408400  1
  P  P15  1  0.90237300  0.25340300  0.67591600  1
  Se  Se16  1  0.68898400  0.63257500  0.32866600  1
  Se  Se17  1  0.31101600  0.36742500  0.67133400  1
  Se  Se18  1  0.18898400  0.86742500  0.67133400  1
  Se  Se19  1  0.81101600  0.13257500  0.32866600  1
  Se  Se20  1  0.97261500  0.81607600  0.44865200  1
  Se  Se21  1  0.02738500  0.18392400  0.55134800  1
  Se  Se22  1  0.47261500  0.68392400  0.55134800  1
  Se  Se23  1  0.52738500  0.31607600  0.44865200  1
  Se  Se24  1  0.29095500  0.86099500  0.21469500  1
  Se  Se25  1  0.70904500  0.13900500  0.78530500  1
  Se  Se26  1  0.79095500  0.63900500  0.78530500  1
  Se  Se27  1  0.20904500  0.36099500  0.21469500  1
  Se  Se28  1  0.68953300  0.93612600  0.58835800  1
  Se  Se29  1  0.31046700  0.06387400  0.41164200  1
  Se  Se30  1  0.18953300  0.56387400  0.41164200  1
  Se  Se31  1  0.81046700  0.43612600  0.58835800  1
  Se  Se32  1  0.98153500  0.62787300  0.11026200  1
  Se  Se33  1  0.01846500  0.37212700  0.88973800  1
  Se  Se34  1  0.48153500  0.87212700  0.88973800  1
  Se  Se35  1  0.51846500  0.12787300  0.11026200  1
  Se  Se36  1  0.78560600  0.91445800  0.12990100  1
  Se  Se37  1  0.21439400  0.08554200  0.87009900  1
  Se  Se38  1  0.28560600  0.58554200  0.87009900  1
  Se  Se39  1  0.71439400  0.41445800  0.12990100  1
