# generated using pymatgen
data_K2Sn3O7
_symmetry_space_group_name_H-M   'P 1'
_cell_length_a   3.19823500
_cell_length_b   12.94156000
_cell_length_c   17.11324300
_cell_angle_alpha   90.00000000
_cell_angle_beta   90.00000000
_cell_angle_gamma   90.00000000
_symmetry_Int_Tables_number   1
_chemical_formula_structural   K2Sn3O7
_chemical_formula_sum   'K8 Sn12 O28'
_cell_volume   708.31969727
_cell_formula_units_Z   4
loop_
 _symmetry_equiv_pos_site_id
 _symmetry_equiv_pos_as_xyz
  1  'x, y, z'
loop_
 _atom_site_type_symbol
 _atom_site_label
 _atom_site_symmetry_multiplicity
 _atom_site_fract_x
 _atom_site_fract_y
 _atom_site_fract_z
 _atom_site_occupancy
  K  K0  1  0.25000000  0.44203400  0.30555600  1
  K  K1  1  0.75000000  0.55796600  0.69444400  1
  K  K2  1  0.75000000  0.94203400  0.19444400  1
  K  K3  1  0.25000000  0.05796600  0.80555600  1
  K  K4  1  0.25000000  0.89426900  0.43405600  1
  K  K5  1  0.75000000  0.10573100  0.56594400  1
  K  K6  1  0.75000000  0.39426900  0.06594400  1
  K  K7  1  0.25000000  0.60573100  0.93405600  1
  Sn  Sn8  1  0.25000000  0.11164500  0.01881900  1
  Sn  Sn9  1  0.75000000  0.88835500  0.98118100  1
  Sn  Sn10  1  0.75000000  0.61164500  0.48118100  1
  Sn  Sn11  1  0.25000000  0.38835500  0.51881900  1
  Sn  Sn12  1  0.25000000  0.70978600  0.29191100  1
  Sn  Sn13  1  0.75000000  0.29021400  0.70808900  1
  Sn  Sn14  1  0.75000000  0.20978600  0.20808900  1
  Sn  Sn15  1  0.25000000  0.79021400  0.79191100  1
  Sn  Sn16  1  0.25000000  0.16733200  0.37551000  1
  Sn  Sn17  1  0.75000000  0.83266800  0.62449000  1
  Sn  Sn18  1  0.75000000  0.66733200  0.12449000  1
  Sn  Sn19  1  0.25000000  0.33266800  0.87551000  1
  O  O20  1  0.25000000  0.57206600  0.09498600  1
  O  O21  1  0.75000000  0.42793400  0.90501400  1
  O  O22  1  0.75000000  0.07206600  0.40501400  1
  O  O23  1  0.25000000  0.92793400  0.59498600  1
  O  O24  1  0.25000000  0.76130900  0.17404700  1
  O  O25  1  0.75000000  0.23869100  0.82595300  1
  O  O26  1  0.75000000  0.26130900  0.32595300  1
  O  O27  1  0.25000000  0.73869100  0.67404700  1
  O  O28  1  0.25000000  0.30393600  0.17827700  1
  O  O29  1  0.75000000  0.69606400  0.82172300  1
  O  O30  1  0.75000000  0.80393600  0.32172300  1
  O  O31  1  0.25000000  0.19606400  0.67827700  1
  O  O32  1  0.25000000  0.11238400  0.25092400  1
  O  O33  1  0.75000000  0.88761600  0.74907600  1
  O  O34  1  0.75000000  0.61238400  0.24907600  1
  O  O35  1  0.25000000  0.38761600  0.75092400  1
  O  O36  1  0.25000000  0.63069900  0.40038700  1
  O  O37  1  0.75000000  0.36930100  0.59961300  1
  O  O38  1  0.75000000  0.13069900  0.09961300  1
  O  O39  1  0.25000000  0.86930100  0.90038700  1
  O  O40  1  0.25000000  0.24211200  0.48088800  1
  O  O41  1  0.75000000  0.75788800  0.51911200  1
  O  O42  1  0.75000000  0.74211200  0.01911200  1
  O  O43  1  0.25000000  0.25788800  0.98088800  1
  O  O44  1  0.25000000  0.55315900  0.55138400  1
  O  O45  1  0.75000000  0.44684100  0.44861600  1
  O  O46  1  0.75000000  0.05315900  0.94861600  1
  O  O47  1  0.25000000  0.94684100  0.05138400  1
