# generated using pymatgen
data_Tb2MoO6
_symmetry_space_group_name_H-M   'P 1'
_cell_length_a   5.42638223
_cell_length_b   9.98956341
_cell_length_c   9.98956321
_cell_angle_alpha   68.09714416
_cell_angle_beta   75.05330640
_cell_angle_gamma   75.05331406
_symmetry_Int_Tables_number   1
_chemical_formula_structural   Tb2MoO6
_chemical_formula_sum   'Tb8 Mo4 O24'
_cell_volume   477.45690695
_cell_formula_units_Z   4
loop_
 _symmetry_equiv_pos_site_id
 _symmetry_equiv_pos_as_xyz
  1  'x, y, z'
loop_
 _atom_site_type_symbol
 _atom_site_label
 _atom_site_symmetry_multiplicity
 _atom_site_fract_x
 _atom_site_fract_y
 _atom_site_fract_z
 _atom_site_occupancy
  Tb  Tb0  1  0.62074300  0.78430000  0.55255500  1
  Tb  Tb1  1  0.12074200  0.55255500  0.78430100  1
  Tb  Tb2  1  0.37925800  0.21570000  0.44744500  1
  Tb  Tb3  1  0.87925800  0.44744400  0.21569900  1
  Tb  Tb4  1  0.74999900  0.86458100  0.13542000  1
  Tb  Tb5  1  0.25000100  0.13541900  0.86458100  1
  Tb  Tb6  1  0.75000100  0.39263500  0.60736500  1
  Tb  Tb7  1  0.24999900  0.60736500  0.39263600  1
  Mo  Mo8  1  0.05988300  0.01115000  0.29621800  1
  Mo  Mo9  1  0.44011700  0.70378200  0.98885000  1
  Mo  Mo10  1  0.94011700  0.98884900  0.70378200  1
  Mo  Mo11  1  0.55988300  0.29621800  0.01115000  1
  O  O12  1  0.92175300  0.57396300  0.60868600  1
  O  O13  1  0.57824600  0.39131300  0.42603700  1
  O  O14  1  0.07824700  0.42603700  0.39131400  1
  O  O15  1  0.42175400  0.60868700  0.57396300  1
  O  O16  1  0.91680200  0.80893000  0.33687200  1
  O  O17  1  0.58319800  0.66312900  0.19107000  1
  O  O18  1  0.08319800  0.19107100  0.66312900  1
  O  O19  1  0.41680200  0.33687200  0.80893000  1
  O  O20  1  0.36957400  0.88383200  0.32671700  1
  O  O21  1  0.13042600  0.67328300  0.11616700  1
  O  O22  1  0.63042600  0.11616800  0.67328300  1
  O  O23  1  0.86957400  0.32671800  0.88383300  1
  O  O24  1  0.63644800  0.28965200  0.18191600  1
  O  O25  1  0.86355200  0.81808500  0.71034800  1
  O  O26  1  0.36355100  0.71034700  0.81808500  1
  O  O27  1  0.13644800  0.18191600  0.28965200  1
  O  O28  1  0.51511600  0.11065300  0.04864800  1
  O  O29  1  0.98488400  0.95135200  0.88934700  1
  O  O30  1  0.75527400  0.02538700  0.43078500  1
  O  O31  1  0.01511700  0.04864800  0.11065300  1
  O  O32  1  0.25527400  0.43078500  0.02538800  1
  O  O33  1  0.24472600  0.97461300  0.56921500  1
  O  O34  1  0.74472600  0.56921400  0.97461200  1
  O  O35  1  0.48488400  0.88934600  0.95135200  1
