# generated using pymatgen
data_Yb20(CdAu3)3
_symmetry_space_group_name_H-M   'P 1'
_cell_length_a   7.98689400
_cell_length_b   7.98689400
_cell_length_c   14.14689900
_cell_angle_alpha   90.00000000
_cell_angle_beta   90.00000000
_cell_angle_gamma   90.00000000
_symmetry_Int_Tables_number   1
_chemical_formula_structural   Yb20(CdAu3)3
_chemical_formula_sum   'Yb20 Cd3 Au9'
_cell_volume   902.43741784
_cell_formula_units_Z   1
loop_
 _symmetry_equiv_pos_site_id
 _symmetry_equiv_pos_as_xyz
  1  'x, y, z'
loop_
 _atom_site_type_symbol
 _atom_site_label
 _atom_site_symmetry_multiplicity
 _atom_site_fract_x
 _atom_site_fract_y
 _atom_site_fract_z
 _atom_site_occupancy
  Yb  Yb0  1  0.00000000  0.00000000  0.75313700  1
  Yb  Yb1  1  0.50000000  0.50000000  0.24829200  1
  Yb  Yb2  1  0.00000000  0.00000000  0.24686300  1
  Yb  Yb3  1  0.50000000  0.50000000  0.75170800  1
  Yb  Yb4  1  0.17167800  0.65779000  0.10883900  1
  Yb  Yb5  1  0.66361800  0.16419800  0.61230700  1
  Yb  Yb6  1  0.82832200  0.34221000  0.10883900  1
  Yb  Yb7  1  0.33638200  0.83580200  0.61230700  1
  Yb  Yb8  1  0.34221000  0.17167800  0.10883900  1
  Yb  Yb9  1  0.83580200  0.66361800  0.61230700  1
  Yb  Yb10  1  0.65779000  0.82832200  0.10883900  1
  Yb  Yb11  1  0.16419800  0.33638200  0.61230700  1
  Yb  Yb12  1  0.34221000  0.82832200  0.89116100  1
  Yb  Yb13  1  0.83580200  0.33638200  0.38769300  1
  Yb  Yb14  1  0.65779000  0.17167800  0.89116100  1
  Yb  Yb15  1  0.16419800  0.66361800  0.38769300  1
  Yb  Yb16  1  0.17167800  0.34221000  0.89116100  1
  Yb  Yb17  1  0.66361800  0.83580200  0.38769300  1
  Yb  Yb18  1  0.82832200  0.65779000  0.89116100  1
  Yb  Yb19  1  0.33638200  0.16419800  0.38769300  1
  Cd  Cd20  1  0.00000000  0.00000000  0.50000000  1
  Cd  Cd21  1  0.00000000  0.00000000  0.00000000  1
  Cd  Cd22  1  0.50000000  0.50000000  0.50000000  1
  Au  Au23  1  0.63464300  0.13389000  0.24893500  1
  Au  Au24  1  0.13389000  0.63464300  0.75106500  1
  Au  Au25  1  0.86611000  0.36535700  0.75106500  1
  Au  Au26  1  0.36535700  0.86611000  0.24893500  1
  Au  Au27  1  0.36535700  0.13389000  0.75106500  1
  Au  Au28  1  0.86611000  0.63464300  0.24893500  1
  Au  Au29  1  0.13389000  0.36535700  0.24893500  1
  Au  Au30  1  0.63464300  0.86611000  0.75106500  1
  Au  Au31  1  0.50000000  0.50000000  0.00000000  1
