# generated using pymatgen
data_CsU2F9
_symmetry_space_group_name_H-M   'P 1'
_cell_length_a   8.62375865
_cell_length_b   8.62375865
_cell_length_c   8.74957456
_cell_angle_alpha   64.67015936
_cell_angle_beta   64.67015936
_cell_angle_gamma   48.75491896
_symmetry_Int_Tables_number   1
_chemical_formula_structural   CsU2F9
_chemical_formula_sum   'Cs2 U4 F18'
_cell_volume   431.92871189
_cell_formula_units_Z   2
loop_
 _symmetry_equiv_pos_site_id
 _symmetry_equiv_pos_as_xyz
  1  'x, y, z'
loop_
 _atom_site_type_symbol
 _atom_site_label
 _atom_site_symmetry_multiplicity
 _atom_site_fract_x
 _atom_site_fract_y
 _atom_site_fract_z
 _atom_site_occupancy
  Cs  Cs0  1  0.88878300  0.10523700  0.75176700  1
  Cs  Cs1  1  0.10523700  0.88878300  0.25176700  1
  U  U2  1  0.37524000  0.18584500  0.30057900  1
  U  U3  1  0.80116900  0.61499800  0.21026400  1
  U  U4  1  0.61499800  0.80116900  0.71026400  1
  U  U5  1  0.18584500  0.37524000  0.80057900  1
  F  F6  1  0.02070300  0.64849000  0.92793800  1
  F  F7  1  0.33645700  0.99125700  0.56971600  1
  F  F8  1  0.99125700  0.33645700  0.06971600  1
  F  F9  1  0.64849000  0.02070300  0.42793800  1
  F  F10  1  0.89861800  0.43777000  0.77591800  1
  F  F11  1  0.54620000  0.11875100  0.72359000  1
  F  F12  1  0.11875100  0.54620000  0.22359000  1
  F  F13  1  0.43777000  0.89861800  0.27591800  1
  F  F14  1  0.95439100  0.72737200  0.63679400  1
  F  F15  1  0.26312900  0.05433000  0.86631100  1
  F  F16  1  0.05433000  0.26312900  0.36631100  1
  F  F17  1  0.72737200  0.95439100  0.13679400  1
  F  F18  1  0.73563100  0.63998500  0.48519800  1
  F  F19  1  0.36436200  0.26687400  0.01391700  1
  F  F20  1  0.26687400  0.36436200  0.51391700  1
  F  F21  1  0.63998500  0.73563100  0.98519800  1
  F  F22  1  0.64015700  0.47345300  0.33831000  1
  F  F23  1  0.47345300  0.64015700  0.83831000  1
