# generated using pymatgen
data_Th3In5
_symmetry_space_group_name_H-M   'P 1'
_cell_length_a   6.63989635
_cell_length_b   6.63989635
_cell_length_c   10.46498800
_cell_angle_alpha   90.00000000
_cell_angle_beta   90.00000000
_cell_angle_gamma   102.32777657
_symmetry_Int_Tables_number   1
_chemical_formula_structural   Th3In5
_chemical_formula_sum   'Th6 In10'
_cell_volume   450.74425276
_cell_formula_units_Z   2
loop_
 _symmetry_equiv_pos_site_id
 _symmetry_equiv_pos_as_xyz
  1  'x, y, z'
loop_
 _atom_site_type_symbol
 _atom_site_label
 _atom_site_symmetry_multiplicity
 _atom_site_fract_x
 _atom_site_fract_y
 _atom_site_fract_z
 _atom_site_occupancy
  Th  Th0  1  0.13220400  0.13220400  0.75000000  1
  Th  Th1  1  0.86779600  0.86779600  0.25000000  1
  Th  Th2  1  0.70631200  0.29368800  0.00000000  1
  Th  Th3  1  0.70631200  0.29368800  0.50000000  1
  Th  Th4  1  0.29368800  0.70631200  0.00000000  1
  Th  Th5  1  0.29368800  0.70631200  0.50000000  1
  In  In6  1  0.51716800  0.51716800  0.75000000  1
  In  In7  1  0.48283200  0.48283200  0.25000000  1
  In  In8  1  0.80888700  0.80888700  0.55109900  1
  In  In9  1  0.19111300  0.19111300  0.44890100  1
  In  In10  1  0.80888700  0.80888700  0.94890100  1
  In  In11  1  0.19111300  0.19111300  0.05109900  1
  In  In12  1  0.99356600  0.57572800  0.75000000  1
  In  In13  1  0.42427200  0.00643400  0.25000000  1
  In  In14  1  0.00643400  0.42427200  0.25000000  1
  In  In15  1  0.57572800  0.99356600  0.75000000  1
