# generated using pymatgen
data_Pr5Te7WCl3O23
_symmetry_space_group_name_H-M   'P 1'
_cell_length_a   10.08550719
_cell_length_b   10.08550719
_cell_length_c   18.62880302
_cell_angle_alpha   87.28896233
_cell_angle_beta   87.28896233
_cell_angle_gamma   134.68883544
_symmetry_Int_Tables_number   1
_chemical_formula_structural   Pr5Te7WCl3O23
_chemical_formula_sum   'Pr10 Te14 W2 Cl6 O46'
_cell_volume   1336.94066733
_cell_formula_units_Z   2
loop_
 _symmetry_equiv_pos_site_id
 _symmetry_equiv_pos_as_xyz
  1  'x, y, z'
loop_
 _atom_site_type_symbol
 _atom_site_label
 _atom_site_symmetry_multiplicity
 _atom_site_fract_x
 _atom_site_fract_y
 _atom_site_fract_z
 _atom_site_occupancy
  Pr  Pr0  1  0.23787900  0.76212100  0.50000000  1
  Pr  Pr1  1  0.75858000  0.24142000  0.50000000  1
  Pr  Pr2  1  0.18078400  0.70051800  0.73806000  1
  Pr  Pr3  1  0.70049500  0.18336400  0.73817700  1
  Pr  Pr4  1  0.81663600  0.29950500  0.26182300  1
  Pr  Pr5  1  0.29948200  0.81921600  0.26194000  1
  Pr  Pr6  1  0.74453500  0.52181900  0.86296400  1
  Pr  Pr7  1  0.52168400  0.74438600  0.86334100  1
  Pr  Pr8  1  0.25561400  0.47831600  0.13665900  1
  Pr  Pr9  1  0.47818100  0.25546500  0.13703600  1
  Te  Te10  1  0.29951400  0.95886400  0.88971700  1
  Te  Te11  1  0.95891300  0.29928000  0.88969100  1
  Te  Te12  1  0.70072000  0.04108700  0.11030900  1
  Te  Te13  1  0.04113600  0.70048600  0.11028300  1
  Te  Te14  1  0.99569600  0.99569600  0.76238100  1
  Te  Te15  1  0.00430400  0.00430400  0.23761900  1
  Te  Te16  1  0.84968700  0.63761900  0.64249000  1
  Te  Te17  1  0.63446100  0.84698800  0.64392700  1
  Te  Te18  1  0.15301200  0.36553900  0.35607300  1
  Te  Te19  1  0.36238100  0.15031300  0.35751000  1
  Te  Te20  1  0.40772300  0.16407500  0.61459500  1
  Te  Te21  1  0.16542300  0.40968300  0.61528500  1
  Te  Te22  1  0.59031700  0.83457700  0.38471500  1
  Te  Te23  1  0.83592500  0.59227700  0.38540500  1
  W  W24  1  0.26401800  0.26397100  0.97685700  1
  W  W25  1  0.73603000  0.73598200  0.02314300  1
  Cl  Cl26  1  0.43750800  0.43850900  0.71393000  1
  Cl  Cl27  1  0.56149100  0.56249200  0.28607000  1
  Cl  Cl28  1  0.49938900  0.50061100  0.50000000  1
  Cl  Cl29  1  0.69788800  0.30211200  0.00000000  1
  Cl  Cl30  1  0.30212600  0.69787400  0.00000000  1
  Cl  Cl31  1  0.03976100  0.96023900  0.50000000  1
  O  O32  1  0.07371100  0.70344100  0.61451600  1
  O  O33  1  0.70615900  0.07279900  0.61308300  1
  O  O34  1  0.92720100  0.29384100  0.38691700  1
  O  O35  1  0.29655900  0.92628900  0.38548400  1
  O  O36  1  0.03801000  0.89081900  0.69276400  1
  O  O37  1  0.89036700  0.03690500  0.69227400  1
  O  O38  1  0.96309500  0.10963300  0.30772600  1
  O  O39  1  0.10918100  0.96199000  0.30723600  1
  O  O40  1  0.41409600  0.89657100  0.83653100  1
  O  O41  1  0.89629500  0.41377900  0.83659300  1
  O  O42  1  0.58622100  0.10370500  0.16340700  1
  O  O43  1  0.10342900  0.58590400  0.16346900  1
  O  O44  1  0.40499000  0.02816500  0.69054100  1
  O  O45  1  0.02813100  0.40492000  0.69091000  1
  O  O46  1  0.59508000  0.97186900  0.30909000  1
  O  O47  1  0.97183500  0.59501000  0.30945900  1
  O  O48  1  0.48437600  0.48437900  0.92297900  1
  O  O49  1  0.51562100  0.51562400  0.07702100  1
  O  O50  1  0.47824400  0.20436200  0.84120500  1
  O  O51  1  0.20440300  0.47822400  0.84129300  1
  O  O52  1  0.52177600  0.79559700  0.15870700  1
  O  O53  1  0.79563800  0.52175600  0.15879500  1
  O  O54  1  0.09773500  0.81724400  0.83037600  1
  O  O55  1  0.81706000  0.09772200  0.83021700  1
  O  O56  1  0.90227800  0.18294000  0.16978300  1
  O  O57  1  0.18275600  0.90226500  0.16962400  1
  O  O58  1  0.68452400  0.35827000  0.60955700  1
  O  O59  1  0.35891700  0.68508500  0.60984600  1
  O  O60  1  0.31491500  0.64108300  0.39015400  1
  O  O61  1  0.64173000  0.31547600  0.39044300  1
  O  O62  1  0.10977800  0.10976100  0.91334000  1
  O  O63  1  0.89023900  0.89022200  0.08666000  1
  O  O64  1  0.82515800  0.51835900  0.73359200  1
  O  O65  1  0.51748400  0.82432000  0.73399200  1
  O  O66  1  0.17568000  0.48251600  0.26600800  1
  O  O67  1  0.48164100  0.17484200  0.26640800  1
  O  O68  1  0.14616300  0.30804700  0.03051400  1
  O  O69  1  0.30806900  0.14617600  0.03053800  1
  O  O70  1  0.85382400  0.69193100  0.96946200  1
  O  O71  1  0.69195300  0.85383700  0.96948600  1
  O  O72  1  0.43293300  0.06869800  0.53582500  1
  O  O73  1  0.06804900  0.42851500  0.53535300  1
  O  O74  1  0.57148500  0.93195100  0.46464700  1
  O  O75  1  0.93130200  0.56706700  0.46417500  1
  O  O76  1  0.76588500  0.76607000  0.81102600  1
  O  O77  1  0.23393000  0.23411500  0.18897400  1
