# generated using pymatgen
data_Li2La2Si3
_symmetry_space_group_name_H-M   'P 1'
_cell_length_a   9.66717401
_cell_length_b   9.66717401
_cell_length_c   6.91319200
_cell_angle_alpha   90.00000000
_cell_angle_beta   90.00000000
_cell_angle_gamma   153.03352214
_symmetry_Int_Tables_number   1
_chemical_formula_structural   Li2La2Si3
_chemical_formula_sum   'Li4 La4 Si6'
_cell_volume   292.97152253
_cell_formula_units_Z   2
loop_
 _symmetry_equiv_pos_site_id
 _symmetry_equiv_pos_as_xyz
  1  'x, y, z'
loop_
 _atom_site_type_symbol
 _atom_site_label
 _atom_site_symmetry_multiplicity
 _atom_site_fract_x
 _atom_site_fract_y
 _atom_site_fract_z
 _atom_site_occupancy
  Li  Li0  1  0.81269100  0.18730900  0.43907900  1
  Li  Li1  1  0.18730900  0.81269100  0.56092100  1
  Li  Li2  1  0.81269100  0.18730900  0.06092100  1
  Li  Li3  1  0.18730900  0.81269100  0.93907900  1
  La  La4  1  0.55240100  0.44759900  0.75000000  1
  La  La5  1  0.44759900  0.55240100  0.25000000  1
  La  La6  1  0.34037000  0.65963000  0.75000000  1
  La  La7  1  0.65963000  0.34037000  0.25000000  1
  Si  Si8  1  0.94306700  0.05693300  0.92362700  1
  Si  Si9  1  0.05693300  0.94306700  0.07637300  1
  Si  Si10  1  0.94306700  0.05693300  0.57637300  1
  Si  Si11  1  0.05693300  0.94306700  0.42362700  1
  Si  Si12  1  0.71976400  0.28023600  0.75000000  1
  Si  Si13  1  0.28023600  0.71976400  0.25000000  1
