# generated using pymatgen
data_Pr6Ni20P13
_symmetry_space_group_name_H-M   'P 1'
_cell_length_a   12.88250424
_cell_length_b   12.88250424
_cell_length_c   3.84346600
_cell_angle_alpha   90.00000000
_cell_angle_beta   90.00000000
_cell_angle_gamma   120.00000121
_symmetry_Int_Tables_number   1
_chemical_formula_structural   Pr6Ni20P13
_chemical_formula_sum   'Pr6 Ni20 P13'
_cell_volume   552.40074778
_cell_formula_units_Z   1
loop_
 _symmetry_equiv_pos_site_id
 _symmetry_equiv_pos_as_xyz
  1  'x, y, z'
loop_
 _atom_site_type_symbol
 _atom_site_label
 _atom_site_symmetry_multiplicity
 _atom_site_fract_x
 _atom_site_fract_y
 _atom_site_fract_z
 _atom_site_occupancy
  Pr  Pr0  1  0.18625400  0.46702900  0.00000000  1
  Pr  Pr1  1  0.53297100  0.71922400  0.00000000  1
  Pr  Pr2  1  0.28077600  0.81374600  0.00000000  1
  Pr  Pr3  1  0.71907900  0.18584800  0.50000000  1
  Pr  Pr4  1  0.81415200  0.53323100  0.50000000  1
  Pr  Pr5  1  0.46676900  0.28092100  0.50000000  1
  Ni  Ni6  1  0.08854000  0.19131700  0.00000000  1
  Ni  Ni7  1  0.80868300  0.89722400  0.00000000  1
  Ni  Ni8  1  0.10277600  0.91146000  0.00000000  1
  Ni  Ni9  1  0.33333300  0.66666700  0.50000000  1
  Ni  Ni10  1  0.91892400  0.07211800  0.50000000  1
  Ni  Ni11  1  0.92788200  0.84680700  0.50000000  1
  Ni  Ni12  1  0.15319300  0.08107600  0.50000000  1
  Ni  Ni13  1  0.66666700  0.33333300  0.00000000  1
  Ni  Ni14  1  0.41404900  0.43712300  0.00000000  1
  Ni  Ni15  1  0.56287700  0.97692600  0.00000000  1
  Ni  Ni16  1  0.02307400  0.58595100  0.00000000  1
  Ni  Ni17  1  0.24310900  0.31166400  0.50000000  1
  Ni  Ni18  1  0.68833600  0.93144500  0.50000000  1
  Ni  Ni19  1  0.06855500  0.75689100  0.50000000  1
  Ni  Ni20  1  0.43356400  0.02426100  0.50000000  1
  Ni  Ni21  1  0.97573900  0.40930400  0.50000000  1
  Ni  Ni22  1  0.59069600  0.56643600  0.50000000  1
  Ni  Ni23  1  0.92431200  0.23951100  0.00000000  1
  Ni  Ni24  1  0.76048900  0.68480100  0.00000000  1
  Ni  Ni25  1  0.31519900  0.07568800  0.00000000  1
  P  P26  1  0.38790900  0.51921700  0.50000000  1
  P  P27  1  0.48078300  0.86869100  0.50000000  1
  P  P28  1  0.13130900  0.61209100  0.50000000  1
  P  P29  1  0.04217400  0.27276600  0.50000000  1
  P  P30  1  0.72723400  0.76940800  0.50000000  1
  P  P31  1  0.23059200  0.95782600  0.50000000  1
  P  P32  1  0.51815200  0.13216500  0.00000000  1
  P  P33  1  0.86783500  0.38598700  0.00000000  1
  P  P34  1  0.61401300  0.48184800  0.00000000  1
  P  P35  1  0.76643500  0.04378200  0.00000000  1
  P  P36  1  0.95621800  0.72265300  0.00000000  1
  P  P37  1  0.27734700  0.23356500  0.00000000  1
  P  P38  1  0.00000000  0.00000000  0.00000000  1
