# generated using pymatgen
data_CsY(SeO3)2
_symmetry_space_group_name_H-M   'P 1'
_cell_length_a   8.97462800
_cell_length_b   8.97462800
_cell_length_c   8.97462800
_cell_angle_alpha   90.00000000
_cell_angle_beta   90.00000000
_cell_angle_gamma   90.00000000
_symmetry_Int_Tables_number   1
_chemical_formula_structural   CsY(SeO3)2
_chemical_formula_sum   'Cs4 Y4 Se8 O24'
_cell_volume   722.85196860
_cell_formula_units_Z   4
loop_
 _symmetry_equiv_pos_site_id
 _symmetry_equiv_pos_as_xyz
  1  'x, y, z'
loop_
 _atom_site_type_symbol
 _atom_site_label
 _atom_site_symmetry_multiplicity
 _atom_site_fract_x
 _atom_site_fract_y
 _atom_site_fract_z
 _atom_site_occupancy
  Cs  Cs0  1  0.50000000  0.50000000  0.00000000  1
  Cs  Cs1  1  0.50000000  0.00000000  0.50000000  1
  Cs  Cs2  1  0.00000000  0.50000000  0.50000000  1
  Cs  Cs3  1  0.00000000  0.00000000  0.00000000  1
  Y  Y4  1  0.50000000  0.00000000  0.00000000  1
  Y  Y5  1  0.50000000  0.50000000  0.50000000  1
  Y  Y6  1  0.00000000  0.00000000  0.50000000  1
  Y  Y7  1  0.00000000  0.50000000  0.00000000  1
  Se  Se8  1  0.26267700  0.73732300  0.23732300  1
  Se  Se9  1  0.73732300  0.23732300  0.26267700  1
  Se  Se10  1  0.23732300  0.26267700  0.73732300  1
  Se  Se11  1  0.76267700  0.76267700  0.76267700  1
  Se  Se12  1  0.73732300  0.26267700  0.76267700  1
  Se  Se13  1  0.26267700  0.76267700  0.73732300  1
  Se  Se14  1  0.76267700  0.73732300  0.26267700  1
  Se  Se15  1  0.23732300  0.23732300  0.23732300  1
  O  O16  1  0.17941900  0.66104500  0.08127700  1
  O  O17  1  0.82058100  0.16104500  0.41872300  1
  O  O18  1  0.32058100  0.33895500  0.58127700  1
  O  O19  1  0.67941900  0.83895500  0.91872300  1
  O  O20  1  0.08127700  0.17941900  0.66104500  1
  O  O21  1  0.41872300  0.82058100  0.16104500  1
  O  O22  1  0.58127700  0.32058100  0.33895500  1
  O  O23  1  0.91872300  0.67941900  0.83895500  1
  O  O24  1  0.66104500  0.08127700  0.17941900  1
  O  O25  1  0.16104500  0.41872300  0.82058100  1
  O  O26  1  0.33895500  0.58127700  0.32058100  1
  O  O27  1  0.83895500  0.91872300  0.67941900  1
  O  O28  1  0.82058100  0.33895500  0.91872300  1
  O  O29  1  0.17941900  0.83895500  0.58127700  1
  O  O30  1  0.67941900  0.66104500  0.41872300  1
  O  O31  1  0.32058100  0.16104500  0.08127700  1
  O  O32  1  0.91872300  0.82058100  0.33895500  1
  O  O33  1  0.58127700  0.17941900  0.83895500  1
  O  O34  1  0.41872300  0.67941900  0.66104500  1
  O  O35  1  0.08127700  0.32058100  0.16104500  1
  O  O36  1  0.33895500  0.91872300  0.82058100  1
  O  O37  1  0.83895500  0.58127700  0.17941900  1
  O  O38  1  0.66104500  0.41872300  0.67941900  1
  O  O39  1  0.16104500  0.08127700  0.32058100  1
