# generated using pymatgen
data_Er2Mn2O7
_symmetry_space_group_name_H-M   'P 1'
_cell_length_a   7.05819596
_cell_length_b   7.05819617
_cell_length_c   7.05819600
_cell_angle_alpha   60.00000081
_cell_angle_beta   59.99999983
_cell_angle_gamma   59.99999816
_symmetry_Int_Tables_number   1
_chemical_formula_structural   Er2Mn2O7
_chemical_formula_sum   'Er4 Mn4 O14'
_cell_volume   248.63722451
_cell_formula_units_Z   2
loop_
 _symmetry_equiv_pos_site_id
 _symmetry_equiv_pos_as_xyz
  1  'x, y, z'
loop_
 _atom_site_type_symbol
 _atom_site_label
 _atom_site_symmetry_multiplicity
 _atom_site_fract_x
 _atom_site_fract_y
 _atom_site_fract_z
 _atom_site_occupancy
  Er  Er0  1  0.50000000  0.00000000  0.50000000  1
  Er  Er1  1  0.00000000  0.50000000  0.50000100  1
  Er  Er2  1  0.50000000  0.50000000  0.00000000  1
  Er  Er3  1  0.50000000  0.50000000  0.50000000  1
  Mn  Mn4  1  0.00000000  0.50000000  0.00000100  1
  Mn  Mn5  1  0.50000000  0.00000000  0.00000000  1
  Mn  Mn6  1  0.00000000  0.00000000  0.50000000  1
  Mn  Mn7  1  0.00000000  0.00000000  0.00000000  1
  O  O8  1  0.33166600  0.91833400  0.91833300  1
  O  O9  1  0.08166700  0.66833400  0.66833300  1
  O  O10  1  0.91833200  0.33166700  0.91833300  1
  O  O11  1  0.91833200  0.91833400  0.33166700  1
  O  O12  1  0.33166600  0.33166700  0.91833300  1
  O  O13  1  0.33166600  0.91833400  0.33166700  1
  O  O14  1  0.08166700  0.66833400  0.08166700  1
  O  O15  1  0.66833300  0.08166700  0.66833300  1
  O  O16  1  0.37500000  0.37500100  0.37500000  1
  O  O17  1  0.62499900  0.62500000  0.62500000  1
  O  O18  1  0.91833200  0.33166700  0.33166700  1
  O  O19  1  0.66833300  0.08166700  0.08166700  1
  O  O20  1  0.08166700  0.08166700  0.66833300  1
  O  O21  1  0.66833300  0.66833400  0.08166700  1
