# generated using pymatgen
data_Cr2H2Pb4ClO10F
_symmetry_space_group_name_H-M   'P 1'
_cell_length_a   7.00394900
_cell_length_b   7.71716200
_cell_length_c   11.95305100
_cell_angle_alpha   90.00000000
_cell_angle_beta   90.00000000
_cell_angle_gamma   90.00000000
_symmetry_Int_Tables_number   1
_chemical_formula_structural   Cr2H2Pb4ClO10F
_chemical_formula_sum   'Cr4 H4 Pb8 Cl2 O20 F2'
_cell_volume   646.06968683
_cell_formula_units_Z   2
loop_
 _symmetry_equiv_pos_site_id
 _symmetry_equiv_pos_as_xyz
  1  'x, y, z'
loop_
 _atom_site_type_symbol
 _atom_site_label
 _atom_site_symmetry_multiplicity
 _atom_site_fract_x
 _atom_site_fract_y
 _atom_site_fract_z
 _atom_site_occupancy
  Cr  Cr0  1  0.35292400  0.50000000  0.00207700  1
  Cr  Cr1  1  0.35244500  0.50000000  0.49810300  1
  Cr  Cr2  1  0.64755500  0.00000000  0.99810300  1
  Cr  Cr3  1  0.64707600  0.00000000  0.50207700  1
  H  H4  1  0.84434300  0.79586100  0.75098600  1
  H  H5  1  0.84434300  0.20413900  0.75098600  1
  H  H6  1  0.15565700  0.70413900  0.25098600  1
  H  H7  1  0.15565700  0.29586100  0.25098600  1
  Pb  Pb8  1  0.58035900  0.75033700  0.25032200  1
  Pb  Pb9  1  0.58035900  0.24966300  0.25032200  1
  Pb  Pb10  1  0.41964100  0.74966300  0.75032200  1
  Pb  Pb11  1  0.41964100  0.25033700  0.75032200  1
  Pb  Pb12  1  0.87644100  0.50000000  0.89895400  1
  Pb  Pb13  1  0.87596800  0.50000000  0.59897100  1
  Pb  Pb14  1  0.12403200  0.00000000  0.09897100  1
  Pb  Pb15  1  0.12355900  0.00000000  0.39895400  1
  Cl  Cl16  1  0.92308500  0.50000000  0.26941600  1
  Cl  Cl17  1  0.07691500  0.00000000  0.76941600  1
  O  O18  1  0.21819900  0.67362100  0.98910300  1
  O  O19  1  0.21819900  0.32637900  0.98910300  1
  O  O20  1  0.21839900  0.67419300  0.51194100  1
  O  O21  1  0.21839900  0.32580700  0.51194100  1
  O  O22  1  0.78160100  0.82580700  0.01194100  1
  O  O23  1  0.78160100  0.17419300  0.01194100  1
  O  O24  1  0.78180100  0.82637900  0.48910300  1
  O  O25  1  0.78180100  0.17362100  0.48910300  1
  O  O26  1  0.50835600  0.50000000  0.89187300  1
  O  O27  1  0.50876100  0.50000000  0.60780000  1
  O  O28  1  0.49123900  0.00000000  0.10780000  1
  O  O29  1  0.49164400  0.00000000  0.39187300  1
  O  O30  1  0.76735800  0.68841800  0.74971800  1
  O  O31  1  0.76735800  0.31158200  0.74971800  1
  O  O32  1  0.23264200  0.81158200  0.24971800  1
  O  O33  1  0.23264200  0.18841800  0.24971800  1
  O  O34  1  0.47286500  0.50000000  0.12420700  1
  O  O35  1  0.47124500  0.50000000  0.37586700  1
  O  O36  1  0.52875500  0.00000000  0.87586700  1
  O  O37  1  0.52713500  0.00000000  0.62420700  1
  F  F38  1  0.87139400  0.00000000  0.25019100  1
  F  F39  1  0.12860600  0.50000000  0.75019100  1
