# generated using pymatgen
data_Tc2Te5
_symmetry_space_group_name_H-M   'P 1'
_cell_length_a   13.14932600
_cell_length_b   13.23526100
_cell_length_c   14.46182000
_cell_angle_alpha   90.00000000
_cell_angle_beta   90.00000000
_cell_angle_gamma   90.00000000
_symmetry_Int_Tables_number   1
_chemical_formula_structural   Tc2Te5
_chemical_formula_sum   'Tc24 Te60'
_cell_volume   2516.85939577
_cell_formula_units_Z   12
loop_
 _symmetry_equiv_pos_site_id
 _symmetry_equiv_pos_as_xyz
  1  'x, y, z'
loop_
 _atom_site_type_symbol
 _atom_site_label
 _atom_site_symmetry_multiplicity
 _atom_site_fract_x
 _atom_site_fract_y
 _atom_site_fract_z
 _atom_site_occupancy
  Tc  Tc0  1  0.86729900  0.97126600  0.45202500  1
  Tc  Tc1  1  0.13270100  0.52873400  0.95202500  1
  Tc  Tc2  1  0.63270100  0.47126600  0.54797500  1
  Tc  Tc3  1  0.36729900  0.02873400  0.04797500  1
  Tc  Tc4  1  0.13270100  0.02873400  0.54797500  1
  Tc  Tc5  1  0.86729900  0.47126600  0.04797500  1
  Tc  Tc6  1  0.36729900  0.52873400  0.45202500  1
  Tc  Tc7  1  0.63270100  0.97126600  0.95202500  1
  Tc  Tc8  1  0.05865000  0.95258300  0.38743100  1
  Tc  Tc9  1  0.94135000  0.54741700  0.88743100  1
  Tc  Tc10  1  0.44135000  0.45258300  0.61256900  1
  Tc  Tc11  1  0.55865000  0.04741700  0.11256900  1
  Tc  Tc12  1  0.94135000  0.04741700  0.61256900  1
  Tc  Tc13  1  0.05865000  0.45258300  0.11256900  1
  Tc  Tc14  1  0.55865000  0.54741700  0.38743100  1
  Tc  Tc15  1  0.44135000  0.95258300  0.88743100  1
  Tc  Tc16  1  0.99248400  0.13387300  0.44920700  1
  Tc  Tc17  1  0.00751600  0.36612700  0.94920700  1
  Tc  Tc18  1  0.50751600  0.63387300  0.55079300  1
  Tc  Tc19  1  0.49248400  0.86612700  0.05079300  1
  Tc  Tc20  1  0.00751600  0.86612700  0.55079300  1
  Tc  Tc21  1  0.99248400  0.63387300  0.05079300  1
  Tc  Tc22  1  0.49248400  0.36612700  0.44920700  1
  Tc  Tc23  1  0.50751600  0.13387300  0.94920700  1
  Te  Te24  1  0.80052800  0.15152400  0.51602800  1
  Te  Te25  1  0.19947200  0.34847600  0.01602800  1
  Te  Te26  1  0.69947200  0.65152400  0.48397200  1
  Te  Te27  1  0.30052800  0.84847600  0.98397200  1
  Te  Te28  1  0.19947200  0.84847600  0.48397200  1
  Te  Te29  1  0.80052800  0.65152400  0.98397200  1
  Te  Te30  1  0.30052800  0.34847600  0.51602800  1
  Te  Te31  1  0.69947200  0.15152400  0.01602800  1
  Te  Te32  1  0.91917700  0.05651100  0.28940900  1
  Te  Te33  1  0.08082300  0.44348900  0.78940900  1
  Te  Te34  1  0.58082300  0.55651100  0.71059100  1
  Te  Te35  1  0.41917700  0.94348900  0.21059100  1
  Te  Te36  1  0.08082300  0.94348900  0.71059100  1
  Te  Te37  1  0.91917700  0.55651100  0.21059100  1
  Te  Te38  1  0.41917700  0.44348900  0.28940900  1
  Te  Te39  1  0.58082300  0.05651100  0.78940900  1
  Te  Te40  1  0.18338800  0.11452100  0.38506900  1
  Te  Te41  1  0.81661200  0.38547900  0.88506900  1
  Te  Te42  1  0.31661200  0.61452100  0.61493100  1
  Te  Te43  1  0.68338800  0.88547900  0.11493100  1
  Te  Te44  1  0.81661200  0.88547900  0.61493100  1
  Te  Te45  1  0.18338800  0.61452100  0.11493100  1
  Te  Te46  1  0.68338800  0.38547900  0.38506900  1
  Te  Te47  1  0.31661200  0.11452100  0.88506900  1
  Te  Te48  1  0.06398600  0.21005200  0.60825700  1
  Te  Te49  1  0.93601400  0.28994800  0.10825700  1
  Te  Te50  1  0.43601400  0.71005200  0.39174300  1
  Te  Te51  1  0.56398600  0.78994800  0.89174300  1
  Te  Te52  1  0.93601400  0.78994800  0.39174300  1
  Te  Te53  1  0.06398600  0.71005200  0.89174300  1
  Te  Te54  1  0.56398600  0.28994800  0.60825700  1
  Te  Te55  1  0.43601400  0.21005200  0.10825700  1
  Te  Te56  1  0.67728900  0.92707600  0.38002800  1
  Te  Te57  1  0.32271100  0.57292400  0.88002800  1
  Te  Te58  1  0.82271100  0.42707600  0.61997200  1
  Te  Te59  1  0.17728900  0.07292400  0.11997200  1
  Te  Te60  1  0.32271100  0.07292400  0.61997200  1
  Te  Te61  1  0.67728900  0.42707600  0.11997200  1
  Te  Te62  1  0.17728900  0.57292400  0.38002800  1
  Te  Te63  1  0.82271100  0.92707600  0.88002800  1
  Te  Te64  1  0.50000000  0.00000000  0.50000000  1
  Te  Te65  1  0.50000000  0.50000000  0.00000000  1
  Te  Te66  1  0.00000000  0.50000000  0.50000000  1
  Te  Te67  1  0.00000000  0.00000000  0.00000000  1
  Te  Te68  1  0.46069500  0.17778400  0.37424900  1
  Te  Te69  1  0.53930500  0.32221600  0.87424900  1
  Te  Te70  1  0.03930500  0.67778400  0.62575100  1
  Te  Te71  1  0.96069500  0.82221600  0.12575100  1
  Te  Te72  1  0.53930500  0.82221600  0.62575100  1
  Te  Te73  1  0.46069500  0.67778400  0.12575100  1
  Te  Te74  1  0.96069500  0.32221600  0.37424900  1
  Te  Te75  1  0.03930500  0.17778400  0.87424900  1
  Te  Te76  1  0.64100800  0.11170600  0.27514600  1
  Te  Te77  1  0.35899200  0.38829400  0.77514600  1
  Te  Te78  1  0.85899200  0.61170600  0.72485400  1
  Te  Te79  1  0.14100800  0.88829400  0.22485400  1
  Te  Te80  1  0.35899200  0.88829400  0.72485400  1
  Te  Te81  1  0.64100800  0.61170600  0.22485400  1
  Te  Te82  1  0.14100800  0.38829400  0.27514600  1
  Te  Te83  1  0.85899200  0.11170600  0.77514600  1
