# generated using pymatgen
data_KGd2Cl7
_symmetry_space_group_name_H-M   'P 1'
_cell_length_a   12.82048900
_cell_length_b   7.03011800
_cell_length_c   13.38727982
_cell_angle_alpha   89.31033411
_cell_angle_beta   90.00000000
_cell_angle_gamma   90.00000000
_symmetry_Int_Tables_number   1
_chemical_formula_structural   KGd2Cl7
_chemical_formula_sum   'K4 Gd8 Cl28'
_cell_volume   1206.50210299
_cell_formula_units_Z   4
loop_
 _symmetry_equiv_pos_site_id
 _symmetry_equiv_pos_as_xyz
  1  'x, y, z'
loop_
 _atom_site_type_symbol
 _atom_site_label
 _atom_site_symmetry_multiplicity
 _atom_site_fract_x
 _atom_site_fract_y
 _atom_site_fract_z
 _atom_site_occupancy
  K  K0  1  0.20151900  0.73406600  0.03750400  1
  K  K1  1  0.79848100  0.26593400  0.96249600  1
  K  K2  1  0.70151900  0.26593400  0.46249600  1
  K  K3  1  0.29848100  0.73406600  0.53750400  1
  Gd  Gd4  1  0.53736100  0.77910800  0.23724100  1
  Gd  Gd5  1  0.46263900  0.22089200  0.76275900  1
  Gd  Gd6  1  0.03736100  0.22089200  0.26275900  1
  Gd  Gd7  1  0.96263900  0.77910800  0.73724100  1
  Gd  Gd8  1  0.83966500  0.72545200  0.24838400  1
  Gd  Gd9  1  0.16033500  0.27454800  0.75161600  1
  Gd  Gd10  1  0.33966500  0.27454800  0.25161600  1
  Gd  Gd11  1  0.66033500  0.72545200  0.74838400  1
  Cl  Cl12  1  0.97380000  0.94317400  0.13361800  1
  Cl  Cl13  1  0.02620000  0.05682600  0.86638200  1
  Cl  Cl14  1  0.47380000  0.05682600  0.36638200  1
  Cl  Cl15  1  0.52620000  0.94317400  0.63361800  1
  Cl  Cl16  1  0.68509300  0.74256900  0.39167200  1
  Cl  Cl17  1  0.31490700  0.25743100  0.60832800  1
  Cl  Cl18  1  0.18509300  0.25743100  0.10832800  1
  Cl  Cl19  1  0.81490700  0.74256900  0.89167200  1
  Cl  Cl20  1  0.67773200  0.51620700  0.17262000  1
  Cl  Cl21  1  0.32226800  0.48379300  0.82738000  1
  Cl  Cl22  1  0.17773200  0.48379300  0.32738000  1
  Cl  Cl23  1  0.82226800  0.51620700  0.67262000  1
  Cl  Cl24  1  0.92520100  0.97445700  0.37977400  1
  Cl  Cl25  1  0.07479900  0.02554300  0.62022600  1
  Cl  Cl26  1  0.42520100  0.02554300  0.12022600  1
  Cl  Cl27  1  0.57479900  0.97445700  0.87977400  1
  Cl  Cl28  1  0.94131400  0.46214000  0.12996700  1
  Cl  Cl29  1  0.05868600  0.53786000  0.87003300  1
  Cl  Cl30  1  0.44131400  0.53786000  0.37003300  1
  Cl  Cl31  1  0.55868600  0.46214000  0.62996700  1
  Cl  Cl32  1  0.70341700  0.99736700  0.17552200  1
  Cl  Cl33  1  0.29658300  0.00263300  0.82447800  1
  Cl  Cl34  1  0.20341700  0.00263300  0.32447800  1
  Cl  Cl35  1  0.79658300  0.99736700  0.67552200  1
  Cl  Cl36  1  0.91229200  0.45448800  0.37809100  1
  Cl  Cl37  1  0.08770800  0.54551200  0.62190900  1
  Cl  Cl38  1  0.41229200  0.54551200  0.12190900  1
  Cl  Cl39  1  0.58770800  0.45448800  0.87809100  1
