# generated using pymatgen
data_Eu3(GeAs2)2
_symmetry_space_group_name_H-M   'P 1'
_cell_length_a   18.14580400
_cell_length_b   7.46448300
_cell_length_c   7.51939746
_cell_angle_alpha   68.62006215
_cell_angle_beta   90.00000000
_cell_angle_gamma   90.00000000
_symmetry_Int_Tables_number   1
_chemical_formula_structural   Eu3(GeAs2)2
_chemical_formula_sum   'Eu12 Ge8 As16'
_cell_volume   948.40595405
_cell_formula_units_Z   4
loop_
 _symmetry_equiv_pos_site_id
 _symmetry_equiv_pos_as_xyz
  1  'x, y, z'
loop_
 _atom_site_type_symbol
 _atom_site_label
 _atom_site_symmetry_multiplicity
 _atom_site_fract_x
 _atom_site_fract_y
 _atom_site_fract_z
 _atom_site_occupancy
  Eu  Eu0  1  0.31560300  0.48768500  0.22126700  1
  Eu  Eu1  1  0.81560300  0.01231500  0.77873300  1
  Eu  Eu2  1  0.68439700  0.51231500  0.77873300  1
  Eu  Eu3  1  0.18439700  0.98768500  0.22126700  1
  Eu  Eu4  1  0.06187200  0.48904600  0.25406000  1
  Eu  Eu5  1  0.56187200  0.01095400  0.74594000  1
  Eu  Eu6  1  0.93812800  0.51095400  0.74594000  1
  Eu  Eu7  1  0.43812800  0.98904600  0.25406000  1
  Eu  Eu8  1  0.56034700  0.49900200  0.26016100  1
  Eu  Eu9  1  0.06034700  0.00099800  0.73983900  1
  Eu  Eu10  1  0.43965300  0.50099800  0.73983900  1
  Eu  Eu11  1  0.93965300  0.99900200  0.26016100  1
  Ge  Ge12  1  0.87346200  0.46954200  0.20862400  1
  Ge  Ge13  1  0.37346200  0.03045800  0.79137600  1
  Ge  Ge14  1  0.12653800  0.53045800  0.79137600  1
  Ge  Ge15  1  0.62653800  0.96954200  0.20862400  1
  Ge  Ge16  1  0.74139900  0.08453000  0.31549900  1
  Ge  Ge17  1  0.24139900  0.41547000  0.68450100  1
  Ge  Ge18  1  0.25860100  0.91547000  0.68450100  1
  Ge  Ge19  1  0.75860100  0.58453000  0.31549900  1
  As  As20  1  0.55835800  0.25328600  0.00336800  1
  As  As21  1  0.05835800  0.24671400  0.99663200  1
  As  As22  1  0.44164200  0.74671400  0.99663200  1
  As  As23  1  0.94164200  0.75328600  0.00336800  1
  As  As24  1  0.81437100  0.27721000  0.02819500  1
  As  As25  1  0.31437100  0.22279000  0.97180500  1
  As  As26  1  0.18562900  0.72279000  0.97180500  1
  As  As27  1  0.68562900  0.77721000  0.02819500  1
  As  As28  1  0.93454600  0.25478600  0.50262100  1
  As  As29  1  0.43454600  0.24521400  0.49737900  1
  As  As30  1  0.06545400  0.74521400  0.49737900  1
  As  As31  1  0.56545400  0.75478600  0.50262100  1
  As  As32  1  0.69504200  0.27325200  0.50964000  1
  As  As33  1  0.19504200  0.22674800  0.49036000  1
  As  As34  1  0.30495800  0.72674800  0.49036000  1
  As  As35  1  0.80495800  0.77325200  0.50964000  1
