# generated using pymatgen
data_Ce2SeN2
_symmetry_space_group_name_H-M   'P 1'
_cell_length_a   3.93838299
_cell_length_b   3.93838299
_cell_length_c   7.01032200
_cell_angle_alpha   90.00000000
_cell_angle_beta   90.00000000
_cell_angle_gamma   120.00001656
_symmetry_Int_Tables_number   1
_chemical_formula_structural   Ce2SeN2
_chemical_formula_sum   'Ce2 Se1 N2'
_cell_volume   94.16823249
_cell_formula_units_Z   1
loop_
 _symmetry_equiv_pos_site_id
 _symmetry_equiv_pos_as_xyz
  1  'x, y, z'
loop_
 _atom_site_type_symbol
 _atom_site_label
 _atom_site_symmetry_multiplicity
 _atom_site_fract_x
 _atom_site_fract_y
 _atom_site_fract_z
 _atom_site_occupancy
  Ce  Ce0  1  0.66666700  0.33333300  0.70309300  1
  Ce  Ce1  1  0.33333300  0.66666700  0.29690700  1
  Se  Se2  1  0.00000000  0.00000000  0.00000000  1
  N  N3  1  0.66666700  0.33333300  0.37511500  1
  N  N4  1  0.33333300  0.66666700  0.62488500  1
