# generated using pymatgen
data_Na3Cr2(PO4)3
_symmetry_space_group_name_H-M   'P 1'
_cell_length_a   8.78458057
_cell_length_b   8.78458057
_cell_length_c   8.89207900
_cell_angle_alpha   60.36728515
_cell_angle_beta   60.36728515
_cell_angle_gamma   60.14158981
_symmetry_Int_Tables_number   1
_chemical_formula_structural   Na3Cr2(PO4)3
_chemical_formula_sum   'Na6 Cr4 P6 O24'
_cell_volume   488.41259931
_cell_formula_units_Z   2
loop_
 _symmetry_equiv_pos_site_id
 _symmetry_equiv_pos_as_xyz
  1  'x, y, z'
loop_
 _atom_site_type_symbol
 _atom_site_label
 _atom_site_symmetry_multiplicity
 _atom_site_fract_x
 _atom_site_fract_y
 _atom_site_fract_z
 _atom_site_occupancy
  Na  Na0  1  0.50000000  0.00000000  0.50000000  1
  Na  Na1  1  0.00000000  0.50000000  0.00000000  1
  Na  Na2  1  0.74822700  0.88494700  0.75062500  1
  Na  Na3  1  0.11505300  0.25177300  0.74937500  1
  Na  Na4  1  0.25177300  0.11505300  0.24937500  1
  Na  Na5  1  0.88494700  0.74822700  0.25062500  1
  Cr  Cr6  1  0.64643600  0.15120000  0.05781300  1
  Cr  Cr7  1  0.15120000  0.64643600  0.55781300  1
  Cr  Cr8  1  0.35356400  0.84880000  0.94218700  1
  Cr  Cr9  1  0.84880000  0.35356400  0.44218700  1
  P  P10  1  0.74718300  0.54228200  0.74834500  1
  P  P11  1  0.45771800  0.25281700  0.75165500  1
  P  P12  1  0.04289000  0.95711000  0.75000000  1
  P  P13  1  0.54228200  0.74718300  0.24834500  1
  P  P14  1  0.95711000  0.04289000  0.25000000  1
  P  P15  1  0.25281700  0.45771800  0.25165500  1
  O  O16  1  0.91993100  0.56634100  0.73510300  1
  O  O17  1  0.27558900  0.41858500  0.73591900  1
  O  O18  1  0.06017100  0.78055800  0.73474000  1
  O  O19  1  0.56634100  0.91993100  0.23510300  1
  O  O20  1  0.78055800  0.06017100  0.23474000  1
  O  O21  1  0.41858500  0.27558900  0.23591900  1
  O  O22  1  0.08006900  0.43365900  0.26489700  1
  O  O23  1  0.72441100  0.58141500  0.26408100  1
  O  O24  1  0.93982900  0.21944200  0.26526000  1
  O  O25  1  0.43365900  0.08006900  0.76489700  1
  O  O26  1  0.21944200  0.93982900  0.76526000  1
  O  O27  1  0.58141500  0.72441100  0.76408100  1
  O  O28  1  0.72908800  0.36727000  0.91680600  1
  O  O29  1  0.47987500  0.21967700  0.92768500  1
  O  O30  1  0.87025000  0.98192400  0.92279900  1
  O  O31  1  0.36727000  0.72908800  0.41680600  1
  O  O32  1  0.98192400  0.87025000  0.42279900  1
  O  O33  1  0.21967700  0.47987500  0.42768500  1
  O  O34  1  0.27091200  0.63273000  0.08319400  1
  O  O35  1  0.52012500  0.78032300  0.07231500  1
  O  O36  1  0.12975000  0.01807600  0.07720100  1
  O  O37  1  0.63273000  0.27091200  0.58319400  1
  O  O38  1  0.01807600  0.12975000  0.57720100  1
  O  O39  1  0.78032300  0.52012500  0.57231500  1
