# generated using pymatgen
data_Yb5P7Pd9
_symmetry_space_group_name_H-M   'P 1'
_cell_length_a   10.08867042
_cell_length_b   10.08867042
_cell_length_c   4.06550200
_cell_angle_alpha   90.00000000
_cell_angle_beta   90.00000000
_cell_angle_gamma   120.00000278
_symmetry_Int_Tables_number   1
_chemical_formula_structural   Yb5P7Pd9
_chemical_formula_sum   'Yb5 P7 Pd9'
_cell_volume   358.35433964
_cell_formula_units_Z   1
loop_
 _symmetry_equiv_pos_site_id
 _symmetry_equiv_pos_as_xyz
  1  'x, y, z'
loop_
 _atom_site_type_symbol
 _atom_site_label
 _atom_site_symmetry_multiplicity
 _atom_site_fract_x
 _atom_site_fract_y
 _atom_site_fract_z
 _atom_site_occupancy
  Yb  Yb0  1  0.66666700  0.33333300  0.00000000  1
  Yb  Yb1  1  0.33333300  0.66666700  0.50000000  1
  Yb  Yb2  1  0.10537000  0.22872400  0.50000000  1
  Yb  Yb3  1  0.77127600  0.87664600  0.50000000  1
  Yb  Yb4  1  0.12335400  0.89463000  0.50000000  1
  P  P5  1  0.85256600  0.27749500  0.50000000  1
  P  P6  1  0.72250500  0.57507100  0.50000000  1
  P  P7  1  0.42492900  0.14743400  0.50000000  1
  P  P8  1  0.00000000  0.00000000  0.00000000  1
  P  P9  1  0.31504200  0.42511700  0.00000000  1
  P  P10  1  0.57488300  0.88992500  0.00000000  1
  P  P11  1  0.11007500  0.68495800  0.00000000  1
  Pd  Pd12  1  0.59736900  0.05428500  0.50000000  1
  Pd  Pd13  1  0.94571500  0.54308400  0.50000000  1
  Pd  Pd14  1  0.45691600  0.40263100  0.50000000  1
  Pd  Pd15  1  0.82996300  0.12732700  0.00000000  1
  Pd  Pd16  1  0.87267300  0.70263700  0.00000000  1
  Pd  Pd17  1  0.29736300  0.17003700  0.00000000  1
  Pd  Pd18  1  0.07944400  0.43818700  0.00000000  1
  Pd  Pd19  1  0.56181300  0.64125700  0.00000000  1
  Pd  Pd20  1  0.35874300  0.92055600  0.00000000  1
