# generated using pymatgen
data_DyAsPd
_symmetry_space_group_name_H-M   'P 1'
_cell_length_a   4.14923800
_cell_length_b   7.05347200
_cell_length_c   7.95879400
_cell_angle_alpha   90.00000000
_cell_angle_beta   90.00000000
_cell_angle_gamma   90.00000000
_symmetry_Int_Tables_number   1
_chemical_formula_structural   DyAsPd
_chemical_formula_sum   'Dy4 As4 Pd4'
_cell_volume   232.92631563
_cell_formula_units_Z   4
loop_
 _symmetry_equiv_pos_site_id
 _symmetry_equiv_pos_as_xyz
  1  'x, y, z'
loop_
 _atom_site_type_symbol
 _atom_site_label
 _atom_site_symmetry_multiplicity
 _atom_site_fract_x
 _atom_site_fract_y
 _atom_site_fract_z
 _atom_site_occupancy
  Dy  Dy0  1  0.25000000  0.52978600  0.30857700  1
  Dy  Dy1  1  0.25000000  0.02978600  0.19142300  1
  Dy  Dy2  1  0.75000000  0.47021400  0.69142300  1
  Dy  Dy3  1  0.75000000  0.97021400  0.80857700  1
  As  As4  1  0.25000000  0.24992400  0.88014100  1
  As  As5  1  0.25000000  0.74992400  0.61985900  1
  As  As6  1  0.75000000  0.75007600  0.11985900  1
  As  As7  1  0.75000000  0.25007600  0.38014100  1
  Pd  Pd8  1  0.25000000  0.64483600  0.93718500  1
  Pd  Pd9  1  0.25000000  0.14483600  0.56281500  1
  Pd  Pd10  1  0.75000000  0.35516400  0.06281500  1
  Pd  Pd11  1  0.75000000  0.85516400  0.43718500  1
