# generated using pymatgen
data_DyCo5Si3
_symmetry_space_group_name_H-M   'P 1'
_cell_length_a   3.67616100
_cell_length_b   14.73043036
_cell_length_c   14.73043036
_cell_angle_alpha   120.00000160
_cell_angle_beta   90.00000000
_cell_angle_gamma   90.00000000
_symmetry_Int_Tables_number   1
_chemical_formula_structural   DyCo5Si3
_chemical_formula_sum   'Dy6 Co30 Si18'
_cell_volume   690.80586853
_cell_formula_units_Z   6
loop_
 _symmetry_equiv_pos_site_id
 _symmetry_equiv_pos_as_xyz
  1  'x, y, z'
loop_
 _atom_site_type_symbol
 _atom_site_label
 _atom_site_symmetry_multiplicity
 _atom_site_fract_x
 _atom_site_fract_y
 _atom_site_fract_z
 _atom_site_occupancy
  Dy  Dy0  1  0.75000000  0.70715200  0.10126700  1
  Dy  Dy1  1  0.25000000  0.29284800  0.89873300  1
  Dy  Dy2  1  0.75000000  0.39411500  0.29284800  1
  Dy  Dy3  1  0.25000000  0.60588500  0.70715200  1
  Dy  Dy4  1  0.75000000  0.89873300  0.60588500  1
  Dy  Dy5  1  0.25000000  0.10126700  0.39411500  1
  Co  Co6  1  0.75000000  0.58579600  0.85295600  1
  Co  Co7  1  0.25000000  0.41420400  0.14704400  1
  Co  Co8  1  0.75000000  0.26716000  0.41420400  1
  Co  Co9  1  0.25000000  0.73284000  0.58579600  1
  Co  Co10  1  0.75000000  0.14704400  0.73284000  1
  Co  Co11  1  0.25000000  0.85295600  0.26716000  1
  Co  Co12  1  0.75000000  0.45994600  0.53438800  1
  Co  Co13  1  0.25000000  0.54005400  0.46561200  1
  Co  Co14  1  0.75000000  0.07444200  0.54005400  1
  Co  Co15  1  0.25000000  0.92555800  0.45994600  1
  Co  Co16  1  0.75000000  0.46561200  0.92555800  1
  Co  Co17  1  0.25000000  0.53438800  0.07444200  1
  Co  Co18  1  0.75000000  0.89692200  0.03067000  1
  Co  Co19  1  0.25000000  0.10307800  0.96933000  1
  Co  Co20  1  0.75000000  0.13374800  0.10307800  1
  Co  Co21  1  0.25000000  0.86625200  0.89692200  1
  Co  Co22  1  0.75000000  0.96933000  0.86625200  1
  Co  Co23  1  0.25000000  0.03067000  0.13374800  1
  Co  Co24  1  0.75000000  0.77445300  0.34787700  1
  Co  Co25  1  0.25000000  0.22554700  0.65212300  1
  Co  Co26  1  0.75000000  0.57342500  0.22554700  1
  Co  Co27  1  0.25000000  0.42657500  0.77445300  1
  Co  Co28  1  0.75000000  0.65212300  0.42657500  1
  Co  Co29  1  0.25000000  0.34787700  0.57342500  1
  Co  Co30  1  0.75000000  0.95380500  0.22155800  1
  Co  Co31  1  0.25000000  0.04619500  0.77844200  1
  Co  Co32  1  0.75000000  0.26775300  0.04619500  1
  Co  Co33  1  0.25000000  0.73224700  0.95380500  1
  Co  Co34  1  0.75000000  0.77844200  0.73224700  1
  Co  Co35  1  0.25000000  0.22155800  0.26775300  1
  Si  Si36  1  0.75000000  0.44283600  0.68223900  1
  Si  Si37  1  0.25000000  0.55716400  0.31776100  1
  Si  Si38  1  0.75000000  0.23940300  0.55716400  1
  Si  Si39  1  0.25000000  0.76059700  0.44283600  1
  Si  Si40  1  0.75000000  0.31776100  0.76059700  1
  Si  Si41  1  0.25000000  0.68223900  0.23940300  1
  Si  Si42  1  0.75000000  0.75096500  0.87184800  1
  Si  Si43  1  0.25000000  0.24903500  0.12815200  1
  Si  Si44  1  0.75000000  0.12088300  0.24903500  1
  Si  Si45  1  0.25000000  0.87911700  0.75096500  1
  Si  Si46  1  0.75000000  0.12815200  0.87911700  1
  Si  Si47  1  0.25000000  0.87184800  0.12088300  1
  Si  Si48  1  0.75000000  0.93784200  0.37072400  1
  Si  Si49  1  0.25000000  0.06215800  0.62927600  1
  Si  Si50  1  0.75000000  0.43288200  0.06215800  1
  Si  Si51  1  0.25000000  0.56711800  0.93784200  1
  Si  Si52  1  0.75000000  0.62927600  0.56711800  1
  Si  Si53  1  0.25000000  0.37072400  0.43288200  1
