# generated using pymatgen
data_Cr5Se8
_symmetry_space_group_name_H-M   'P 1'
_cell_length_a   6.84635153
_cell_length_b   6.84635153
_cell_length_c   8.48856261
_cell_angle_alpha   55.45570414
_cell_angle_beta   55.45570414
_cell_angle_gamma   63.93232445
_symmetry_Int_Tables_number   1
_chemical_formula_structural   Cr5Se8
_chemical_formula_sum   'Cr5 Se8'
_cell_volume   265.83996595
_cell_formula_units_Z   1
loop_
 _symmetry_equiv_pos_site_id
 _symmetry_equiv_pos_as_xyz
  1  'x, y, z'
loop_
 _atom_site_type_symbol
 _atom_site_label
 _atom_site_symmetry_multiplicity
 _atom_site_fract_x
 _atom_site_fract_y
 _atom_site_fract_z
 _atom_site_occupancy
  Cr  Cr0  1  0.00000000  0.00000000  0.00000000  1
  Cr  Cr1  1  0.27079500  0.27079500  0.98579700  1
  Cr  Cr2  1  0.72920500  0.72920500  0.01420300  1
  Cr  Cr3  1  0.27167100  0.72832900  0.50000000  1
  Cr  Cr4  1  0.72832900  0.27167100  0.50000000  1
  Se  Se5  1  0.97933400  0.97933400  0.32235400  1
  Se  Se6  1  0.02066600  0.02066600  0.67764600  1
  Se  Se7  1  0.45331000  0.45331000  0.33303300  1
  Se  Se8  1  0.54669000  0.54669000  0.66696700  1
  Se  Se9  1  0.03079700  0.54336200  0.17134300  1
  Se  Se10  1  0.54336200  0.03079700  0.17134300  1
  Se  Se11  1  0.96920300  0.45663800  0.82865700  1
  Se  Se12  1  0.45663800  0.96920300  0.82865700  1
