# generated using pymatgen
data_Y2(SO4)3
_symmetry_space_group_name_H-M   'P 1'
_cell_length_a   9.31809500
_cell_length_b   9.40740200
_cell_length_c   13.00896700
_cell_angle_alpha   90.00000000
_cell_angle_beta   90.00000000
_cell_angle_gamma   90.00000000
_symmetry_Int_Tables_number   1
_chemical_formula_structural   Y2(SO4)3
_chemical_formula_sum   'Y8 S12 O48'
_cell_volume   1140.35389085
_cell_formula_units_Z   4
loop_
 _symmetry_equiv_pos_site_id
 _symmetry_equiv_pos_as_xyz
  1  'x, y, z'
loop_
 _atom_site_type_symbol
 _atom_site_label
 _atom_site_symmetry_multiplicity
 _atom_site_fract_x
 _atom_site_fract_y
 _atom_site_fract_z
 _atom_site_occupancy
  Y  Y0  1  0.75052100  0.46394400  0.11670100  1
  Y  Y1  1  0.75052100  0.03605600  0.88329900  1
  Y  Y2  1  0.74947900  0.96394400  0.38329900  1
  Y  Y3  1  0.74947900  0.53605600  0.61670100  1
  Y  Y4  1  0.24947900  0.53605600  0.88329900  1
  Y  Y5  1  0.24947900  0.96394400  0.11670100  1
  Y  Y6  1  0.25052100  0.03605600  0.61670100  1
  Y  Y7  1  0.25052100  0.46394400  0.38329900  1
  S  S8  1  0.96603000  0.75000000  0.00000000  1
  S  S9  1  0.53397000  0.25000000  0.50000000  1
  S  S10  1  0.03397000  0.25000000  0.00000000  1
  S  S11  1  0.46603000  0.75000000  0.50000000  1
  S  S12  1  0.89212300  0.61025100  0.35442400  1
  S  S13  1  0.89212300  0.88974900  0.64557600  1
  S  S14  1  0.60787700  0.11025100  0.14557600  1
  S  S15  1  0.60787700  0.38974900  0.85442400  1
  S  S16  1  0.10787700  0.38974900  0.64557600  1
  S  S17  1  0.10787700  0.11025100  0.35442400  1
  S  S18  1  0.39212300  0.88974900  0.85442400  1
  S  S19  1  0.39212300  0.61025100  0.14557600  1
  O  O20  1  0.83499400  0.57214600  0.45695100  1
  O  O21  1  0.83499400  0.92785400  0.54304900  1
  O  O22  1  0.66500600  0.07214600  0.04304900  1
  O  O23  1  0.66500600  0.42785400  0.95695100  1
  O  O24  1  0.16500600  0.42785400  0.54304900  1
  O  O25  1  0.16500600  0.07214600  0.45695100  1
  O  O26  1  0.33499400  0.92785400  0.95695100  1
  O  O27  1  0.33499400  0.57214600  0.04304900  1
  O  O28  1  0.64216100  0.26070600  0.16918100  1
  O  O29  1  0.64216100  0.23929400  0.83081900  1
  O  O30  1  0.85783900  0.76070600  0.33081900  1
  O  O31  1  0.85783900  0.73929400  0.66918100  1
  O  O32  1  0.35783900  0.73929400  0.83081900  1
  O  O33  1  0.35783900  0.76070600  0.16918100  1
  O  O34  1  0.14216100  0.23929400  0.66918100  1
  O  O35  1  0.14216100  0.26070600  0.33081900  1
  O  O36  1  0.05709800  0.66938700  0.92700400  1
  O  O37  1  0.94290200  0.33061300  0.07299600  1
  O  O38  1  0.55709800  0.83061300  0.42700400  1
  O  O39  1  0.55709800  0.66938700  0.57299600  1
  O  O40  1  0.04995600  0.59165400  0.35296100  1
  O  O41  1  0.04995600  0.90834600  0.64703900  1
  O  O42  1  0.45004400  0.09165400  0.14703900  1
  O  O43  1  0.45004400  0.40834600  0.85296100  1
  O  O44  1  0.95004400  0.40834600  0.64703900  1
  O  O45  1  0.95004400  0.09165400  0.35296100  1
  O  O46  1  0.54995600  0.90834600  0.85296100  1
  O  O47  1  0.54995600  0.59165400  0.14703900  1
  O  O48  1  0.37385900  0.65154000  0.44093300  1
  O  O49  1  0.37385900  0.84846000  0.55906700  1
  O  O50  1  0.12614100  0.15154000  0.05906700  1
  O  O51  1  0.12614100  0.34846000  0.94093300  1
  O  O52  1  0.62614100  0.34846000  0.55906700  1
  O  O53  1  0.62614100  0.15154000  0.44093300  1
  O  O54  1  0.87385900  0.84846000  0.94093300  1
  O  O55  1  0.87385900  0.65154000  0.05906700  1
  O  O56  1  0.32615900  0.51598700  0.22375000  1
  O  O57  1  0.32615900  0.98401300  0.77625000  1
  O  O58  1  0.17384100  0.01598700  0.27625000  1
  O  O59  1  0.17384100  0.48401300  0.72375000  1
  O  O60  1  0.67384100  0.48401300  0.77625000  1
  O  O61  1  0.67384100  0.01598700  0.22375000  1
  O  O62  1  0.82615900  0.98401300  0.72375000  1
  O  O63  1  0.82615900  0.51598700  0.27625000  1
  O  O64  1  0.44290200  0.33061300  0.42700400  1
  O  O65  1  0.44290200  0.16938700  0.57299600  1
  O  O66  1  0.05709800  0.83061300  0.07299600  1
  O  O67  1  0.94290200  0.16938700  0.92700400  1
