# generated using pymatgen
data_Ba2SnSe4
_symmetry_space_group_name_H-M   'P 1'
_cell_length_a   9.44949300
_cell_length_b   8.69993000
_cell_length_c   12.60007976
_cell_angle_alpha   65.95754482
_cell_angle_beta   90.00000000
_cell_angle_gamma   90.00000000
_symmetry_Int_Tables_number   1
_chemical_formula_structural   Ba2SnSe4
_chemical_formula_sum   'Ba8 Sn4 Se16'
_cell_volume   945.98511576
_cell_formula_units_Z   4
loop_
 _symmetry_equiv_pos_site_id
 _symmetry_equiv_pos_as_xyz
  1  'x, y, z'
loop_
 _atom_site_type_symbol
 _atom_site_label
 _atom_site_symmetry_multiplicity
 _atom_site_fract_x
 _atom_site_fract_y
 _atom_site_fract_z
 _atom_site_occupancy
  Ba  Ba0  1  0.88431800  0.90756000  0.84273600  1
  Ba  Ba1  1  0.38431800  0.09244000  0.65726400  1
  Ba  Ba2  1  0.11568200  0.09244000  0.15726400  1
  Ba  Ba3  1  0.61568200  0.90756000  0.34273600  1
  Ba  Ba4  1  0.84754800  0.53373500  0.65893400  1
  Ba  Ba5  1  0.34754800  0.46626500  0.84106600  1
  Ba  Ba6  1  0.15245200  0.46626500  0.34106600  1
  Ba  Ba7  1  0.65245200  0.53373500  0.15893400  1
  Sn  Sn8  1  0.81299100  0.19484900  0.49337500  1
  Sn  Sn9  1  0.31299100  0.80515100  0.00662500  1
  Sn  Sn10  1  0.18700900  0.80515100  0.50662500  1
  Sn  Sn11  1  0.68700900  0.19484900  0.99337500  1
  Se  Se12  1  0.88251800  0.24020900  0.28614300  1
  Se  Se13  1  0.38251800  0.75979100  0.21385700  1
  Se  Se14  1  0.11748200  0.75979100  0.71385700  1
  Se  Se15  1  0.61748200  0.24020900  0.78614300  1
  Se  Se16  1  0.02116500  0.23789100  0.61027900  1
  Se  Se17  1  0.52116500  0.76210900  0.88972100  1
  Se  Se18  1  0.97883500  0.76210900  0.38972100  1
  Se  Se19  1  0.47883500  0.23789100  0.11027900  1
  Se  Se20  1  0.68925500  0.90928900  0.60695300  1
  Se  Se21  1  0.18925500  0.09071100  0.89304700  1
  Se  Se22  1  0.31074500  0.09071100  0.39304700  1
  Se  Se23  1  0.81074500  0.90928900  0.10695300  1
  Se  Se24  1  0.62748900  0.42317300  0.45786000  1
  Se  Se25  1  0.12748900  0.57682700  0.04214000  1
  Se  Se26  1  0.37251100  0.57682700  0.54214000  1
  Se  Se27  1  0.87251100  0.42317300  0.95786000  1
