# generated using pymatgen
data_Y6Al43W4
_symmetry_space_group_name_H-M   'P 1'
_cell_length_a   11.07069825
_cell_length_b   11.07069825
_cell_length_c   17.60941000
_cell_angle_alpha   90.00000000
_cell_angle_beta   90.00000000
_cell_angle_gamma   120.00000152
_symmetry_Int_Tables_number   1
_chemical_formula_structural   Y6Al43W4
_chemical_formula_sum   'Y12 Al86 W8'
_cell_volume   1869.06953059
_cell_formula_units_Z   2
loop_
 _symmetry_equiv_pos_site_id
 _symmetry_equiv_pos_as_xyz
  1  'x, y, z'
loop_
 _atom_site_type_symbol
 _atom_site_label
 _atom_site_symmetry_multiplicity
 _atom_site_fract_x
 _atom_site_fract_y
 _atom_site_fract_z
 _atom_site_occupancy
  Y  Y0  1  0.46870300  0.46870300  0.90429100  1
  Y  Y1  1  0.53129700  0.00000000  0.90429100  1
  Y  Y2  1  0.00000000  0.53129700  0.90429100  1
  Y  Y3  1  0.53129700  0.53129700  0.09570900  1
  Y  Y4  1  0.46870300  0.00000000  0.09570900  1
  Y  Y5  1  0.00000000  0.46870300  0.09570900  1
  Y  Y6  1  0.53129700  0.53129700  0.40429100  1
  Y  Y7  1  0.46870300  0.00000000  0.40429100  1
  Y  Y8  1  0.00000000  0.46870300  0.40429100  1
  Y  Y9  1  0.46870300  0.46870300  0.59570900  1
  Y  Y10  1  0.53129700  0.00000000  0.59570900  1
  Y  Y11  1  0.00000000  0.53129700  0.59570900  1
  Al  Al12  1  0.84181100  0.23655800  0.83638800  1
  Al  Al13  1  0.76344200  0.60525300  0.83638800  1
  Al  Al14  1  0.39474700  0.15818900  0.83638800  1
  Al  Al15  1  0.23655800  0.84181100  0.83638800  1
  Al  Al16  1  0.60525300  0.76344200  0.83638800  1
  Al  Al17  1  0.15818900  0.39474700  0.83638800  1
  Al  Al18  1  0.15818900  0.76344200  0.16361200  1
  Al  Al19  1  0.23655800  0.39474700  0.16361200  1
  Al  Al20  1  0.60525300  0.84181100  0.16361200  1
  Al  Al21  1  0.76344200  0.15818900  0.16361200  1
  Al  Al22  1  0.39474700  0.23655800  0.16361200  1
  Al  Al23  1  0.84181100  0.60525300  0.16361200  1
  Al  Al24  1  0.15818900  0.76344200  0.33638800  1
  Al  Al25  1  0.23655800  0.39474700  0.33638800  1
  Al  Al26  1  0.60525300  0.84181100  0.33638800  1
  Al  Al27  1  0.76344200  0.15818900  0.33638800  1
  Al  Al28  1  0.39474700  0.23655800  0.33638800  1
  Al  Al29  1  0.84181100  0.60525300  0.33638800  1
  Al  Al30  1  0.84181100  0.23655800  0.66361200  1
  Al  Al31  1  0.76344200  0.60525300  0.66361200  1
  Al  Al32  1  0.39474700  0.15818900  0.66361200  1
  Al  Al33  1  0.23655800  0.84181100  0.66361200  1
  Al  Al34  1  0.60525300  0.76344200  0.66361200  1
  Al  Al35  1  0.15818900  0.39474700  0.66361200  1
  Al  Al36  1  0.84052000  0.84052000  0.38540500  1
  Al  Al37  1  0.15948000  0.00000000  0.38540500  1
  Al  Al38  1  0.00000000  0.15948000  0.38540500  1
  Al  Al39  1  0.15948000  0.15948000  0.61459500  1
  Al  Al40  1  0.84052000  0.00000000  0.61459500  1
  Al  Al41  1  0.00000000  0.84052000  0.61459500  1
  Al  Al42  1  0.15948000  0.15948000  0.88540500  1
  Al  Al43  1  0.84052000  0.00000000  0.88540500  1
  Al  Al44  1  0.00000000  0.84052000  0.88540500  1
  Al  Al45  1  0.84052000  0.84052000  0.11459500  1
  Al  Al46  1  0.15948000  0.00000000  0.11459500  1
  Al  Al47  1  0.00000000  0.15948000  0.11459500  1
  Al  Al48  1  0.74584000  0.74584000  0.96956200  1
  Al  Al49  1  0.25416000  0.00000000  0.96956200  1
  Al  Al50  1  0.00000000  0.25416000  0.96956200  1
  Al  Al51  1  0.25416000  0.25416000  0.03043800  1
  Al  Al52  1  0.74584000  0.00000000  0.03043800  1
  Al  Al53  1  0.00000000  0.74584000  0.03043800  1
  Al  Al54  1  0.25416000  0.25416000  0.46956200  1
  Al  Al55  1  0.74584000  0.00000000  0.46956200  1
  Al  Al56  1  0.00000000  0.74584000  0.46956200  1
  Al  Al57  1  0.74584000  0.74584000  0.53043800  1
  Al  Al58  1  0.25416000  0.00000000  0.53043800  1
  Al  Al59  1  0.00000000  0.25416000  0.53043800  1
  Al  Al60  1  0.85288400  0.44846900  0.75000000  1
  Al  Al61  1  0.55153100  0.40441400  0.75000000  1
  Al  Al62  1  0.59558600  0.14711600  0.75000000  1
  Al  Al63  1  0.44846900  0.85288400  0.75000000  1
  Al  Al64  1  0.40441400  0.55153100  0.75000000  1
  Al  Al65  1  0.14711600  0.59558600  0.75000000  1
  Al  Al66  1  0.14711600  0.55153100  0.25000000  1
  Al  Al67  1  0.44846900  0.59558600  0.25000000  1
  Al  Al68  1  0.40441400  0.85288400  0.25000000  1
  Al  Al69  1  0.55153100  0.14711600  0.25000000  1
  Al  Al70  1  0.59558600  0.44846900  0.25000000  1
  Al  Al71  1  0.85288400  0.40441400  0.25000000  1
  Al  Al72  1  0.75299500  0.24700500  0.00000000  1
  Al  Al73  1  0.75299500  0.50598900  0.00000000  1
  Al  Al74  1  0.49401100  0.24700500  0.00000000  1
  Al  Al75  1  0.24700500  0.75299500  0.00000000  1
  Al  Al76  1  0.50598900  0.75299500  0.00000000  1
  Al  Al77  1  0.24700500  0.49401100  0.00000000  1
  Al  Al78  1  0.24700500  0.75299500  0.50000000  1
  Al  Al79  1  0.24700500  0.49401100  0.50000000  1
  Al  Al80  1  0.50598900  0.75299500  0.50000000  1
  Al  Al81  1  0.75299500  0.24700500  0.50000000  1
  Al  Al82  1  0.49401100  0.24700500  0.50000000  1
  Al  Al83  1  0.75299500  0.50598900  0.50000000  1
  Al  Al84  1  0.66666700  0.33333300  0.87390300  1
  Al  Al85  1  0.33333300  0.66666700  0.87390300  1
  Al  Al86  1  0.33333300  0.66666700  0.12609700  1
  Al  Al87  1  0.66666700  0.33333300  0.12609700  1
  Al  Al88  1  0.33333300  0.66666700  0.37390300  1
  Al  Al89  1  0.66666700  0.33333300  0.37390300  1
  Al  Al90  1  0.66666700  0.33333300  0.62609700  1
  Al  Al91  1  0.33333300  0.66666700  0.62609700  1
  Al  Al92  1  0.85235600  0.85235600  0.75000000  1
  Al  Al93  1  0.14764400  0.00000000  0.75000000  1
  Al  Al94  1  0.00000000  0.14764400  0.75000000  1
  Al  Al95  1  0.14764400  0.14764400  0.25000000  1
  Al  Al96  1  0.85235600  0.00000000  0.25000000  1
  Al  Al97  1  0.00000000  0.85235600  0.25000000  1
  W  W98  1  0.27097100  0.27097100  0.75000000  1
  W  W99  1  0.72902900  0.00000000  0.75000000  1
  W  W100  1  0.00000000  0.72902900  0.75000000  1
  W  W101  1  0.72902900  0.72902900  0.25000000  1
  W  W102  1  0.27097100  0.00000000  0.25000000  1
  W  W103  1  0.00000000  0.27097100  0.25000000  1
  W  W104  1  0.00000000  0.00000000  0.00000000  1
  W  W105  1  0.00000000  0.00000000  0.50000000  1
