# generated using pymatgen
data_Ba17SrSm12Cl68
_symmetry_space_group_name_H-M   'P 1'
_cell_length_a   11.31383100
_cell_length_b   11.31383100
_cell_length_c   21.64728600
_cell_angle_alpha   90.00000000
_cell_angle_beta   90.00000000
_cell_angle_gamma   90.00000000
_symmetry_Int_Tables_number   1
_chemical_formula_structural   Ba17SrSm12Cl68
_chemical_formula_sum   'Ba17 Sr1 Sm12 Cl68'
_cell_volume   2770.91261204
_cell_formula_units_Z   1
loop_
 _symmetry_equiv_pos_site_id
 _symmetry_equiv_pos_as_xyz
  1  'x, y, z'
loop_
 _atom_site_type_symbol
 _atom_site_label
 _atom_site_symmetry_multiplicity
 _atom_site_fract_x
 _atom_site_fract_y
 _atom_site_fract_z
 _atom_site_occupancy
  Ba  Ba0  1  0.50000000  0.50000000  0.50000000  1
  Ba  Ba1  1  0.36318700  0.81697200  0.34217700  1
  Ba  Ba2  1  0.86366800  0.31566500  0.84287900  1
  Ba  Ba3  1  0.63681300  0.18302800  0.34217700  1
  Ba  Ba4  1  0.13633200  0.68433500  0.84287900  1
  Ba  Ba5  1  0.81697200  0.63681300  0.34217700  1
  Ba  Ba6  1  0.31566500  0.13633200  0.84287900  1
  Ba  Ba7  1  0.18302800  0.36318700  0.34217700  1
  Ba  Ba8  1  0.68433500  0.86366800  0.84287900  1
  Ba  Ba9  1  0.13633200  0.68433500  0.15712100  1
  Ba  Ba10  1  0.63681300  0.18302800  0.65782300  1
  Ba  Ba11  1  0.86366800  0.31566500  0.15712100  1
  Ba  Ba12  1  0.36318700  0.81697200  0.65782300  1
  Ba  Ba13  1  0.68433500  0.86366800  0.15712100  1
  Ba  Ba14  1  0.18302800  0.36318700  0.65782300  1
  Ba  Ba15  1  0.31566500  0.13633200  0.15712100  1
  Ba  Ba16  1  0.81697200  0.63681300  0.65782300  1
  Sr  Sr17  1  0.00000000  0.00000000  0.00000000  1
  Sm  Sm18  1  0.89308300  0.32023300  0.50000000  1
  Sm  Sm19  1  0.39095000  0.82096500  0.00000000  1
  Sm  Sm20  1  0.60905000  0.17903500  0.00000000  1
  Sm  Sm21  1  0.10691700  0.67976700  0.50000000  1
  Sm  Sm22  1  0.32023300  0.10691700  0.50000000  1
  Sm  Sm23  1  0.82096500  0.60905000  0.00000000  1
  Sm  Sm24  1  0.17903500  0.39095000  0.00000000  1
  Sm  Sm25  1  0.67976700  0.89308300  0.50000000  1
  Sm  Sm26  1  0.50000000  0.50000000  0.18627700  1
  Sm  Sm27  1  0.00000000  0.00000000  0.68630700  1
  Sm  Sm28  1  0.00000000  0.00000000  0.31369300  1
  Sm  Sm29  1  0.50000000  0.50000000  0.81372300  1
  Cl  Cl30  1  0.72444600  0.13922700  0.50000000  1
  Cl  Cl31  1  0.22468100  0.63849300  0.00000000  1
  Cl  Cl32  1  0.77531900  0.36150700  0.00000000  1
  Cl  Cl33  1  0.27555400  0.86077300  0.50000000  1
  Cl  Cl34  1  0.13922700  0.27555400  0.50000000  1
  Cl  Cl35  1  0.63849300  0.77531900  0.00000000  1
  Cl  Cl36  1  0.36150700  0.22468100  0.00000000  1
  Cl  Cl37  1  0.86077300  0.72444600  0.50000000  1
  Cl  Cl38  1  0.41179800  0.30864500  0.25915900  1
  Cl  Cl39  1  0.91186900  0.80862900  0.75966900  1
  Cl  Cl40  1  0.58820200  0.69135500  0.25915900  1
  Cl  Cl41  1  0.08813100  0.19137100  0.75966900  1
  Cl  Cl42  1  0.30864500  0.58820200  0.25915900  1
  Cl  Cl43  1  0.80862900  0.08813100  0.75966900  1
  Cl  Cl44  1  0.69135500  0.41179800  0.25915900  1
  Cl  Cl45  1  0.19137100  0.91186900  0.75966900  1
  Cl  Cl46  1  0.08813100  0.19137100  0.24033100  1
  Cl  Cl47  1  0.58820200  0.69135500  0.74084100  1
  Cl  Cl48  1  0.91186900  0.80862900  0.24033100  1
  Cl  Cl49  1  0.41179800  0.30864500  0.74084100  1
  Cl  Cl50  1  0.19137100  0.91186900  0.24033100  1
  Cl  Cl51  1  0.69135500  0.41179800  0.74084100  1
  Cl  Cl52  1  0.80862900  0.08813100  0.24033100  1
  Cl  Cl53  1  0.30864500  0.58820200  0.74084100  1
  Cl  Cl54  1  0.50000000  0.00000000  0.07547900  1
  Cl  Cl55  1  0.00000000  0.50000000  0.57550000  1
  Cl  Cl56  1  0.00000000  0.50000000  0.07547900  1
  Cl  Cl57  1  0.50000000  0.00000000  0.57550000  1
  Cl  Cl58  1  0.00000000  0.50000000  0.42450000  1
  Cl  Cl59  1  0.50000000  0.00000000  0.92452100  1
  Cl  Cl60  1  0.50000000  0.00000000  0.42450000  1
  Cl  Cl61  1  0.00000000  0.50000000  0.92452100  1
  Cl  Cl62  1  0.42792100  0.71019100  0.12074500  1
  Cl  Cl63  1  0.92887100  0.20921500  0.62121100  1
  Cl  Cl64  1  0.57207900  0.28980900  0.12074500  1
  Cl  Cl65  1  0.07112900  0.79078500  0.62121100  1
  Cl  Cl66  1  0.71019100  0.57207900  0.12074500  1
  Cl  Cl67  1  0.20921500  0.07112900  0.62121100  1
  Cl  Cl68  1  0.28980900  0.42792100  0.12074500  1
  Cl  Cl69  1  0.79078500  0.92887100  0.62121100  1
  Cl  Cl70  1  0.07112900  0.79078500  0.37878900  1
  Cl  Cl71  1  0.57207900  0.28980900  0.87925500  1
  Cl  Cl72  1  0.92887100  0.20921500  0.37878900  1
  Cl  Cl73  1  0.42792100  0.71019100  0.87925500  1
  Cl  Cl74  1  0.79078500  0.92887100  0.37878900  1
  Cl  Cl75  1  0.28980900  0.42792100  0.87925500  1
  Cl  Cl76  1  0.20921500  0.07112900  0.37878900  1
  Cl  Cl77  1  0.71019100  0.57207900  0.87925500  1
  Cl  Cl78  1  0.50000000  0.00000000  0.24980500  1
  Cl  Cl79  1  0.00000000  0.50000000  0.75019500  1
  Cl  Cl80  1  0.00000000  0.50000000  0.24980500  1
  Cl  Cl81  1  0.50000000  0.00000000  0.75019500  1
  Cl  Cl82  1  0.41175500  0.28519900  0.41968400  1
  Cl  Cl83  1  0.91471100  0.79188200  0.92232300  1
  Cl  Cl84  1  0.58824500  0.71480100  0.41968400  1
  Cl  Cl85  1  0.08528900  0.20811800  0.92232300  1
  Cl  Cl86  1  0.28519900  0.58824500  0.41968400  1
  Cl  Cl87  1  0.79188200  0.08528900  0.92232300  1
  Cl  Cl88  1  0.71480100  0.41175500  0.41968400  1
  Cl  Cl89  1  0.20811800  0.91471100  0.92232300  1
  Cl  Cl90  1  0.08528900  0.20811800  0.07767700  1
  Cl  Cl91  1  0.58824500  0.71480100  0.58031600  1
  Cl  Cl92  1  0.91471100  0.79188200  0.07767700  1
  Cl  Cl93  1  0.41175500  0.28519900  0.58031600  1
  Cl  Cl94  1  0.20811800  0.91471100  0.07767700  1
  Cl  Cl95  1  0.71480100  0.41175500  0.58031600  1
  Cl  Cl96  1  0.79188200  0.08528900  0.07767700  1
  Cl  Cl97  1  0.28519900  0.58824500  0.58031600  1
