# generated using pymatgen
data_CdH20N6OF2
_symmetry_space_group_name_H-M   'P 1'
_cell_length_a   7.07496575
_cell_length_b   7.07519220
_cell_length_c   18.18449201
_cell_angle_alpha   90.00294675
_cell_angle_beta   90.00001295
_cell_angle_gamma   119.99894311
_symmetry_Int_Tables_number   1
_chemical_formula_structural   CdH20N6OF2
_chemical_formula_sum   'Cd3 H60 N18 O3 F6'
_cell_volume   788.31359008
_cell_formula_units_Z   3
loop_
 _symmetry_equiv_pos_site_id
 _symmetry_equiv_pos_as_xyz
  1  'x, y, z'
loop_
 _atom_site_type_symbol
 _atom_site_label
 _atom_site_symmetry_multiplicity
 _atom_site_fract_x
 _atom_site_fract_y
 _atom_site_fract_z
 _atom_site_occupancy
  Cd  Cd0  1  0.53498000  0.99999900  0.50000000  1
  Cd  Cd1  1  0.99996300  0.53511400  0.83330600  1
  Cd  Cd2  1  0.46485200  0.46488700  0.16670300  1
  H  H3  1  0.13031400  0.81377000  0.40663700  1
  H  H4  1  0.18625600  0.31657600  0.73996700  1
  H  H5  1  0.68343600  0.86969900  0.07329700  1
  H  H6  1  0.86968600  0.68342800  0.26003600  1
  H  H7  1  0.31654200  0.18623300  0.59336600  1
  H  H8  1  0.81373500  0.13029600  0.92670500  1
  H  H9  1  0.06514300  0.71131200  0.49210000  1
  H  H10  1  0.28869800  0.35383800  0.82543400  1
  H  H11  1  0.64617400  0.93482800  0.15876500  1
  H  H12  1  0.93486400  0.64616600  0.17456800  1
  H  H13  1  0.35382900  0.28868800  0.50790300  1
  H  H14  1  0.71134400  0.06516800  0.84123800  1
  H  H15  1  0.18047100  0.61572000  0.43297100  1
  H  H16  1  0.38431000  0.56475500  0.76630300  1
  H  H17  1  0.43524000  0.81954800  0.09964200  1
  H  H18  1  0.81955700  0.43524800  0.23369900  1
  H  H19  1  0.56475000  0.38428100  0.56703100  1
  H  H20  1  0.61569100  0.18044800  0.90036000  1
  H  H21  1  0.76163400  0.82915300  0.41370800  1
  H  H22  1  0.17082600  0.93244500  0.74703800  1
  H  H23  1  0.06754400  0.23838100  0.08037600  1
  H  H24  1  0.23838100  0.06755500  0.25296500  1
  H  H25  1  0.93248100  0.17084900  0.58629500  1
  H  H26  1  0.82916500  0.76162100  0.91962700  1
  H  H27  1  0.73472800  0.72778200  0.49770100  1
  H  H28  1  0.27219200  0.00692700  0.83103500  1
  H  H29  1  0.99305900  0.26526200  0.16437600  1
  H  H30  1  0.26526700  0.99307700  0.16896800  1
  H  H31  1  0.00694600  0.27221800  0.50230000  1
  H  H32  1  0.72779800  0.73473600  0.83562600  1
  H  H33  1  0.52087600  0.61482800  0.44006700  1
  H  H34  1  0.38521000  0.90606700  0.77340500  1
  H  H35  1  0.09394600  0.47913600  0.10675000  1
  H  H36  1  0.47914200  0.09393300  0.22659700  1
  H  H37  1  0.90604800  0.38517200  0.55993500  1
  H  H38  1  0.61480900  0.52086200  0.89325300  1
  H  H39  1  0.75507400  0.37669500  0.40524200  1
  H  H40  1  0.62329200  0.37837300  0.73858500  1
  H  H41  1  0.62160700  0.24490600  0.07191500  1
  H  H42  1  0.24492200  0.62162800  0.26141700  1
  H  H43  1  0.37838000  0.62330800  0.59476000  1
  H  H44  1  0.37670300  0.75509500  0.92808800  1
  H  H45  1  0.65004800  0.17841800  0.34351400  1
  H  H46  1  0.82156100  0.47162100  0.67684000  1
  H  H47  1  0.52838200  0.34995100  0.01017700  1
  H  H48  1  0.34994000  0.52838000  0.32316400  1
  H  H49  1  0.47162900  0.82158200  0.65649000  1
  H  H50  1  0.17843300  0.65005000  0.98982700  1
  H  H51  1  0.49271500  0.26217600  0.38567200  1
  H  H52  1  0.73783500  0.23055600  0.71901400  1
  H  H53  1  0.76945100  0.50726700  0.05234800  1
  H  H54  1  0.50728200  0.76944800  0.28098900  1
  H  H55  1  0.23053800  0.73782500  0.61433100  1
  H  H56  1  0.26218600  0.49273500  0.94765600  1
  H  H57  1  0.09076500  0.15043700  0.36465400  1
  H  H58  1  0.84959900  0.94034800  0.69802200  1
  H  H59  1  0.05970100  0.90922200  0.03134100  1
  H  H60  1  0.90924500  0.05965000  0.30197800  1
  H  H61  1  0.94032500  0.84955800  0.63534400  1
  H  H62  1  0.15048500  0.09078100  0.96865900  1
  N  N63  1  0.17555100  0.75174800  0.44973000  1
  N  N64  1  0.24825400  0.42380100  0.78305900  1
  N  N65  1  0.57621200  0.82443900  0.11640200  1
  N  N66  1  0.82445600  0.57620000  0.21694600  1
  N  N67  1  0.42380100  0.24825400  0.55027100  1
  N  N68  1  0.75177100  0.17555700  0.88360200  1
  N  N69  1  0.65481400  0.75953500  0.45686900  1
  N  N70  1  0.24046700  0.89529100  0.79020500  1
  N  N71  1  0.10471000  0.34518000  0.12353000  1
  N  N72  1  0.34517500  0.10470900  0.20979800  1
  N  N73  1  0.89527900  0.24046700  0.54313400  1
  N  N74  1  0.75953000  0.65482100  0.87647300  1
  N  N75  1  0.61916600  0.23190000  0.39235400  1
  N  N76  1  0.76809500  0.38725400  0.72568200  1
  N  N77  1  0.61270900  0.38082600  0.05901200  1
  N  N78  1  0.38084300  0.61274800  0.27432100  1
  N  N79  1  0.38726600  0.76810100  0.60764800  1
  N  N80  1  0.23188600  0.61917400  0.94099100  1
  O  O81  1  0.00006700  0.01849200  0.33330700  1
  O  O82  1  0.98157000  0.98150800  0.66669500  1
  O  O83  1  0.01851400  0.99999700  0.00000100  1
  F  F84  1  0.89167300  0.63612800  0.58352000  1
  F  F85  1  0.36366900  0.25536900  0.91672500  1
  F  F86  1  0.74447400  0.10825100  0.25012700  1
  F  F87  1  0.10829400  0.74461900  0.08327000  1
  F  F88  1  0.25555400  0.36387800  0.41647700  1
  F  F89  1  0.63621700  0.89174200  0.74987300  1
