# generated using pymatgen
data_Sc3P
_symmetry_space_group_name_H-M   'P 1'
_cell_length_a   5.76664500
_cell_length_b   6.79824100
_cell_length_c   8.40918400
_cell_angle_alpha   90.00000000
_cell_angle_beta   90.00000000
_cell_angle_gamma   90.00000000
_symmetry_Int_Tables_number   1
_chemical_formula_structural   Sc3P
_chemical_formula_sum   'Sc12 P4'
_cell_volume   329.66559750
_cell_formula_units_Z   4
loop_
 _symmetry_equiv_pos_site_id
 _symmetry_equiv_pos_as_xyz
  1  'x, y, z'
loop_
 _atom_site_type_symbol
 _atom_site_label
 _atom_site_symmetry_multiplicity
 _atom_site_fract_x
 _atom_site_fract_y
 _atom_site_fract_z
 _atom_site_occupancy
  Sc  Sc0  1  0.35504600  0.67909900  0.05057100  1
  Sc  Sc1  1  0.14495400  0.17909900  0.44942900  1
  Sc  Sc2  1  0.64495400  0.32090100  0.55057100  1
  Sc  Sc3  1  0.85504600  0.82090100  0.94942900  1
  Sc  Sc4  1  0.64495400  0.32090100  0.94942900  1
  Sc  Sc5  1  0.85504600  0.82090100  0.55057100  1
  Sc  Sc6  1  0.35504600  0.67909900  0.44942900  1
  Sc  Sc7  1  0.14495400  0.17909900  0.05057100  1
  Sc  Sc8  1  0.85997300  0.52693900  0.25000000  1
  Sc  Sc9  1  0.64002700  0.02693900  0.25000000  1
  Sc  Sc10  1  0.14002700  0.47306100  0.75000000  1
  Sc  Sc11  1  0.35997300  0.97306100  0.75000000  1
  P  P12  1  0.07263700  0.87565000  0.25000000  1
  P  P13  1  0.42736300  0.37565000  0.25000000  1
  P  P14  1  0.92736300  0.12435000  0.75000000  1
  P  P15  1  0.57263700  0.62435000  0.75000000  1
