# generated using pymatgen
data_OsSeS3Cl4
_symmetry_space_group_name_H-M   'P 1'
_cell_length_a   9.31596500
_cell_length_b   9.56841200
_cell_length_c   11.87890779
_cell_angle_alpha   74.18387321
_cell_angle_beta   90.00000000
_cell_angle_gamma   90.00000000
_symmetry_Int_Tables_number   1
_chemical_formula_structural   OsSeS3Cl4
_chemical_formula_sum   'Os4 Se4 S12 Cl16'
_cell_volume   1018.78628967
_cell_formula_units_Z   4
loop_
 _symmetry_equiv_pos_site_id
 _symmetry_equiv_pos_as_xyz
  1  'x, y, z'
loop_
 _atom_site_type_symbol
 _atom_site_label
 _atom_site_symmetry_multiplicity
 _atom_site_fract_x
 _atom_site_fract_y
 _atom_site_fract_z
 _atom_site_occupancy
  Os  Os0  1  0.80217800  0.04768300  0.77486900  1
  Os  Os1  1  0.30217800  0.95231700  0.22513100  1
  Os  Os2  1  0.67070800  0.31066600  0.70927200  1
  Os  Os3  1  0.17070800  0.68933400  0.29072800  1
  Se  Se4  1  0.79722200  0.50410000  0.78590700  1
  Se  Se5  1  0.29722200  0.49590000  0.21409300  1
  Se  Se6  1  0.39304000  0.01308800  0.86663500  1
  Se  Se7  1  0.89304000  0.98691200  0.13336500  1
  S  S8  1  0.97883200  0.15141500  0.21919900  1
  S  S9  1  0.47883200  0.84858500  0.78080100  1
  S  S10  1  0.32093700  0.16629400  0.69548100  1
  S  S11  1  0.82093700  0.83370600  0.30451900  1
  S  S12  1  0.50561600  0.22440000  0.60443400  1
  S  S13  1  0.00561600  0.77560000  0.39556600  1
  S  S14  1  0.86247400  0.23971900  0.62007700  1
  S  S15  1  0.36247400  0.76028100  0.37992300  1
  S  S16  1  0.64137900  0.95280600  0.67593500  1
  S  S17  1  0.14137900  0.04719400  0.32406500  1
  S  S18  1  0.64023900  0.13720100  0.87687200  1
  S  S19  1  0.14023900  0.86279900  0.12312800  1
  Cl  Cl20  1  0.48350200  0.07797900  0.30645000  1
  Cl  Cl21  1  0.98350200  0.92202100  0.69355000  1
  Cl  Cl22  1  0.00199800  0.12274600  0.87799300  1
  Cl  Cl23  1  0.50199800  0.87725400  0.12200700  1
  Cl  Cl24  1  0.81045000  0.20544900  0.45905100  1
  Cl  Cl25  1  0.31045000  0.79455100  0.54094900  1
  Cl  Cl26  1  0.81250200  0.42046200  0.97844200  1
  Cl  Cl27  1  0.31250200  0.57953800  0.02155800  1
  Cl  Cl28  1  0.49755800  0.45004800  0.78571200  1
  Cl  Cl29  1  0.99755800  0.54995200  0.21428800  1
  Cl  Cl30  1  0.02631000  0.51214300  0.74118200  1
  Cl  Cl31  1  0.52631000  0.48785700  0.25881800  1
  Cl  Cl32  1  0.69577300  0.54204200  0.55752200  1
  Cl  Cl33  1  0.19577300  0.45795800  0.44247800  1
  Cl  Cl34  1  0.80228100  0.83014500  0.93442900  1
  Cl  Cl35  1  0.30228100  0.16985500  0.06557100  1
