# generated using pymatgen
data_TmSiPd2
_symmetry_space_group_name_H-M   'P 1'
_cell_length_a   5.50889100
_cell_length_b   6.98463500
_cell_length_c   7.28515700
_cell_angle_alpha   90.00000000
_cell_angle_beta   90.00000000
_cell_angle_gamma   90.00000000
_symmetry_Int_Tables_number   1
_chemical_formula_structural   TmSiPd2
_chemical_formula_sum   'Tm4 Si4 Pd8'
_cell_volume   280.31530518
_cell_formula_units_Z   4
loop_
 _symmetry_equiv_pos_site_id
 _symmetry_equiv_pos_as_xyz
  1  'x, y, z'
loop_
 _atom_site_type_symbol
 _atom_site_label
 _atom_site_symmetry_multiplicity
 _atom_site_fract_x
 _atom_site_fract_y
 _atom_site_fract_z
 _atom_site_occupancy
  Tm  Tm0  1  0.35667800  0.75000000  0.02790600  1
  Tm  Tm1  1  0.14332200  0.75000000  0.52790600  1
  Tm  Tm2  1  0.64332200  0.25000000  0.97209400  1
  Tm  Tm3  1  0.85667800  0.25000000  0.47209400  1
  Si  Si4  1  0.64298800  0.75000000  0.37804700  1
  Si  Si5  1  0.85701200  0.75000000  0.87804700  1
  Si  Si6  1  0.35701200  0.25000000  0.62195300  1
  Si  Si7  1  0.14298800  0.25000000  0.12195300  1
  Pd  Pd8  1  0.90601900  0.55033100  0.17864200  1
  Pd  Pd9  1  0.59398100  0.94966900  0.67864200  1
  Pd  Pd10  1  0.09398100  0.05033100  0.82135800  1
  Pd  Pd11  1  0.40601900  0.44966900  0.32135800  1
  Pd  Pd12  1  0.09398100  0.44966900  0.82135800  1
  Pd  Pd13  1  0.40601900  0.05033100  0.32135800  1
  Pd  Pd14  1  0.90601900  0.94966900  0.17864200  1
  Pd  Pd15  1  0.59398100  0.55033100  0.67864200  1
