# generated using pymatgen
data_Sr2CaMoO6
_symmetry_space_group_name_H-M   'P 1'
_cell_length_a   5.95549100
_cell_length_b   5.80884900
_cell_length_c   10.09765912
_cell_angle_alpha   55.05620848
_cell_angle_beta   90.00000000
_cell_angle_gamma   90.00000000
_symmetry_Int_Tables_number   1
_chemical_formula_structural   Sr2CaMoO6
_chemical_formula_sum   'Sr4 Ca2 Mo2 O12'
_cell_volume   286.34585383
_cell_formula_units_Z   2
loop_
 _symmetry_equiv_pos_site_id
 _symmetry_equiv_pos_as_xyz
  1  'x, y, z'
loop_
 _atom_site_type_symbol
 _atom_site_label
 _atom_site_symmetry_multiplicity
 _atom_site_fract_x
 _atom_site_fract_y
 _atom_site_fract_z
 _atom_site_occupancy
  Sr  Sr0  1  0.54565600  0.74133900  0.74818700  1
  Sr  Sr1  1  0.04565600  0.25866100  0.75181300  1
  Sr  Sr2  1  0.95434400  0.74133900  0.24818700  1
  Sr  Sr3  1  0.45434400  0.25866100  0.25181300  1
  Ca  Ca4  1  0.00000000  0.00000000  0.50000000  1
  Ca  Ca5  1  0.50000000  0.00000000  0.00000000  1
  Mo  Mo6  1  0.00000000  0.50000000  0.00000000  1
  Mo  Mo7  1  0.50000000  0.50000000  0.50000000  1
  O  O8  1  0.53014100  0.81304000  0.27278800  1
  O  O9  1  0.03014100  0.18696000  0.22721200  1
  O  O10  1  0.46985900  0.18696000  0.72721200  1
  O  O11  1  0.96985900  0.81304000  0.77278800  1
  O  O12  1  0.76906500  0.63223300  0.55022600  1
  O  O13  1  0.26906500  0.36776700  0.94977400  1
  O  O14  1  0.23093500  0.36776700  0.44977400  1
  O  O15  1  0.73093500  0.63223300  0.05022600  1
  O  O16  1  0.18660900  0.72960800  0.04111500  1
  O  O17  1  0.68660900  0.27039200  0.45888500  1
  O  O18  1  0.81339100  0.27039200  0.95888500  1
  O  O19  1  0.31339100  0.72960800  0.54111500  1
