# generated using pymatgen
data_BaLa2Sc2O7
_symmetry_space_group_name_H-M   'P 1'
_cell_length_a   5.89305200
_cell_length_b   5.89305200
_cell_length_c   20.80108900
_cell_angle_alpha   90.00000000
_cell_angle_beta   90.00000000
_cell_angle_gamma   90.00000000
_symmetry_Int_Tables_number   1
_chemical_formula_structural   BaLa2Sc2O7
_chemical_formula_sum   'Ba4 La8 Sc8 O28'
_cell_volume   722.38150585
_cell_formula_units_Z   4
loop_
 _symmetry_equiv_pos_site_id
 _symmetry_equiv_pos_as_xyz
  1  'x, y, z'
loop_
 _atom_site_type_symbol
 _atom_site_label
 _atom_site_symmetry_multiplicity
 _atom_site_fract_x
 _atom_site_fract_y
 _atom_site_fract_z
 _atom_site_occupancy
  Ba  Ba0  1  0.24076900  0.75923100  0.50000000  1
  Ba  Ba1  1  0.75923100  0.24076900  0.50000000  1
  Ba  Ba2  1  0.25923100  0.25923100  0.00000000  1
  Ba  Ba3  1  0.74076900  0.74076900  0.00000000  1
  La  La4  1  0.22679900  0.77320100  0.31620600  1
  La  La5  1  0.77320100  0.22679900  0.31620600  1
  La  La6  1  0.27320100  0.27320100  0.81620600  1
  La  La7  1  0.72679900  0.72679900  0.81620600  1
  La  La8  1  0.77320100  0.22679900  0.68379400  1
  La  La9  1  0.22679900  0.77320100  0.68379400  1
  La  La10  1  0.72679900  0.72679900  0.18379400  1
  La  La11  1  0.27320100  0.27320100  0.18379400  1
  Sc  Sc12  1  0.24280900  0.75719100  0.09953600  1
  Sc  Sc13  1  0.75719100  0.24280900  0.09953600  1
  Sc  Sc14  1  0.25719100  0.25719100  0.59953600  1
  Sc  Sc15  1  0.74280900  0.74280900  0.59953600  1
  Sc  Sc16  1  0.75719100  0.24280900  0.90046400  1
  Sc  Sc17  1  0.24280900  0.75719100  0.90046400  1
  Sc  Sc18  1  0.74280900  0.74280900  0.40046400  1
  Sc  Sc19  1  0.25719100  0.25719100  0.40046400  1
  O  O20  1  0.28333800  0.28333800  0.50000000  1
  O  O21  1  0.71666200  0.71666200  0.50000000  1
  O  O22  1  0.21666200  0.78333800  0.00000000  1
  O  O23  1  0.78333800  0.21666200  0.00000000  1
  O  O24  1  0.30741900  0.69258100  0.20848600  1
  O  O25  1  0.69258100  0.30741900  0.20848600  1
  O  O26  1  0.19258100  0.19258100  0.70848600  1
  O  O27  1  0.80741900  0.80741900  0.70848600  1
  O  O28  1  0.69258100  0.30741900  0.79151400  1
  O  O29  1  0.30741900  0.69258100  0.79151400  1
  O  O30  1  0.80741900  0.80741900  0.29151400  1
  O  O31  1  0.19258100  0.19258100  0.29151400  1
  O  O32  1  0.00000000  0.50000000  0.38965800  1
  O  O33  1  0.50000000  0.00000000  0.88965800  1
  O  O34  1  0.00000000  0.50000000  0.61034200  1
  O  O35  1  0.50000000  0.00000000  0.11034200  1
  O  O36  1  0.50000000  0.00000000  0.38965800  1
  O  O37  1  0.00000000  0.50000000  0.88965800  1
  O  O38  1  0.50000000  0.00000000  0.61034200  1
  O  O39  1  0.00000000  0.50000000  0.11034200  1
  O  O40  1  0.50000000  0.50000000  0.37412100  1
  O  O41  1  0.00000000  0.00000000  0.87412100  1
  O  O42  1  0.50000000  0.50000000  0.62587900  1
  O  O43  1  0.00000000  0.00000000  0.12587900  1
  O  O44  1  0.50000000  0.50000000  0.09463800  1
  O  O45  1  0.00000000  0.00000000  0.59463800  1
  O  O46  1  0.50000000  0.50000000  0.90536200  1
  O  O47  1  0.00000000  0.00000000  0.40536200  1
