# generated using pymatgen
data_TmUTe4
_symmetry_space_group_name_H-M   'P 1'
_cell_length_a   7.96129142
_cell_length_b   7.96129142
_cell_length_c   7.96129142
_cell_angle_alpha   149.48718670
_cell_angle_beta   134.97102569
_cell_angle_gamma   55.37069044
_symmetry_Int_Tables_number   1
_chemical_formula_structural   TmUTe4
_chemical_formula_sum   'Tm1 U1 Te4'
_cell_volume   180.09236135
_cell_formula_units_Z   1
loop_
 _symmetry_equiv_pos_site_id
 _symmetry_equiv_pos_as_xyz
  1  'x, y, z'
loop_
 _atom_site_type_symbol
 _atom_site_label
 _atom_site_symmetry_multiplicity
 _atom_site_fract_x
 _atom_site_fract_y
 _atom_site_fract_z
 _atom_site_occupancy
  Tm  Tm0  1  0.13889300  0.13889300  0.00000000  1
  U  U1  1  0.86350500  0.86350500  0.00000000  1
  Te  Te2  1  0.70440600  0.20440600  0.50000000  1
  Te  Te3  1  0.29523700  0.79523700  0.50000000  1
  Te  Te4  1  0.75113300  0.49898000  0.25215300  1
  Te  Te5  1  0.24682700  0.49898000  0.74784700  1
