# generated using pymatgen
data_Sr2DyMoO6
_symmetry_space_group_name_H-M   'P 1'
_cell_length_a   5.84015400
_cell_length_b   5.88528800
_cell_length_c   10.15180760
_cell_angle_alpha   90.00000000
_cell_angle_beta   124.58057451
_cell_angle_gamma   90.00000000
_symmetry_Int_Tables_number   1
_chemical_formula_structural   Sr2DyMoO6
_chemical_formula_sum   'Sr4 Dy2 Mo2 O12'
_cell_volume   287.28220622
_cell_formula_units_Z   2
loop_
 _symmetry_equiv_pos_site_id
 _symmetry_equiv_pos_as_xyz
  1  'x, y, z'
loop_
 _atom_site_type_symbol
 _atom_site_label
 _atom_site_symmetry_multiplicity
 _atom_site_fract_x
 _atom_site_fract_y
 _atom_site_fract_z
 _atom_site_occupancy
  Sr  Sr0  1  0.24467700  0.46535900  0.74800400  1
  Sr  Sr1  1  0.24467700  0.03464100  0.24800400  1
  Sr  Sr2  1  0.75532300  0.53464100  0.25199600  1
  Sr  Sr3  1  0.75532300  0.96535900  0.75199600  1
  Dy  Dy4  1  0.50000000  0.50000000  0.50000000  1
  Dy  Dy5  1  0.50000000  0.00000000  0.00000000  1
  Mo  Mo6  1  0.00000000  0.00000000  0.50000000  1
  Mo  Mo7  1  0.00000000  0.50000000  0.00000000  1
  O  O8  1  0.76335700  0.18958800  0.53539400  1
  O  O9  1  0.76335700  0.31041200  0.03539400  1
  O  O10  1  0.23664300  0.81041200  0.46460600  1
  O  O11  1  0.23664300  0.68958800  0.96460600  1
  O  O12  1  0.15384000  0.21840300  0.95964100  1
  O  O13  1  0.15384000  0.28159700  0.45964100  1
  O  O14  1  0.84616000  0.78159700  0.04035900  1
  O  O15  1  0.84616000  0.71840300  0.54035900  1
  O  O16  1  0.31193900  0.01695500  0.73694200  1
  O  O17  1  0.31193900  0.48304500  0.23694200  1
  O  O18  1  0.68806100  0.98304500  0.26305800  1
  O  O19  1  0.68806100  0.51695500  0.76305800  1
