# generated using pymatgen
data_Sr6Sn12Pt11
_symmetry_space_group_name_H-M   'P 1'
_cell_length_a   14.89967320
_cell_length_b   14.89967320
_cell_length_c   14.89967320
_cell_angle_alpha   154.11296377
_cell_angle_beta   95.34601634
_cell_angle_gamma   90.41099489
_symmetry_Int_Tables_number   1
_chemical_formula_structural   Sr6Sn12Pt11
_chemical_formula_sum   'Sr12 Sn24 Pt22'
_cell_volume   1406.01286480
_cell_formula_units_Z   2
loop_
 _symmetry_equiv_pos_site_id
 _symmetry_equiv_pos_as_xyz
  1  'x, y, z'
loop_
 _atom_site_type_symbol
 _atom_site_label
 _atom_site_symmetry_multiplicity
 _atom_site_fract_x
 _atom_site_fract_y
 _atom_site_fract_z
 _atom_site_occupancy
  Sr  Sr0  1  0.87826900  0.61112000  0.73285100  1
  Sr  Sr1  1  0.12173100  0.38888000  0.26714900  1
  Sr  Sr2  1  0.62173100  0.85458300  0.23285100  1
  Sr  Sr3  1  0.37826900  0.14541700  0.76714900  1
  Sr  Sr4  1  0.21194500  0.63975600  0.09785700  1
  Sr  Sr5  1  0.45810100  0.36024400  0.57218800  1
  Sr  Sr6  1  0.28805500  0.88591200  0.92781200  1
  Sr  Sr7  1  0.04189900  0.11408800  0.40214300  1
  Sr  Sr8  1  0.78805500  0.36024400  0.90214300  1
  Sr  Sr9  1  0.54189900  0.63975600  0.42781200  1
  Sr  Sr10  1  0.71194500  0.11408800  0.07218800  1
  Sr  Sr11  1  0.95810100  0.88591200  0.59785700  1
  Sn  Sn12  1  0.66690900  0.73828500  0.90575500  1
  Sn  Sn13  1  0.16746900  0.26171500  0.92862400  1
  Sn  Sn14  1  0.83309100  0.23884500  0.57137600  1
  Sn  Sn15  1  0.33253100  0.76115500  0.59424500  1
  Sn  Sn16  1  0.33309100  0.26171500  0.09424500  1
  Sn  Sn17  1  0.83253100  0.73828500  0.07137600  1
  Sn  Sn18  1  0.16690900  0.76115500  0.42862400  1
  Sn  Sn19  1  0.66746900  0.23884500  0.40575500  1
  Sn  Sn20  1  0.55541100  0.26890900  0.71349800  1
  Sn  Sn21  1  0.44458900  0.73109100  0.28650200  1
  Sn  Sn22  1  0.94458900  0.15808600  0.21349800  1
  Sn  Sn23  1  0.05541100  0.84191400  0.78650200  1
  Sn  Sn24  1  0.00098200  0.75098200  0.25000000  1
  Sn  Sn25  1  0.49901800  0.24901800  0.25000000  1
  Sn  Sn26  1  0.99901800  0.24901800  0.75000000  1
  Sn  Sn27  1  0.50098200  0.75098200  0.75000000  1
  Sn  Sn28  1  0.88159200  0.34087800  0.11026500  1
  Sn  Sn29  1  0.76938700  0.65912200  0.54071400  1
  Sn  Sn30  1  0.61840800  0.22867300  0.95928600  1
  Sn  Sn31  1  0.73061300  0.77132700  0.38973500  1
  Sn  Sn32  1  0.11840800  0.65912200  0.88973500  1
  Sn  Sn33  1  0.23061300  0.34087800  0.45928600  1
  Sn  Sn34  1  0.38159200  0.77132700  0.04071400  1
  Sn  Sn35  1  0.26938700  0.22867300  0.61026500  1
  Pt  Pt36  1  0.68376100  0.42068000  0.73691800  1
  Pt  Pt37  1  0.31623900  0.57932000  0.26308200  1
  Pt  Pt38  1  0.81623900  0.05315700  0.23691800  1
  Pt  Pt39  1  0.18376100  0.94684300  0.76308200  1
  Pt  Pt40  1  0.89892200  0.00000000  0.89892200  1
  Pt  Pt41  1  0.60107800  0.00000000  0.60107800  1
  Pt  Pt42  1  0.10107800  0.00000000  0.10107800  1
  Pt  Pt43  1  0.39892200  0.00000000  0.39892200  1
  Pt  Pt44  1  0.42318700  0.50000000  0.92318700  1
  Pt  Pt45  1  0.07681300  0.50000000  0.57681300  1
  Pt  Pt46  1  0.57681300  0.50000000  0.07681300  1
  Pt  Pt47  1  0.92318700  0.50000000  0.42318700  1
  Pt  Pt48  1  0.25000000  0.00000000  0.25000000  1
  Pt  Pt49  1  0.75000000  0.00000000  0.75000000  1
  Pt  Pt50  1  0.01706400  0.44139400  0.09046500  1
  Pt  Pt51  1  0.64907100  0.55860600  0.57566900  1
  Pt  Pt52  1  0.48293600  0.07340100  0.92433100  1
  Pt  Pt53  1  0.85092900  0.92659900  0.40953500  1
  Pt  Pt54  1  0.98293600  0.55860600  0.90953500  1
  Pt  Pt55  1  0.35092900  0.44139400  0.42433100  1
  Pt  Pt56  1  0.51706400  0.92659900  0.07566900  1
  Pt  Pt57  1  0.14907100  0.07340100  0.59046500  1
