# generated using pymatgen
data_Nd2WO6
_symmetry_space_group_name_H-M   'P 1'
_cell_length_a   5.45120800
_cell_length_b   9.42486800
_cell_length_c   10.29167000
_cell_angle_alpha   90.00000000
_cell_angle_beta   90.00000000
_cell_angle_gamma   90.00000000
_symmetry_Int_Tables_number   1
_chemical_formula_structural   Nd2WO6
_chemical_formula_sum   'Nd8 W4 O24'
_cell_volume   528.75426345
_cell_formula_units_Z   4
loop_
 _symmetry_equiv_pos_site_id
 _symmetry_equiv_pos_as_xyz
  1  'x, y, z'
loop_
 _atom_site_type_symbol
 _atom_site_label
 _atom_site_symmetry_multiplicity
 _atom_site_fract_x
 _atom_site_fract_y
 _atom_site_fract_z
 _atom_site_occupancy
  Nd  Nd0  1  0.47706300  0.60375000  0.53773100  1
  Nd  Nd1  1  0.97706300  0.89625000  0.46226900  1
  Nd  Nd2  1  0.52293700  0.10375000  0.96226900  1
  Nd  Nd3  1  0.02293700  0.39625000  0.03773100  1
  Nd  Nd4  1  0.96539500  0.78127100  0.86815900  1
  Nd  Nd5  1  0.46539500  0.71872900  0.13184100  1
  Nd  Nd6  1  0.03460500  0.28127100  0.63184100  1
  Nd  Nd7  1  0.53460500  0.21872900  0.36815900  1
  W  W8  1  0.45907600  0.99623900  0.64791500  1
  W  W9  1  0.95907600  0.50376100  0.35208500  1
  W  W10  1  0.54092400  0.49623900  0.85208500  1
  W  W11  1  0.04092400  0.00376100  0.14791500  1
  O  O12  1  0.25100400  0.08838000  0.50865000  1
  O  O13  1  0.75100400  0.41162000  0.49135000  1
  O  O14  1  0.74899600  0.58838000  0.99135000  1
  O  O15  1  0.24899600  0.91162000  0.00865000  1
  O  O16  1  0.72302300  0.11224400  0.56517000  1
  O  O17  1  0.22302300  0.38775600  0.43483000  1
  O  O18  1  0.27697700  0.61224400  0.93483000  1
  O  O19  1  0.77697700  0.88775600  0.06517000  1
  O  O20  1  0.57526100  0.84822600  0.52764600  1
  O  O21  1  0.07526100  0.65177400  0.47235400  1
  O  O22  1  0.42473900  0.34822600  0.97235400  1
  O  O23  1  0.92473900  0.15177400  0.02764600  1
  O  O24  1  0.18354200  0.86180800  0.25949800  1
  O  O25  1  0.68354200  0.63819200  0.74050200  1
  O  O26  1  0.81645800  0.36180800  0.24050200  1
  O  O27  1  0.31645800  0.13819200  0.75949800  1
  O  O28  1  0.83004400  0.04933500  0.28877400  1
  O  O29  1  0.33004400  0.45066500  0.71122600  1
  O  O30  1  0.16995600  0.54933500  0.21122600  1
  O  O31  1  0.66995600  0.95066500  0.78877400  1
  O  O32  1  0.31008400  0.13466300  0.17887000  1
  O  O33  1  0.81008400  0.36533700  0.82113000  1
  O  O34  1  0.68991600  0.63466300  0.32113000  1
  O  O35  1  0.18991600  0.86533700  0.67887000  1
