# generated using pymatgen
data_Eu2H3Br
_symmetry_space_group_name_H-M   'P 1'
_cell_length_a   4.07205965
_cell_length_b   4.07205965
_cell_length_c   7.19159200
_cell_angle_alpha   90.00000000
_cell_angle_beta   90.00000000
_cell_angle_gamma   119.99999429
_symmetry_Int_Tables_number   1
_chemical_formula_structural   Eu2H3Br
_chemical_formula_sum   'Eu2 H3 Br1'
_cell_volume   103.27232615
_cell_formula_units_Z   1
loop_
 _symmetry_equiv_pos_site_id
 _symmetry_equiv_pos_as_xyz
  1  'x, y, z'
loop_
 _atom_site_type_symbol
 _atom_site_label
 _atom_site_symmetry_multiplicity
 _atom_site_fract_x
 _atom_site_fract_y
 _atom_site_fract_z
 _atom_site_occupancy
  Eu  Eu0  1  0.66666700  0.33333300  0.68818000  1
  Eu  Eu1  1  0.33333300  0.66666700  0.31182000  1
  H  H2  1  0.66666700  0.33333300  0.35600500  1
  H  H3  1  0.33333300  0.66666700  0.64399500  1
  H  H4  1  0.00000000  0.00000000  0.50000000  1
  Br  Br5  1  0.00000000  0.00000000  0.00000000  1
