# generated using pymatgen
data_Mg3Cu2(AsO4)3
_symmetry_space_group_name_H-M   'P 1'
_cell_length_a   8.88492333
_cell_length_b   8.88492333
_cell_length_c   6.82331810
_cell_angle_alpha   74.61958978
_cell_angle_beta   74.61958978
_cell_angle_gamma   94.50041421
_symmetry_Int_Tables_number   1
_chemical_formula_structural   Mg3Cu2(AsO4)3
_chemical_formula_sum   'Mg6 Cu4 As6 O24'
_cell_volume   494.29735546
_cell_formula_units_Z   2
loop_
 _symmetry_equiv_pos_site_id
 _symmetry_equiv_pos_as_xyz
  1  'x, y, z'
loop_
 _atom_site_type_symbol
 _atom_site_label
 _atom_site_symmetry_multiplicity
 _atom_site_fract_x
 _atom_site_fract_y
 _atom_site_fract_z
 _atom_site_occupancy
  Mg  Mg0  1  0.74335400  0.25664500  0.25000000  1
  Mg  Mg1  1  0.25664500  0.74335500  0.75000000  1
  Mg  Mg2  1  0.62930900  0.94414100  0.12051700  1
  Mg  Mg3  1  0.37069100  0.05585900  0.87948300  1
  Mg  Mg4  1  0.05585900  0.37069100  0.37948300  1
  Mg  Mg5  1  0.94414100  0.62930900  0.62051700  1
  Cu  Cu6  1  0.00000000  0.00000000  0.00000000  1
  Cu  Cu7  1  0.00000000  0.00000000  0.50000000  1
  Cu  Cu8  1  0.49701100  0.50298900  0.25000000  1
  Cu  Cu9  1  0.50298900  0.49701100  0.75000000  1
  As  As10  1  0.35000700  0.11443700  0.37653700  1
  As  As11  1  0.64999300  0.88556300  0.62346300  1
  As  As12  1  0.88556300  0.64999300  0.12346300  1
  As  As13  1  0.11443700  0.35000700  0.87653700  1
  As  As14  1  0.28691100  0.71308900  0.25000000  1
  As  As15  1  0.71308900  0.28691100  0.75000000  1
  O  O16  1  0.25139400  0.81940200  0.02171300  1
  O  O17  1  0.74860600  0.18059800  0.97828700  1
  O  O18  1  0.18059800  0.74860600  0.47828700  1
  O  O19  1  0.81940200  0.25139400  0.52171300  1
  O  O20  1  0.49517400  0.27566900  0.31455200  1
  O  O21  1  0.50482600  0.72433100  0.68544800  1
  O  O22  1  0.72433100  0.50482600  0.18544800  1
  O  O23  1  0.27566900  0.49517400  0.81455200  1
  O  O24  1  0.82836200  0.83419300  0.11143200  1
  O  O25  1  0.17163800  0.16580700  0.88856800  1
  O  O26  1  0.16580700  0.17163800  0.38856800  1
  O  O27  1  0.83419300  0.82836200  0.61143200  1
  O  O28  1  0.66616300  0.01144800  0.37734500  1
  O  O29  1  0.33383700  0.98855200  0.62265500  1
  O  O30  1  0.98855200  0.33383700  0.12265500  1
  O  O31  1  0.01144800  0.66616300  0.87734500  1
  O  O32  1  0.40432100  0.02543400  0.17948700  1
  O  O33  1  0.59567900  0.97456600  0.82051300  1
  O  O34  1  0.97456600  0.59567900  0.32051300  1
  O  O35  1  0.02543400  0.40432100  0.67948700  1
  O  O36  1  0.48818800  0.72597900  0.23517200  1
  O  O37  1  0.51181200  0.27402100  0.76482800  1
  O  O38  1  0.27402100  0.51181200  0.26482800  1
  O  O39  1  0.72597900  0.48818800  0.73517200  1
