# generated using pymatgen
data_Rb(RuO2)4
_symmetry_space_group_name_H-M   'P 1'
_cell_length_a   7.31303312
_cell_length_b   7.31303312
_cell_length_c   7.31303312
_cell_angle_alpha   92.72540350
_cell_angle_beta   92.72540350
_cell_angle_gamma   154.80999888
_symmetry_Int_Tables_number   1
_chemical_formula_structural   Rb(RuO2)4
_chemical_formula_sum   'Rb1 Ru4 O8'
_cell_volume   162.45657882
_cell_formula_units_Z   1
loop_
 _symmetry_equiv_pos_site_id
 _symmetry_equiv_pos_as_xyz
  1  'x, y, z'
loop_
 _atom_site_type_symbol
 _atom_site_label
 _atom_site_symmetry_multiplicity
 _atom_site_fract_x
 _atom_site_fract_y
 _atom_site_fract_z
 _atom_site_occupancy
  Rb  Rb0  1  0.00000000  0.00000000  0.00000000  1
  Ru  Ru1  1  0.33484400  0.14728700  0.48213200  1
  Ru  Ru2  1  0.66515600  0.85271300  0.51786800  1
  Ru  Ru3  1  0.85271300  0.33484400  0.18755700  1
  Ru  Ru4  1  0.14728700  0.66515600  0.81244300  1
  O  O5  1  0.29613600  0.34528200  0.64141900  1
  O  O6  1  0.70386400  0.65471800  0.35858100  1
  O  O7  1  0.65471800  0.29613600  0.95085400  1
  O  O8  1  0.34528200  0.70386400  0.04914600  1
  O  O9  1  0.04550000  0.34481000  0.39031100  1
  O  O10  1  0.95450000  0.65519000  0.60968900  1
  O  O11  1  0.65519000  0.04550000  0.70069000  1
  O  O12  1  0.34481000  0.95450000  0.29931000  1
