# generated using pymatgen
data_LiAsSe2
_symmetry_space_group_name_H-M   'P 1'
_cell_length_a   6.84405868
_cell_length_b   6.84405868
_cell_length_c   5.63659151
_cell_angle_alpha   69.15783110
_cell_angle_beta   69.15783110
_cell_angle_gamma   47.80866623
_symmetry_Int_Tables_number   1
_chemical_formula_structural   LiAsSe2
_chemical_formula_sum   'Li2 As2 Se4'
_cell_volume   180.19538879
_cell_formula_units_Z   2
loop_
 _symmetry_equiv_pos_site_id
 _symmetry_equiv_pos_as_xyz
  1  'x, y, z'
loop_
 _atom_site_type_symbol
 _atom_site_label
 _atom_site_symmetry_multiplicity
 _atom_site_fract_x
 _atom_site_fract_y
 _atom_site_fract_z
 _atom_site_occupancy
  Li  Li0  1  0.73859800  0.26128200  0.49747400  1
  Li  Li1  1  0.26128200  0.73859800  0.99747400  1
  As  As2  1  0.56309400  0.00874100  0.16376000  1
  As  As3  1  0.00874100  0.56309400  0.66376000  1
  Se  Se4  1  0.51642600  0.97006400  0.76260900  1
  Se  Se5  1  0.97006400  0.51642600  0.26260900  1
  Se  Se6  1  0.74967400  0.22928000  0.01086600  1
  Se  Se7  1  0.22928000  0.74967400  0.51086600  1
