# generated using pymatgen
data_MnAgPO4
_symmetry_space_group_name_H-M   'P 1'
_cell_length_a   5.87144827
_cell_length_b   6.69837765
_cell_length_c   9.82962957
_cell_angle_alpha   74.78928113
_cell_angle_beta   79.75126551
_cell_angle_gamma   77.82972574
_symmetry_Int_Tables_number   1
_chemical_formula_structural   MnAgPO4
_chemical_formula_sum   'Mn4 Ag4 P4 O16'
_cell_volume   361.57017066
_cell_formula_units_Z   4
loop_
 _symmetry_equiv_pos_site_id
 _symmetry_equiv_pos_as_xyz
  1  'x, y, z'
loop_
 _atom_site_type_symbol
 _atom_site_label
 _atom_site_symmetry_multiplicity
 _atom_site_fract_x
 _atom_site_fract_y
 _atom_site_fract_z
 _atom_site_occupancy
  Mn  Mn0  1  0.65799700  0.06687900  0.21128700  1
  Mn  Mn1  1  0.34196000  0.93307800  0.78871600  1
  Mn  Mn2  1  0.22209100  0.83023400  0.42935600  1
  Mn  Mn3  1  0.77788900  0.16977900  0.57065200  1
  Ag  Ag4  1  0.30497700  0.62119800  0.12463400  1
  Ag  Ag5  1  0.69503300  0.37881600  0.87536900  1
  Ag  Ag6  1  0.82816500  0.52355000  0.24062700  1
  Ag  Ag7  1  0.17184900  0.47642900  0.75937900  1
  P  P8  1  0.31262800  0.28834900  0.46606300  1
  P  P9  1  0.68737900  0.71166200  0.53393600  1
  P  P10  1  0.18780100  0.14752300  0.09005600  1
  P  P11  1  0.81219500  0.85247600  0.90994000  1
  O  O12  1  0.13277300  0.15893300  0.44824200  1
  O  O13  1  0.86721600  0.84108900  0.55176600  1
  O  O14  1  0.34849300  0.23565200  0.62803600  1
  O  O15  1  0.65154100  0.76435000  0.37196100  1
  O  O16  1  0.23096700  0.52354800  0.40808100  1
  O  O17  1  0.76905000  0.47646600  0.59192000  1
  O  O18  1  0.56318600  0.21455600  0.38991600  1
  O  O19  1  0.43680600  0.78544700  0.61007400  1
  O  O20  1  0.23465700  0.92987800  0.19850900  1
  O  O21  1  0.76538800  0.07013300  0.80149400  1
  O  O22  1  0.22108400  0.12190700  0.93656500  1
  O  O23  1  0.77892500  0.87807000  0.06343700  1
  O  O24  1  0.92992400  0.25806800  0.12856400  1
  O  O25  1  0.07005800  0.74190200  0.87143200  1
  O  O26  1  0.37018000  0.27893800  0.10592400  1
  O  O27  1  0.62979000  0.72109100  0.89406500  1
