# generated using pymatgen
data_V5S4
_symmetry_space_group_name_H-M   'P 1'
_cell_length_a   6.55071610
_cell_length_b   6.55071610
_cell_length_c   6.55071610
_cell_angle_alpha   93.32811793
_cell_angle_beta   93.32811793
_cell_angle_gamma   152.11548794
_symmetry_Int_Tables_number   1
_chemical_formula_structural   V5S4
_chemical_formula_sum   'V5 S4'
_cell_volume   127.59635491
_cell_formula_units_Z   1
loop_
 _symmetry_equiv_pos_site_id
 _symmetry_equiv_pos_as_xyz
  1  'x, y, z'
loop_
 _atom_site_type_symbol
 _atom_site_label
 _atom_site_symmetry_multiplicity
 _atom_site_fract_x
 _atom_site_fract_y
 _atom_site_fract_z
 _atom_site_occupancy
  V  V0  1  0.62098600  0.29990900  0.92089500  1
  V  V1  1  0.70009100  0.62098600  0.32107700  1
  V  V2  1  0.00000000  0.00000000  0.00000000  1
  V  V3  1  0.37901400  0.70009100  0.07910500  1
  V  V4  1  0.29990900  0.37901400  0.67892300  1
  S  S5  1  0.27157500  0.93621200  0.20778700  1
  S  S6  1  0.06378800  0.27157500  0.33536200  1
  S  S7  1  0.72842500  0.06378800  0.79221300  1
  S  S8  1  0.93621200  0.72842500  0.66463800  1
