# generated using pymatgen
data_LaSi3Ru
_symmetry_space_group_name_H-M   'P 1'
_cell_length_a   5.82770775
_cell_length_b   5.82770775
_cell_length_c   5.82770775
_cell_angle_alpha   137.07028324
_cell_angle_beta   137.07028324
_cell_angle_gamma   62.32992944
_symmetry_Int_Tables_number   1
_chemical_formula_structural   LaSi3Ru
_chemical_formula_sum   'La1 Si3 Ru1'
_cell_volume   90.71149365
_cell_formula_units_Z   1
loop_
 _symmetry_equiv_pos_site_id
 _symmetry_equiv_pos_as_xyz
  1  'x, y, z'
loop_
 _atom_site_type_symbol
 _atom_site_label
 _atom_site_symmetry_multiplicity
 _atom_site_fract_x
 _atom_site_fract_y
 _atom_site_fract_z
 _atom_site_occupancy
  La  La0  1  0.00019000  0.00019000  0.00000000  1
  Si  Si1  1  0.41611100  0.41611100  0.00000000  1
  Si  Si2  1  0.26125500  0.76125500  0.50000000  1
  Si  Si3  1  0.76125500  0.26125500  0.50000000  1
  Ru  Ru4  1  0.65519000  0.65519000  0.00000000  1
