# generated using pymatgen
data_Sr2FeIrO6
_symmetry_space_group_name_H-M   'P 1'
_cell_length_a   5.61332800
_cell_length_b   5.61376026
_cell_length_c   5.61924563
_cell_angle_alpha   60.43173026
_cell_angle_beta   60.12053478
_cell_angle_gamma   60.24995874
_symmetry_Int_Tables_number   1
_chemical_formula_structural   Sr2FeIrO6
_chemical_formula_sum   'Sr2 Fe1 Ir1 O6'
_cell_volume   125.96547485
_cell_formula_units_Z   1
loop_
 _symmetry_equiv_pos_site_id
 _symmetry_equiv_pos_as_xyz
  1  'x, y, z'
loop_
 _atom_site_type_symbol
 _atom_site_label
 _atom_site_symmetry_multiplicity
 _atom_site_fract_x
 _atom_site_fract_y
 _atom_site_fract_z
 _atom_site_occupancy
  Sr  Sr0  1  0.75005600  0.75032300  0.74956600  1
  Sr  Sr1  1  0.24994400  0.24967700  0.25043400  1
  Fe  Fe2  1  0.50000000  0.50000000  0.50000000  1
  Ir  Ir3  1  0.00000000  0.00000000  0.00000000  1
  O  O4  1  0.77841900  0.23834000  0.72560300  1
  O  O5  1  0.22158100  0.76166000  0.27439700  1
  O  O6  1  0.24372300  0.71024400  0.79350600  1
  O  O7  1  0.75627700  0.28975600  0.20649400  1
  O  O8  1  0.72048800  0.78339700  0.26589700  1
  O  O9  1  0.27951200  0.21660300  0.73410300  1
