# generated using pymatgen
data_RbBaPS4
_symmetry_space_group_name_H-M   'P 1'
_cell_length_a   6.83252700
_cell_length_b   10.21427200
_cell_length_c   11.72765600
_cell_angle_alpha   90.00000000
_cell_angle_beta   90.00000000
_cell_angle_gamma   90.00000000
_symmetry_Int_Tables_number   1
_chemical_formula_structural   RbBaPS4
_chemical_formula_sum   'Rb4 Ba4 P4 S16'
_cell_volume   818.46477652
_cell_formula_units_Z   4
loop_
 _symmetry_equiv_pos_site_id
 _symmetry_equiv_pos_as_xyz
  1  'x, y, z'
loop_
 _atom_site_type_symbol
 _atom_site_label
 _atom_site_symmetry_multiplicity
 _atom_site_fract_x
 _atom_site_fract_y
 _atom_site_fract_z
 _atom_site_occupancy
  Rb  Rb0  1  0.25000000  0.84579800  0.91571200  1
  Rb  Rb1  1  0.25000000  0.65420200  0.41571200  1
  Rb  Rb2  1  0.75000000  0.15420200  0.08428800  1
  Rb  Rb3  1  0.75000000  0.34579800  0.58428800  1
  Ba  Ba4  1  0.25000000  0.39444100  0.85103400  1
  Ba  Ba5  1  0.25000000  0.10555900  0.35103400  1
  Ba  Ba6  1  0.75000000  0.60555900  0.14896600  1
  Ba  Ba7  1  0.75000000  0.89444100  0.64896600  1
  P  P8  1  0.25000000  0.10736400  0.68407200  1
  P  P9  1  0.25000000  0.39263600  0.18407200  1
  P  P10  1  0.75000000  0.89263600  0.31592800  1
  P  P11  1  0.75000000  0.60736400  0.81592800  1
  S  S12  1  0.49446400  0.11539200  0.78412600  1
  S  S13  1  0.00553600  0.38460800  0.28412600  1
  S  S14  1  0.99446400  0.88460800  0.21587400  1
  S  S15  1  0.50553600  0.61539200  0.71587400  1
  S  S16  1  0.50553600  0.88460800  0.21587400  1
  S  S17  1  0.99446400  0.61539200  0.71587400  1
  S  S18  1  0.00553600  0.11539200  0.78412600  1
  S  S19  1  0.49446400  0.38460800  0.28412600  1
  S  S20  1  0.25000000  0.27140500  0.58151400  1
  S  S21  1  0.25000000  0.22859500  0.08151400  1
  S  S22  1  0.75000000  0.72859500  0.41848600  1
  S  S23  1  0.75000000  0.77140500  0.91848600  1
  S  S24  1  0.25000000  0.93629500  0.59023000  1
  S  S25  1  0.25000000  0.56370500  0.09023000  1
  S  S26  1  0.75000000  0.06370500  0.40977000  1
  S  S27  1  0.75000000  0.43629500  0.90977000  1
