# generated using pymatgen
data_NdHf2F11
_symmetry_space_group_name_H-M   'P 1'
_cell_length_a   8.41931983
_cell_length_b   8.41931983
_cell_length_c   8.41931983
_cell_angle_alpha   124.93983076
_cell_angle_beta   106.73220363
_cell_angle_gamma   98.01227696
_symmetry_Int_Tables_number   1
_chemical_formula_structural   NdHf2F11
_chemical_formula_sum   'Nd2 Hf4 F22'
_cell_volume   431.89644350
_cell_formula_units_Z   2
loop_
 _symmetry_equiv_pos_site_id
 _symmetry_equiv_pos_as_xyz
  1  'x, y, z'
loop_
 _atom_site_type_symbol
 _atom_site_label
 _atom_site_symmetry_multiplicity
 _atom_site_fract_x
 _atom_site_fract_y
 _atom_site_fract_z
 _atom_site_occupancy
  Nd  Nd0  1  0.75000000  0.25000000  0.50000000  1
  Nd  Nd1  1  0.25000000  0.75000000  0.50000000  1
  Hf  Hf2  1  0.68124500  0.63435900  0.31560400  1
  Hf  Hf3  1  0.31875500  0.36564100  0.68439600  1
  Hf  Hf4  1  0.18124500  0.86564100  0.04688600  1
  Hf  Hf5  1  0.81875500  0.13435900  0.95311400  1
  F  F6  1  0.70600200  0.89316700  0.34070800  1
  F  F7  1  0.29399800  0.10683300  0.65929200  1
  F  F8  1  0.55245900  0.36529400  0.65929200  1
  F  F9  1  0.94754100  0.60683300  0.81283400  1
  F  F10  1  0.44754100  0.63470600  0.34070800  1
  F  F11  1  0.05245900  0.39316700  0.18716600  1
  F  F12  1  0.79399800  0.13470600  0.18716600  1
  F  F13  1  0.20600200  0.86529400  0.81283400  1
  F  F14  1  0.50000000  0.50000000  0.00000000  1
  F  F15  1  0.00000000  0.00000000  0.00000000  1
  F  F16  1  0.77955600  0.87047700  0.65003200  1
  F  F17  1  0.22044400  0.12952300  0.34996800  1
  F  F18  1  0.27955600  0.62952300  0.90907900  1
  F  F19  1  0.72044400  0.37047700  0.09092100  1
  F  F20  1  0.95054500  0.73723800  0.41653100  1
  F  F21  1  0.04945500  0.26276200  0.58346900  1
  F  F22  1  0.32070600  0.53401400  0.58346900  1
  F  F23  1  0.17929400  0.76276200  0.21330700  1
  F  F24  1  0.67929400  0.46598600  0.41653100  1
  F  F25  1  0.82070600  0.23723800  0.78669300  1
  F  F26  1  0.54945500  0.96598600  0.78669300  1
  F  F27  1  0.45054500  0.03401400  0.21330700  1
