# generated using pymatgen
data_Nb4Pb3(O6F)2
_symmetry_space_group_name_H-M   'P 1'
_cell_length_a   12.91869857
_cell_length_b   12.91869857
_cell_length_c   7.58424300
_cell_angle_alpha   90.00000000
_cell_angle_beta   90.00000000
_cell_angle_gamma   90.09828515
_symmetry_Int_Tables_number   1
_chemical_formula_structural   Nb4Pb3(O6F)2
_chemical_formula_sum   'Nb16 Pb12 O48 F8'
_cell_volume   1265.75348031
_cell_formula_units_Z   4
loop_
 _symmetry_equiv_pos_site_id
 _symmetry_equiv_pos_as_xyz
  1  'x, y, z'
loop_
 _atom_site_type_symbol
 _atom_site_label
 _atom_site_symmetry_multiplicity
 _atom_site_fract_x
 _atom_site_fract_y
 _atom_site_fract_z
 _atom_site_occupancy
  Nb  Nb0  1  0.04915300  0.73657700  0.50000000  1
  Nb  Nb1  1  0.94715300  0.25420800  0.50000000  1
  Nb  Nb2  1  0.45629300  0.22764300  0.00000000  1
  Nb  Nb3  1  0.55658700  0.74786200  0.00000000  1
  Nb  Nb4  1  0.26342300  0.95084700  0.50000000  1
  Nb  Nb5  1  0.74579200  0.05284700  0.50000000  1
  Nb  Nb6  1  0.77235700  0.54370700  0.00000000  1
  Nb  Nb7  1  0.25213800  0.44341300  0.00000000  1
  Nb  Nb8  1  0.80199300  0.80057200  0.75082800  1
  Nb  Nb9  1  0.19942800  0.19800700  0.75082800  1
  Nb  Nb10  1  0.69721600  0.30278400  0.24992900  1
  Nb  Nb11  1  0.30108000  0.69892000  0.25068300  1
  Nb  Nb12  1  0.19942800  0.19800700  0.24917200  1
  Nb  Nb13  1  0.80199300  0.80057200  0.24917200  1
  Nb  Nb14  1  0.30108000  0.69892000  0.74931700  1
  Nb  Nb15  1  0.69721600  0.30278400  0.75007100  1
  Pb  Pb16  1  0.50139500  0.49860500  0.76008000  1
  Pb  Pb17  1  0.00903000  0.99097000  0.26218100  1
  Pb  Pb18  1  0.50139500  0.49860500  0.23992000  1
  Pb  Pb19  1  0.00903000  0.99097000  0.73781900  1
  Pb  Pb20  1  0.56111500  0.78640200  0.50000000  1
  Pb  Pb21  1  0.43778500  0.20017900  0.50000000  1
  Pb  Pb22  1  0.94050900  0.28772700  0.00000000  1
  Pb  Pb23  1  0.06252600  0.70596700  0.00000000  1
  Pb  Pb24  1  0.21359800  0.43888500  0.50000000  1
  Pb  Pb25  1  0.79982100  0.56221500  0.50000000  1
  Pb  Pb26  1  0.71227300  0.05949100  0.00000000  1
  Pb  Pb27  1  0.29403300  0.93747400  0.00000000  1
  O  O28  1  0.94767900  0.80102100  0.69625200  1
  O  O29  1  0.05297400  0.20903500  0.68611000  1
  O  O30  1  0.55134400  0.29756900  0.19015000  1
  O  O31  1  0.44673700  0.70563500  0.19081600  1
  O  O32  1  0.05297400  0.20903500  0.31389000  1
  O  O33  1  0.94767900  0.80102100  0.30374800  1
  O  O34  1  0.44673700  0.70563500  0.80918400  1
  O  O35  1  0.55134400  0.29756900  0.80985000  1
  O  O36  1  0.19897900  0.05232100  0.69625200  1
  O  O37  1  0.79096500  0.94702600  0.68611000  1
  O  O38  1  0.70243100  0.44865600  0.19015000  1
  O  O39  1  0.29436500  0.55326300  0.19081600  1
  O  O40  1  0.79096500  0.94702600  0.31389000  1
  O  O41  1  0.19897900  0.05232100  0.30374800  1
  O  O42  1  0.29436500  0.55326300  0.80918400  1
  O  O43  1  0.70243100  0.44865600  0.80985000  1
  O  O44  1  0.64158500  0.79990100  0.80914900  1
  O  O45  1  0.35498900  0.19959500  0.80968400  1
  O  O46  1  0.85598300  0.29991900  0.31070600  1
  O  O47  1  0.14315700  0.70103700  0.30774800  1
  O  O48  1  0.35498900  0.19959500  0.19031600  1
  O  O49  1  0.64158500  0.79990100  0.19085100  1
  O  O50  1  0.14315700  0.70103700  0.69225200  1
  O  O51  1  0.85598300  0.29991900  0.68929400  1
  O  O52  1  0.20009900  0.35841500  0.80914900  1
  O  O53  1  0.80040500  0.64501100  0.80968400  1
  O  O54  1  0.70008100  0.14401700  0.31070600  1
  O  O55  1  0.29896300  0.85684300  0.30774800  1
  O  O56  1  0.80040500  0.64501100  0.19031600  1
  O  O57  1  0.20009900  0.35841500  0.19085100  1
  O  O58  1  0.29896300  0.85684300  0.69225200  1
  O  O59  1  0.70008100  0.14401700  0.68929400  1
  O  O60  1  0.10088100  0.89911900  0.50000000  1
  O  O61  1  0.88948500  0.11051500  0.50000000  1
  O  O62  1  0.39287500  0.39669000  0.00000000  1
  O  O63  1  0.60331000  0.60712500  0.00000000  1
  O  O64  1  0.32772800  0.67227200  0.50000000  1
  O  O65  1  0.67085400  0.32914600  0.50000000  1
  O  O66  1  0.16902100  0.17508500  0.00000000  1
  O  O67  1  0.82491500  0.83097900  0.00000000  1
  O  O68  1  0.75365100  0.75383300  0.50000000  1
  O  O69  1  0.24616700  0.24634900  0.50000000  1
  O  O70  1  0.74436200  0.25563800  0.00000000  1
  O  O71  1  0.25362500  0.74637500  0.00000000  1
  O  O72  1  0.96687000  0.62020800  0.50000000  1
  O  O73  1  0.53119300  0.10980300  0.00000000  1
  O  O74  1  0.37979200  0.03313000  0.50000000  1
  O  O75  1  0.89019700  0.46880700  0.00000000  1
  F  F76  1  0.58211300  0.59181700  0.50000000  1
  F  F77  1  0.40818300  0.41788700  0.50000000  1
  F  F78  1  0.90891400  0.09108600  0.00000000  1
  F  F79  1  0.09094400  0.90905600  0.00000000  1
  F  F80  1  0.02605100  0.39150500  0.50000000  1
  F  F81  1  0.46920100  0.88514200  0.00000000  1
  F  F82  1  0.60849500  0.97394900  0.50000000  1
  F  F83  1  0.11485800  0.53079900  0.00000000  1
