# generated using pymatgen
data_Ho2ReC2
_symmetry_space_group_name_H-M   'P 1'
_cell_length_a   5.09909500
_cell_length_b   6.55956700
_cell_length_c   9.81676400
_cell_angle_alpha   90.00000000
_cell_angle_beta   90.00000000
_cell_angle_gamma   90.00000000
_symmetry_Int_Tables_number   1
_chemical_formula_structural   Ho2ReC2
_chemical_formula_sum   'Ho8 Re4 C8'
_cell_volume   328.34970171
_cell_formula_units_Z   4
loop_
 _symmetry_equiv_pos_site_id
 _symmetry_equiv_pos_as_xyz
  1  'x, y, z'
loop_
 _atom_site_type_symbol
 _atom_site_label
 _atom_site_symmetry_multiplicity
 _atom_site_fract_x
 _atom_site_fract_y
 _atom_site_fract_z
 _atom_site_occupancy
  Ho  Ho0  1  0.25000000  0.46733700  0.78364300  1
  Ho  Ho1  1  0.75000000  0.03266300  0.28364300  1
  Ho  Ho2  1  0.25000000  0.96733700  0.71635700  1
  Ho  Ho3  1  0.75000000  0.53266300  0.21635700  1
  Ho  Ho4  1  0.25000000  0.82084600  0.05640700  1
  Ho  Ho5  1  0.75000000  0.67915400  0.55640700  1
  Ho  Ho6  1  0.25000000  0.32084600  0.44359300  1
  Ho  Ho7  1  0.75000000  0.17915400  0.94359300  1
  Re  Re8  1  0.25000000  0.28013900  0.13293700  1
  Re  Re9  1  0.75000000  0.21986100  0.63293700  1
  Re  Re10  1  0.25000000  0.78013900  0.36706300  1
  Re  Re11  1  0.75000000  0.71986100  0.86706300  1
  C  C12  1  0.25000000  0.17572700  0.94854600  1
  C  C13  1  0.75000000  0.82427300  0.05145400  1
  C  C14  1  0.25000000  0.67572700  0.55145400  1
  C  C15  1  0.75000000  0.32427300  0.44854600  1
  C  C16  1  0.25000000  0.04696300  0.25905100  1
  C  C17  1  0.75000000  0.45303700  0.75905100  1
  C  C18  1  0.25000000  0.54696300  0.24094900  1
  C  C19  1  0.75000000  0.95303700  0.74094900  1
