# generated using pymatgen
data_Na3VS2(O4F)2
_symmetry_space_group_name_H-M   'P 1'
_cell_length_a   6.75612100
_cell_length_b   9.01049200
_cell_length_c   14.19045000
_cell_angle_alpha   90.00000000
_cell_angle_beta   90.00000000
_cell_angle_gamma   90.00000000
_symmetry_Int_Tables_number   1
_chemical_formula_structural   Na3VS2(O4F)2
_chemical_formula_sum   'Na12 V4 S8 O32 F8'
_cell_volume   863.85746839
_cell_formula_units_Z   4
loop_
 _symmetry_equiv_pos_site_id
 _symmetry_equiv_pos_as_xyz
  1  'x, y, z'
loop_
 _atom_site_type_symbol
 _atom_site_label
 _atom_site_symmetry_multiplicity
 _atom_site_fract_x
 _atom_site_fract_y
 _atom_site_fract_z
 _atom_site_occupancy
  Na  Na0  1  0.51816100  0.66702800  0.90335400  1
  Na  Na1  1  0.01816100  0.83297200  0.59664600  1
  Na  Na2  1  0.48183900  0.16702800  0.59664600  1
  Na  Na3  1  0.98183900  0.33297200  0.90335400  1
  Na  Na4  1  0.48183900  0.33297200  0.09664600  1
  Na  Na5  1  0.98183900  0.16702800  0.40335400  1
  Na  Na6  1  0.51816100  0.83297200  0.40335400  1
  Na  Na7  1  0.01816100  0.66702800  0.09664600  1
  Na  Na8  1  0.75000000  0.00000000  0.04917300  1
  Na  Na9  1  0.25000000  0.50000000  0.45082700  1
  Na  Na10  1  0.25000000  0.00000000  0.95082700  1
  Na  Na11  1  0.75000000  0.50000000  0.54917300  1
  V  V12  1  0.75000000  0.00000000  0.80207300  1
  V  V13  1  0.25000000  0.50000000  0.69792700  1
  V  V14  1  0.25000000  0.00000000  0.19792700  1
  V  V15  1  0.75000000  0.50000000  0.30207300  1
  S  S16  1  0.00148800  0.69373500  0.85731300  1
  S  S17  1  0.50148800  0.80626500  0.64268700  1
  S  S18  1  0.99851200  0.19373500  0.64268700  1
  S  S19  1  0.49851200  0.30626500  0.85731300  1
  S  S20  1  0.99851200  0.30626500  0.14268700  1
  S  S21  1  0.49851200  0.19373500  0.35731300  1
  S  S22  1  0.00148800  0.80626500  0.35731300  1
  S  S23  1  0.50148800  0.69373500  0.14268700  1
  O  O24  1  0.44701200  0.44389600  0.79972200  1
  O  O25  1  0.94701200  0.05610400  0.70027800  1
  O  O26  1  0.55298800  0.94389600  0.70027800  1
  O  O27  1  0.05298800  0.55610400  0.79972200  1
  O  O28  1  0.55298800  0.55610400  0.20027800  1
  O  O29  1  0.05298800  0.94389600  0.29972200  1
  O  O30  1  0.44701200  0.05610400  0.29972200  1
  O  O31  1  0.94701200  0.44389600  0.20027800  1
  O  O32  1  0.18381100  0.76648300  0.88942400  1
  O  O33  1  0.68381100  0.73351700  0.61057600  1
  O  O34  1  0.81618900  0.26648300  0.61057600  1
  O  O35  1  0.31618900  0.23351700  0.88942400  1
  O  O36  1  0.81618900  0.23351700  0.11057600  1
  O  O37  1  0.31618900  0.26648300  0.38942400  1
  O  O38  1  0.18381100  0.73351700  0.38942400  1
  O  O39  1  0.68381100  0.76648300  0.11057600  1
  O  O40  1  0.87775800  0.64251500  0.93643500  1
  O  O41  1  0.37775800  0.85748500  0.56356500  1
  O  O42  1  0.12224200  0.14251500  0.56356500  1
  O  O43  1  0.62224200  0.35748500  0.93643500  1
  O  O44  1  0.12224200  0.35748500  0.06356500  1
  O  O45  1  0.62224200  0.14251500  0.43643500  1
  O  O46  1  0.87775800  0.85748500  0.43643500  1
  O  O47  1  0.37775800  0.64251500  0.06356500  1
  O  O48  1  0.38353600  0.70812600  0.70687200  1
  O  O49  1  0.88353600  0.79187400  0.79312800  1
  O  O50  1  0.61646400  0.20812600  0.79312800  1
  O  O51  1  0.11646400  0.29187400  0.70687200  1
  O  O52  1  0.61646400  0.29187400  0.29312800  1
  O  O53  1  0.11646400  0.20812600  0.20687200  1
  O  O54  1  0.38353600  0.79187400  0.20687200  1
  O  O55  1  0.88353600  0.70812600  0.29312800  1
  F  F56  1  0.57595200  0.93046100  0.90204200  1
  F  F57  1  0.07595200  0.56953900  0.59795800  1
  F  F58  1  0.42404800  0.43046100  0.59795800  1
  F  F59  1  0.92404800  0.06953900  0.90204200  1
  F  F60  1  0.42404800  0.06953900  0.09795800  1
  F  F61  1  0.92404800  0.43046100  0.40204200  1
  F  F62  1  0.57595200  0.56953900  0.40204200  1
  F  F63  1  0.07595200  0.93046100  0.09795800  1
