# generated using pymatgen
data_CoBi2SO7
_symmetry_space_group_name_H-M   'P 1'
_cell_length_a   5.47611000
_cell_length_b   14.50232300
_cell_length_c   16.01304400
_cell_angle_alpha   90.00000000
_cell_angle_beta   90.00000000
_cell_angle_gamma   90.00000000
_symmetry_Int_Tables_number   1
_chemical_formula_structural   CoBi2SO7
_chemical_formula_sum   'Co8 Bi16 S8 O56'
_cell_volume   1271.69696248
_cell_formula_units_Z   8
loop_
 _symmetry_equiv_pos_site_id
 _symmetry_equiv_pos_as_xyz
  1  'x, y, z'
loop_
 _atom_site_type_symbol
 _atom_site_label
 _atom_site_symmetry_multiplicity
 _atom_site_fract_x
 _atom_site_fract_y
 _atom_site_fract_z
 _atom_site_occupancy
  Co  Co0  1  0.72705600  0.01752200  0.32642900  1
  Co  Co1  1  0.22705600  0.48247800  0.67357100  1
  Co  Co2  1  0.27294400  0.51752200  0.17357100  1
  Co  Co3  1  0.77294400  0.98247800  0.82642900  1
  Co  Co4  1  0.27294400  0.98247800  0.67357100  1
  Co  Co5  1  0.77294400  0.51752200  0.32642900  1
  Co  Co6  1  0.72705600  0.48247800  0.82642900  1
  Co  Co7  1  0.22705600  0.01752200  0.17357100  1
  Bi  Bi8  1  0.72428100  0.88246200  0.15735000  1
  Bi  Bi9  1  0.22428100  0.61753800  0.84265000  1
  Bi  Bi10  1  0.27571900  0.38246200  0.34265000  1
  Bi  Bi11  1  0.77571900  0.11753800  0.65735000  1
  Bi  Bi12  1  0.27571900  0.11753800  0.84265000  1
  Bi  Bi13  1  0.77571900  0.38246200  0.15735000  1
  Bi  Bi14  1  0.72428100  0.61753800  0.65735000  1
  Bi  Bi15  1  0.22428100  0.88246200  0.34265000  1
  Bi  Bi16  1  0.75099900  0.08425800  0.01928300  1
  Bi  Bi17  1  0.25099900  0.41574200  0.98071700  1
  Bi  Bi18  1  0.24900100  0.58425800  0.48071700  1
  Bi  Bi19  1  0.74900100  0.91574200  0.51928300  1
  Bi  Bi20  1  0.24900100  0.91574200  0.98071700  1
  Bi  Bi21  1  0.74900100  0.58425800  0.01928300  1
  Bi  Bi22  1  0.75099900  0.41574200  0.51928300  1
  Bi  Bi23  1  0.25099900  0.08425800  0.48071700  1
  S  S24  1  0.79500900  0.20550500  0.38871600  1
  S  S25  1  0.29500900  0.29449500  0.61128400  1
  S  S26  1  0.20499100  0.70550500  0.11128400  1
  S  S27  1  0.70499100  0.79449500  0.88871600  1
  S  S28  1  0.20499100  0.79449500  0.61128400  1
  S  S29  1  0.70499100  0.70550500  0.38871600  1
  S  S30  1  0.79500900  0.29449500  0.88871600  1
  S  S31  1  0.29500900  0.20550500  0.11128400  1
  O  O32  1  0.48222900  0.98087300  0.08336700  1
  O  O33  1  0.98222900  0.51912700  0.91663300  1
  O  O34  1  0.51777100  0.48087300  0.41663300  1
  O  O35  1  0.01777100  0.01912700  0.58336700  1
  O  O36  1  0.51777100  0.01912700  0.91663300  1
  O  O37  1  0.01777100  0.48087300  0.08336700  1
  O  O38  1  0.48222900  0.51912700  0.58336700  1
  O  O39  1  0.98222900  0.98087300  0.41663300  1
  O  O40  1  0.97152700  0.97120400  0.07957000  1
  O  O41  1  0.47152700  0.52879600  0.92043000  1
  O  O42  1  0.02847300  0.47120400  0.42043000  1
  O  O43  1  0.52847300  0.02879600  0.57957000  1
  O  O44  1  0.02847300  0.02879600  0.92043000  1
  O  O45  1  0.52847300  0.47120400  0.07957000  1
  O  O46  1  0.97152700  0.52879600  0.57957000  1
  O  O47  1  0.47152700  0.97120400  0.42043000  1
  O  O48  1  0.97456800  0.95473600  0.24924600  1
  O  O49  1  0.47456800  0.54526400  0.75075400  1
  O  O50  1  0.02543200  0.45473600  0.25075400  1
  O  O51  1  0.52543200  0.04526400  0.74924600  1
  O  O52  1  0.02543200  0.04526400  0.75075400  1
  O  O53  1  0.52543200  0.45473600  0.24924600  1
  O  O54  1  0.97456800  0.54526400  0.74924600  1
  O  O55  1  0.47456800  0.95473600  0.25075400  1
  O  O56  1  0.74755900  0.30479000  0.36795000  1
  O  O57  1  0.24755900  0.19521000  0.63205000  1
  O  O58  1  0.25244100  0.80479000  0.13205000  1
  O  O59  1  0.75244100  0.69521000  0.86795000  1
  O  O60  1  0.25244100  0.69521000  0.63205000  1
  O  O61  1  0.75244100  0.80479000  0.36795000  1
  O  O62  1  0.74755900  0.19521000  0.86795000  1
  O  O63  1  0.24755900  0.30479000  0.13205000  1
  O  O64  1  0.80245400  0.19293100  0.48134300  1
  O  O65  1  0.30245400  0.30706900  0.51865700  1
  O  O66  1  0.19754600  0.69293100  0.01865700  1
  O  O67  1  0.69754600  0.80706900  0.98134300  1
  O  O68  1  0.19754600  0.80706900  0.51865700  1
  O  O69  1  0.69754600  0.69293100  0.48134300  1
  O  O70  1  0.80245400  0.30706900  0.98134300  1
  O  O71  1  0.30245400  0.19293100  0.01865700  1
  O  O72  1  0.58912600  0.14745800  0.35332100  1
  O  O73  1  0.08912600  0.35254200  0.64667900  1
  O  O74  1  0.41087400  0.64745800  0.14667900  1
  O  O75  1  0.91087400  0.85254200  0.85332100  1
  O  O76  1  0.41087400  0.85254200  0.64667900  1
  O  O77  1  0.91087400  0.64745800  0.35332100  1
  O  O78  1  0.58912600  0.35254200  0.85332100  1
  O  O79  1  0.08912600  0.14745800  0.14667900  1
  O  O80  1  0.02822300  0.17513200  0.35039700  1
  O  O81  1  0.52822300  0.32486800  0.64960300  1
  O  O82  1  0.97177700  0.67513200  0.14960300  1
  O  O83  1  0.47177700  0.82486800  0.85039700  1
  O  O84  1  0.97177700  0.82486800  0.64960300  1
  O  O85  1  0.47177700  0.67513200  0.35039700  1
  O  O86  1  0.02822300  0.32486800  0.85039700  1
  O  O87  1  0.52822300  0.17513200  0.14960300  1
