# generated using pymatgen
data_Hf5As3
_symmetry_space_group_name_H-M   'P 1'
_cell_length_a   3.61957200
_cell_length_b   12.40546300
_cell_length_c   27.68553700
_cell_angle_alpha   90.00000000
_cell_angle_beta   90.00000000
_cell_angle_gamma   90.00000000
_symmetry_Int_Tables_number   1
_chemical_formula_structural   Hf5As3
_chemical_formula_sum   'Hf40 As24'
_cell_volume   1243.14889828
_cell_formula_units_Z   8
loop_
 _symmetry_equiv_pos_site_id
 _symmetry_equiv_pos_as_xyz
  1  'x, y, z'
loop_
 _atom_site_type_symbol
 _atom_site_label
 _atom_site_symmetry_multiplicity
 _atom_site_fract_x
 _atom_site_fract_y
 _atom_site_fract_z
 _atom_site_occupancy
  Hf  Hf0  1  0.25000000  0.88012000  0.72688400  1
  Hf  Hf1  1  0.25000000  0.61988000  0.22688400  1
  Hf  Hf2  1  0.75000000  0.11988000  0.27311600  1
  Hf  Hf3  1  0.75000000  0.38012000  0.77311600  1
  Hf  Hf4  1  0.25000000  0.53942000  0.82345200  1
  Hf  Hf5  1  0.25000000  0.96058000  0.32345200  1
  Hf  Hf6  1  0.75000000  0.46058000  0.17654800  1
  Hf  Hf7  1  0.75000000  0.03942000  0.67654800  1
  Hf  Hf8  1  0.25000000  0.92659900  0.60136600  1
  Hf  Hf9  1  0.25000000  0.57340100  0.10136600  1
  Hf  Hf10  1  0.75000000  0.07340100  0.39863400  1
  Hf  Hf11  1  0.75000000  0.42659900  0.89863400  1
  Hf  Hf12  1  0.25000000  0.20879400  0.62376100  1
  Hf  Hf13  1  0.25000000  0.29120600  0.12376100  1
  Hf  Hf14  1  0.75000000  0.79120600  0.37623900  1
  Hf  Hf15  1  0.75000000  0.70879400  0.87623900  1
  Hf  Hf16  1  0.25000000  0.65098300  0.63769300  1
  Hf  Hf17  1  0.25000000  0.84901700  0.13769300  1
  Hf  Hf18  1  0.75000000  0.34901700  0.36230700  1
  Hf  Hf19  1  0.75000000  0.15098300  0.86230700  1
  Hf  Hf20  1  0.25000000  0.15957900  0.76129500  1
  Hf  Hf21  1  0.25000000  0.34042100  0.26129500  1
  Hf  Hf22  1  0.75000000  0.84042100  0.23870500  1
  Hf  Hf23  1  0.75000000  0.65957900  0.73870500  1
  Hf  Hf24  1  0.25000000  0.94302200  0.84921200  1
  Hf  Hf25  1  0.25000000  0.55697800  0.34921200  1
  Hf  Hf26  1  0.75000000  0.05697800  0.15078800  1
  Hf  Hf27  1  0.75000000  0.44302200  0.65078800  1
  Hf  Hf28  1  0.25000000  0.80328300  0.95539100  1
  Hf  Hf29  1  0.25000000  0.69671700  0.45539100  1
  Hf  Hf30  1  0.75000000  0.19671700  0.04460900  1
  Hf  Hf31  1  0.75000000  0.30328300  0.54460900  1
  Hf  Hf32  1  0.25000000  0.08387800  0.96790400  1
  Hf  Hf33  1  0.25000000  0.41612200  0.46790400  1
  Hf  Hf34  1  0.75000000  0.91612200  0.03209600  1
  Hf  Hf35  1  0.75000000  0.58387800  0.53209600  1
  Hf  Hf36  1  0.25000000  0.38882700  0.99867100  1
  Hf  Hf37  1  0.25000000  0.11117300  0.49867100  1
  Hf  Hf38  1  0.75000000  0.61117300  0.00132900  1
  Hf  Hf39  1  0.75000000  0.88882700  0.50132900  1
  As  As40  1  0.25000000  0.75021100  0.54884000  1
  As  As41  1  0.25000000  0.74978900  0.04884000  1
  As  As42  1  0.75000000  0.24978900  0.45116000  1
  As  As43  1  0.75000000  0.25021100  0.95116000  1
  As  As44  1  0.25000000  0.44983300  0.57667400  1
  As  As45  1  0.25000000  0.05016700  0.07667400  1
  As  As46  1  0.75000000  0.55016700  0.42332600  1
  As  As47  1  0.75000000  0.94983300  0.92332600  1
  As  As48  1  0.25000000  0.50233400  0.72051400  1
  As  As49  1  0.25000000  0.99766600  0.22051400  1
  As  As50  1  0.75000000  0.49766600  0.27948600  1
  As  As51  1  0.75000000  0.00233400  0.77948600  1
  As  As52  1  0.25000000  0.75078200  0.80260300  1
  As  As53  1  0.25000000  0.74921800  0.30260300  1
  As  As54  1  0.75000000  0.24921800  0.19739700  1
  As  As55  1  0.75000000  0.25078200  0.69739700  1
  As  As56  1  0.25000000  0.31141700  0.83958400  1
  As  As57  1  0.25000000  0.18858300  0.33958400  1
  As  As58  1  0.75000000  0.68858300  0.16041600  1
  As  As59  1  0.75000000  0.81141700  0.66041600  1
  As  As60  1  0.25000000  0.57968400  0.92743600  1
  As  As61  1  0.25000000  0.92031600  0.42743600  1
  As  As62  1  0.75000000  0.42031600  0.07256400  1
  As  As63  1  0.75000000  0.07968400  0.57256400  1
