# generated using pymatgen
data_Ba4Sr2Nd2Co4O15
_symmetry_space_group_name_H-M   'P 1'
_cell_length_a   11.80709111
_cell_length_b   11.80709111
_cell_length_c   6.93173373
_cell_angle_alpha   89.73668612
_cell_angle_beta   89.73668612
_cell_angle_gamma   119.99165701
_symmetry_Int_Tables_number   1
_chemical_formula_structural   Ba4Sr2Nd2Co4O15
_chemical_formula_sum   'Ba8 Sr4 Nd4 Co8 O30'
_cell_volume   836.90564290
_cell_formula_units_Z   2
loop_
 _symmetry_equiv_pos_site_id
 _symmetry_equiv_pos_as_xyz
  1  'x, y, z'
loop_
 _atom_site_type_symbol
 _atom_site_label
 _atom_site_symmetry_multiplicity
 _atom_site_fract_x
 _atom_site_fract_y
 _atom_site_fract_z
 _atom_site_occupancy
  Ba  Ba0  1  0.82520300  0.17301000  0.32993300  1
  Ba  Ba1  1  0.82887700  0.65682100  0.32946700  1
  Ba  Ba2  1  0.34533800  0.17397900  0.33483500  1
  Ba  Ba3  1  0.17301000  0.82520300  0.82993300  1
  Ba  Ba4  1  0.17397900  0.34533800  0.83483500  1
  Ba  Ba5  1  0.65682100  0.82887700  0.82946700  1
  Ba  Ba6  1  0.66439900  0.33248300  0.00930600  1
  Ba  Ba7  1  0.33248300  0.66439900  0.50930600  1
  Sr  Sr8  1  0.00002900  0.00025100  0.51265100  1
  Sr  Sr9  1  0.00025100  0.00002900  0.01265100  1
  Sr  Sr10  1  0.52615300  0.05004600  0.67000000  1
  Sr  Sr11  1  0.05004600  0.52615300  0.17000000  1
  Nd  Nd12  1  0.52426100  0.47630900  0.66628400  1
  Nd  Nd13  1  0.95156000  0.47729600  0.66948700  1
  Nd  Nd14  1  0.47630900  0.52426100  0.16628400  1
  Nd  Nd15  1  0.47729600  0.95156000  0.16948700  1
  Co  Co16  1  0.66613300  0.33252200  0.46489200  1
  Co  Co17  1  0.33252200  0.66613300  0.96489200  1
  Co  Co18  1  0.82619100  0.17571100  0.83883600  1
  Co  Co19  1  0.82670100  0.65211500  0.83605300  1
  Co  Co20  1  0.35008700  0.17193400  0.84149100  1
  Co  Co21  1  0.17571100  0.82619100  0.33883600  1
  Co  Co22  1  0.17193400  0.35008700  0.34149100  1
  Co  Co23  1  0.65211500  0.82670100  0.33605300  1
  O  O24  1  0.06081400  0.67181500  0.48262100  1
  O  O25  1  0.33322500  0.39549100  0.46868000  1
  O  O26  1  0.60468400  0.93342800  0.45950800  1
  O  O27  1  0.06493000  0.39144800  0.48083700  1
  O  O28  1  0.32856200  0.93488000  0.46542900  1
  O  O29  1  0.60539400  0.66558300  0.46445300  1
  O  O30  1  0.93488000  0.32856200  0.96542900  1
  O  O31  1  0.66558300  0.60539400  0.96445300  1
  O  O32  1  0.39144800  0.06493000  0.98083700  1
  O  O33  1  0.93342800  0.60468400  0.95950800  1
  O  O34  1  0.67181500  0.06081400  0.98262100  1
  O  O35  1  0.39549100  0.33322500  0.96868000  1
  O  O36  1  0.58090200  0.41636900  0.33077400  1
  O  O37  1  0.58254300  0.16819200  0.32600900  1
  O  O38  1  0.82836200  0.41549100  0.34314600  1
  O  O39  1  0.41636900  0.58090200  0.83077400  1
  O  O40  1  0.41549100  0.82836200  0.84314600  1
  O  O41  1  0.16819200  0.58254300  0.82600900  1
  O  O42  1  0.08369700  0.90227600  0.25118700  1
  O  O43  1  0.09544700  0.18370500  0.25128200  1
  O  O44  1  0.82085600  0.90472700  0.25394900  1
  O  O45  1  0.90227600  0.08369700  0.75118700  1
  O  O46  1  0.90472700  0.82085600  0.75394900  1
  O  O47  1  0.18370500  0.09544700  0.75128200  1
  O  O48  1  0.75744100  0.25224400  0.66458900  1
  O  O49  1  0.75024900  0.50614100  0.66277200  1
  O  O50  1  0.49800600  0.25569000  0.66572700  1
  O  O51  1  0.25224400  0.75744100  0.16458900  1
  O  O52  1  0.25569000  0.49800600  0.16572700  1
  O  O53  1  0.50614100  0.75024900  0.16277200  1
