# generated using pymatgen
data_GdAlRh
_symmetry_space_group_name_H-M   'P 1'
_cell_length_a   4.22452400
_cell_length_b   6.99186000
_cell_length_c   7.96124200
_cell_angle_alpha   90.00000000
_cell_angle_beta   90.00000000
_cell_angle_gamma   90.00000000
_symmetry_Int_Tables_number   1
_chemical_formula_structural   GdAlRh
_chemical_formula_sum   'Gd4 Al4 Rh4'
_cell_volume   235.15343708
_cell_formula_units_Z   4
loop_
 _symmetry_equiv_pos_site_id
 _symmetry_equiv_pos_as_xyz
  1  'x, y, z'
loop_
 _atom_site_type_symbol
 _atom_site_label
 _atom_site_symmetry_multiplicity
 _atom_site_fract_x
 _atom_site_fract_y
 _atom_site_fract_z
 _atom_site_occupancy
  Gd  Gd0  1  0.25000000  0.53891500  0.18065100  1
  Gd  Gd1  1  0.75000000  0.46108500  0.81934900  1
  Gd  Gd2  1  0.75000000  0.96108500  0.68065100  1
  Gd  Gd3  1  0.25000000  0.03891500  0.31934900  1
  Al  Al4  1  0.25000000  0.63517600  0.56200900  1
  Al  Al5  1  0.75000000  0.36482400  0.43799100  1
  Al  Al6  1  0.75000000  0.86482400  0.06200900  1
  Al  Al7  1  0.25000000  0.13517600  0.93799100  1
  Rh  Rh8  1  0.25000000  0.76721900  0.88257100  1
  Rh  Rh9  1  0.75000000  0.23278100  0.11742900  1
  Rh  Rh10  1  0.75000000  0.73278100  0.38257100  1
  Rh  Rh11  1  0.25000000  0.26721900  0.61742900  1
