# generated using pymatgen
data_Nd2CdGe2
_symmetry_space_group_name_H-M   'P 1'
_cell_length_a   7.51202000
_cell_length_b   7.51202000
_cell_length_c   4.35938600
_cell_angle_alpha   90.00000000
_cell_angle_beta   90.00000000
_cell_angle_gamma   90.00000000
_symmetry_Int_Tables_number   1
_chemical_formula_structural   Nd2CdGe2
_chemical_formula_sum   'Nd4 Cd2 Ge4'
_cell_volume   246.00208964
_cell_formula_units_Z   2
loop_
 _symmetry_equiv_pos_site_id
 _symmetry_equiv_pos_as_xyz
  1  'x, y, z'
loop_
 _atom_site_type_symbol
 _atom_site_label
 _atom_site_symmetry_multiplicity
 _atom_site_fract_x
 _atom_site_fract_y
 _atom_site_fract_z
 _atom_site_occupancy
  Nd  Nd0  1  0.67945700  0.17945700  0.50000000  1
  Nd  Nd1  1  0.32054300  0.82054300  0.50000000  1
  Nd  Nd2  1  0.17945700  0.32054300  0.50000000  1
  Nd  Nd3  1  0.82054300  0.67945700  0.50000000  1
  Cd  Cd4  1  0.50000000  0.50000000  0.00000000  1
  Cd  Cd5  1  0.00000000  0.00000000  0.00000000  1
  Ge  Ge6  1  0.12003700  0.62003700  0.00000000  1
  Ge  Ge7  1  0.87996300  0.37996300  0.00000000  1
  Ge  Ge8  1  0.62003700  0.87996300  0.00000000  1
  Ge  Ge9  1  0.37996300  0.12003700  0.00000000  1
