# generated using pymatgen
data_Rb3NaBe2F8
_symmetry_space_group_name_H-M   'P 1'
_cell_length_a   5.84364746
_cell_length_b   5.84364746
_cell_length_c   7.59933600
_cell_angle_alpha   90.00000000
_cell_angle_beta   90.00000000
_cell_angle_gamma   119.99999393
_symmetry_Int_Tables_number   1
_chemical_formula_structural   Rb3NaBe2F8
_chemical_formula_sum   'Rb3 Na1 Be2 F8'
_cell_volume   224.73686643
_cell_formula_units_Z   1
loop_
 _symmetry_equiv_pos_site_id
 _symmetry_equiv_pos_as_xyz
  1  'x, y, z'
loop_
 _atom_site_type_symbol
 _atom_site_label
 _atom_site_symmetry_multiplicity
 _atom_site_fract_x
 _atom_site_fract_y
 _atom_site_fract_z
 _atom_site_occupancy
  Rb  Rb0  1  0.33333300  0.66666700  0.18089300  1
  Rb  Rb1  1  0.00000000  0.00000000  0.50000000  1
  Rb  Rb2  1  0.66666700  0.33333300  0.81910700  1
  Na  Na3  1  0.00000000  0.00000000  0.00000000  1
  Be  Be4  1  0.33333300  0.66666700  0.74165200  1
  Be  Be5  1  0.66666700  0.33333300  0.25834800  1
  F  F6  1  0.37367400  0.18683700  0.18260300  1
  F  F7  1  0.62632600  0.81316300  0.81739700  1
  F  F8  1  0.81316300  0.18683700  0.18260300  1
  F  F9  1  0.81316300  0.62632600  0.18260300  1
  F  F10  1  0.33333300  0.66666700  0.54023700  1
  F  F11  1  0.66666700  0.33333300  0.45976300  1
  F  F12  1  0.18683700  0.81316300  0.81739700  1
  F  F13  1  0.18683700  0.37367400  0.81739700  1
