# generated using pymatgen
data_V4Cr2O13
_symmetry_space_group_name_H-M   'P 1'
_cell_length_a   9.55155100
_cell_length_b   8.48419600
_cell_length_c   14.90447923
_cell_angle_alpha   76.88776705
_cell_angle_beta   90.00000000
_cell_angle_gamma   90.00000000
_symmetry_Int_Tables_number   1
_chemical_formula_structural   V4Cr2O13
_chemical_formula_sum   'V16 Cr8 O52'
_cell_volume   1176.32696076
_cell_formula_units_Z   4
loop_
 _symmetry_equiv_pos_site_id
 _symmetry_equiv_pos_as_xyz
  1  'x, y, z'
loop_
 _atom_site_type_symbol
 _atom_site_label
 _atom_site_symmetry_multiplicity
 _atom_site_fract_x
 _atom_site_fract_y
 _atom_site_fract_z
 _atom_site_occupancy
  V  V0  1  0.71073600  0.46513000  0.09184000  1
  V  V1  1  0.21073600  0.53487000  0.40816000  1
  V  V2  1  0.28926400  0.53487000  0.90816000  1
  V  V3  1  0.78926400  0.46513000  0.59184000  1
  V  V4  1  0.72481900  0.25739400  0.32867900  1
  V  V5  1  0.22481900  0.74260600  0.17132100  1
  V  V6  1  0.27518100  0.74260600  0.67132100  1
  V  V7  1  0.77518100  0.25739400  0.82867900  1
  V  V8  1  0.74134300  0.85853500  0.32757400  1
  V  V9  1  0.24134300  0.14146500  0.17242600  1
  V  V10  1  0.25865700  0.14146500  0.67242600  1
  V  V11  1  0.75865700  0.85853500  0.82757400  1
  V  V12  1  0.29062500  0.04330100  0.40777000  1
  V  V13  1  0.79062500  0.95669900  0.09223000  1
  V  V14  1  0.70937500  0.95669900  0.59223000  1
  V  V15  1  0.20937500  0.04330100  0.90777000  1
  Cr  Cr16  1  0.99915100  0.80994700  0.50944500  1
  Cr  Cr17  1  0.49915100  0.19005300  0.99055500  1
  Cr  Cr18  1  0.00084900  0.19005300  0.49055500  1
  Cr  Cr19  1  0.50084900  0.80994700  0.00944500  1
  Cr  Cr20  1  0.49830700  0.68942200  0.48681300  1
  Cr  Cr21  1  0.99830700  0.31057800  0.01318700  1
  Cr  Cr22  1  0.50169300  0.31057800  0.51318700  1
  Cr  Cr23  1  0.00169300  0.68942200  0.98681300  1
  O  O24  1  0.11524900  0.65215000  0.46288000  1
  O  O25  1  0.61524900  0.34785000  0.03712000  1
  O  O26  1  0.88475100  0.34785000  0.53712000  1
  O  O27  1  0.38475100  0.65215000  0.96288000  1
  O  O28  1  0.11234400  0.76264600  0.62529600  1
  O  O29  1  0.61234400  0.23735400  0.87470400  1
  O  O30  1  0.88765600  0.23735400  0.37470400  1
  O  O31  1  0.38765600  0.76264600  0.12529600  1
  O  O32  1  0.86386200  0.65052500  0.57568100  1
  O  O33  1  0.36386200  0.34947500  0.92431900  1
  O  O34  1  0.13613800  0.34947500  0.42431900  1
  O  O35  1  0.63613800  0.65052500  0.07568100  1
  O  O36  1  0.88468300  0.98951400  0.54721000  1
  O  O37  1  0.38468300  0.01048600  0.95279000  1
  O  O38  1  0.11531700  0.01048600  0.45279000  1
  O  O39  1  0.61531700  0.98951400  0.04721000  1
  O  O40  1  0.88624800  0.83664700  0.39438800  1
  O  O41  1  0.38624800  0.16335300  0.10561200  1
  O  O42  1  0.11375200  0.16335300  0.60561200  1
  O  O43  1  0.61375200  0.83664700  0.89438800  1
  O  O44  1  0.61534300  0.72209300  0.37283700  1
  O  O45  1  0.11534300  0.27790700  0.12716300  1
  O  O46  1  0.38465700  0.27790700  0.62716300  1
  O  O47  1  0.88465700  0.72209300  0.87283700  1
  O  O48  1  0.61435800  0.49166200  0.54665600  1
  O  O49  1  0.11435800  0.50833800  0.95334400  1
  O  O50  1  0.38564200  0.50833800  0.45334400  1
  O  O51  1  0.88564200  0.49166200  0.04665600  1
  O  O52  1  0.38769400  0.67328000  0.60178200  1
  O  O53  1  0.88769400  0.32672000  0.89821800  1
  O  O54  1  0.61230600  0.32672000  0.39821800  1
  O  O55  1  0.11230600  0.67328000  0.10178200  1
  O  O56  1  0.36627100  0.85845600  0.41855700  1
  O  O57  1  0.86627100  0.14154400  0.08144300  1
  O  O58  1  0.63372900  0.14154400  0.58144300  1
  O  O59  1  0.13372900  0.85845600  0.91855700  1
  O  O60  1  0.78685500  0.84875700  0.21181000  1
  O  O61  1  0.28685500  0.15124300  0.28819000  1
  O  O62  1  0.21314500  0.15124300  0.78819000  1
  O  O63  1  0.71314500  0.84875700  0.71181000  1
  O  O64  1  0.67059800  0.05652800  0.32248200  1
  O  O65  1  0.17059800  0.94347200  0.17751800  1
  O  O66  1  0.32940200  0.94347200  0.67751800  1
  O  O67  1  0.82940200  0.05652800  0.82248200  1
  O  O68  1  0.72079700  0.38049600  0.21404600  1
  O  O69  1  0.22079700  0.61950400  0.28595400  1
  O  O70  1  0.27920300  0.61950400  0.78595400  1
  O  O71  1  0.77920300  0.38049600  0.71404600  1
  O  O72  1  0.38241000  0.15082300  0.47029700  1
  O  O73  1  0.88241000  0.84917700  0.02970300  1
  O  O74  1  0.61759000  0.84917700  0.52970300  1
  O  O75  1  0.11759000  0.15082300  0.97029700  1
