# generated using pymatgen
data_YbCdAu
_symmetry_space_group_name_H-M   'P 1'
_cell_length_a   4.43619500
_cell_length_b   7.22995300
_cell_length_c   8.84048200
_cell_angle_alpha   90.00000000
_cell_angle_beta   90.00000000
_cell_angle_gamma   90.00000000
_symmetry_Int_Tables_number   1
_chemical_formula_structural   YbCdAu
_chemical_formula_sum   'Yb4 Cd4 Au4'
_cell_volume   283.54503454
_cell_formula_units_Z   4
loop_
 _symmetry_equiv_pos_site_id
 _symmetry_equiv_pos_as_xyz
  1  'x, y, z'
loop_
 _atom_site_type_symbol
 _atom_site_label
 _atom_site_symmetry_multiplicity
 _atom_site_fract_x
 _atom_site_fract_y
 _atom_site_fract_z
 _atom_site_occupancy
  Yb  Yb0  1  0.75000000  0.95280400  0.68131500  1
  Yb  Yb1  1  0.25000000  0.54719600  0.18131500  1
  Yb  Yb2  1  0.75000000  0.45280400  0.81868500  1
  Yb  Yb3  1  0.25000000  0.04719600  0.31868500  1
  Cd  Cd4  1  0.25000000  0.14271100  0.94391700  1
  Cd  Cd5  1  0.25000000  0.64271100  0.55608300  1
  Cd  Cd6  1  0.75000000  0.85728900  0.05608300  1
  Cd  Cd7  1  0.75000000  0.35728900  0.44391700  1
  Au  Au8  1  0.25000000  0.24099100  0.63130100  1
  Au  Au9  1  0.25000000  0.74099100  0.86869900  1
  Au  Au10  1  0.75000000  0.25900900  0.13130100  1
  Au  Au11  1  0.75000000  0.75900900  0.36869900  1
