# generated using pymatgen
data_Eu(GaS2)2
_symmetry_space_group_name_H-M   'P 1'
_cell_length_a   14.63502959
_cell_length_b   12.10626104
_cell_length_c   11.98833438
_cell_angle_alpha   74.80152439
_cell_angle_beta   52.96600188
_cell_angle_gamma   52.23247373
_symmetry_Int_Tables_number   1
_chemical_formula_structural   Eu(GaS2)2
_chemical_formula_sum   'Eu8 Ga16 S32'
_cell_volume   1321.05088938
_cell_formula_units_Z   8
loop_
 _symmetry_equiv_pos_site_id
 _symmetry_equiv_pos_as_xyz
  1  'x, y, z'
loop_
 _atom_site_type_symbol
 _atom_site_label
 _atom_site_symmetry_multiplicity
 _atom_site_fract_x
 _atom_site_fract_y
 _atom_site_fract_z
 _atom_site_occupancy
  Eu  Eu0  1  0.24759900  0.24759900  0.75240100  1
  Eu  Eu1  1  0.00000000  0.00000000  0.00000000  1
  Eu  Eu2  1  0.25000000  0.25000000  0.25000000  1
  Eu  Eu3  1  0.50000000  0.50000000  0.50000000  1
  Eu  Eu4  1  0.00240100  0.00240100  0.49759900  1
  Eu  Eu5  1  0.49759900  0.49759900  0.00240100  1
  Eu  Eu6  1  0.75240100  0.75240100  0.24759900  1
  Eu  Eu7  1  0.75000000  0.75000000  0.75000000  1
  Ga  Ga8  1  0.76041800  0.48857500  0.01475500  1
  Ga  Ga9  1  0.48857500  0.76041800  0.73625200  1
  Ga  Ga10  1  0.48958200  0.76142500  0.23524500  1
  Ga  Ga11  1  0.26571300  0.98491000  0.59140800  1
  Ga  Ga12  1  0.59140800  0.15796900  0.26571300  1
  Ga  Ga13  1  0.26509000  0.98428700  0.09203100  1
  Ga  Ga14  1  0.01475500  0.73625200  0.76041800  1
  Ga  Ga15  1  0.23524500  0.51374800  0.48958200  1
  Ga  Ga16  1  0.73625200  0.01475500  0.48857500  1
  Ga  Ga17  1  0.98491000  0.26571300  0.15796900  1
  Ga  Ga18  1  0.15796900  0.59140800  0.98491000  1
  Ga  Ga19  1  0.65859200  0.09203100  0.98428700  1
  Ga  Ga20  1  0.76142500  0.48958200  0.51374800  1
  Ga  Ga21  1  0.09203100  0.65859200  0.26509000  1
  Ga  Ga22  1  0.98428700  0.26509000  0.65859200  1
  Ga  Ga23  1  0.51374800  0.23524500  0.76142500  1
  S  S24  1  0.78091600  0.47143100  0.31112000  1
  S  S25  1  0.77856900  0.46908400  0.81346700  1
  S  S26  1  0.31112000  0.43653300  0.78091600  1
  S  S27  1  0.04033400  0.04261100  0.20949800  1
  S  S28  1  0.43653300  0.31112000  0.47143100  1
  S  S29  1  0.77692100  0.97535800  0.28275200  1
  S  S30  1  0.04075300  0.54246900  0.70984200  1
  S  S31  1  0.46908400  0.77856900  0.93888000  1
  S  S32  1  0.70753100  0.20924700  0.54306300  1
  S  S33  1  0.81346700  0.93888000  0.77856900  1
  S  S34  1  0.54306300  0.54015800  0.70753100  1
  S  S35  1  0.04261100  0.04033400  0.70755700  1
  S  S36  1  0.93888000  0.81346700  0.46908400  1
  S  S37  1  0.96496900  0.28275200  0.97535800  1
  S  S38  1  0.54244300  0.04050200  0.20738900  1
  S  S39  1  0.20966600  0.20738900  0.04050200  1
  S  S40  1  0.96724800  0.28503100  0.47307900  1
  S  S41  1  0.20949800  0.70755700  0.04033400  1
  S  S42  1  0.70984200  0.70693700  0.04075300  1
  S  S43  1  0.47307900  0.27464200  0.96724800  1
  S  S44  1  0.28275200  0.96496900  0.77692100  1
  S  S45  1  0.27464200  0.47307900  0.28503100  1
  S  S46  1  0.47143100  0.78091600  0.43653300  1
  S  S47  1  0.28503100  0.96724800  0.27464200  1
  S  S48  1  0.20924700  0.70753100  0.54015800  1
  S  S49  1  0.20738900  0.20966600  0.54244300  1
  S  S50  1  0.70755700  0.20949800  0.04261100  1
  S  S51  1  0.54246900  0.04075300  0.70693700  1
  S  S52  1  0.70693700  0.70984200  0.54246900  1
  S  S53  1  0.04050200  0.54244300  0.20966600  1
  S  S54  1  0.97535800  0.77692100  0.96496900  1
  S  S55  1  0.54015800  0.54306300  0.20924700  1
