# generated using pymatgen
data_HoGaCo
_symmetry_space_group_name_H-M   'P 1'
_cell_length_a   4.40941700
_cell_length_b   6.87394600
_cell_length_c   6.97092800
_cell_angle_alpha   90.00000000
_cell_angle_beta   90.00000000
_cell_angle_gamma   90.00000000
_symmetry_Int_Tables_number   1
_chemical_formula_structural   HoGaCo
_chemical_formula_sum   'Ho4 Ga4 Co4'
_cell_volume   211.28948538
_cell_formula_units_Z   4
loop_
 _symmetry_equiv_pos_site_id
 _symmetry_equiv_pos_as_xyz
  1  'x, y, z'
loop_
 _atom_site_type_symbol
 _atom_site_label
 _atom_site_symmetry_multiplicity
 _atom_site_fract_x
 _atom_site_fract_y
 _atom_site_fract_z
 _atom_site_occupancy
  Ho  Ho0  1  0.25000000  0.30413000  0.52068700  1
  Ho  Ho1  1  0.25000000  0.19587000  0.02068700  1
  Ho  Ho2  1  0.75000000  0.69587000  0.47931300  1
  Ho  Ho3  1  0.75000000  0.80413000  0.97931300  1
  Ga  Ga4  1  0.25000000  0.89508200  0.69505500  1
  Ga  Ga5  1  0.25000000  0.60491800  0.19505500  1
  Ga  Ga6  1  0.75000000  0.10491800  0.30494500  1
  Ga  Ga7  1  0.75000000  0.39508200  0.80494500  1
  Co  Co8  1  0.25000000  0.93739100  0.34186700  1
  Co  Co9  1  0.25000000  0.56260900  0.84186700  1
  Co  Co10  1  0.75000000  0.06260900  0.65813300  1
  Co  Co11  1  0.75000000  0.43739100  0.15813300  1
