# generated using pymatgen
data_HfMgN2
_symmetry_space_group_name_H-M   'P 1'
_cell_length_a   4.43601600
_cell_length_b   4.43601300
_cell_length_c   5.57011772
_cell_angle_alpha   113.46587874
_cell_angle_beta   113.46588995
_cell_angle_gamma   89.99981917
_symmetry_Int_Tables_number   1
_chemical_formula_structural   HfMgN2
_chemical_formula_sum   'Hf2 Mg2 N4'
_cell_volume   90.57727411
_cell_formula_units_Z   2
loop_
 _symmetry_equiv_pos_site_id
 _symmetry_equiv_pos_as_xyz
  1  'x, y, z'
loop_
 _atom_site_type_symbol
 _atom_site_label
 _atom_site_symmetry_multiplicity
 _atom_site_fract_x
 _atom_site_fract_y
 _atom_site_fract_z
 _atom_site_occupancy
  Hf  Hf0  1  0.12500100  0.37499900  0.25000000  1
  Hf  Hf1  1  0.87499900  0.62500100  0.75000000  1
  Mg  Mg2  1  0.37499600  0.12500400  0.75000000  1
  Mg  Mg3  1  0.62500400  0.87499600  0.25000000  1
  N  N4  1  0.11409300  0.86409200  0.22818600  1
  N  N5  1  0.88590700  0.13590800  0.77181400  1
  N  N6  1  0.63590800  0.38590700  0.27181400  1
  N  N7  1  0.36409200  0.61409300  0.72818600  1
