# generated using pymatgen
data_BaInF5
_symmetry_space_group_name_H-M   'P 1'
_cell_length_a   7.88023800
_cell_length_b   7.74113300
_cell_length_c   15.91243727
_cell_angle_alpha   84.65273934
_cell_angle_beta   90.00000000
_cell_angle_gamma   90.00000000
_symmetry_Int_Tables_number   1
_chemical_formula_structural   BaInF5
_chemical_formula_sum   'Ba8 In8 F40'
_cell_volume   966.46574689
_cell_formula_units_Z   8
loop_
 _symmetry_equiv_pos_site_id
 _symmetry_equiv_pos_as_xyz
  1  'x, y, z'
loop_
 _atom_site_type_symbol
 _atom_site_label
 _atom_site_symmetry_multiplicity
 _atom_site_fract_x
 _atom_site_fract_y
 _atom_site_fract_z
 _atom_site_occupancy
  Ba  Ba0  1  0.34594300  0.99944800  0.13677400  1
  Ba  Ba1  1  0.65405700  0.00055200  0.86322600  1
  Ba  Ba2  1  0.84594300  0.00055200  0.36322600  1
  Ba  Ba3  1  0.15405700  0.99944800  0.63677400  1
  Ba  Ba4  1  0.84757500  0.30991800  0.08723300  1
  Ba  Ba5  1  0.15242500  0.69008200  0.91276700  1
  Ba  Ba6  1  0.34757500  0.69008200  0.41276700  1
  Ba  Ba7  1  0.65242500  0.30991800  0.58723300  1
  In  In8  1  0.88048700  0.50519100  0.33859400  1
  In  In9  1  0.11951300  0.49480900  0.66140600  1
  In  In10  1  0.38048700  0.49480900  0.16140600  1
  In  In11  1  0.61951300  0.50519100  0.83859400  1
  In  In12  1  0.81656700  0.81000800  0.12497500  1
  In  In13  1  0.18343300  0.18999200  0.87502500  1
  In  In14  1  0.31656700  0.18999200  0.37502500  1
  In  In15  1  0.68343300  0.81000800  0.62497500  1
  F  F16  1  0.30210200  0.68490200  0.06702300  1
  F  F17  1  0.69789800  0.31509800  0.93297700  1
  F  F18  1  0.80210200  0.31509800  0.43297700  1
  F  F19  1  0.19789800  0.68490200  0.56702300  1
  F  F20  1  0.92070700  0.64871000  0.04076600  1
  F  F21  1  0.07929300  0.35129000  0.95923400  1
  F  F22  1  0.42070700  0.35129000  0.45923400  1
  F  F23  1  0.57929300  0.64871000  0.54076600  1
  F  F24  1  0.48819900  0.99641500  0.60932600  1
  F  F25  1  0.51180100  0.00358500  0.39067400  1
  F  F26  1  0.98819900  0.00358500  0.89067400  1
  F  F27  1  0.01180100  0.99641500  0.10932600  1
  F  F28  1  0.69371500  0.96977300  0.20633500  1
  F  F29  1  0.30628500  0.03022700  0.79366500  1
  F  F30  1  0.19371500  0.03022700  0.29366500  1
  F  F31  1  0.80628500  0.96977300  0.70633500  1
  F  F32  1  0.94575400  0.67827000  0.22881500  1
  F  F33  1  0.05424600  0.32173000  0.77118500  1
  F  F34  1  0.44575400  0.32173000  0.27118500  1
  F  F35  1  0.55424600  0.67827000  0.72881500  1
  F  F36  1  0.67588200  0.96024400  0.03329000  1
  F  F37  1  0.32411800  0.03975600  0.96671000  1
  F  F38  1  0.17588200  0.03975600  0.46671000  1
  F  F39  1  0.82411800  0.96024400  0.53329000  1
  F  F40  1  0.66787400  0.66015000  0.35090000  1
  F  F41  1  0.33212600  0.33985000  0.64910000  1
  F  F42  1  0.16787400  0.33985000  0.14910000  1
  F  F43  1  0.83212600  0.66015000  0.85090000  1
  F  F44  1  0.83538800  0.31195100  0.25802000  1
  F  F45  1  0.16461200  0.68804900  0.74198000  1
  F  F46  1  0.33538800  0.68804900  0.24198000  1
  F  F47  1  0.66461200  0.31195100  0.75802000  1
  F  F48  1  0.50596100  0.30212000  0.09948600  1
  F  F49  1  0.49403900  0.69788000  0.90051400  1
  F  F50  1  0.00596100  0.69788000  0.40051400  1
  F  F51  1  0.99403900  0.30212000  0.59948600  1
  F  F52  1  0.63271200  0.60765300  0.14539300  1
  F  F53  1  0.36728800  0.39234700  0.85460700  1
  F  F54  1  0.13271200  0.39234700  0.35460700  1
  F  F55  1  0.86728800  0.60765300  0.64539300  1
