# generated using pymatgen
data_WS2O9
_symmetry_space_group_name_H-M   'P 1'
_cell_length_a   12.03029200
_cell_length_b   7.58021500
_cell_length_c   9.19082693
_cell_angle_alpha   56.05705596
_cell_angle_beta   90.00000000
_cell_angle_gamma   90.00000000
_symmetry_Int_Tables_number   1
_chemical_formula_structural   WS2O9
_chemical_formula_sum   'W4 S8 O36'
_cell_volume   695.30906272
_cell_formula_units_Z   4
loop_
 _symmetry_equiv_pos_site_id
 _symmetry_equiv_pos_as_xyz
  1  'x, y, z'
loop_
 _atom_site_type_symbol
 _atom_site_label
 _atom_site_symmetry_multiplicity
 _atom_site_fract_x
 _atom_site_fract_y
 _atom_site_fract_z
 _atom_site_occupancy
  W  W0  1  0.64669300  0.16782700  0.25557200  1
  W  W1  1  0.85330700  0.16782700  0.75557200  1
  W  W2  1  0.35330700  0.83217300  0.74442800  1
  W  W3  1  0.14669300  0.83217300  0.24442800  1
  S  S4  1  0.67332900  0.95640300  0.08952900  1
  S  S5  1  0.82667100  0.95640300  0.58952900  1
  S  S6  1  0.32667100  0.04359700  0.91047100  1
  S  S7  1  0.17332900  0.04359700  0.41047100  1
  S  S8  1  0.47374000  0.31178700  0.36534900  1
  S  S9  1  0.02626000  0.31178700  0.86534900  1
  S  S10  1  0.52626000  0.68821300  0.63465100  1
  S  S11  1  0.97374000  0.68821300  0.13465100  1
  O  O12  1  0.69536700  0.40409800  0.07903900  1
  O  O13  1  0.80463300  0.40409800  0.57903900  1
  O  O14  1  0.30463300  0.59590200  0.92096100  1
  O  O15  1  0.19536700  0.59590200  0.42096100  1
  O  O16  1  0.65751400  0.74897800  0.12931700  1
  O  O17  1  0.84248600  0.74897800  0.62931700  1
  O  O18  1  0.34248600  0.25102200  0.87068300  1
  O  O19  1  0.15751400  0.25102200  0.37068300  1
  O  O20  1  0.71421300  0.11490400  0.90365900  1
  O  O21  1  0.78578700  0.11490400  0.40365900  1
  O  O22  1  0.28578700  0.88509600  0.09634100  1
  O  O23  1  0.21421300  0.88509600  0.59634100  1
  O  O24  1  0.57089300  0.06301100  0.10922900  1
  O  O25  1  0.92910700  0.06301100  0.60922900  1
  O  O26  1  0.42910700  0.93698900  0.89077100  1
  O  O27  1  0.07089300  0.93698900  0.39077100  1
  O  O28  1  0.74993800  0.97325600  0.21472300  1
  O  O29  1  0.75006200  0.97325600  0.71472300  1
  O  O30  1  0.25006200  0.02674400  0.78527700  1
  O  O31  1  0.24993800  0.02674400  0.28527700  1
  O  O32  1  0.43787100  0.52320100  0.29534300  1
  O  O33  1  0.06212900  0.52320100  0.79534300  1
  O  O34  1  0.56212900  0.47679900  0.70465700  1
  O  O35  1  0.93787100  0.47679900  0.20465700  1
  O  O36  1  0.40679900  0.14855300  0.51638900  1
  O  O37  1  0.09320100  0.14855300  0.01638900  1
  O  O38  1  0.59320100  0.85144700  0.48361100  1
  O  O39  1  0.90679900  0.85144700  0.98361100  1
  O  O40  1  0.59880600  0.27056400  0.41530600  1
  O  O41  1  0.90119400  0.27056400  0.91530600  1
  O  O42  1  0.40119400  0.72943600  0.58469400  1
  O  O43  1  0.09880600  0.72943600  0.08469400  1
  O  O44  1  0.48000200  0.25179100  0.22851300  1
  O  O45  1  0.01999800  0.25179100  0.72851300  1
  O  O46  1  0.51999800  0.74820900  0.77148700  1
  O  O47  1  0.98000200  0.74820900  0.27148700  1
