# generated using pymatgen
data_Tm4(Al8Pt3)3
_symmetry_space_group_name_H-M   'P 1'
_cell_length_a   7.46869457
_cell_length_b   7.53583605
_cell_length_c   13.17087402
_cell_angle_alpha   84.64646329
_cell_angle_beta   79.31492562
_cell_angle_gamma   59.90536622
_symmetry_Int_Tables_number   1
_chemical_formula_structural   Tm4(Al8Pt3)3
_chemical_formula_sum   'Tm4 Al24 Pt9'
_cell_volume   630.24612234
_cell_formula_units_Z   1
loop_
 _symmetry_equiv_pos_site_id
 _symmetry_equiv_pos_as_xyz
  1  'x, y, z'
loop_
 _atom_site_type_symbol
 _atom_site_label
 _atom_site_symmetry_multiplicity
 _atom_site_fract_x
 _atom_site_fract_y
 _atom_site_fract_z
 _atom_site_occupancy
  Tm  Tm0  1  0.39317600  0.16878100  0.80752300  1
  Tm  Tm1  1  0.60682400  0.83121900  0.19247700  1
  Tm  Tm2  1  0.73458600  0.49845500  0.80707000  1
  Tm  Tm3  1  0.26541400  0.50154500  0.19293000  1
  Al  Al4  1  0.68478000  0.83390900  0.94430900  1
  Al  Al5  1  0.31522000  0.16609100  0.05569100  1
  Al  Al6  1  0.14628900  0.83253000  0.56070100  1
  Al  Al7  1  0.85371100  0.16747000  0.43929900  1
  Al  Al8  1  0.47930500  0.16666700  0.55832000  1
  Al  Al9  1  0.52069500  0.83333300  0.44168000  1
  Al  Al10  1  0.21676700  0.16546200  0.32891100  1
  Al  Al11  1  0.78323300  0.83453800  0.67108900  1
  Al  Al12  1  0.43756100  0.50565100  0.67120200  1
  Al  Al13  1  0.56243900  0.49434900  0.32879800  1
  Al  Al14  1  0.10900200  0.16055800  0.67021100  1
  Al  Al15  1  0.89099800  0.83944200  0.32978900  1
  Al  Al16  1  0.35381500  0.49899000  0.94442600  1
  Al  Al17  1  0.64618500  0.50101000  0.05557400  1
  Al  Al18  1  0.01644300  0.16786300  0.95215800  1
  Al  Al19  1  0.98355700  0.83213700  0.04784200  1
  Al  Al20  1  0.18623500  0.49948600  0.44155900  1
  Al  Al21  1  0.81376500  0.50051400  0.55844100  1
  Al  Al22  1  0.73426500  0.16324900  0.18320800  1
  Al  Al23  1  0.26573500  0.83675100  0.81679200  1
  Al  Al24  1  0.06170600  0.63113200  0.81548400  1
  Al  Al25  1  0.93829400  0.36886800  0.18451600  1
  Al  Al26  1  0.85546100  0.04141600  0.81594400  1
  Al  Al27  1  0.14453900  0.95858400  0.18405600  1
  Pt  Pt28  1  0.12019900  0.49184700  0.63908700  1
  Pt  Pt29  1  0.87980100  0.50815300  0.36091300  1
  Pt  Pt30  1  0.65720800  0.17118500  0.99979200  1
  Pt  Pt31  1  0.34279200  0.82881500  0.00020800  1
  Pt  Pt32  1  0.53836200  0.16682500  0.36082700  1
  Pt  Pt33  1  0.46163800  0.83317500  0.63917300  1
  Pt  Pt34  1  0.77890500  0.17483200  0.63728200  1
  Pt  Pt35  1  0.22109500  0.82516800  0.36271800  1
  Pt  Pt36  1  0.00000000  0.50000000  0.00000000  1
