# generated using pymatgen
data_TmNiSn
_symmetry_space_group_name_H-M   'P 1'
_cell_length_a   4.40768400
_cell_length_b   7.02195000
_cell_length_c   7.63703200
_cell_angle_alpha   90.00000000
_cell_angle_beta   90.00000000
_cell_angle_gamma   90.00000000
_symmetry_Int_Tables_number   1
_chemical_formula_structural   TmNiSn
_chemical_formula_sum   'Tm4 Ni4 Sn4'
_cell_volume   236.37023892
_cell_formula_units_Z   4
loop_
 _symmetry_equiv_pos_site_id
 _symmetry_equiv_pos_as_xyz
  1  'x, y, z'
loop_
 _atom_site_type_symbol
 _atom_site_label
 _atom_site_symmetry_multiplicity
 _atom_site_fract_x
 _atom_site_fract_y
 _atom_site_fract_z
 _atom_site_occupancy
  Tm  Tm0  1  0.25000000  0.98739900  0.29669500  1
  Tm  Tm1  1  0.25000000  0.48739900  0.20330500  1
  Tm  Tm2  1  0.75000000  0.01260100  0.70330500  1
  Tm  Tm3  1  0.75000000  0.51260100  0.79669500  1
  Ni  Ni4  1  0.25000000  0.19640000  0.91259000  1
  Ni  Ni5  1  0.25000000  0.69640000  0.58741000  1
  Ni  Ni6  1  0.75000000  0.80360000  0.08741000  1
  Ni  Ni7  1  0.75000000  0.30360000  0.41259000  1
  Sn  Sn8  1  0.25000000  0.30716700  0.58633700  1
  Sn  Sn9  1  0.25000000  0.80716700  0.91366300  1
  Sn  Sn10  1  0.75000000  0.69283300  0.41366300  1
  Sn  Sn11  1  0.75000000  0.19283300  0.08633700  1
