# generated using pymatgen
data_DyGa2Ni3
_symmetry_space_group_name_H-M   'P 1'
_cell_length_a   4.10148100
_cell_length_b   8.72622200
_cell_length_c   8.72622183
_cell_angle_alpha   59.99995690
_cell_angle_beta   90.00000000
_cell_angle_gamma   90.00000000
_symmetry_Int_Tables_number   1
_chemical_formula_structural   DyGa2Ni3
_chemical_formula_sum   'Dy3 Ga6 Ni9'
_cell_volume   270.47283522
_cell_formula_units_Z   3
loop_
 _symmetry_equiv_pos_site_id
 _symmetry_equiv_pos_as_xyz
  1  'x, y, z'
loop_
 _atom_site_type_symbol
 _atom_site_label
 _atom_site_symmetry_multiplicity
 _atom_site_fract_x
 _atom_site_fract_y
 _atom_site_fract_z
 _atom_site_occupancy
  Dy  Dy0  1  0.50000000  0.33320600  0.33331500  1
  Dy  Dy1  1  0.50000000  0.66668500  0.66679400  1
  Dy  Dy2  1  0.00000000  0.00006400  0.99993600  1
  Ga  Ga3  1  0.00000000  0.51501100  0.48498900  1
  Ga  Ga4  1  0.00000000  0.48492100  0.99997900  1
  Ga  Ga5  1  0.00000000  0.00002100  0.51507900  1
  Ga  Ga6  1  0.50000000  0.27031300  0.72968700  1
  Ga  Ga7  1  0.50000000  0.72920800  0.99992200  1
  Ga  Ga8  1  0.50000000  0.00007800  0.27079200  1
  Ni  Ni9  1  0.00000000  0.17585800  0.19498200  1
  Ni  Ni10  1  0.00000000  0.19488100  0.62921500  1
  Ni  Ni11  1  0.00000000  0.62911300  0.17578400  1
  Ni  Ni12  1  0.00000000  0.80501800  0.82414200  1
  Ni  Ni13  1  0.00000000  0.37078500  0.80511900  1
  Ni  Ni14  1  0.00000000  0.82421600  0.37088700  1
  Ni  Ni15  1  0.50000000  0.70430900  0.29569100  1
  Ni  Ni16  1  0.50000000  0.29610700  0.99989400  1
  Ni  Ni17  1  0.50000000  0.00010600  0.70389300  1
