# generated using pymatgen
data_KHS2O7
_symmetry_space_group_name_H-M   'P 1'
_cell_length_a   7.38797100
_cell_length_b   10.88525100
_cell_length_c   8.50441300
_cell_angle_alpha   90.00000000
_cell_angle_beta   109.16049817
_cell_angle_gamma   90.00000000
_symmetry_Int_Tables_number   1
_chemical_formula_structural   KHS2O7
_chemical_formula_sum   'K4 H4 S8 O28'
_cell_volume   646.03677008
_cell_formula_units_Z   4
loop_
 _symmetry_equiv_pos_site_id
 _symmetry_equiv_pos_as_xyz
  1  'x, y, z'
loop_
 _atom_site_type_symbol
 _atom_site_label
 _atom_site_symmetry_multiplicity
 _atom_site_fract_x
 _atom_site_fract_y
 _atom_site_fract_z
 _atom_site_occupancy
  K  K0  1  0.34333300  0.79549000  0.96375100  1
  K  K1  1  0.65666700  0.29549000  0.53624900  1
  K  K2  1  0.65666700  0.20451000  0.03624900  1
  K  K3  1  0.34333300  0.70451000  0.46375100  1
  H  H4  1  0.09963200  0.04952000  0.28713800  1
  H  H5  1  0.90036800  0.54952000  0.21286200  1
  H  H6  1  0.90036800  0.95048000  0.71286200  1
  H  H7  1  0.09963200  0.45048000  0.78713800  1
  S  S8  1  0.90514900  0.90109000  0.17009400  1
  S  S9  1  0.09485100  0.40109000  0.32990600  1
  S  S10  1  0.09485100  0.09891000  0.82990600  1
  S  S11  1  0.90514900  0.59891000  0.67009400  1
  S  S12  1  0.67363200  0.94338200  0.38576400  1
  S  S13  1  0.32636800  0.44338200  0.11423600  1
  S  S14  1  0.32636800  0.05661800  0.61423600  1
  S  S15  1  0.67363200  0.55661800  0.88576400  1
  O  O16  1  0.97958200  0.03586000  0.18335900  1
  O  O17  1  0.02041800  0.53586000  0.31664100  1
  O  O18  1  0.02041800  0.96414000  0.81664100  1
  O  O19  1  0.97958200  0.46414000  0.68335900  1
  O  O20  1  0.05598800  0.81570800  0.17609200  1
  O  O21  1  0.94401200  0.31570800  0.32390800  1
  O  O22  1  0.94401200  0.18429200  0.82390800  1
  O  O23  1  0.05598800  0.68429200  0.67609200  1
  O  O24  1  0.86873400  0.87821800  0.34431400  1
  O  O25  1  0.13126600  0.37821800  0.15568600  1
  O  O26  1  0.13126600  0.12178200  0.65568600  1
  O  O27  1  0.86873400  0.62178200  0.84431400  1
  O  O28  1  0.51105700  0.87170100  0.28728800  1
  O  O29  1  0.48894300  0.37170100  0.21271200  1
  O  O30  1  0.48894300  0.12829900  0.71271200  1
  O  O31  1  0.51105700  0.62829900  0.78728800  1
  O  O32  1  0.67569400  0.07182200  0.34208700  1
  O  O33  1  0.32430600  0.57182200  0.15791300  1
  O  O34  1  0.32430600  0.92817800  0.65791300  1
  O  O35  1  0.67569400  0.42817800  0.84208700  1
  O  O36  1  0.73081700  0.91589000  0.56359400  1
  O  O37  1  0.26918300  0.41589000  0.93640600  1
  O  O38  1  0.26918300  0.08411000  0.43640600  1
  O  O39  1  0.73081700  0.58411000  0.06359400  1
  O  O40  1  0.72738500  0.89997500  0.03500600  1
  O  O41  1  0.27261500  0.39997500  0.46499400  1
  O  O42  1  0.27261500  0.10002500  0.96499400  1
  O  O43  1  0.72738500  0.60002500  0.53500600  1
