# generated using pymatgen
data_Hf2(NiP)3
_symmetry_space_group_name_H-M   'P 1'
_cell_length_a   3.60447000
_cell_length_b   9.99894800
_cell_length_c   12.29881300
_cell_angle_alpha   90.00000000
_cell_angle_beta   90.00000000
_cell_angle_gamma   90.00000000
_symmetry_Int_Tables_number   1
_chemical_formula_structural   Hf2(NiP)3
_chemical_formula_sum   'Hf8 Ni12 P12'
_cell_volume   443.26038904
_cell_formula_units_Z   4
loop_
 _symmetry_equiv_pos_site_id
 _symmetry_equiv_pos_as_xyz
  1  'x, y, z'
loop_
 _atom_site_type_symbol
 _atom_site_label
 _atom_site_symmetry_multiplicity
 _atom_site_fract_x
 _atom_site_fract_y
 _atom_site_fract_z
 _atom_site_occupancy
  Hf  Hf0  1  0.25000000  0.33594700  0.99491000  1
  Hf  Hf1  1  0.25000000  0.16405300  0.49491000  1
  Hf  Hf2  1  0.75000000  0.66405300  0.00509000  1
  Hf  Hf3  1  0.75000000  0.83594700  0.50509000  1
  Hf  Hf4  1  0.25000000  0.42701500  0.70965200  1
  Hf  Hf5  1  0.25000000  0.07298500  0.20965200  1
  Hf  Hf6  1  0.75000000  0.57298500  0.29034800  1
  Hf  Hf7  1  0.75000000  0.92701500  0.79034800  1
  Ni  Ni8  1  0.25000000  0.90474900  0.98409600  1
  Ni  Ni9  1  0.25000000  0.59525100  0.48409600  1
  Ni  Ni10  1  0.75000000  0.09525100  0.01590400  1
  Ni  Ni11  1  0.75000000  0.40474900  0.51590400  1
  Ni  Ni12  1  0.25000000  0.13581100  0.71633100  1
  Ni  Ni13  1  0.25000000  0.36418900  0.21633100  1
  Ni  Ni14  1  0.75000000  0.86418900  0.28366900  1
  Ni  Ni15  1  0.75000000  0.63581100  0.78366900  1
  Ni  Ni16  1  0.25000000  0.77397400  0.16604500  1
  Ni  Ni17  1  0.25000000  0.72602600  0.66604500  1
  Ni  Ni18  1  0.75000000  0.22602600  0.83395500  1
  Ni  Ni19  1  0.75000000  0.27397400  0.33395500  1
  P  P20  1  0.25000000  0.10285300  0.89747400  1
  P  P21  1  0.25000000  0.39714700  0.39747400  1
  P  P22  1  0.75000000  0.89714700  0.10252600  1
  P  P23  1  0.75000000  0.60285300  0.60252600  1
  P  P24  1  0.25000000  0.73895300  0.85630100  1
  P  P25  1  0.25000000  0.76104700  0.35630100  1
  P  P26  1  0.75000000  0.26104700  0.14369900  1
  P  P27  1  0.75000000  0.23895300  0.64369900  1
  P  P28  1  0.25000000  0.55385500  0.12681200  1
  P  P29  1  0.25000000  0.94614500  0.62681200  1
  P  P30  1  0.75000000  0.44614500  0.87318800  1
  P  P31  1  0.75000000  0.05385500  0.37318800  1
