# generated using pymatgen
data_SrMn2V2O8
_symmetry_space_group_name_H-M   'P 1'
_cell_length_a   9.97121092
_cell_length_b   9.97121092
_cell_length_c   9.97121092
_cell_angle_alpha   101.29416607
_cell_angle_beta   101.29416607
_cell_angle_gamma   127.46721795
_symmetry_Int_Tables_number   1
_chemical_formula_structural   SrMn2V2O8
_chemical_formula_sum   'Sr4 Mn8 V8 O32'
_cell_volume   705.61930157
_cell_formula_units_Z   4
loop_
 _symmetry_equiv_pos_site_id
 _symmetry_equiv_pos_as_xyz
  1  'x, y, z'
loop_
 _atom_site_type_symbol
 _atom_site_label
 _atom_site_symmetry_multiplicity
 _atom_site_fract_x
 _atom_site_fract_y
 _atom_site_fract_z
 _atom_site_occupancy
  Sr  Sr0  1  0.24631000  0.24631000  0.00000000  1
  Sr  Sr1  1  0.74631000  0.74631000  0.00000000  1
  Sr  Sr2  1  0.49631000  0.99631000  0.50000000  1
  Sr  Sr3  1  0.99631000  0.49631000  0.50000000  1
  Mn  Mn4  1  0.70670000  0.37125300  0.99693900  1
  Mn  Mn5  1  0.20670000  0.20976100  0.33544700  1
  Mn  Mn6  1  0.62125300  0.12431400  0.16455300  1
  Mn  Mn7  1  0.45976100  0.62431400  0.50306100  1
  Mn  Mn8  1  0.37431400  0.70976100  0.00306100  1
  Mn  Mn9  1  0.87431400  0.87125300  0.66455300  1
  Mn  Mn10  1  0.95976100  0.45670000  0.83544700  1
  Mn  Mn11  1  0.12125300  0.95670000  0.49693900  1
  V  V12  1  0.09322800  0.43631300  0.18520100  1
  V  V13  1  0.59322800  0.40802700  0.65691500  1
  V  V14  1  0.68631300  0.00111300  0.84308500  1
  V  V15  1  0.65802700  0.50111300  0.31479900  1
  V  V16  1  0.25111300  0.90802700  0.81479900  1
  V  V17  1  0.75111300  0.93631300  0.34308500  1
  V  V18  1  0.15802700  0.84322800  0.15691500  1
  V  V19  1  0.18631300  0.34322800  0.68520100  1
  O  O20  1  0.75992600  0.39765200  0.64352500  1
  O  O21  1  0.25992600  0.61640100  0.36227400  1
  O  O22  1  0.64765200  0.50412700  0.13772600  1
  O  O23  1  0.86640100  0.00412700  0.85647500  1
  O  O24  1  0.75412700  0.11640100  0.35647500  1
  O  O25  1  0.25412700  0.89765200  0.63772600  1
  O  O26  1  0.36640100  0.50992600  0.86227400  1
  O  O27  1  0.14765200  0.00992600  0.14352500  1
  O  O28  1  0.11883700  0.12985500  0.67521800  1
  O  O29  1  0.61883700  0.94361800  0.98898200  1
  O  O30  1  0.37985500  0.20463600  0.51101800  1
  O  O31  1  0.19361800  0.70463600  0.82478200  1
  O  O32  1  0.45463600  0.44361800  0.32478200  1
  O  O33  1  0.95463600  0.62985500  0.01101800  1
  O  O34  1  0.69361800  0.86883700  0.48898200  1
  O  O35  1  0.87985500  0.36883700  0.17521800  1
  O  O36  1  0.86347100  0.70400100  0.46612100  1
  O  O37  1  0.36347100  0.89735000  0.15947000  1
  O  O38  1  0.95400100  0.98788000  0.34053000  1
  O  O39  1  0.14735000  0.48788000  0.03387900  1
  O  O40  1  0.23788000  0.39735000  0.53387900  1
  O  O41  1  0.73788000  0.20400100  0.84053000  1
  O  O42  1  0.64735000  0.61347100  0.65947000  1
  O  O43  1  0.45400100  0.11347100  0.96612100  1
  O  O44  1  0.58069600  0.40439400  0.82643000  1
  O  O45  1  0.08069600  0.25426600  0.17630200  1
  O  O46  1  0.65439400  0.32796400  0.32369800  1
  O  O47  1  0.50426600  0.82796400  0.67357000  1
  O  O48  1  0.57796400  0.75426600  0.17357000  1
  O  O49  1  0.07796400  0.90439400  0.82369800  1
  O  O50  1  0.00426600  0.33069600  0.67630200  1
  O  O51  1  0.15439400  0.83069600  0.32643000  1
