# generated using pymatgen
data_Pr(BC)2
_symmetry_space_group_name_H-M   'P 1'
_cell_length_a   5.40374900
_cell_length_b   5.40374900
_cell_length_c   3.88348700
_cell_angle_alpha   90.00000000
_cell_angle_beta   90.00000000
_cell_angle_gamma   90.00000000
_symmetry_Int_Tables_number   1
_chemical_formula_structural   Pr(BC)2
_chemical_formula_sum   'Pr2 B4 C4'
_cell_volume   113.39977478
_cell_formula_units_Z   2
loop_
 _symmetry_equiv_pos_site_id
 _symmetry_equiv_pos_as_xyz
  1  'x, y, z'
loop_
 _atom_site_type_symbol
 _atom_site_label
 _atom_site_symmetry_multiplicity
 _atom_site_fract_x
 _atom_site_fract_y
 _atom_site_fract_z
 _atom_site_occupancy
  Pr  Pr0  1  0.50000000  0.50000000  0.00000000  1
  Pr  Pr1  1  0.00000000  0.00000000  0.00000000  1
  B  B2  1  0.13819900  0.63819900  0.50000000  1
  B  B3  1  0.63819900  0.86180100  0.50000000  1
  B  B4  1  0.86180100  0.36180100  0.50000000  1
  B  B5  1  0.36180100  0.13819900  0.50000000  1
  C  C6  1  0.83953500  0.66046500  0.50000000  1
  C  C7  1  0.33953500  0.83953500  0.50000000  1
  C  C8  1  0.66046500  0.16046500  0.50000000  1
  C  C9  1  0.16046500  0.33953500  0.50000000  1
