# generated using pymatgen
data_Gd2Si4CN6
_symmetry_space_group_name_H-M   'P 1'
_cell_length_a   10.01411800
_cell_length_b   5.99959800
_cell_length_c   12.01640508
_cell_angle_alpha   60.42799393
_cell_angle_beta   90.00000000
_cell_angle_gamma   90.00000000
_symmetry_Int_Tables_number   1
_chemical_formula_structural   Gd2Si4CN6
_chemical_formula_sum   'Gd8 Si16 C4 N24'
_cell_volume   627.90933920
_cell_formula_units_Z   4
loop_
 _symmetry_equiv_pos_site_id
 _symmetry_equiv_pos_as_xyz
  1  'x, y, z'
loop_
 _atom_site_type_symbol
 _atom_site_label
 _atom_site_symmetry_multiplicity
 _atom_site_fract_x
 _atom_site_fract_y
 _atom_site_fract_z
 _atom_site_occupancy
  Gd  Gd0  1  0.56500800  0.66827700  0.09504300  1
  Gd  Gd1  1  0.06500800  0.33172300  0.40495700  1
  Gd  Gd2  1  0.43499200  0.33172300  0.90495700  1
  Gd  Gd3  1  0.93499200  0.66827700  0.59504300  1
  Gd  Gd4  1  0.41587200  0.33784600  0.41924700  1
  Gd  Gd5  1  0.91587200  0.66215400  0.08075300  1
  Gd  Gd6  1  0.58412800  0.66215400  0.58075300  1
  Gd  Gd7  1  0.08412800  0.33784600  0.91924700  1
  Si  Si8  1  0.48088200  0.99408300  0.24928000  1
  Si  Si9  1  0.98088200  0.00591700  0.25072000  1
  Si  Si10  1  0.51911800  0.00591700  0.75072000  1
  Si  Si11  1  0.01911800  0.99408300  0.74928000  1
  Si  Si12  1  0.21347900  0.83420500  0.42051400  1
  Si  Si13  1  0.71347900  0.16579500  0.07948600  1
  Si  Si14  1  0.78652100  0.16579500  0.57948600  1
  Si  Si15  1  0.28652100  0.83420500  0.92051400  1
  Si  Si16  1  0.20706800  0.79869100  0.17663300  1
  Si  Si17  1  0.70706800  0.20130900  0.32336700  1
  Si  Si18  1  0.79293200  0.20130900  0.82336700  1
  Si  Si19  1  0.29293200  0.79869100  0.67663300  1
  Si  Si20  1  0.22780900  0.32292400  0.15926300  1
  Si  Si21  1  0.72780900  0.67707600  0.34073700  1
  Si  Si22  1  0.77219100  0.67707600  0.84073700  1
  Si  Si23  1  0.27219100  0.32292400  0.65926300  1
  C  C24  1  0.29284800  0.97721700  0.25240300  1
  C  C25  1  0.79284800  0.02278300  0.24759700  1
  C  C26  1  0.70715200  0.02278300  0.74759700  1
  C  C27  1  0.20715200  0.97721700  0.75240300  1
  N  N28  1  0.21209600  0.95391400  0.01050800  1
  N  N29  1  0.71209600  0.04608600  0.48949200  1
  N  N30  1  0.78790400  0.04608600  0.98949200  1
  N  N31  1  0.28790400  0.95391400  0.51050800  1
  N  N32  1  0.04645400  0.93985100  0.39889400  1
  N  N33  1  0.54645400  0.06014900  0.10110600  1
  N  N34  1  0.95354600  0.06014900  0.60110600  1
  N  N35  1  0.45354600  0.93985100  0.89889400  1
  N  N36  1  0.03822900  0.76397900  0.22231100  1
  N  N37  1  0.53822900  0.23602100  0.27768900  1
  N  N38  1  0.96177100  0.23602100  0.77768900  1
  N  N39  1  0.46177100  0.76397900  0.72231100  1
  N  N40  1  0.28941000  0.49586600  0.00195900  1
  N  N41  1  0.78941000  0.50413400  0.49804100  1
  N  N42  1  0.71059000  0.50413400  0.99804100  1
  N  N43  1  0.21059000  0.49586600  0.50195900  1
  N  N44  1  0.26375900  0.48243100  0.24477200  1
  N  N45  1  0.76375900  0.51756900  0.25522800  1
  N  N46  1  0.73624100  0.51756900  0.75522800  1
  N  N47  1  0.23624100  0.48243100  0.74477200  1
  N  N48  1  0.05447300  0.29801100  0.13909200  1
  N  N49  1  0.55447300  0.70198900  0.36090800  1
  N  N50  1  0.94552700  0.70198900  0.86090800  1
  N  N51  1  0.44552700  0.29801100  0.63909200  1
