# generated using pymatgen
data_EuP7
_symmetry_space_group_name_H-M   'P 1'
_cell_length_a   5.75598100
_cell_length_b   10.71017600
_cell_length_c   13.38020741
_cell_angle_alpha   55.91245167
_cell_angle_beta   90.00000000
_cell_angle_gamma   90.00000000
_symmetry_Int_Tables_number   1
_chemical_formula_structural   EuP7
_chemical_formula_sum   'Eu4 P28'
_cell_volume   683.13206857
_cell_formula_units_Z   4
loop_
 _symmetry_equiv_pos_site_id
 _symmetry_equiv_pos_as_xyz
  1  'x, y, z'
loop_
 _atom_site_type_symbol
 _atom_site_label
 _atom_site_symmetry_multiplicity
 _atom_site_fract_x
 _atom_site_fract_y
 _atom_site_fract_z
 _atom_site_occupancy
  Eu  Eu0  1  0.10702100  0.75211300  0.78551900  1
  Eu  Eu1  1  0.39297900  0.75211300  0.28551900  1
  Eu  Eu2  1  0.89297900  0.24788700  0.21448100  1
  Eu  Eu3  1  0.60702100  0.24788700  0.71448100  1
  P  P4  1  0.45902900  0.99482800  0.58506800  1
  P  P5  1  0.04097100  0.99482800  0.08506800  1
  P  P6  1  0.54097100  0.00517200  0.41493200  1
  P  P7  1  0.95902900  0.00517200  0.91493200  1
  P  P8  1  0.28139100  0.58223900  0.06509300  1
  P  P9  1  0.21860900  0.58223900  0.56509300  1
  P  P10  1  0.71860900  0.41776100  0.93490700  1
  P  P11  1  0.78139100  0.41776100  0.43490700  1
  P  P12  1  0.29287400  0.21601400  0.53020600  1
  P  P13  1  0.20712600  0.21601400  0.03020600  1
  P  P14  1  0.70712600  0.78398600  0.46979400  1
  P  P15  1  0.79287400  0.78398600  0.96979400  1
  P  P16  1  0.29645600  0.96187900  0.86264800  1
  P  P17  1  0.20354400  0.96187900  0.36264800  1
  P  P18  1  0.70354400  0.03812100  0.13735200  1
  P  P19  1  0.79645600  0.03812100  0.63735200  1
  P  P20  1  0.43309500  0.41573400  0.36150200  1
  P  P21  1  0.06690500  0.41573400  0.86150200  1
  P  P22  1  0.56690500  0.58426600  0.63849800  1
  P  P23  1  0.93309500  0.58426600  0.13849800  1
  P  P24  1  0.40493600  0.36425500  0.22216100  1
  P  P25  1  0.09506400  0.36425500  0.72216100  1
  P  P26  1  0.59506400  0.63574500  0.77783900  1
  P  P27  1  0.90493600  0.63574500  0.27783900  1
  P  P28  1  0.44588900  0.78906500  0.04146000  1
  P  P29  1  0.05411100  0.78906500  0.54146000  1
  P  P30  1  0.55411100  0.21093500  0.95854000  1
  P  P31  1  0.94588900  0.21093500  0.45854000  1
