# generated using pymatgen
data_HoNiSn2
_symmetry_space_group_name_H-M   'P 1'
_cell_length_a   4.43308000
_cell_length_b   14.62301300
_cell_length_c   16.13516600
_cell_angle_alpha   90.00000000
_cell_angle_beta   90.00000000
_cell_angle_gamma   90.00000000
_symmetry_Int_Tables_number   1
_chemical_formula_structural   HoNiSn2
_chemical_formula_sum   'Ho12 Ni12 Sn24'
_cell_volume   1045.96191764
_cell_formula_units_Z   12
loop_
 _symmetry_equiv_pos_site_id
 _symmetry_equiv_pos_as_xyz
  1  'x, y, z'
loop_
 _atom_site_type_symbol
 _atom_site_label
 _atom_site_symmetry_multiplicity
 _atom_site_fract_x
 _atom_site_fract_y
 _atom_site_fract_z
 _atom_site_occupancy
  Ho  Ho0  1  0.25000000  0.97325100  0.34839700  1
  Ho  Ho1  1  0.25000000  0.52674900  0.84839700  1
  Ho  Ho2  1  0.75000000  0.02674900  0.65160300  1
  Ho  Ho3  1  0.75000000  0.47325100  0.15160300  1
  Ho  Ho4  1  0.25000000  0.27426800  0.87397300  1
  Ho  Ho5  1  0.25000000  0.22573200  0.37397300  1
  Ho  Ho6  1  0.75000000  0.72573200  0.12602700  1
  Ho  Ho7  1  0.75000000  0.77426800  0.62602700  1
  Ho  Ho8  1  0.25000000  0.39813200  0.64585400  1
  Ho  Ho9  1  0.25000000  0.10186800  0.14585400  1
  Ho  Ho10  1  0.75000000  0.60186800  0.35414600  1
  Ho  Ho11  1  0.75000000  0.89813200  0.85414600  1
  Ni  Ni12  1  0.25000000  0.60721000  0.05295200  1
  Ni  Ni13  1  0.25000000  0.89279000  0.55295200  1
  Ni  Ni14  1  0.75000000  0.39279000  0.94704800  1
  Ni  Ni15  1  0.75000000  0.10721000  0.44704800  1
  Ni  Ni16  1  0.25000000  0.74508400  0.30714900  1
  Ni  Ni17  1  0.25000000  0.75491600  0.80714900  1
  Ni  Ni18  1  0.75000000  0.25491600  0.69285100  1
  Ni  Ni19  1  0.75000000  0.24508400  0.19285100  1
  Ni  Ni20  1  0.25000000  0.04605800  0.79970900  1
  Ni  Ni21  1  0.25000000  0.45394200  0.29970900  1
  Ni  Ni22  1  0.75000000  0.95394200  0.20029100  1
  Ni  Ni23  1  0.75000000  0.54605800  0.70029100  1
  Sn  Sn24  1  0.25000000  0.17750700  0.68319200  1
  Sn  Sn25  1  0.25000000  0.32249300  0.18319200  1
  Sn  Sn26  1  0.75000000  0.82249300  0.31680800  1
  Sn  Sn27  1  0.75000000  0.67750700  0.81680800  1
  Sn  Sn28  1  0.25000000  0.05272900  0.95719400  1
  Sn  Sn29  1  0.25000000  0.44727100  0.45719400  1
  Sn  Sn30  1  0.75000000  0.94727100  0.04280600  1
  Sn  Sn31  1  0.75000000  0.55272900  0.54280600  1
  Sn  Sn32  1  0.25000000  0.07762600  0.52029900  1
  Sn  Sn33  1  0.25000000  0.42237400  0.02029900  1
  Sn  Sn34  1  0.75000000  0.92237400  0.47970100  1
  Sn  Sn35  1  0.75000000  0.57762600  0.97970100  1
  Sn  Sn36  1  0.25000000  0.60471900  0.21491200  1
  Sn  Sn37  1  0.25000000  0.89528100  0.71491200  1
  Sn  Sn38  1  0.75000000  0.39528100  0.78508800  1
  Sn  Sn39  1  0.75000000  0.10471900  0.28508800  1
  Sn  Sn40  1  0.25000000  0.73443900  0.46917900  1
  Sn  Sn41  1  0.25000000  0.76556100  0.96917900  1
  Sn  Sn42  1  0.75000000  0.26556100  0.53082100  1
  Sn  Sn43  1  0.75000000  0.23443900  0.03082100  1
  Sn  Sn44  1  0.25000000  0.86813100  0.17515100  1
  Sn  Sn45  1  0.25000000  0.63186900  0.67515100  1
  Sn  Sn46  1  0.75000000  0.13186900  0.82484900  1
  Sn  Sn47  1  0.75000000  0.36813100  0.32484900  1
