# generated using pymatgen
data_CeSiPt
_symmetry_space_group_name_H-M   'P 1'
_cell_length_a   7.88371428
_cell_length_b   7.88371428
_cell_length_c   7.88371428
_cell_angle_alpha   149.44593979
_cell_angle_beta   149.44593979
_cell_angle_gamma   43.75531594
_symmetry_Int_Tables_number   1
_chemical_formula_structural   CeSiPt
_chemical_formula_sum   'Ce2 Si2 Pt2'
_cell_volume   126.27233125
_cell_formula_units_Z   2
loop_
 _symmetry_equiv_pos_site_id
 _symmetry_equiv_pos_as_xyz
  1  'x, y, z'
loop_
 _atom_site_type_symbol
 _atom_site_label
 _atom_site_symmetry_multiplicity
 _atom_site_fract_x
 _atom_site_fract_y
 _atom_site_fract_z
 _atom_site_occupancy
  Ce  Ce0  1  0.74988600  0.24988600  0.50000000  1
  Ce  Ce1  1  0.99988600  0.99988600  0.00000000  1
  Si  Si2  1  0.16861400  0.66861400  0.50000000  1
  Si  Si3  1  0.41861400  0.41861400  0.00000000  1
  Pt  Pt4  1  0.33550000  0.83550000  0.50000000  1
  Pt  Pt5  1  0.58550000  0.58550000  0.00000000  1
