# generated using pymatgen
data_Cr2CdO4
_symmetry_space_group_name_H-M   'P 1'
_cell_length_a   6.20340944
_cell_length_b   6.20340989
_cell_length_c   6.20341000
_cell_angle_alpha   59.99999943
_cell_angle_beta   59.99999700
_cell_angle_gamma   60.00000043
_symmetry_Int_Tables_number   1
_chemical_formula_structural   Cr2CdO4
_chemical_formula_sum   'Cr4 Cd2 O8'
_cell_volume   168.80153917
_cell_formula_units_Z   2
loop_
 _symmetry_equiv_pos_site_id
 _symmetry_equiv_pos_as_xyz
  1  'x, y, z'
loop_
 _atom_site_type_symbol
 _atom_site_label
 _atom_site_symmetry_multiplicity
 _atom_site_fract_x
 _atom_site_fract_y
 _atom_site_fract_z
 _atom_site_occupancy
  Cr  Cr0  1  0.50000000  0.00000000  0.50000000  1
  Cr  Cr1  1  0.00000000  0.50000000  0.50000000  1
  Cr  Cr2  1  0.50000000  0.50000000  0.00000000  1
  Cr  Cr3  1  0.50000000  0.50000000  0.50000000  1
  Cd  Cd4  1  0.12500000  0.12500000  0.12500000  1
  Cd  Cd5  1  0.87500000  0.87500000  0.87500000  1
  O  O6  1  0.73154400  0.73154400  0.73154400  1
  O  O7  1  0.26845600  0.26845600  0.69463200  1
  O  O8  1  0.26845600  0.69463200  0.26845600  1
  O  O9  1  0.69463200  0.26845600  0.26845600  1
  O  O10  1  0.73154400  0.30536800  0.73154400  1
  O  O11  1  0.30536800  0.73154400  0.73154400  1
  O  O12  1  0.26845600  0.26845600  0.26845600  1
  O  O13  1  0.73154400  0.73154400  0.30536800  1
