# generated using pymatgen
data_Ba4Mn3O10
_symmetry_space_group_name_H-M   'P 1'
_cell_length_a   7.24380728
_cell_length_b   7.24380728
_cell_length_c   13.08278900
_cell_angle_alpha   90.00000000
_cell_angle_beta   90.00000000
_cell_angle_gamma   132.95901796
_symmetry_Int_Tables_number   1
_chemical_formula_structural   Ba4Mn3O10
_chemical_formula_sum   'Ba8 Mn6 O20'
_cell_volume   502.40163405
_cell_formula_units_Z   2
loop_
 _symmetry_equiv_pos_site_id
 _symmetry_equiv_pos_as_xyz
  1  'x, y, z'
loop_
 _atom_site_type_symbol
 _atom_site_label
 _atom_site_symmetry_multiplicity
 _atom_site_fract_x
 _atom_site_fract_y
 _atom_site_fract_z
 _atom_site_occupancy
  Ba  Ba0  1  0.24323500  0.75676500  0.88784800  1
  Ba  Ba1  1  0.75676500  0.24323500  0.11215200  1
  Ba  Ba2  1  0.25676500  0.74323500  0.38784800  1
  Ba  Ba3  1  0.74323500  0.25676500  0.61215200  1
  Ba  Ba4  1  0.03659000  0.96341000  0.64233800  1
  Ba  Ba5  1  0.96341000  0.03659000  0.35766200  1
  Ba  Ba6  1  0.46341000  0.53659000  0.14233800  1
  Ba  Ba7  1  0.53659000  0.46341000  0.85766200  1
  Mn  Mn8  1  0.37436600  0.62563400  0.65309600  1
  Mn  Mn9  1  0.62563400  0.37436600  0.34690400  1
  Mn  Mn10  1  0.12563400  0.87436600  0.15309600  1
  Mn  Mn11  1  0.87436600  0.12563400  0.84690400  1
  Mn  Mn12  1  0.50000000  0.50000000  0.50000000  1
  Mn  Mn13  1  0.00000000  0.00000000  0.00000000  1
  O  O14  1  0.13638200  0.36361800  0.75000000  1
  O  O15  1  0.36361800  0.13638200  0.25000000  1
  O  O16  1  0.86361800  0.63638200  0.25000000  1
  O  O17  1  0.63638200  0.86361800  0.75000000  1
  O  O18  1  0.38414700  0.17690100  0.46138000  1
  O  O19  1  0.17690100  0.38414700  0.53862000  1
  O  O20  1  0.11585300  0.32309900  0.96138000  1
  O  O21  1  0.32309900  0.11585300  0.03862000  1
  O  O22  1  0.61585300  0.82309900  0.53862000  1
  O  O23  1  0.82309900  0.61585300  0.46138000  1
  O  O24  1  0.88414700  0.67690100  0.03862000  1
  O  O25  1  0.67690100  0.88414700  0.96138000  1
  O  O26  1  0.23589600  0.76410400  0.64995200  1
  O  O27  1  0.76410400  0.23589600  0.35004800  1
  O  O28  1  0.96591300  0.03408700  0.14367400  1
  O  O29  1  0.03408700  0.96591300  0.85632600  1
  O  O30  1  0.53408700  0.46591300  0.64367400  1
  O  O31  1  0.46591300  0.53408700  0.35632600  1
  O  O32  1  0.73589600  0.26410400  0.85004800  1
  O  O33  1  0.26410400  0.73589600  0.14995200  1
