# generated using pymatgen
data_NaS2
_symmetry_space_group_name_H-M   'P 1'
_cell_length_a   9.10073115
_cell_length_b   9.10073115
_cell_length_c   9.10073115
_cell_angle_alpha   115.64449691
_cell_angle_beta   115.64449691
_cell_angle_gamma   97.72554550
_symmetry_Int_Tables_number   1
_chemical_formula_structural   NaS2
_chemical_formula_sum   'Na8 S16'
_cell_volume   562.52573209
_cell_formula_units_Z   8
loop_
 _symmetry_equiv_pos_site_id
 _symmetry_equiv_pos_as_xyz
  1  'x, y, z'
loop_
 _atom_site_type_symbol
 _atom_site_label
 _atom_site_symmetry_multiplicity
 _atom_site_fract_x
 _atom_site_fract_y
 _atom_site_fract_z
 _atom_site_occupancy
  Na  Na0  1  0.92016200  0.42016200  0.50000000  1
  Na  Na1  1  0.57983800  0.07983800  0.50000000  1
  Na  Na2  1  0.82983800  0.82983800  0.00000000  1
  Na  Na3  1  0.17016200  0.17016200  0.00000000  1
  Na  Na4  1  0.14818500  0.12500000  0.52318500  1
  Na  Na5  1  0.87500000  0.39818500  0.02318500  1
  Na  Na6  1  0.37500000  0.85181500  0.97681500  1
  Na  Na7  1  0.60181500  0.62500000  0.47681500  1
  S  S8  1  0.07845600  0.29411100  0.28143100  1
  S  S9  1  0.70588900  0.98732000  0.78434500  1
  S  S10  1  0.20297500  0.92154400  0.21565500  1
  S  S11  1  0.67154400  0.45297500  0.71565500  1
  S  S12  1  0.73732000  0.95588900  0.28434500  1
  S  S13  1  0.01268000  0.79702500  0.71856900  1
  S  S14  1  0.54702500  0.26268000  0.21856900  1
  S  S15  1  0.04411100  0.32845600  0.78143100  1
  S  S16  1  0.29379800  0.52891200  0.52887100  1
  S  S17  1  0.47108800  0.99995800  0.76488600  1
  S  S18  1  0.23507200  0.70620200  0.23511400  1
  S  S19  1  0.45620200  0.48507200  0.73511400  1
  S  S20  1  0.74995800  0.72108800  0.26488600  1
  S  S21  1  0.00004200  0.76492800  0.47112900  1
  S  S22  1  0.51492800  0.25004200  0.97112900  1
  S  S23  1  0.27891200  0.54379800  0.02887100  1
