# generated using pymatgen
data_NaB4Ir3
_symmetry_space_group_name_H-M   'P 1'
_cell_length_a   7.59917643
_cell_length_b   7.59917643
_cell_length_c   8.31573100
_cell_angle_alpha   90.00000000
_cell_angle_beta   90.00000000
_cell_angle_gamma   97.59952744
_symmetry_Int_Tables_number   1
_chemical_formula_structural   NaB4Ir3
_chemical_formula_sum   'Na4 B16 Ir12'
_cell_volume   475.99464600
_cell_formula_units_Z   4
loop_
 _symmetry_equiv_pos_site_id
 _symmetry_equiv_pos_as_xyz
  1  'x, y, z'
loop_
 _atom_site_type_symbol
 _atom_site_label
 _atom_site_symmetry_multiplicity
 _atom_site_fract_x
 _atom_site_fract_y
 _atom_site_fract_z
 _atom_site_occupancy
  Na  Na0  1  0.00151700  0.99848300  0.50000000  1
  Na  Na1  1  0.50151700  0.49848300  0.50000000  1
  Na  Na2  1  0.15964800  0.34035200  0.82356000  1
  Na  Na3  1  0.65964800  0.84035200  0.17644000  1
  B  B4  1  0.15721800  0.15533300  0.18473900  1
  B  B5  1  0.84466700  0.84278200  0.81526100  1
  B  B6  1  0.65721800  0.65533300  0.81526100  1
  B  B7  1  0.34466700  0.34278200  0.18473900  1
  B  B8  1  0.91145200  0.40969700  0.49999300  1
  B  B9  1  0.59030300  0.08854800  0.50000700  1
  B  B10  1  0.09030300  0.58854800  0.49999300  1
  B  B11  1  0.41145200  0.90969700  0.50000700  1
  B  B12  1  0.21414200  0.94378600  0.16288900  1
  B  B13  1  0.05621400  0.78585800  0.83711100  1
  B  B14  1  0.44581700  0.71381400  0.83725100  1
  B  B15  1  0.28618600  0.55418300  0.16274900  1
  B  B16  1  0.78618600  0.05418300  0.83725100  1
  B  B17  1  0.94581700  0.21381400  0.16274900  1
  B  B18  1  0.55621400  0.28585800  0.16288900  1
  B  B19  1  0.71414200  0.44378600  0.83711100  1
  Ir  Ir20  1  0.10990300  0.39009700  0.31305300  1
  Ir  Ir21  1  0.60990300  0.89009700  0.68694700  1
  Ir  Ir22  1  0.89218200  0.60781800  0.68782300  1
  Ir  Ir23  1  0.39218200  0.10781800  0.31217700  1
  Ir  Ir24  1  0.75095300  0.24904700  0.00000000  1
  Ir  Ir25  1  0.25095300  0.74904700  0.00000000  1
  Ir  Ir26  1  0.00095300  0.99904700  0.00000000  1
  Ir  Ir27  1  0.50095300  0.49904700  0.00000000  1
  Ir  Ir28  1  0.75103000  0.24918400  0.66528100  1
  Ir  Ir29  1  0.75081600  0.24897000  0.33471900  1
  Ir  Ir30  1  0.25103000  0.74918400  0.33471900  1
  Ir  Ir31  1  0.25081600  0.74897000  0.66528100  1
