# generated using pymatgen
data_K4Co(MoO4)3
_symmetry_space_group_name_H-M   'P 1'
_cell_length_a   7.96582300
_cell_length_b   10.09850006
_cell_length_c   10.16893511
_cell_angle_alpha   93.99298825
_cell_angle_beta   106.68177406
_cell_angle_gamma   105.96217045
_symmetry_Int_Tables_number   1
_chemical_formula_structural   K4Co(MoO4)3
_chemical_formula_sum   'K8 Co2 Mo6 O24'
_cell_volume   743.51044628
_cell_formula_units_Z   2
loop_
 _symmetry_equiv_pos_site_id
 _symmetry_equiv_pos_as_xyz
  1  'x, y, z'
loop_
 _atom_site_type_symbol
 _atom_site_label
 _atom_site_symmetry_multiplicity
 _atom_site_fract_x
 _atom_site_fract_y
 _atom_site_fract_z
 _atom_site_occupancy
  K  K0  1  0.00000000  0.50000000  0.50000000  1
  K  K1  1  0.21657400  0.72480200  0.26180300  1
  K  K2  1  0.78342600  0.27519800  0.73819700  1
  K  K3  1  0.25220200  0.02519200  0.97328400  1
  K  K4  1  0.74779800  0.97480800  0.02671600  1
  K  K5  1  0.64291100  0.38675500  0.06749400  1
  K  K6  1  0.35708900  0.61324500  0.93250600  1
  K  K7  1  0.50000000  0.50000000  0.50000000  1
  Co  Co8  1  0.16719500  0.05797000  0.36653500  1
  Co  Co9  1  0.83280500  0.94203000  0.63346500  1
  Mo  Mo10  1  0.22868200  0.23392600  0.67956800  1
  Mo  Mo11  1  0.77131800  0.76607400  0.32043200  1
  Mo  Mo12  1  0.12348100  0.31710300  0.13906700  1
  Mo  Mo13  1  0.87651900  0.68289700  0.86093300  1
  Mo  Mo14  1  0.61623000  0.10993600  0.34839900  1
  Mo  Mo15  1  0.38377000  0.89006400  0.65160100  1
  O  O16  1  0.21091100  0.40388200  0.71318500  1
  O  O17  1  0.78908900  0.59611800  0.28681500  1
  O  O18  1  0.16668600  0.44677800  0.28467900  1
  O  O19  1  0.83331400  0.55322200  0.71532100  1
  O  O20  1  0.44075300  0.23136000  0.79928200  1
  O  O21  1  0.55924700  0.76864000  0.20071800  1
  O  O22  1  0.11897300  0.14494700  0.18790100  1
  O  O23  1  0.88102700  0.85505300  0.81209900  1
  O  O24  1  0.23518100  0.22843200  0.50059100  1
  O  O25  1  0.76481900  0.77156800  0.49940900  1
  O  O26  1  0.29836400  0.36980600  0.05931300  1
  O  O27  1  0.70163600  0.63019400  0.94068700  1
  O  O28  1  0.90461500  0.29616400  0.01329800  1
  O  O29  1  0.09538500  0.70383600  0.98670200  1
  O  O30  1  0.38738600  0.00732100  0.34597700  1
  O  O31  1  0.61261400  0.99267900  0.65402300  1
  O  O32  1  0.78568200  0.02395800  0.41913500  1
  O  O33  1  0.21431800  0.97604200  0.58086500  1
  O  O34  1  0.60599600  0.13073300  0.17296900  1
  O  O35  1  0.39400400  0.86926700  0.82703100  1
  O  O36  1  0.68204600  0.27825700  0.45030600  1
  O  O37  1  0.31795400  0.72174300  0.54969400  1
  O  O38  1  0.03161300  0.12097400  0.71885500  1
  O  O39  1  0.96838700  0.87902600  0.28114500  1
