# generated using pymatgen
data_SmBC
_symmetry_space_group_name_H-M   'P 1'
_cell_length_a   8.29554200
_cell_length_b   8.32694400
_cell_length_c   12.26642600
_cell_angle_alpha   90.00000000
_cell_angle_beta   90.00000000
_cell_angle_gamma   90.00000000
_symmetry_Int_Tables_number   1
_chemical_formula_structural   SmBC
_chemical_formula_sum   'Sm20 B20 C20'
_cell_volume   847.32194344
_cell_formula_units_Z   20
loop_
 _symmetry_equiv_pos_site_id
 _symmetry_equiv_pos_as_xyz
  1  'x, y, z'
loop_
 _atom_site_type_symbol
 _atom_site_label
 _atom_site_symmetry_multiplicity
 _atom_site_fract_x
 _atom_site_fract_y
 _atom_site_fract_z
 _atom_site_occupancy
  Sm  Sm0  1  0.15940400  0.00778800  0.57836900  1
  Sm  Sm1  1  0.34059600  0.99221200  0.07836900  1
  Sm  Sm2  1  0.84059600  0.50778800  0.92163100  1
  Sm  Sm3  1  0.65940400  0.49221200  0.42163100  1
  Sm  Sm4  1  0.15811600  0.40904500  0.09712500  1
  Sm  Sm5  1  0.34188400  0.59095500  0.59712500  1
  Sm  Sm6  1  0.84188400  0.90904500  0.40287500  1
  Sm  Sm7  1  0.65811600  0.09095500  0.90287500  1
  Sm  Sm8  1  0.44963900  0.09822200  0.35946100  1
  Sm  Sm9  1  0.05036100  0.90177800  0.85946100  1
  Sm  Sm10  1  0.55036100  0.59822200  0.14053900  1
  Sm  Sm11  1  0.94963900  0.40177800  0.64053900  1
  Sm  Sm12  1  0.06121400  0.30352600  0.36690800  1
  Sm  Sm13  1  0.43878600  0.69647400  0.86690800  1
  Sm  Sm14  1  0.93878600  0.80352600  0.13309200  1
  Sm  Sm15  1  0.56121400  0.19647400  0.63309200  1
  Sm  Sm16  1  0.75442500  0.21179300  0.17529800  1
  Sm  Sm17  1  0.74557500  0.78820700  0.67529800  1
  Sm  Sm18  1  0.24557500  0.71179300  0.32470200  1
  Sm  Sm19  1  0.25442500  0.28820700  0.82470200  1
  B  B20  1  0.38199800  0.40079700  0.28698600  1
  B  B21  1  0.11800200  0.59920300  0.78698600  1
  B  B22  1  0.61800200  0.90079700  0.21301400  1
  B  B23  1  0.88199800  0.09920300  0.71301400  1
  B  B24  1  0.01826900  0.11063000  0.04055700  1
  B  B25  1  0.48173100  0.88937000  0.54055700  1
  B  B26  1  0.98173100  0.61063000  0.45944300  1
  B  B27  1  0.51826900  0.38937000  0.95944300  1
  B  B28  1  0.31603000  0.30528900  0.50858800  1
  B  B29  1  0.18397000  0.69471100  0.00858800  1
  B  B30  1  0.68397000  0.80528900  0.99141200  1
  B  B31  1  0.81603000  0.19471100  0.49141200  1
  B  B32  1  0.43830500  0.29610300  0.18017600  1
  B  B33  1  0.06169500  0.70389700  0.68017600  1
  B  B34  1  0.56169500  0.79610300  0.31982400  1
  B  B35  1  0.93830500  0.20389700  0.81982400  1
  B  B36  1  0.09630500  0.02378300  0.26088500  1
  B  B37  1  0.40369500  0.97621700  0.76088500  1
  B  B38  1  0.90369500  0.52378300  0.23911500  1
  B  B39  1  0.59630500  0.47621700  0.73911500  1
  C  C40  1  0.14618800  0.00462500  0.37522600  1
  C  C41  1  0.35381200  0.99537500  0.87522600  1
  C  C42  1  0.85381200  0.50462500  0.12477400  1
  C  C43  1  0.64618800  0.49537500  0.62477400  1
  C  C44  1  0.25382000  0.29654100  0.62056900  1
  C  C45  1  0.24618000  0.70345900  0.12056900  1
  C  C46  1  0.74618000  0.79654100  0.87943100  1
  C  C47  1  0.75382000  0.20345900  0.37943100  1
  C  C48  1  0.05637400  0.11252800  0.15877100  1
  C  C49  1  0.44362600  0.88747200  0.65877100  1
  C  C50  1  0.94362600  0.61252800  0.34122900  1
  C  C51  1  0.55637400  0.38747200  0.84122900  1
  C  C52  1  0.47517700  0.30439100  0.06186100  1
  C  C53  1  0.02482300  0.69560900  0.56186100  1
  C  C54  1  0.52482300  0.80439100  0.43813900  1
  C  C55  1  0.97517700  0.19560900  0.93813900  1
  C  C56  1  0.35369900  0.39934600  0.40784100  1
  C  C57  1  0.14630100  0.60065400  0.90784100  1
  C  C58  1  0.64630100  0.89934600  0.09215900  1
  C  C59  1  0.85369900  0.10065400  0.59215900  1
