# generated using pymatgen
data_Tb2AlCo2
_symmetry_space_group_name_H-M   'P 1'
_cell_length_a   5.42120854
_cell_length_b   5.42120854
_cell_length_c   5.42120854
_cell_angle_alpha   136.41002774
_cell_angle_beta   119.22349018
_cell_angle_gamma   77.73051200
_symmetry_Int_Tables_number   1
_chemical_formula_structural   Tb2AlCo2
_chemical_formula_sum   'Tb2 Al1 Co2'
_cell_volume   93.19937138
_cell_formula_units_Z   1
loop_
 _symmetry_equiv_pos_site_id
 _symmetry_equiv_pos_as_xyz
  1  'x, y, z'
loop_
 _atom_site_type_symbol
 _atom_site_label
 _atom_site_symmetry_multiplicity
 _atom_site_fract_x
 _atom_site_fract_y
 _atom_site_fract_z
 _atom_site_occupancy
  Tb  Tb0  1  0.29658600  0.79658600  0.50000000  1
  Tb  Tb1  1  0.70341400  0.20341400  0.50000000  1
  Al  Al2  1  0.00000000  0.00000000  0.00000000  1
  Co  Co3  1  0.27718000  0.50000000  0.77718000  1
  Co  Co4  1  0.72282000  0.50000000  0.22282000  1
