# generated using pymatgen
data_Dy5(Ge5Ir2)2
_symmetry_space_group_name_H-M   'P 1'
_cell_length_a   13.04453100
_cell_length_b   13.04453100
_cell_length_c   4.35090300
_cell_angle_alpha   90.00000000
_cell_angle_beta   90.00000000
_cell_angle_gamma   90.00000000
_symmetry_Int_Tables_number   1
_chemical_formula_structural   Dy5(Ge5Ir2)2
_chemical_formula_sum   'Dy10 Ge20 Ir8'
_cell_volume   740.34873648
_cell_formula_units_Z   2
loop_
 _symmetry_equiv_pos_site_id
 _symmetry_equiv_pos_as_xyz
  1  'x, y, z'
loop_
 _atom_site_type_symbol
 _atom_site_label
 _atom_site_symmetry_multiplicity
 _atom_site_fract_x
 _atom_site_fract_y
 _atom_site_fract_z
 _atom_site_occupancy
  Dy  Dy0  1  0.50000000  0.50000000  0.00000000  1
  Dy  Dy1  1  0.00000000  0.00000000  0.00000000  1
  Dy  Dy2  1  0.67387000  0.17387000  0.50000000  1
  Dy  Dy3  1  0.32613000  0.82613000  0.50000000  1
  Dy  Dy4  1  0.17387000  0.32613000  0.50000000  1
  Dy  Dy5  1  0.82613000  0.67387000  0.50000000  1
  Dy  Dy6  1  0.88428700  0.38428700  0.50000000  1
  Dy  Dy7  1  0.11571300  0.61571300  0.50000000  1
  Dy  Dy8  1  0.38428700  0.11571300  0.50000000  1
  Dy  Dy9  1  0.61571300  0.88428700  0.50000000  1
  Ge  Ge10  1  0.56661600  0.06661600  0.00000000  1
  Ge  Ge11  1  0.43338400  0.93338400  0.00000000  1
  Ge  Ge12  1  0.06661600  0.43338400  0.00000000  1
  Ge  Ge13  1  0.93338400  0.56661600  0.00000000  1
  Ge  Ge14  1  0.66251800  0.69989300  0.00000000  1
  Ge  Ge15  1  0.33748200  0.30010700  0.00000000  1
  Ge  Ge16  1  0.16251800  0.80010700  0.00000000  1
  Ge  Ge17  1  0.83748200  0.19989300  0.00000000  1
  Ge  Ge18  1  0.30010700  0.66251800  0.00000000  1
  Ge  Ge19  1  0.69989300  0.33748200  0.00000000  1
  Ge  Ge20  1  0.19989300  0.16251800  0.00000000  1
  Ge  Ge21  1  0.80010700  0.83748200  0.00000000  1
  Ge  Ge22  1  0.65689700  0.50860000  0.50000000  1
  Ge  Ge23  1  0.34310300  0.49140000  0.50000000  1
  Ge  Ge24  1  0.15689700  0.99140000  0.50000000  1
  Ge  Ge25  1  0.84310300  0.00860000  0.50000000  1
  Ge  Ge26  1  0.49140000  0.65689700  0.50000000  1
  Ge  Ge27  1  0.50860000  0.34310300  0.50000000  1
  Ge  Ge28  1  0.00860000  0.15689700  0.50000000  1
  Ge  Ge29  1  0.99140000  0.84310300  0.50000000  1
  Ir  Ir30  1  0.74618200  0.52095200  0.00000000  1
  Ir  Ir31  1  0.25381800  0.47904800  0.00000000  1
  Ir  Ir32  1  0.24618200  0.97904800  0.00000000  1
  Ir  Ir33  1  0.75381800  0.02095200  0.00000000  1
  Ir  Ir34  1  0.47904800  0.74618200  0.00000000  1
  Ir  Ir35  1  0.52095200  0.25381800  0.00000000  1
  Ir  Ir36  1  0.02095200  0.24618200  0.00000000  1
  Ir  Ir37  1  0.97904800  0.75381800  0.00000000  1
