# generated using pymatgen
data_Cs2Mo3P3O17
_symmetry_space_group_name_H-M   'P 1'
_cell_length_a   9.78050300
_cell_length_b   11.14224400
_cell_length_c   16.11614499
_cell_angle_alpha   68.26641744
_cell_angle_beta   90.00000000
_cell_angle_gamma   90.00000000
_symmetry_Int_Tables_number   1
_chemical_formula_structural   Cs2Mo3P3O17
_chemical_formula_sum   'Cs8 Mo12 P12 O68'
_cell_volume   1631.44080795
_cell_formula_units_Z   4
loop_
 _symmetry_equiv_pos_site_id
 _symmetry_equiv_pos_as_xyz
  1  'x, y, z'
loop_
 _atom_site_type_symbol
 _atom_site_label
 _atom_site_symmetry_multiplicity
 _atom_site_fract_x
 _atom_site_fract_y
 _atom_site_fract_z
 _atom_site_occupancy
  Cs  Cs0  1  0.38049200  0.82027400  0.50945200  1
  Cs  Cs1  1  0.61950800  0.17972600  0.49054800  1
  Cs  Cs2  1  0.88049200  0.17972600  0.99054800  1
  Cs  Cs3  1  0.11950800  0.82027400  0.00945200  1
  Cs  Cs4  1  0.87471700  0.40613400  0.20604900  1
  Cs  Cs5  1  0.12528300  0.59386600  0.79395100  1
  Cs  Cs6  1  0.37471700  0.59386600  0.29395100  1
  Cs  Cs7  1  0.62528300  0.40613400  0.70604900  1
  Mo  Mo8  1  0.11698600  0.95307200  0.24453200  1
  Mo  Mo9  1  0.88301400  0.04692800  0.75546800  1
  Mo  Mo10  1  0.61698600  0.04692800  0.25546800  1
  Mo  Mo11  1  0.38301400  0.95307200  0.74453200  1
  Mo  Mo12  1  0.61867800  0.75557400  0.06310800  1
  Mo  Mo13  1  0.38132200  0.24442600  0.93689200  1
  Mo  Mo14  1  0.11867800  0.24442600  0.43689200  1
  Mo  Mo15  1  0.88132200  0.75557400  0.56310800  1
  Mo  Mo16  1  0.75855700  0.57987500  0.40511900  1
  Mo  Mo17  1  0.24144300  0.42012500  0.59488100  1
  Mo  Mo18  1  0.25855700  0.42012500  0.09488100  1
  Mo  Mo19  1  0.74144300  0.57987500  0.90511900  1
  P  P20  1  0.82146200  0.83824600  0.20373600  1
  P  P21  1  0.17853800  0.16175400  0.79626400  1
  P  P22  1  0.32146200  0.16175400  0.29626400  1
  P  P23  1  0.67853800  0.83824600  0.70373600  1
  P  P24  1  0.59376800  0.32974000  0.06799900  1
  P  P25  1  0.40623200  0.67026000  0.93200100  1
  P  P26  1  0.09376800  0.67026000  0.43200100  1
  P  P27  1  0.90623200  0.32974000  0.56799900  1
  P  P28  1  0.39925400  0.95773600  0.12199400  1
  P  P29  1  0.60074600  0.04226400  0.87800600  1
  P  P30  1  0.89925400  0.04226400  0.37800600  1
  P  P31  1  0.10074600  0.95773600  0.62199400  1
  O  O32  1  0.97383900  0.95834100  0.33451500  1
  O  O33  1  0.02616100  0.04165900  0.66548500  1
  O  O34  1  0.47383900  0.04165900  0.16548500  1
  O  O35  1  0.52616100  0.95834100  0.83451500  1
  O  O36  1  0.44263000  0.73245400  0.00172600  1
  O  O37  1  0.55737000  0.26754600  0.99827400  1
  O  O38  1  0.94263000  0.26754600  0.49827400  1
  O  O39  1  0.05737000  0.73245400  0.50172600  1
  O  O40  1  0.76331400  0.73267300  0.28848500  1
  O  O41  1  0.23668600  0.26732700  0.71151500  1
  O  O42  1  0.26331400  0.26732700  0.21151500  1
  O  O43  1  0.73668600  0.73267300  0.78848500  1
  O  O44  1  0.58937800  0.60146200  0.42965000  1
  O  O45  1  0.41062200  0.39853800  0.57035000  1
  O  O46  1  0.08937800  0.39853800  0.07035000  1
  O  O47  1  0.91062200  0.60146200  0.92965000  1
  O  O48  1  0.74554000  0.46681400  0.35452500  1
  O  O49  1  0.25446000  0.53318600  0.64547500  1
  O  O50  1  0.24554000  0.53318600  0.14547500  1
  O  O51  1  0.75446000  0.46681400  0.85452500  1
  O  O52  1  0.78401100  0.80939600  0.11894400  1
  O  O53  1  0.21598900  0.19060400  0.88105600  1
  O  O54  1  0.28401100  0.19060400  0.38105600  1
  O  O55  1  0.71598900  0.80939600  0.61894400  1
  O  O56  1  0.66706300  0.22984600  0.14824600  1
  O  O57  1  0.33293700  0.77015400  0.85175400  1
  O  O58  1  0.16706300  0.77015400  0.35175400  1
  O  O59  1  0.83293700  0.22984600  0.64824600  1
  O  O60  1  0.97976900  0.84175000  0.20324200  1
  O  O61  1  0.02023100  0.15825000  0.79675800  1
  O  O62  1  0.47976900  0.15825000  0.29675800  1
  O  O63  1  0.52023100  0.84175000  0.70324200  1
  O  O64  1  0.60803400  0.60886900  0.15168000  1
  O  O65  1  0.39196600  0.39113100  0.84832000  1
  O  O66  1  0.10803400  0.39113100  0.34832000  1
  O  O67  1  0.89196600  0.60886900  0.65168000  1
  O  O68  1  0.70346400  0.43803900  0.02583700  1
  O  O69  1  0.29653600  0.56196100  0.97416300  1
  O  O70  1  0.20346400  0.56196100  0.47416300  1
  O  O71  1  0.79653600  0.43803900  0.52583700  1
  O  O72  1  0.86010500  0.95957200  0.47395700  1
  O  O73  1  0.13989500  0.04042800  0.52604300  1
  O  O74  1  0.36010500  0.04042800  0.02604300  1
  O  O75  1  0.63989500  0.95957200  0.97395700  1
  O  O76  1  0.48781800  0.83935600  0.12748000  1
  O  O77  1  0.51218200  0.16064400  0.87252000  1
  O  O78  1  0.98781800  0.16064400  0.37252000  1
  O  O79  1  0.01218200  0.83935600  0.62748000  1
  O  O80  1  0.78799000  0.71340400  0.48371200  1
  O  O81  1  0.21201000  0.28659600  0.51628800  1
  O  O82  1  0.28799000  0.28659600  0.01628800  1
  O  O83  1  0.71201000  0.71340400  0.98371200  1
  O  O84  1  0.76103300  0.97062600  0.19456200  1
  O  O85  1  0.23896700  0.02937400  0.80543800  1
  O  O86  1  0.26103300  0.02937400  0.30543800  1
  O  O87  1  0.73896700  0.97062600  0.69456200  1
  O  O88  1  0.26767900  0.89646400  0.17702900  1
  O  O89  1  0.73232100  0.10353600  0.82297100  1
  O  O90  1  0.76767900  0.10353600  0.32297100  1
  O  O91  1  0.23232100  0.89646400  0.67702900  1
  O  O92  1  0.57035800  0.90692100  0.34065200  1
  O  O93  1  0.42964200  0.09307900  0.65934800  1
  O  O94  1  0.07035800  0.09307900  0.15934800  1
  O  O95  1  0.92964200  0.90692100  0.84065200  1
  O  O96  1  0.96889200  0.61081600  0.40431100  1
  O  O97  1  0.03110800  0.38918400  0.59568900  1
  O  O98  1  0.46889200  0.38918400  0.09568900  1
  O  O99  1  0.53110800  0.61081600  0.90431100  1
