# generated using pymatgen
data_TbAlPd
_symmetry_space_group_name_H-M   'P 1'
_cell_length_a   4.46456000
_cell_length_b   6.95427000
_cell_length_c   7.80350100
_cell_angle_alpha   90.00000000
_cell_angle_beta   90.00000000
_cell_angle_gamma   90.00000000
_symmetry_Int_Tables_number   1
_chemical_formula_structural   TbAlPd
_chemical_formula_sum   'Tb4 Al4 Pd4'
_cell_volume   242.28119243
_cell_formula_units_Z   4
loop_
 _symmetry_equiv_pos_site_id
 _symmetry_equiv_pos_as_xyz
  1  'x, y, z'
loop_
 _atom_site_type_symbol
 _atom_site_label
 _atom_site_symmetry_multiplicity
 _atom_site_fract_x
 _atom_site_fract_y
 _atom_site_fract_z
 _atom_site_occupancy
  Tb  Tb0  1  0.25000000  0.53256800  0.81939900  1
  Tb  Tb1  1  0.75000000  0.46743200  0.18060100  1
  Tb  Tb2  1  0.25000000  0.03256800  0.68060100  1
  Tb  Tb3  1  0.75000000  0.96743200  0.31939900  1
  Al  Al4  1  0.25000000  0.64501400  0.43668700  1
  Al  Al5  1  0.75000000  0.35498600  0.56331300  1
  Al  Al6  1  0.25000000  0.14501400  0.06331300  1
  Al  Al7  1  0.75000000  0.85498600  0.93668700  1
  Pd  Pd8  1  0.75000000  0.72634600  0.61665600  1
  Pd  Pd9  1  0.25000000  0.27365400  0.38334400  1
  Pd  Pd10  1  0.75000000  0.22634600  0.88334400  1
  Pd  Pd11  1  0.25000000  0.77365400  0.11665600  1
