# generated using pymatgen
data_Er4Ga21Ni10
_symmetry_space_group_name_H-M   'P 1'
_cell_length_a   10.64446080
_cell_length_b   10.64446080
_cell_length_c   15.54388372
_cell_angle_alpha   55.50050878
_cell_angle_beta   55.50050878
_cell_angle_gamma   21.98945138
_symmetry_Int_Tables_number   1
_chemical_formula_structural   Er4Ga21Ni10
_chemical_formula_sum   'Er4 Ga21 Ni10'
_cell_volume   538.60977537
_cell_formula_units_Z   1
loop_
 _symmetry_equiv_pos_site_id
 _symmetry_equiv_pos_as_xyz
  1  'x, y, z'
loop_
 _atom_site_type_symbol
 _atom_site_label
 _atom_site_symmetry_multiplicity
 _atom_site_fract_x
 _atom_site_fract_y
 _atom_site_fract_z
 _atom_site_occupancy
  Er  Er0  1  0.77051800  0.77051800  0.32393400  1
  Er  Er1  1  0.22948200  0.22948200  0.67606600  1
  Er  Er2  1  0.12046800  0.12046800  0.16683600  1
  Er  Er3  1  0.87953200  0.87953200  0.83316400  1
  Ga  Ga4  1  0.39844700  0.39844700  0.49686100  1
  Ga  Ga5  1  0.60155300  0.60155300  0.50313900  1
  Ga  Ga6  1  0.38556600  0.38556600  0.20486400  1
  Ga  Ga7  1  0.61443400  0.61443400  0.79513600  1
  Ga  Ga8  1  0.24815000  0.24815000  0.20615500  1
  Ga  Ga9  1  0.75185000  0.75185000  0.79384500  1
  Ga  Ga10  1  0.00689900  0.00689900  0.40903900  1
  Ga  Ga11  1  0.99310100  0.99310100  0.59096100  1
  Ga  Ga12  1  0.62723700  0.62723700  0.30551500  1
  Ga  Ga13  1  0.37276300  0.37276300  0.69448500  1
  Ga  Ga14  1  0.93576800  0.93576800  0.29467100  1
  Ga  Ga15  1  0.06423200  0.06423200  0.70532900  1
  Ga  Ga16  1  0.54022900  0.54022900  0.13165300  1
  Ga  Ga17  1  0.45977100  0.45977100  0.86834700  1
  Ga  Ga18  1  0.88174800  0.88174800  0.05514600  1
  Ga  Ga19  1  0.11825200  0.11825200  0.94485400  1
  Ga  Ga20  1  0.50000000  0.50000000  0.00000000  1
  Ga  Ga21  1  0.29759700  0.29759700  0.00282200  1
  Ga  Ga22  1  0.70240300  0.70240300  0.99717800  1
  Ga  Ga23  1  0.79950000  0.79950000  0.50196300  1
  Ga  Ga24  1  0.20050000  0.20050000  0.49803700  1
  Ni  Ni25  1  0.97555600  0.97555600  0.10613600  1
  Ni  Ni26  1  0.02444400  0.02444400  0.89386400  1
  Ni  Ni27  1  0.34738300  0.34738300  0.38828200  1
  Ni  Ni28  1  0.65261700  0.65261700  0.61171800  1
  Ni  Ni29  1  0.74885400  0.74885400  0.11549400  1
  Ni  Ni30  1  0.25114600  0.25114600  0.88450600  1
  Ni  Ni31  1  0.13282000  0.13282000  0.39767300  1
  Ni  Ni32  1  0.86718000  0.86718000  0.60232700  1
  Ni  Ni33  1  0.50322400  0.50322400  0.31368700  1
  Ni  Ni34  1  0.49677600  0.49677600  0.68631300  1
