# generated using pymatgen
data_Pr12Ge5S28
_symmetry_space_group_name_H-M   'P 1'
_cell_length_a   10.26781600
_cell_length_b   11.72970401
_cell_length_c   11.81247208
_cell_angle_alpha   119.75024002
_cell_angle_beta   115.75676148
_cell_angle_gamma   89.99745997
_symmetry_Int_Tables_number   1
_chemical_formula_structural   Pr12Ge5S28
_chemical_formula_sum   'Pr12 Ge5 S28'
_cell_volume   1069.32764527
_cell_formula_units_Z   1
loop_
 _symmetry_equiv_pos_site_id
 _symmetry_equiv_pos_as_xyz
  1  'x, y, z'
loop_
 _atom_site_type_symbol
 _atom_site_label
 _atom_site_symmetry_multiplicity
 _atom_site_fract_x
 _atom_site_fract_y
 _atom_site_fract_z
 _atom_site_occupancy
  Pr  Pr0  1  0.13086200  0.29855600  0.36616400  1
  Pr  Pr1  1  0.12507200  0.80628100  0.34657300  1
  Pr  Pr2  1  0.22336200  0.57067300  0.87553600  1
  Pr  Pr3  1  0.23300800  0.05065800  0.86896100  1
  Pr  Pr4  1  0.65302300  0.52294800  0.78014300  1
  Pr  Pr5  1  0.63524200  0.99663800  0.76197300  1
  Pr  Pr6  1  0.87836400  0.69450100  0.65521300  1
  Pr  Pr7  1  0.86319200  0.19753900  0.63241000  1
  Pr  Pr8  1  0.76704400  0.44779800  0.13368000  1
  Pr  Pr9  1  0.77803000  0.92887600  0.12305600  1
  Pr  Pr10  1  0.36550400  0.49584900  0.23064400  1
  Pr  Pr11  1  0.34651300  0.97971400  0.22335900  1
  Ge  Ge12  1  0.33703000  0.24815600  0.66895000  1
  Ge  Ge13  1  0.32999300  0.74528900  0.66501200  1
  Ge  Ge14  1  0.66671500  0.83302800  0.33280000  1
  Ge  Ge15  1  0.66701000  0.33208100  0.33428800  1
  Ge  Ge16  1  0.99978400  0.23804100  0.00042800  1
  S  S17  1  0.09557700  0.00171400  0.26543200  1
  S  S18  1  0.08558000  0.46316800  0.23032200  1
  S  S19  1  0.14341700  0.30514400  0.91318200  1
  S  S20  1  0.16974400  0.82102000  0.90563500  1
  S  S21  1  0.76800700  0.27642600  0.85459300  1
  S  S22  1  0.73725700  0.78238100  0.82983200  1
  S  S23  1  0.91588200  0.00648600  0.76292500  1
  S  S24  1  0.90452100  0.48430800  0.73728500  1
  S  S25  1  0.83337900  0.66309400  0.09559500  1
  S  S26  1  0.84687300  0.16670800  0.08343600  1
  S  S27  1  0.26261700  0.69902700  0.16680100  1
  S  S28  1  0.23709900  0.20132300  0.15350000  1
  S  S29  1  0.33257500  0.05836600  0.66491300  1
  S  S30  1  0.33455600  0.55998100  0.66871600  1
  S  S31  1  0.65991500  0.13810900  0.32097500  1
  S  S32  1  0.67381400  0.65158600  0.34604300  1
  S  S33  1  0.42699800  0.25545900  0.52872500  1
  S  S34  1  0.40157100  0.74485200  0.51003300  1
  S  S35  1  0.10987400  0.28909800  0.59764700  1
  S  S36  1  0.10051500  0.77800600  0.57440100  1
  S  S37  1  0.47896000  0.43994500  0.89702700  1
  S  S38  1  0.48222000  0.93680700  0.89440000  1
  S  S39  1  0.58478700  0.98336100  0.48052300  1
  S  S40  1  0.58155500  0.48022500  0.47729400  1
  S  S41  1  0.89628700  0.95195900  0.41905900  1
  S  S42  1  0.89503600  0.44934200  0.41388200  1
  S  S43  1  0.52190100  0.79595700  0.10499500  1
  S  S44  1  0.51973800  0.29352100  0.10363800  1
