# generated using pymatgen
data_K3Ta3Si2O13
_symmetry_space_group_name_H-M   'P 1'
_cell_length_a   9.20529361
_cell_length_b   9.20529361
_cell_length_c   7.89292900
_cell_angle_alpha   90.00000000
_cell_angle_beta   90.00000000
_cell_angle_gamma   119.99999718
_symmetry_Int_Tables_number   1
_chemical_formula_structural   K3Ta3Si2O13
_chemical_formula_sum   'K6 Ta6 Si4 O26'
_cell_volume   579.22077506
_cell_formula_units_Z   2
loop_
 _symmetry_equiv_pos_site_id
 _symmetry_equiv_pos_as_xyz
  1  'x, y, z'
loop_
 _atom_site_type_symbol
 _atom_site_label
 _atom_site_symmetry_multiplicity
 _atom_site_fract_x
 _atom_site_fract_y
 _atom_site_fract_z
 _atom_site_occupancy
  K  K0  1  0.40251600  0.40251600  0.50000000  1
  K  K1  1  0.00000000  0.59748400  0.50000000  1
  K  K2  1  0.61119400  0.00000000  0.00000000  1
  K  K3  1  0.38880600  0.38880600  0.00000000  1
  K  K4  1  0.59748400  0.00000000  0.50000000  1
  K  K5  1  0.00000000  0.61119400  0.00000000  1
  Ta  Ta6  1  0.23741100  0.00000000  0.25075600  1
  Ta  Ta7  1  0.00000000  0.23741100  0.74924400  1
  Ta  Ta8  1  0.00000000  0.23741100  0.25075600  1
  Ta  Ta9  1  0.76258900  0.76258900  0.25075600  1
  Ta  Ta10  1  0.23741100  0.00000000  0.74924400  1
  Ta  Ta11  1  0.76258900  0.76258900  0.74924400  1
  Si  Si12  1  0.66666700  0.33333300  0.20937300  1
  Si  Si13  1  0.66666700  0.33333300  0.79062700  1
  Si  Si14  1  0.33333300  0.66666700  0.79062700  1
  Si  Si15  1  0.33333300  0.66666700  0.20937300  1
  O  O16  1  0.00000000  0.23184100  0.50000000  1
  O  O17  1  0.76815900  0.76815900  0.50000000  1
  O  O18  1  0.23184100  0.00000000  0.50000000  1
  O  O19  1  0.51425900  0.69562900  0.27086200  1
  O  O20  1  0.30437100  0.81863000  0.27086200  1
  O  O21  1  0.18137000  0.48574100  0.27086200  1
  O  O22  1  0.48574100  0.18137000  0.72913800  1
  O  O23  1  0.18137000  0.48574100  0.72913800  1
  O  O24  1  0.51425900  0.69562900  0.72913800  1
  O  O25  1  0.30437100  0.81863000  0.72913800  1
  O  O26  1  0.69562900  0.51425900  0.27086200  1
  O  O27  1  0.81863000  0.30437100  0.27086200  1
  O  O28  1  0.81863000  0.30437100  0.72913800  1
  O  O29  1  0.69562900  0.51425900  0.72913800  1
  O  O30  1  0.48574100  0.18137000  0.27086200  1
  O  O31  1  0.82489000  0.00000000  0.76379300  1
  O  O32  1  0.33333300  0.66666700  0.00000000  1
  O  O33  1  0.66666700  0.33333300  0.00000000  1
  O  O34  1  0.26780700  0.00000000  0.00000000  1
  O  O35  1  0.73219300  0.73219300  0.00000000  1
  O  O36  1  0.00000000  0.26780700  0.00000000  1
  O  O37  1  0.82489000  0.00000000  0.23620700  1
  O  O38  1  0.17511000  0.17511000  0.76379300  1
  O  O39  1  0.00000000  0.82489000  0.76379300  1
  O  O40  1  0.00000000  0.82489000  0.23620700  1
  O  O41  1  0.17511000  0.17511000  0.23620700  1
