# generated using pymatgen
data_V3Bi(PbO4)3
_symmetry_space_group_name_H-M   'P 1'
_cell_length_a   9.53286958
_cell_length_b   9.53286958
_cell_length_c   9.50273087
_cell_angle_alpha   70.52049789
_cell_angle_beta   70.52049789
_cell_angle_gamma   109.50171961
_symmetry_Int_Tables_number   1
_chemical_formula_structural   V3Bi(PbO4)3
_chemical_formula_sum   'V6 Bi2 Pb6 O24'
_cell_volume   664.38730799
_cell_formula_units_Z   2
loop_
 _symmetry_equiv_pos_site_id
 _symmetry_equiv_pos_as_xyz
  1  'x, y, z'
loop_
 _atom_site_type_symbol
 _atom_site_label
 _atom_site_symmetry_multiplicity
 _atom_site_fract_x
 _atom_site_fract_y
 _atom_site_fract_z
 _atom_site_occupancy
  V  V0  1  0.87540400  0.62231400  0.74749500  1
  V  V1  1  0.62231400  0.87540400  0.24749500  1
  V  V2  1  0.75078100  0.12791000  0.62721100  1
  V  V3  1  0.24958700  0.37475800  0.87491400  1
  V  V4  1  0.37475800  0.24958700  0.37491400  1
  V  V5  1  0.12791000  0.75078100  0.12721100  1
  Bi  Bi6  1  0.50036700  0.17523500  0.99843400  1
  Bi  Bi7  1  0.17523500  0.50036700  0.49843400  1
  Pb  Pb8  1  0.66233000  0.50051500  0.49638100  1
  Pb  Pb9  1  0.84284200  0.34014400  0.16200200  1
  Pb  Pb10  1  0.99521700  0.99487200  0.34354500  1
  Pb  Pb11  1  0.50051500  0.66233000  0.99638100  1
  Pb  Pb12  1  0.34014400  0.84284200  0.66200200  1
  Pb  Pb13  1  0.99487200  0.99521700  0.84354500  1
  O  O14  1  0.15640800  0.80599200  0.92130600  1
  O  O15  1  0.22903600  0.07160200  0.57638900  1
  O  O16  1  0.26768600  0.68365900  0.16853600  1
  O  O17  1  0.33975600  0.42516000  0.35255700  1
  O  O18  1  0.80599200  0.15640800  0.42130600  1
  O  O19  1  0.07160200  0.22903600  0.07638900  1
  O  O20  1  0.68365900  0.26768600  0.66853600  1
  O  O21  1  0.42516000  0.33975600  0.85255700  1
  O  O22  1  0.65763100  0.84753400  0.07073200  1
  O  O23  1  0.84924800  0.76875100  0.80715900  1
  O  O24  1  0.41197700  0.71849400  0.42744500  1
  O  O25  1  0.07874900  0.64364700  0.68832900  1
  O  O26  1  0.35263200  0.19588200  0.21909700  1
  O  O27  1  0.16606400  0.93398000  0.14866500  1
  O  O28  1  0.57753800  0.30971500  0.34737600  1
  O  O29  1  0.92044000  0.57614500  0.27242700  1
  O  O30  1  0.19588200  0.35263200  0.71909700  1
  O  O31  1  0.93398000  0.16606400  0.64866500  1
  O  O32  1  0.30971500  0.57753800  0.84737600  1
  O  O33  1  0.57614500  0.92044000  0.77242700  1
  O  O34  1  0.84753400  0.65763100  0.57073200  1
  O  O35  1  0.76875100  0.84924800  0.30715900  1
  O  O36  1  0.71849400  0.41197700  0.92744500  1
  O  O37  1  0.64364700  0.07874900  0.18832900  1
