# generated using pymatgen
data_P3RhO9
_symmetry_space_group_name_H-M   'P 1'
_cell_length_a   11.73971711
_cell_length_b   11.73971711
_cell_length_c   9.49826437
_cell_angle_alpha   70.08890181
_cell_angle_beta   70.08890181
_cell_angle_gamma   111.22785473
_symmetry_Int_Tables_number   1
_chemical_formula_structural   P3RhO9
_chemical_formula_sum   'P18 Rh6 O54'
_cell_volume   973.42134719
_cell_formula_units_Z   6
loop_
 _symmetry_equiv_pos_site_id
 _symmetry_equiv_pos_as_xyz
  1  'x, y, z'
loop_
 _atom_site_type_symbol
 _atom_site_label
 _atom_site_symmetry_multiplicity
 _atom_site_fract_x
 _atom_site_fract_y
 _atom_site_fract_z
 _atom_site_occupancy
  P  P0  1  0.31434900  0.68667500  0.25302400  1
  P  P1  1  0.68667600  0.31434900  0.75302400  1
  P  P2  1  0.41481100  0.35060200  0.18327100  1
  P  P3  1  0.35060200  0.41481100  0.68327100  1
  P  P4  1  0.03900000  0.76410300  0.65648100  1
  P  P5  1  0.76410300  0.03900000  0.15648100  1
  P  P6  1  0.70122500  0.09412300  0.65719600  1
  P  P7  1  0.09412300  0.70122500  0.15719600  1
  P  P8  1  0.25885800  0.98732400  0.80811300  1
  P  P9  1  0.98732400  0.25885800  0.30811300  1
  P  P10  1  0.00453400  0.96760400  0.77104500  1
  P  P11  1  0.96760400  0.00453400  0.27104500  1
  P  P12  1  0.37839800  0.67009600  0.71462400  1
  P  P13  1  0.67009600  0.37839800  0.21462400  1
  P  P14  1  0.92888200  0.32208000  0.80363700  1
  P  P15  1  0.32208000  0.92888200  0.30363700  1
  P  P16  1  0.57991300  0.63162200  0.83783600  1
  P  P17  1  0.63162200  0.57991300  0.33783600  1
  Rh  Rh18  1  0.02453500  0.51458900  0.97064600  1
  Rh  Rh19  1  0.51458900  0.02453500  0.47064600  1
  Rh  Rh20  1  0.66037100  0.83593700  0.00356600  1
  Rh  Rh21  1  0.83593700  0.66037100  0.50356600  1
  Rh  Rh22  1  0.33090600  0.16978900  0.99962500  1
  Rh  Rh23  1  0.16978900  0.33090600  0.49962500  1
  O  O24  1  0.23778500  0.59293000  0.88555200  1
  O  O25  1  0.59293000  0.23778500  0.38555200  1
  O  O26  1  0.45121200  0.03188900  0.29400600  1
  O  O27  1  0.03188900  0.45121200  0.79400600  1
  O  O28  1  0.99884600  0.58381600  0.14391300  1
  O  O29  1  0.58381600  0.99884600  0.64391300  1
  O  O30  1  0.08218300  0.70819700  0.78363400  1
  O  O31  1  0.70819700  0.08218300  0.28363400  1
  O  O32  1  0.28118800  0.54854400  0.39053300  1
  O  O33  1  0.54854400  0.28118800  0.89053300  1
  O  O34  1  0.96008100  0.10472200  0.34901800  1
  O  O35  1  0.10472200  0.96008100  0.84901800  1
  O  O36  1  0.98949200  0.32567800  0.14051400  1
  O  O37  1  0.32567800  0.98949200  0.64051400  1
  O  O38  1  0.84398700  0.21847800  0.46862200  1
  O  O39  1  0.21847800  0.84398700  0.96862200  1
  O  O40  1  0.17943100  0.88661400  0.46533600  1
  O  O41  1  0.88661400  0.17943100  0.96533600  1
  O  O42  1  0.18630100  0.64988500  0.21857300  1
  O  O43  1  0.64988400  0.18630100  0.71857300  1
  O  O44  1  0.98575200  0.31938300  0.63707600  1
  O  O45  1  0.31938300  0.98575200  0.13707600  1
  O  O46  1  0.98316700  0.85925900  0.70204200  1
  O  O47  1  0.85925900  0.98316700  0.20204200  1
  O  O48  1  0.69361300  0.49807300  0.26504600  1
  O  O49  1  0.49807300  0.69361300  0.76504600  1
  O  O50  1  0.34565700  0.35467500  0.85464900  1
  O  O51  1  0.35467500  0.34565700  0.35464900  1
  O  O52  1  0.49116800  0.44766900  0.52632200  1
  O  O53  1  0.44766900  0.49116800  0.02632200  1
  O  O54  1  0.57273500  0.38191100  0.12960300  1
  O  O55  1  0.38191100  0.57273500  0.62960300  1
  O  O56  1  0.21856700  0.32128500  0.68897100  1
  O  O57  1  0.32128500  0.21856700  0.18897100  1
  O  O58  1  0.07057100  0.11163900  0.61301500  1
  O  O59  1  0.11163900  0.07057100  0.11301500  1
  O  O60  1  0.34381500  0.11788900  0.81020500  1
  O  O61  1  0.11788900  0.34381500  0.31020500  1
  O  O62  1  0.77580100  0.30286800  0.84942200  1
  O  O63  1  0.30286800  0.77580100  0.34942200  1
  O  O64  1  0.86508500  0.90089900  0.93890700  1
  O  O65  1  0.90089900  0.86508500  0.43890700  1
  O  O66  1  0.77839600  0.45243100  0.57425100  1
  O  O67  1  0.45243100  0.77839600  0.07425100  1
  O  O68  1  0.67708300  0.74027900  0.85958400  1
  O  O69  1  0.74027900  0.67708300  0.35958400  1
  O  O70  1  0.93118200  0.65228700  0.64818200  1
  O  O71  1  0.65228700  0.93118200  0.14818200  1
  O  O72  1  0.64939000  0.58397300  0.72552600  1
  O  O73  1  0.58397300  0.64939000  0.22552600  1
  O  O74  1  0.74256800  0.02138600  0.77621300  1
  O  O75  1  0.02138600  0.74256800  0.27621300  1
  O  O76  1  0.43026600  0.81031600  0.56021900  1
  O  O77  1  0.81031600  0.43026600  0.06021900  1
