# generated using pymatgen
data_Ho3Pt
_symmetry_space_group_name_H-M   'P 1'
_cell_length_a   6.46358700
_cell_length_b   6.99393200
_cell_length_c   9.52683300
_cell_angle_alpha   90.00000000
_cell_angle_beta   90.00000000
_cell_angle_gamma   90.00000000
_symmetry_Int_Tables_number   1
_chemical_formula_structural   Ho3Pt
_chemical_formula_sum   'Ho12 Pt4'
_cell_volume   430.66894516
_cell_formula_units_Z   4
loop_
 _symmetry_equiv_pos_site_id
 _symmetry_equiv_pos_as_xyz
  1  'x, y, z'
loop_
 _atom_site_type_symbol
 _atom_site_label
 _atom_site_symmetry_multiplicity
 _atom_site_fract_x
 _atom_site_fract_y
 _atom_site_fract_z
 _atom_site_occupancy
  Ho  Ho0  1  0.32414800  0.68202400  0.06003200  1
  Ho  Ho1  1  0.17585200  0.18202400  0.43996800  1
  Ho  Ho2  1  0.67585200  0.31797600  0.56003200  1
  Ho  Ho3  1  0.82414800  0.81797600  0.93996800  1
  Ho  Ho4  1  0.67585200  0.31797600  0.93996800  1
  Ho  Ho5  1  0.82414800  0.81797600  0.56003200  1
  Ho  Ho6  1  0.32414800  0.68202400  0.43996800  1
  Ho  Ho7  1  0.17585200  0.18202400  0.06003200  1
  Ho  Ho8  1  0.86925100  0.52810400  0.25000000  1
  Ho  Ho9  1  0.63074900  0.02810400  0.25000000  1
  Ho  Ho10  1  0.13074900  0.47189600  0.75000000  1
  Ho  Ho11  1  0.36925100  0.97189600  0.75000000  1
  Pt  Pt12  1  0.05505900  0.89040700  0.25000000  1
  Pt  Pt13  1  0.44494100  0.39040700  0.25000000  1
  Pt  Pt14  1  0.94494100  0.10959300  0.75000000  1
  Pt  Pt15  1  0.55505900  0.60959300  0.75000000  1
