# generated using pymatgen
data_NaMnVO4
_symmetry_space_group_name_H-M   'P 1'
_cell_length_a   5.38300402
_cell_length_b   6.95461102
_cell_length_c   9.71221401
_cell_angle_alpha   89.99896523
_cell_angle_beta   90.00489045
_cell_angle_gamma   90.00757655
_symmetry_Int_Tables_number   1
_chemical_formula_structural   NaMnVO4
_chemical_formula_sum   'Na4 Mn4 V4 O16'
_cell_volume   363.59322822
_cell_formula_units_Z   4
loop_
 _symmetry_equiv_pos_site_id
 _symmetry_equiv_pos_as_xyz
  1  'x, y, z'
loop_
 _atom_site_type_symbol
 _atom_site_label
 _atom_site_symmetry_multiplicity
 _atom_site_fract_x
 _atom_site_fract_y
 _atom_site_fract_z
 _atom_site_occupancy
  Na  Na0  1  0.01442800  0.24987500  0.35191300  1
  Na  Na1  1  0.48560900  0.25008400  0.85195200  1
  Na  Na2  1  0.98571400  0.75002400  0.64805700  1
  Na  Na3  1  0.51426400  0.74989800  0.14807200  1
  Mn  Mn4  1  0.49999000  0.49995500  0.50010100  1
  Mn  Mn5  1  0.99976100  0.50021000  0.99990100  1
  Mn  Mn6  1  0.99989500  0.00010000  0.00009100  1
  Mn  Mn7  1  0.50028500  0.99992400  0.49995400  1
  V  V8  1  0.02058000  0.74995600  0.31991900  1
  V  V9  1  0.47923900  0.75007000  0.81994900  1
  V  V10  1  0.97938400  0.25005000  0.68010900  1
  V  V11  1  0.52070600  0.24994900  0.18004900  1
  O  O12  1  0.06139000  0.75004100  0.13719800  1
  O  O13  1  0.43862200  0.74995900  0.63724000  1
  O  O14  1  0.93853600  0.25013100  0.86277900  1
  O  O15  1  0.56145100  0.24993500  0.36273100  1
  O  O16  1  0.70967300  0.74987600  0.37787800  1
  O  O17  1  0.79027100  0.75003800  0.87785200  1
  O  O18  1  0.29033900  0.25011600  0.62219000  1
  O  O19  1  0.20973100  0.24990700  0.12215100  1
  O  O20  1  0.17486200  0.55270400  0.38511200  1
  O  O21  1  0.32503300  0.94731200  0.88517700  1
  O  O22  1  0.82525800  0.05278400  0.61481200  1
  O  O23  1  0.67483500  0.44725600  0.11478400  1
  O  O24  1  0.82528700  0.44725800  0.61484200  1
  O  O25  1  0.67476600  0.05271000  0.11482200  1
  O  O26  1  0.17490200  0.94703500  0.38519900  1
  O  O27  1  0.32518900  0.55284300  0.88516700  1
