# generated using pymatgen
data_Ba3Sn5
_symmetry_space_group_name_H-M   'P 1'
_cell_length_a   7.20677080
_cell_length_b   7.20677080
_cell_length_c   11.31927300
_cell_angle_alpha   90.00000000
_cell_angle_beta   90.00000000
_cell_angle_gamma   101.65379528
_symmetry_Int_Tables_number   1
_chemical_formula_structural   Ba3Sn5
_chemical_formula_sum   'Ba6 Sn10'
_cell_volume   575.77639640
_cell_formula_units_Z   2
loop_
 _symmetry_equiv_pos_site_id
 _symmetry_equiv_pos_as_xyz
  1  'x, y, z'
loop_
 _atom_site_type_symbol
 _atom_site_label
 _atom_site_symmetry_multiplicity
 _atom_site_fract_x
 _atom_site_fract_y
 _atom_site_fract_z
 _atom_site_occupancy
  Ba  Ba0  1  0.29466300  0.70533700  0.50000000  1
  Ba  Ba1  1  0.70533700  0.29466300  0.00000000  1
  Ba  Ba2  1  0.70533700  0.29466300  0.50000000  1
  Ba  Ba3  1  0.29466300  0.70533700  0.00000000  1
  Ba  Ba4  1  0.85039900  0.85039900  0.75000000  1
  Ba  Ba5  1  0.14960100  0.14960100  0.25000000  1
  Sn  Sn6  1  0.80687800  0.80687800  0.43964200  1
  Sn  Sn7  1  0.19312200  0.19312200  0.93964200  1
  Sn  Sn8  1  0.80687800  0.80687800  0.06035800  1
  Sn  Sn9  1  0.19312200  0.19312200  0.56035800  1
  Sn  Sn10  1  0.40377400  0.01977900  0.75000000  1
  Sn  Sn11  1  0.59622600  0.98022100  0.25000000  1
  Sn  Sn12  1  0.55065700  0.55065700  0.25000000  1
  Sn  Sn13  1  0.44934300  0.44934300  0.75000000  1
  Sn  Sn14  1  0.98022100  0.59622600  0.25000000  1
  Sn  Sn15  1  0.01977900  0.40377400  0.75000000  1
