# generated using pymatgen
data_H7AuN4O15
_symmetry_space_group_name_H-M   'P 1'
_cell_length_a   7.63244447
_cell_length_b   7.63244447
_cell_length_c   12.44208174
_cell_angle_alpha   67.95472336
_cell_angle_beta   67.95472336
_cell_angle_gamma   70.68758488
_symmetry_Int_Tables_number   1
_chemical_formula_structural   H7AuN4O15
_chemical_formula_sum   'H14 Au2 N8 O30'
_cell_volume   607.30112689
_cell_formula_units_Z   2
loop_
 _symmetry_equiv_pos_site_id
 _symmetry_equiv_pos_as_xyz
  1  'x, y, z'
loop_
 _atom_site_type_symbol
 _atom_site_label
 _atom_site_symmetry_multiplicity
 _atom_site_fract_x
 _atom_site_fract_y
 _atom_site_fract_z
 _atom_site_occupancy
  H  H0  1  0.97298400  0.12394200  0.11257900  1
  H  H1  1  0.87605800  0.02701600  0.38742100  1
  H  H2  1  0.02701600  0.87605800  0.88742100  1
  H  H3  1  0.12394200  0.97298400  0.61257900  1
  H  H4  1  0.03524100  0.23841500  0.96901900  1
  H  H5  1  0.76158500  0.96475900  0.53098100  1
  H  H6  1  0.96475900  0.76158500  0.03098100  1
  H  H7  1  0.23841500  0.03524100  0.46901900  1
  H  H8  1  0.00000000  0.00000000  0.00000000  1
  H  H9  1  0.00000000  0.00000000  0.50000000  1
  H  H10  1  0.69973900  0.16888900  0.25629800  1
  H  H11  1  0.83111100  0.30026100  0.24370200  1
  H  H12  1  0.30026100  0.83111100  0.74370200  1
  H  H13  1  0.16888900  0.69973900  0.75629800  1
  Au  Au14  1  0.00000000  0.50000000  0.50000000  1
  Au  Au15  1  0.50000000  0.00000000  0.00000000  1
  N  N16  1  0.41569900  0.47597000  0.40173100  1
  N  N17  1  0.52403000  0.58430100  0.09826900  1
  N  N18  1  0.58430100  0.52403000  0.59826900  1
  N  N19  1  0.47597000  0.41569900  0.90173100  1
  N  N20  1  0.97889200  0.58519400  0.25742500  1
  N  N21  1  0.41480600  0.02110800  0.24257500  1
  N  N22  1  0.02110800  0.41480600  0.74257500  1
  N  N23  1  0.58519400  0.97889200  0.75742500  1
  O  O24  1  0.55932900  0.54686000  0.34174600  1
  O  O25  1  0.45314000  0.44067100  0.15825400  1
  O  O26  1  0.44067100  0.45314000  0.65825400  1
  O  O27  1  0.54686000  0.55932900  0.84174600  1
  O  O28  1  0.41472000  0.30329700  0.45428500  1
  O  O29  1  0.69670300  0.58528000  0.04571500  1
  O  O30  1  0.58528000  0.69670300  0.54571500  1
  O  O31  1  0.30329700  0.41472000  0.95428500  1
  O  O32  1  0.24509000  0.60950100  0.40679900  1
  O  O33  1  0.39049900  0.75491000  0.09320100  1
  O  O34  1  0.75491000  0.39049900  0.59320100  1
  O  O35  1  0.60950100  0.24509000  0.90679900  1
  O  O36  1  0.97990400  0.53816000  0.17158300  1
  O  O37  1  0.46184000  0.02009600  0.32841700  1
  O  O38  1  0.02009600  0.46184000  0.82841700  1
  O  O39  1  0.53816000  0.97990400  0.67158300  1
  O  O40  1  0.95310500  0.75074300  0.26103500  1
  O  O41  1  0.24925700  0.04689500  0.23896500  1
  O  O42  1  0.04689500  0.24925700  0.73896500  1
  O  O43  1  0.75074300  0.95310500  0.76103500  1
  O  O44  1  0.00944800  0.43180600  0.35324300  1
  O  O45  1  0.56819400  0.99055200  0.14675700  1
  O  O46  1  0.99055200  0.56819400  0.64675700  1
  O  O47  1  0.43180600  0.00944800  0.85324300  1
  O  O48  1  0.04740100  0.10934300  0.02914800  1
  O  O49  1  0.89065700  0.95259900  0.47085200  1
  O  O50  1  0.95259900  0.89065700  0.97085200  1
  O  O51  1  0.10934300  0.04740100  0.52914800  1
  O  O52  1  0.83259700  0.16740300  0.25000000  1
  O  O53  1  0.16740300  0.83259700  0.75000000  1
