# generated using pymatgen
data_Nd2Ti3(BiO6)2
_symmetry_space_group_name_H-M   'P 1'
_cell_length_a   16.90037245
_cell_length_b   16.90037245
_cell_length_c   5.46636900
_cell_angle_alpha   90.00000000
_cell_angle_beta   90.00000000
_cell_angle_gamma   161.52354379
_symmetry_Int_Tables_number   1
_chemical_formula_structural   Nd2Ti3(BiO6)2
_chemical_formula_sum   'Nd4 Ti6 Bi4 O24'
_cell_volume   494.80515980
_cell_formula_units_Z   2
loop_
 _symmetry_equiv_pos_site_id
 _symmetry_equiv_pos_as_xyz
  1  'x, y, z'
loop_
 _atom_site_type_symbol
 _atom_site_label
 _atom_site_symmetry_multiplicity
 _atom_site_fract_x
 _atom_site_fract_y
 _atom_site_fract_z
 _atom_site_occupancy
  Nd  Nd0  1  0.58194200  0.45099600  0.99675500  1
  Nd  Nd1  1  0.45099600  0.58194200  0.00324500  1
  Nd  Nd2  1  0.95099600  0.08194200  0.49675500  1
  Nd  Nd3  1  0.08194200  0.95099600  0.50324500  1
  Ti  Ti4  1  0.00643700  0.00643700  0.00000000  1
  Ti  Ti5  1  0.50643700  0.50643700  0.50000000  1
  Ti  Ti6  1  0.88409100  0.13933400  0.99930500  1
  Ti  Ti7  1  0.13933400  0.88409100  0.00069500  1
  Ti  Ti8  1  0.63933400  0.38409100  0.49930500  1
  Ti  Ti9  1  0.38409100  0.63933400  0.50069500  1
  Bi  Bi10  1  0.79662200  0.21927500  0.47343200  1
  Bi  Bi11  1  0.21927500  0.79662200  0.52656800  1
  Bi  Bi12  1  0.71927500  0.29662200  0.97343200  1
  Bi  Bi13  1  0.29662200  0.71927500  0.02656800  1
  O  O14  1  0.05248400  0.93939400  0.08027800  1
  O  O15  1  0.93939400  0.05248400  0.91972200  1
  O  O16  1  0.43939400  0.55248400  0.58027800  1
  O  O17  1  0.55248400  0.43939400  0.41972200  1
  O  O18  1  0.15391300  0.37077000  0.24436100  1
  O  O19  1  0.37077000  0.15391300  0.75563900  1
  O  O20  1  0.87077000  0.65391300  0.74436100  1
  O  O21  1  0.65391300  0.87077000  0.25563900  1
  O  O22  1  0.00816700  0.50988500  0.24783300  1
  O  O23  1  0.50988500  0.00816700  0.75216700  1
  O  O24  1  0.00988500  0.50816700  0.74783300  1
  O  O25  1  0.50816700  0.00988500  0.25216700  1
  O  O26  1  0.83466700  0.19474700  0.06437600  1
  O  O27  1  0.19474700  0.83466700  0.93562400  1
  O  O28  1  0.69474700  0.33466700  0.56437600  1
  O  O29  1  0.33466700  0.69474700  0.43562400  1
  O  O30  1  0.87137100  0.62778600  0.24272700  1
  O  O31  1  0.62778600  0.87137100  0.75727300  1
  O  O32  1  0.12778600  0.37137100  0.74272700  1
  O  O33  1  0.37137100  0.12778600  0.25727300  1
  O  O34  1  0.23082200  0.25609500  0.25314300  1
  O  O35  1  0.25609500  0.23082200  0.74685700  1
  O  O36  1  0.75609500  0.73082200  0.75314300  1
  O  O37  1  0.73082200  0.75609500  0.24685700  1
