# generated using pymatgen
data_BaNd2Sc2O7
_symmetry_space_group_name_H-M   'P 1'
_cell_length_a   5.85393900
_cell_length_b   5.85393900
_cell_length_c   20.45404100
_cell_angle_alpha   90.00000000
_cell_angle_beta   90.00000000
_cell_angle_gamma   90.00000000
_symmetry_Int_Tables_number   1
_chemical_formula_structural   BaNd2Sc2O7
_chemical_formula_sum   'Ba4 Nd8 Sc8 O28'
_cell_volume   700.93138655
_cell_formula_units_Z   4
loop_
 _symmetry_equiv_pos_site_id
 _symmetry_equiv_pos_as_xyz
  1  'x, y, z'
loop_
 _atom_site_type_symbol
 _atom_site_label
 _atom_site_symmetry_multiplicity
 _atom_site_fract_x
 _atom_site_fract_y
 _atom_site_fract_z
 _atom_site_occupancy
  Ba  Ba0  1  0.23848200  0.76151800  0.50000000  1
  Ba  Ba1  1  0.76151800  0.23848200  0.50000000  1
  Ba  Ba2  1  0.26151800  0.26151800  0.00000000  1
  Ba  Ba3  1  0.73848200  0.73848200  0.00000000  1
  Nd  Nd4  1  0.22341300  0.77658700  0.31559400  1
  Nd  Nd5  1  0.77658700  0.22341300  0.31559400  1
  Nd  Nd6  1  0.27658700  0.27658700  0.81559400  1
  Nd  Nd7  1  0.72341300  0.72341300  0.81559400  1
  Nd  Nd8  1  0.77658700  0.22341300  0.68440600  1
  Nd  Nd9  1  0.22341300  0.77658700  0.68440600  1
  Nd  Nd10  1  0.72341300  0.72341300  0.18440600  1
  Nd  Nd11  1  0.27658700  0.27658700  0.18440600  1
  Sc  Sc12  1  0.24164200  0.75835800  0.10174700  1
  Sc  Sc13  1  0.75835800  0.24164200  0.10174700  1
  Sc  Sc14  1  0.25835800  0.25835800  0.60174700  1
  Sc  Sc15  1  0.74164200  0.74164200  0.60174700  1
  Sc  Sc16  1  0.75835800  0.24164200  0.89825300  1
  Sc  Sc17  1  0.24164200  0.75835800  0.89825300  1
  Sc  Sc18  1  0.74164200  0.74164200  0.39825300  1
  Sc  Sc19  1  0.25835800  0.25835800  0.39825300  1
  O  O20  1  0.28442700  0.28442700  0.50000000  1
  O  O21  1  0.71557300  0.71557300  0.50000000  1
  O  O22  1  0.21557300  0.78442700  0.00000000  1
  O  O23  1  0.78442700  0.21557300  0.00000000  1
  O  O24  1  0.31443500  0.68556500  0.20981400  1
  O  O25  1  0.68556500  0.31443500  0.20981400  1
  O  O26  1  0.18556500  0.18556500  0.70981400  1
  O  O27  1  0.81443500  0.81443500  0.70981400  1
  O  O28  1  0.68556500  0.31443500  0.79018600  1
  O  O29  1  0.31443500  0.68556500  0.79018600  1
  O  O30  1  0.81443500  0.81443500  0.29018600  1
  O  O31  1  0.18556500  0.18556500  0.29018600  1
  O  O32  1  0.00000000  0.50000000  0.38631400  1
  O  O33  1  0.50000000  0.00000000  0.88631400  1
  O  O34  1  0.00000000  0.50000000  0.61368600  1
  O  O35  1  0.50000000  0.00000000  0.11368600  1
  O  O36  1  0.50000000  0.00000000  0.38631400  1
  O  O37  1  0.00000000  0.50000000  0.88631400  1
  O  O38  1  0.50000000  0.00000000  0.61368600  1
  O  O39  1  0.00000000  0.50000000  0.11368600  1
  O  O40  1  0.50000000  0.50000000  0.37000900  1
  O  O41  1  0.00000000  0.00000000  0.87000900  1
  O  O42  1  0.50000000  0.50000000  0.62999100  1
  O  O43  1  0.00000000  0.00000000  0.12999100  1
  O  O44  1  0.50000000  0.50000000  0.09353200  1
  O  O45  1  0.00000000  0.00000000  0.59353200  1
  O  O46  1  0.50000000  0.50000000  0.90646800  1
  O  O47  1  0.00000000  0.00000000  0.40646800  1
