# generated using pymatgen
data_Al3Ga3Ni10
_symmetry_space_group_name_H-M   'P 1'
_cell_length_a   3.72773900
_cell_length_b   5.00984969
_cell_length_c   10.01899471
_cell_angle_alpha   97.00191951
_cell_angle_beta   90.00000000
_cell_angle_gamma   90.00000000
_symmetry_Int_Tables_number   1
_chemical_formula_structural   Al3Ga3Ni10
_chemical_formula_sum   'Al3 Ga3 Ni10'
_cell_volume   185.71340981
_cell_formula_units_Z   1
loop_
 _symmetry_equiv_pos_site_id
 _symmetry_equiv_pos_as_xyz
  1  'x, y, z'
loop_
 _atom_site_type_symbol
 _atom_site_label
 _atom_site_symmetry_multiplicity
 _atom_site_fract_x
 _atom_site_fract_y
 _atom_site_fract_z
 _atom_site_occupancy
  Al  Al0  1  0.50000000  0.27974600  0.35847400  1
  Al  Al1  1  0.50000000  0.28115300  0.86102700  1
  Al  Al2  1  0.50000000  0.71894500  0.14012200  1
  Ga  Ga3  1  0.50000000  0.71918600  0.64098600  1
  Ga  Ga4  1  0.00000000  0.00019600  0.00004900  1
  Ga  Ga5  1  0.00000000  0.00279600  0.49841200  1
  Ni  Ni6  1  0.50000000  0.77444800  0.38622300  1
  Ni  Ni7  1  0.50000000  0.77506400  0.88868500  1
  Ni  Ni8  1  0.50000000  0.22507100  0.11242400  1
  Ni  Ni9  1  0.50000000  0.22539300  0.61264700  1
  Ni  Ni10  1  0.00000000  0.99879900  0.24910400  1
  Ni  Ni11  1  0.00000000  0.00094600  0.75046700  1
  Ni  Ni12  1  0.00000000  0.50070000  0.00082400  1
  Ni  Ni13  1  0.00000000  0.50032600  0.49917600  1
  Ni  Ni14  1  0.00000000  0.49920600  0.25000100  1
  Ni  Ni15  1  0.00000000  0.49802200  0.75137700  1
