# generated using pymatgen
data_VCu3(SeS)2
_symmetry_space_group_name_H-M   'P 1'
_cell_length_a   5.50842063
_cell_length_b   5.50842063
_cell_length_c   5.51540600
_cell_angle_alpha   90.00000000
_cell_angle_beta   90.00000000
_cell_angle_gamma   91.14687865
_symmetry_Int_Tables_number   1
_chemical_formula_structural   VCu3(SeS)2
_chemical_formula_sum   'V1 Cu3 Se2 S2'
_cell_volume   167.31877181
_cell_formula_units_Z   1
loop_
 _symmetry_equiv_pos_site_id
 _symmetry_equiv_pos_as_xyz
  1  'x, y, z'
loop_
 _atom_site_type_symbol
 _atom_site_label
 _atom_site_symmetry_multiplicity
 _atom_site_fract_x
 _atom_site_fract_y
 _atom_site_fract_z
 _atom_site_occupancy
  V  V0  1  0.00000000  0.00000000  0.00070400  1
  Cu  Cu1  1  0.50000000  0.00000000  0.01408100  1
  Cu  Cu2  1  0.00000000  0.50000000  0.01408100  1
  Cu  Cu3  1  0.00000000  0.00000000  0.49199000  1
  Se  Se4  1  0.75040000  0.75040000  0.75510800  1
  Se  Se5  1  0.24960000  0.24960000  0.75510800  1
  S  S6  1  0.23001800  0.76998200  0.23446400  1
  S  S7  1  0.76998200  0.23001800  0.23446400  1
