# generated using pymatgen
data_Yb6Al7Cu16
_symmetry_space_group_name_H-M   'P 1'
_cell_length_a   8.70507845
_cell_length_b   8.70507845
_cell_length_c   8.70507845
_cell_angle_alpha   60.00000000
_cell_angle_beta   60.00000000
_cell_angle_gamma   60.00000000
_symmetry_Int_Tables_number   1
_chemical_formula_structural   Yb6Al7Cu16
_chemical_formula_sum   'Yb6 Al7 Cu16'
_cell_volume   466.44782201
_cell_formula_units_Z   1
loop_
 _symmetry_equiv_pos_site_id
 _symmetry_equiv_pos_as_xyz
  1  'x, y, z'
loop_
 _atom_site_type_symbol
 _atom_site_label
 _atom_site_symmetry_multiplicity
 _atom_site_fract_x
 _atom_site_fract_y
 _atom_site_fract_z
 _atom_site_occupancy
  Yb  Yb0  1  0.71279900  0.71279900  0.28720100  1
  Yb  Yb1  1  0.28720100  0.71279900  0.28720100  1
  Yb  Yb2  1  0.71279900  0.28720100  0.28720100  1
  Yb  Yb3  1  0.28720100  0.28720100  0.71279900  1
  Yb  Yb4  1  0.71279900  0.28720100  0.71279900  1
  Yb  Yb5  1  0.28720100  0.71279900  0.71279900  1
  Al  Al6  1  0.00000000  0.00000000  0.00000000  1
  Al  Al7  1  0.00000000  0.00000000  0.50000000  1
  Al  Al8  1  0.50000000  0.00000000  0.50000000  1
  Al  Al9  1  0.00000000  0.50000000  0.50000000  1
  Al  Al10  1  0.50000000  0.50000000  0.00000000  1
  Al  Al11  1  0.00000000  0.50000000  0.00000000  1
  Al  Al12  1  0.50000000  0.00000000  0.00000000  1
  Cu  Cu13  1  0.87808500  0.87808500  0.36574500  1
  Cu  Cu14  1  0.87808500  0.36574500  0.87808500  1
  Cu  Cu15  1  0.36574500  0.87808500  0.87808500  1
  Cu  Cu16  1  0.87808500  0.87808500  0.87808500  1
  Cu  Cu17  1  0.12191500  0.12191500  0.63425500  1
  Cu  Cu18  1  0.12191500  0.63425500  0.12191500  1
  Cu  Cu19  1  0.63425500  0.12191500  0.12191500  1
  Cu  Cu20  1  0.12191500  0.12191500  0.12191500  1
  Cu  Cu21  1  0.67193000  0.67193000  0.98420900  1
  Cu  Cu22  1  0.67193000  0.98420900  0.67193000  1
  Cu  Cu23  1  0.98420900  0.67193000  0.67193000  1
  Cu  Cu24  1  0.67193000  0.67193000  0.67193000  1
  Cu  Cu25  1  0.32807000  0.32807000  0.01579100  1
  Cu  Cu26  1  0.32807000  0.01579100  0.32807000  1
  Cu  Cu27  1  0.01579100  0.32807000  0.32807000  1
  Cu  Cu28  1  0.32807000  0.32807000  0.32807000  1
