# generated using pymatgen
data_Sr2SmTaO6
_symmetry_space_group_name_H-M   'P 1'
_cell_length_a   6.02444400
_cell_length_b   5.88419600
_cell_length_c   10.24063193
_cell_angle_alpha   55.15742872
_cell_angle_beta   90.00000000
_cell_angle_gamma   90.00000000
_symmetry_Int_Tables_number   1
_chemical_formula_structural   Sr2SmTaO6
_chemical_formula_sum   'Sr4 Sm2 Ta2 O12'
_cell_volume   297.93977721
_cell_formula_units_Z   2
loop_
 _symmetry_equiv_pos_site_id
 _symmetry_equiv_pos_as_xyz
  1  'x, y, z'
loop_
 _atom_site_type_symbol
 _atom_site_label
 _atom_site_symmetry_multiplicity
 _atom_site_fract_x
 _atom_site_fract_y
 _atom_site_fract_z
 _atom_site_occupancy
  Sr  Sr0  1  0.45739200  0.24200800  0.74737600  1
  Sr  Sr1  1  0.54260800  0.75799200  0.25262400  1
  Sr  Sr2  1  0.95739200  0.75799200  0.75262400  1
  Sr  Sr3  1  0.04260800  0.24200800  0.24737600  1
  Sm  Sm4  1  0.00000000  0.50000000  0.50000000  1
  Sm  Sm5  1  0.50000000  0.50000000  0.00000000  1
  Ta  Ta6  1  0.00000000  0.00000000  0.00000000  1
  Ta  Ta7  1  0.50000000  0.00000000  0.50000000  1
  O  O8  1  0.03247700  0.31948600  0.76928100  1
  O  O9  1  0.96752300  0.68051400  0.23071900  1
  O  O10  1  0.53247700  0.68051400  0.73071900  1
  O  O11  1  0.46752300  0.31948600  0.26928100  1
  O  O12  1  0.72669300  0.86481900  0.94761500  1
  O  O13  1  0.27330700  0.13518100  0.05238500  1
  O  O14  1  0.22669300  0.13518100  0.55238500  1
  O  O15  1  0.77330700  0.86481900  0.44761500  1
  O  O16  1  0.18962700  0.76785700  0.95691100  1
  O  O17  1  0.81037300  0.23214300  0.04308900  1
  O  O18  1  0.68962700  0.23214300  0.54308900  1
  O  O19  1  0.31037300  0.76785700  0.45691100  1
