# generated using pymatgen
data_AlAg(PSe3)2
_symmetry_space_group_name_H-M   'P 1'
_cell_length_a   6.43089121
_cell_length_b   6.43089121
_cell_length_c   7.38618199
_cell_angle_alpha   81.97940216
_cell_angle_beta   81.97940216
_cell_angle_gamma   120.03574889
_symmetry_Int_Tables_number   1
_chemical_formula_structural   AlAg(PSe3)2
_chemical_formula_sum   'Al1 Ag1 P2 Se6'
_cell_volume   253.92872036
_cell_formula_units_Z   1
loop_
 _symmetry_equiv_pos_site_id
 _symmetry_equiv_pos_as_xyz
  1  'x, y, z'
loop_
 _atom_site_type_symbol
 _atom_site_label
 _atom_site_symmetry_multiplicity
 _atom_site_fract_x
 _atom_site_fract_y
 _atom_site_fract_z
 _atom_site_occupancy
  Al  Al0  1  0.33293700  0.66706300  0.00000000  1
  Ag  Ag1  1  0.66701600  0.33298400  0.00000000  1
  P  P2  1  0.05051600  0.05076300  0.84146600  1
  P  P3  1  0.94923700  0.94948400  0.15853400  1
  Se  Se4  1  0.12080400  0.43342700  0.75626800  1
  Se  Se5  1  0.39105300  0.03618600  0.75573900  1
  Se  Se6  1  0.96381400  0.60894700  0.24426100  1
  Se  Se7  1  0.56657300  0.87919600  0.24373200  1
  Se  Se8  1  0.72333500  0.76528400  0.75711100  1
  Se  Se9  1  0.23471600  0.27666500  0.24288900  1
