# generated using pymatgen
data_Sm4Al2O9
_symmetry_space_group_name_H-M   'P 1'
_cell_length_a   10.81148700
_cell_length_b   7.66871600
_cell_length_c   11.36337083
_cell_angle_alpha   70.98542873
_cell_angle_beta   90.00000000
_cell_angle_gamma   90.00000000
_symmetry_Int_Tables_number   1
_chemical_formula_structural   Sm4Al2O9
_chemical_formula_sum   'Sm16 Al8 O36'
_cell_volume   890.73247009
_cell_formula_units_Z   4
loop_
 _symmetry_equiv_pos_site_id
 _symmetry_equiv_pos_as_xyz
  1  'x, y, z'
loop_
 _atom_site_type_symbol
 _atom_site_label
 _atom_site_symmetry_multiplicity
 _atom_site_fract_x
 _atom_site_fract_y
 _atom_site_fract_z
 _atom_site_occupancy
  Sm  Sm0  1  0.58954300  0.47512600  0.30882600  1
  Sm  Sm1  1  0.41045700  0.52487400  0.69117400  1
  Sm  Sm2  1  0.08954300  0.52487400  0.19117400  1
  Sm  Sm3  1  0.91045700  0.47512600  0.80882600  1
  Sm  Sm4  1  0.60383500  0.97643200  0.28700600  1
  Sm  Sm5  1  0.39616500  0.02356800  0.71299400  1
  Sm  Sm6  1  0.10383500  0.02356800  0.21299400  1
  Sm  Sm7  1  0.89616500  0.97643200  0.78700600  1
  Sm  Sm8  1  0.37553700  0.83572600  0.06855700  1
  Sm  Sm9  1  0.62446300  0.16427400  0.93144300  1
  Sm  Sm10  1  0.87553700  0.16427400  0.43144300  1
  Sm  Sm11  1  0.12446300  0.83572600  0.56855700  1
  Sm  Sm12  1  0.87776600  0.66380600  0.41387400  1
  Sm  Sm13  1  0.12223400  0.33619400  0.58612600  1
  Sm  Sm14  1  0.37776600  0.33619400  0.08612600  1
  Sm  Sm15  1  0.62223400  0.66380600  0.91387400  1
  Al  Al16  1  0.81481000  0.84774600  0.11664100  1
  Al  Al17  1  0.18519000  0.15225400  0.88335900  1
  Al  Al18  1  0.31481000  0.15225400  0.38335900  1
  Al  Al19  1  0.68519000  0.84774600  0.61664100  1
  Al  Al20  1  0.81271200  0.27891500  0.12866700  1
  Al  Al21  1  0.18728800  0.72108500  0.87133300  1
  Al  Al22  1  0.31271200  0.72108500  0.37133300  1
  Al  Al23  1  0.68728800  0.27891500  0.62866700  1
  O  O24  1  0.73405500  0.42438000  0.48158100  1
  O  O25  1  0.26594500  0.57562000  0.51841900  1
  O  O26  1  0.23405500  0.57562000  0.01841900  1
  O  O27  1  0.76594500  0.42438000  0.98158100  1
  O  O28  1  0.72963800  0.86128300  0.46453900  1
  O  O29  1  0.27036200  0.13871700  0.53546100  1
  O  O30  1  0.22963800  0.13871700  0.03546100  1
  O  O31  1  0.77036200  0.86128300  0.96453900  1
  O  O32  1  0.96975100  0.80102500  0.16739200  1
  O  O33  1  0.03024900  0.19897500  0.83260800  1
  O  O34  1  0.46975100  0.19897500  0.33260800  1
  O  O35  1  0.53024900  0.80102500  0.66739200  1
  O  O36  1  0.50496000  0.57703900  0.10677400  1
  O  O37  1  0.49504000  0.42296100  0.89322600  1
  O  O38  1  0.00496000  0.42296100  0.39322600  1
  O  O39  1  0.99504000  0.57703900  0.60677400  1
  O  O40  1  0.72775500  0.71502000  0.24685100  1
  O  O41  1  0.27224500  0.28498000  0.75314900  1
  O  O42  1  0.22775500  0.28498000  0.25314900  1
  O  O43  1  0.77224500  0.71502000  0.74685100  1
  O  O44  1  0.72879500  0.26798100  0.26575900  1
  O  O45  1  0.27120500  0.73201900  0.73424100  1
  O  O46  1  0.22879500  0.73201900  0.23424100  1
  O  O47  1  0.77120500  0.26798100  0.76575900  1
  O  O48  1  0.25931100  0.93330500  0.38438500  1
  O  O49  1  0.74068900  0.06669500  0.61561500  1
  O  O50  1  0.75931100  0.06669500  0.11561500  1
  O  O51  1  0.24068900  0.93330500  0.88438500  1
  O  O52  1  0.47067200  0.71658200  0.33673000  1
  O  O53  1  0.52932800  0.28341800  0.66327000  1
  O  O54  1  0.97067200  0.28341800  0.16327000  1
  O  O55  1  0.02932800  0.71658200  0.83673000  1
  O  O56  1  0.99201300  0.93320400  0.39530900  1
  O  O57  1  0.00798700  0.06679600  0.60469100  1
  O  O58  1  0.49201300  0.06679600  0.10469100  1
  O  O59  1  0.50798700  0.93320400  0.89530900  1
