# generated using pymatgen
data_Rb2TeH6SeO10
_symmetry_space_group_name_H-M   'P 1'
_cell_length_a   6.79686800
_cell_length_b   11.96142200
_cell_length_c   13.98501171
_cell_angle_alpha   73.17788203
_cell_angle_beta   90.00000000
_cell_angle_gamma   90.00000000
_symmetry_Int_Tables_number   1
_chemical_formula_structural   Rb2TeH6SeO10
_chemical_formula_sum   'Rb8 Te4 H24 Se4 O40'
_cell_volume   1088.33033524
_cell_formula_units_Z   4
loop_
 _symmetry_equiv_pos_site_id
 _symmetry_equiv_pos_as_xyz
  1  'x, y, z'
loop_
 _atom_site_type_symbol
 _atom_site_label
 _atom_site_symmetry_multiplicity
 _atom_site_fract_x
 _atom_site_fract_y
 _atom_site_fract_z
 _atom_site_occupancy
  Rb  Rb0  1  0.51292900  0.65853600  0.64557000  1
  Rb  Rb1  1  0.98707100  0.15853600  0.64557000  1
  Rb  Rb2  1  0.99971300  0.58972700  0.14542000  1
  Rb  Rb3  1  0.00028700  0.41027300  0.85458000  1
  Rb  Rb4  1  0.01292900  0.84146400  0.35443000  1
  Rb  Rb5  1  0.50028700  0.08972700  0.14542000  1
  Rb  Rb6  1  0.48707100  0.34146400  0.35443000  1
  Rb  Rb7  1  0.49971300  0.91027300  0.85458000  1
  Te  Te8  1  0.00000000  0.00000000  0.00000000  1
  Te  Te9  1  0.50000000  0.50000000  0.00000000  1
  Te  Te10  1  0.00000000  0.50000000  0.50000000  1
  Te  Te11  1  0.50000000  0.00000000  0.50000000  1
  H  H12  1  0.66849000  0.58093900  0.43996100  1
  H  H13  1  0.52909600  0.32730900  0.93223200  1
  H  H14  1  0.77697800  0.41296400  0.64014700  1
  H  H15  1  0.74817400  0.36753400  0.10687500  1
  H  H16  1  0.56358000  0.86832400  0.39501700  1
  H  H17  1  0.72302200  0.91296400  0.64014700  1
  H  H18  1  0.93642000  0.36832400  0.39501700  1
  H  H19  1  0.97090400  0.82730900  0.93223200  1
  H  H20  1  0.70090700  0.63006700  0.86491100  1
  H  H21  1  0.29909300  0.36993300  0.13508900  1
  H  H22  1  0.33151000  0.41906100  0.56003900  1
  H  H23  1  0.20090700  0.86993300  0.13508900  1
  H  H24  1  0.75182600  0.86753400  0.10687500  1
  H  H25  1  0.16849000  0.91906100  0.56003900  1
  H  H26  1  0.25182600  0.63246600  0.89312500  1
  H  H27  1  0.22302200  0.58703600  0.35985300  1
  H  H28  1  0.83151000  0.08093900  0.43996100  1
  H  H29  1  0.47090400  0.67269100  0.06776800  1
  H  H30  1  0.24817400  0.13246600  0.89312500  1
  H  H31  1  0.43642000  0.13167600  0.60498300  1
  H  H32  1  0.79909300  0.13006700  0.86491100  1
  H  H33  1  0.06358000  0.63167600  0.60498300  1
  H  H34  1  0.27697800  0.08703600  0.35985300  1
  H  H35  1  0.02909600  0.17269100  0.06776800  1
  Se  Se36  1  0.49789100  0.26797300  0.74792000  1
  Se  Se37  1  0.50210900  0.73202700  0.25208000  1
  Se  Se38  1  0.99789100  0.23202700  0.25208000  1
  Se  Se39  1  0.00210900  0.76797300  0.74792000  1
  O  O40  1  0.88195400  0.05954100  0.86749600  1
  O  O41  1  0.11804600  0.94045900  0.13250400  1
  O  O42  1  0.64243700  0.88827000  0.44899800  1
  O  O43  1  0.61804600  0.55954100  0.86749600  1
  O  O44  1  0.75978200  0.44040300  0.04922100  1
  O  O45  1  0.07542600  0.58862100  0.36431600  1
  O  O46  1  0.97426300  0.89993400  0.66375800  1
  O  O47  1  0.14243700  0.61173000  0.55100200  1
  O  O48  1  0.26240200  0.90418800  0.51060200  1
  O  O49  1  0.26535900  0.25095800  0.78833300  1
  O  O50  1  0.44289600  0.83842900  0.30285900  1
  O  O51  1  0.73759800  0.09581200  0.48939800  1
  O  O52  1  0.47426300  0.60006600  0.33624200  1
  O  O53  1  0.42930100  0.35319700  0.97344200  1
  O  O54  1  0.57069900  0.64680300  0.02655800  1
  O  O55  1  0.76535900  0.24904200  0.21166700  1
  O  O56  1  0.73464100  0.74904200  0.21166700  1
  O  O57  1  0.92930100  0.14680300  0.02655800  1
  O  O58  1  0.07069900  0.85319700  0.97344200  1
  O  O59  1  0.24021800  0.55959700  0.95077900  1
  O  O60  1  0.84607100  0.75692900  0.84416000  1
  O  O61  1  0.35756300  0.11173000  0.55100200  1
  O  O62  1  0.74021800  0.94040300  0.04922100  1
  O  O63  1  0.23759800  0.40418800  0.51060200  1
  O  O64  1  0.42457400  0.08862100  0.36431600  1
  O  O65  1  0.52573700  0.39993400  0.66375800  1
  O  O66  1  0.85756300  0.38827000  0.44899800  1
  O  O67  1  0.23464100  0.75095800  0.78833300  1
  O  O68  1  0.55710400  0.16157100  0.69714100  1
  O  O69  1  0.38195400  0.44045900  0.13250400  1
  O  O70  1  0.57542600  0.91137900  0.63568400  1
  O  O71  1  0.02573700  0.10006600  0.33624200  1
  O  O72  1  0.34607100  0.74307100  0.15584000  1
  O  O73  1  0.76240200  0.59581200  0.48939800  1
  O  O74  1  0.15392900  0.24307100  0.15584000  1
  O  O75  1  0.05710400  0.33842900  0.30285900  1
  O  O76  1  0.65392900  0.25692900  0.84416000  1
  O  O77  1  0.25978200  0.05959700  0.95077900  1
  O  O78  1  0.92457400  0.41137900  0.63568400  1
  O  O79  1  0.94289600  0.66157100  0.69714100  1
