# generated using pymatgen
data_ErCuPbS3
_symmetry_space_group_name_H-M   'P 1'
_cell_length_a   6.82824448
_cell_length_b   6.82824448
_cell_length_c   10.15246100
_cell_angle_alpha   90.00000000
_cell_angle_beta   90.00000000
_cell_angle_gamma   146.64586517
_symmetry_Int_Tables_number   1
_chemical_formula_structural   ErCuPbS3
_chemical_formula_sum   'Er2 Cu2 Pb2 S6'
_cell_volume   260.25787673
_cell_formula_units_Z   2
loop_
 _symmetry_equiv_pos_site_id
 _symmetry_equiv_pos_as_xyz
  1  'x, y, z'
loop_
 _atom_site_type_symbol
 _atom_site_label
 _atom_site_symmetry_multiplicity
 _atom_site_fract_x
 _atom_site_fract_y
 _atom_site_fract_z
 _atom_site_occupancy
  Er  Er0  1  0.99672100  0.00327900  0.49824700  1
  Er  Er1  1  0.00327900  0.99672100  0.99824700  1
  Cu  Cu2  1  0.46693300  0.53306700  0.24952200  1
  Cu  Cu3  1  0.53306700  0.46693300  0.74952200  1
  Pb  Pb4  1  0.74819700  0.25180300  0.22624100  1
  Pb  Pb5  1  0.25180300  0.74819700  0.72624100  1
  S  S6  1  0.36224300  0.63775700  0.43507600  1
  S  S7  1  0.63559200  0.36440800  0.56347300  1
  S  S8  1  0.36440800  0.63559200  0.06347300  1
  S  S9  1  0.63775700  0.36224300  0.93507600  1
  S  S10  1  0.07290300  0.92709700  0.25004100  1
  S  S11  1  0.92709700  0.07290300  0.75004100  1
