# generated using pymatgen
data_YThFe6
_symmetry_space_group_name_H-M   'P 1'
_cell_length_a   5.11833960
_cell_length_b   5.11834100
_cell_length_c   16.72244698
_cell_angle_alpha   81.19697508
_cell_angle_beta   90.00000191
_cell_angle_gamma   120.00000260
_symmetry_Int_Tables_number   1
_chemical_formula_structural   YThFe6
_chemical_formula_sum   'Y3 Th3 Fe18'
_cell_volume   373.42179503
_cell_formula_units_Z   3
loop_
 _symmetry_equiv_pos_site_id
 _symmetry_equiv_pos_as_xyz
  1  'x, y, z'
loop_
 _atom_site_type_symbol
 _atom_site_label
 _atom_site_symmetry_multiplicity
 _atom_site_fract_x
 _atom_site_fract_y
 _atom_site_fract_z
 _atom_site_occupancy
  Y  Y0  1  0.42979300  0.85958600  0.71062200  1
  Y  Y1  1  0.00017200  0.00034400  0.99948400  1
  Y  Y2  1  0.49902800  0.99805600  0.50291600  1
  Th  Th3  1  0.57025900  0.14051700  0.28922400  1
  Th  Th4  1  0.07051100  0.14102200  0.78846600  1
  Th  Th5  1  0.92954400  0.85908800  0.21136800  1
  Fe  Fe6  1  0.66633000  0.33266000  0.00101000  1
  Fe  Fe7  1  0.16654300  0.33308500  0.50037200  1
  Fe  Fe8  1  0.83344400  0.66688800  0.49966900  1
  Fe  Fe9  1  0.33347900  0.66695700  0.99956400  1
  Fe  Fe10  1  0.24993900  0.49987800  0.25018200  1
  Fe  Fe11  1  0.75064100  0.50128200  0.74807800  1
  Fe  Fe12  1  0.04119400  0.57918600  0.37962100  1
  Fe  Fe13  1  0.54099900  0.58073800  0.87826400  1
  Fe  Fe14  1  0.53799200  0.57918600  0.37962100  1
  Fe  Fe15  1  0.03973900  0.58073800  0.87826400  1
  Fe  Fe16  1  0.04119400  0.08238700  0.37962100  1
  Fe  Fe17  1  0.54099900  0.08199800  0.87826400  1
  Fe  Fe18  1  0.45861600  0.42064200  0.12074200  1
  Fe  Fe19  1  0.95927200  0.41967300  0.62105500  1
  Fe  Fe20  1  0.96202600  0.42064200  0.12074200  1
  Fe  Fe21  1  0.46040100  0.41967300  0.62105500  1
  Fe  Fe22  1  0.45861600  0.91723200  0.12074200  1
  Fe  Fe23  1  0.95927200  0.91854300  0.62105500  1
