# generated using pymatgen
data_Na2In2GeSe6
_symmetry_space_group_name_H-M   'P 1'
_cell_length_a   7.70550323
_cell_length_b   7.70550323
_cell_length_c   13.06852909
_cell_angle_alpha   74.23722899
_cell_angle_beta   74.23722899
_cell_angle_gamma   65.19203848
_symmetry_Int_Tables_number   1
_chemical_formula_structural   Na2In2GeSe6
_chemical_formula_sum   'Na4 In4 Ge2 Se12'
_cell_volume   666.71715806
_cell_formula_units_Z   2
loop_
 _symmetry_equiv_pos_site_id
 _symmetry_equiv_pos_as_xyz
  1  'x, y, z'
loop_
 _atom_site_type_symbol
 _atom_site_label
 _atom_site_symmetry_multiplicity
 _atom_site_fract_x
 _atom_site_fract_y
 _atom_site_fract_z
 _atom_site_occupancy
  Na  Na0  1  0.18493000  0.33414400  0.00879000  1
  Na  Na1  1  0.33414400  0.18493000  0.50879000  1
  Na  Na2  1  0.35859600  0.72574800  0.16932500  1
  Na  Na3  1  0.72574800  0.35859600  0.66932500  1
  In  In4  1  0.84503800  0.97704500  0.01219700  1
  In  In5  1  0.97704500  0.84503800  0.51219700  1
  In  In6  1  0.65113500  0.80403500  0.81731000  1
  In  In7  1  0.80403500  0.65113500  0.31731000  1
  Ge  Ge8  1  0.19552800  0.74818800  0.76151900  1
  Ge  Ge9  1  0.74818800  0.19552800  0.26151900  1
  Se  Se10  1  0.04541700  0.05510900  0.81652400  1
  Se  Se11  1  0.05510900  0.04541700  0.31652400  1
  Se  Se12  1  0.78969400  0.30249100  0.07070500  1
  Se  Se13  1  0.30249100  0.78969400  0.57070500  1
  Se  Se14  1  0.04175400  0.65361400  0.13084300  1
  Se  Se15  1  0.65361400  0.04175400  0.63084300  1
  Se  Se16  1  0.52215600  0.96793100  0.98762900  1
  Se  Se17  1  0.96793100  0.52215600  0.48762900  1
  Se  Se18  1  0.47199500  0.55771700  0.84901100  1
  Se  Se19  1  0.55771700  0.47199500  0.34901100  1
  Se  Se20  1  0.01235500  0.54523900  0.80791600  1
  Se  Se21  1  0.54523900  0.01235500  0.30791600  1
