# generated using pymatgen
data_CeCu5Ag
_symmetry_space_group_name_H-M   'P 1'
_cell_length_a   5.04740900
_cell_length_b   8.23893200
_cell_length_c   10.36649400
_cell_angle_alpha   90.00000000
_cell_angle_beta   90.00000000
_cell_angle_gamma   90.00000000
_symmetry_Int_Tables_number   1
_chemical_formula_structural   CeCu5Ag
_chemical_formula_sum   'Ce4 Cu20 Ag4'
_cell_volume   431.09334338
_cell_formula_units_Z   4
loop_
 _symmetry_equiv_pos_site_id
 _symmetry_equiv_pos_as_xyz
  1  'x, y, z'
loop_
 _atom_site_type_symbol
 _atom_site_label
 _atom_site_symmetry_multiplicity
 _atom_site_fract_x
 _atom_site_fract_y
 _atom_site_fract_z
 _atom_site_occupancy
  Ce  Ce0  1  0.25000000  0.25749000  0.56427600  1
  Ce  Ce1  1  0.25000000  0.75749000  0.93572400  1
  Ce  Ce2  1  0.75000000  0.74251000  0.43572400  1
  Ce  Ce3  1  0.75000000  0.24251000  0.06427600  1
  Cu  Cu4  1  0.25000000  0.81473300  0.25208200  1
  Cu  Cu5  1  0.25000000  0.31473300  0.24791800  1
  Cu  Cu6  1  0.75000000  0.18526700  0.74791800  1
  Cu  Cu7  1  0.75000000  0.68526700  0.75208200  1
  Cu  Cu8  1  0.25000000  0.55559200  0.39490800  1
  Cu  Cu9  1  0.25000000  0.05559200  0.10509200  1
  Cu  Cu10  1  0.75000000  0.44440800  0.60509200  1
  Cu  Cu11  1  0.75000000  0.94440800  0.89490800  1
  Cu  Cu12  1  0.25000000  0.90970200  0.48384300  1
  Cu  Cu13  1  0.25000000  0.40970200  0.01615700  1
  Cu  Cu14  1  0.75000000  0.09029800  0.51615700  1
  Cu  Cu15  1  0.75000000  0.59029800  0.98384300  1
  Cu  Cu16  1  0.00138400  0.43490300  0.81247500  1
  Cu  Cu17  1  0.49861600  0.93490300  0.68752500  1
  Cu  Cu18  1  0.50138400  0.56509700  0.18752500  1
  Cu  Cu19  1  0.99861600  0.06509700  0.31247500  1
  Cu  Cu20  1  0.99861600  0.56509700  0.18752500  1
  Cu  Cu21  1  0.50138400  0.06509700  0.31247500  1
  Cu  Cu22  1  0.49861600  0.43490300  0.81247500  1
  Cu  Cu23  1  0.00138400  0.93490300  0.68752500  1
  Ag  Ag24  1  0.25000000  0.14077800  0.86075300  1
  Ag  Ag25  1  0.25000000  0.64077800  0.63924700  1
  Ag  Ag26  1  0.75000000  0.85922200  0.13924700  1
  Ag  Ag27  1  0.75000000  0.35922200  0.36075300  1
