# generated using pymatgen
data_Nd2USe5
_symmetry_space_group_name_H-M   'P 1'
_cell_length_a   7.86903400
_cell_length_b   8.43234300
_cell_length_c   12.42581900
_cell_angle_alpha   90.00000000
_cell_angle_beta   90.00000000
_cell_angle_gamma   90.00000000
_symmetry_Int_Tables_number   1
_chemical_formula_structural   Nd2USe5
_chemical_formula_sum   'Nd8 U4 Se20'
_cell_volume   824.50768680
_cell_formula_units_Z   4
loop_
 _symmetry_equiv_pos_site_id
 _symmetry_equiv_pos_as_xyz
  1  'x, y, z'
loop_
 _atom_site_type_symbol
 _atom_site_label
 _atom_site_symmetry_multiplicity
 _atom_site_fract_x
 _atom_site_fract_y
 _atom_site_fract_z
 _atom_site_occupancy
  Nd  Nd0  1  0.52802100  0.49822700  0.32190400  1
  Nd  Nd1  1  0.97197900  0.00177300  0.82190400  1
  Nd  Nd2  1  0.47197900  0.99822700  0.67809600  1
  Nd  Nd3  1  0.02802100  0.50177300  0.17809600  1
  Nd  Nd4  1  0.47197900  0.50177300  0.67809600  1
  Nd  Nd5  1  0.02802100  0.99822700  0.17809600  1
  Nd  Nd6  1  0.52802100  0.00177300  0.32190400  1
  Nd  Nd7  1  0.97197900  0.49822700  0.82190400  1
  U  U8  1  0.07366100  0.75000000  0.49087300  1
  U  U9  1  0.42633900  0.75000000  0.99087300  1
  U  U10  1  0.92633900  0.25000000  0.50912700  1
  U  U11  1  0.57366100  0.25000000  0.00912700  1
  Se  Se12  1  0.83326600  0.95555600  0.59304800  1
  Se  Se13  1  0.66673400  0.54444400  0.09304800  1
  Se  Se14  1  0.16673400  0.45555600  0.40695200  1
  Se  Se15  1  0.33326600  0.04444400  0.90695200  1
  Se  Se16  1  0.16673400  0.04444400  0.40695200  1
  Se  Se17  1  0.33326600  0.45555600  0.90695200  1
  Se  Se18  1  0.83326600  0.54444400  0.59304800  1
  Se  Se19  1  0.66673400  0.95555600  0.09304800  1
  Se  Se20  1  0.83219800  0.75000000  0.31369200  1
  Se  Se21  1  0.66780200  0.75000000  0.81369200  1
  Se  Se22  1  0.16780200  0.25000000  0.68630800  1
  Se  Se23  1  0.33219800  0.25000000  0.18630800  1
  Se  Se24  1  0.45658000  0.75000000  0.50004200  1
  Se  Se25  1  0.04342000  0.75000000  0.00004200  1
  Se  Se26  1  0.54342000  0.25000000  0.49995800  1
  Se  Se27  1  0.95658000  0.25000000  0.99995800  1
  Se  Se28  1  0.19290700  0.75000000  0.71583900  1
  Se  Se29  1  0.30709300  0.75000000  0.21583900  1
  Se  Se30  1  0.80709300  0.25000000  0.28416100  1
  Se  Se31  1  0.69290700  0.25000000  0.78416100  1
