# generated using pymatgen
data_K3Sm2(NO3)9
_symmetry_space_group_name_H-M   'P 1'
_cell_length_a   13.65664682
_cell_length_b   13.65664682
_cell_length_c   13.65664682
_cell_angle_alpha   90.00000000
_cell_angle_beta   90.00000000
_cell_angle_gamma   90.00000000
_symmetry_Int_Tables_number   1
_chemical_formula_structural   K3Sm2(NO3)9
_chemical_formula_sum   'K12 Sm8 N36 O108'
_cell_volume   2547.01929083
_cell_formula_units_Z   4
loop_
 _symmetry_equiv_pos_site_id
 _symmetry_equiv_pos_as_xyz
  1  'x, y, z'
loop_
 _atom_site_type_symbol
 _atom_site_label
 _atom_site_symmetry_multiplicity
 _atom_site_fract_x
 _atom_site_fract_y
 _atom_site_fract_z
 _atom_site_occupancy
  K  K0  1  0.12500000  0.18839367  0.43839367  1
  K  K1  1  0.37500000  0.81160633  0.93839367  1
  K  K2  1  0.87500000  0.68839367  0.06160633  1
  K  K3  1  0.43839367  0.12500000  0.18839367  1
  K  K4  1  0.93839367  0.37500000  0.81160633  1
  K  K5  1  0.62500000  0.31160633  0.56160633  1
  K  K6  1  0.56160633  0.62500000  0.31160633  1
  K  K7  1  0.06160633  0.87500000  0.68839367  1
  K  K8  1  0.18839367  0.43839367  0.12500000  1
  K  K9  1  0.68839367  0.06160633  0.87500000  1
  K  K10  1  0.31160633  0.56160633  0.62500000  1
  K  K11  1  0.81160633  0.93839367  0.37500000  1
  Sm  Sm12  1  0.04846667  0.04846667  0.04846667  1
  Sm  Sm13  1  0.45153333  0.95153333  0.54846667  1
  Sm  Sm14  1  0.95153333  0.54846667  0.45153333  1
  Sm  Sm15  1  0.79846667  0.29846667  0.20153333  1
  Sm  Sm16  1  0.54846667  0.45153333  0.95153333  1
  Sm  Sm17  1  0.70153333  0.70153333  0.70153333  1
  Sm  Sm18  1  0.29846667  0.20153333  0.79846667  1
  Sm  Sm19  1  0.20153333  0.79846667  0.29846667  1
  N  N20  1  0.10036964  0.41537868  0.36374820  1
  N  N21  1  0.39963036  0.58462132  0.86374820  1
  N  N22  1  0.89963036  0.91537868  0.13625180  1
  N  N23  1  0.36374820  0.10036964  0.41537868  1
  N  N24  1  0.16537868  0.35036964  0.88625180  1
  N  N25  1  0.60036964  0.08462132  0.63625180  1
  N  N26  1  0.86374820  0.39963036  0.58462132  1
  N  N27  1  0.33462132  0.64963036  0.38625180  1
  N  N28  1  0.13625180  0.89963036  0.91537868  1
  N  N29  1  0.66537868  0.14963036  0.11374820  1
  N  N30  1  0.63625180  0.60036964  0.08462132  1
  N  N31  1  0.83462132  0.85036964  0.61374820  1
  N  N32  1  0.41537868  0.36374820  0.10036964  1
  N  N33  1  0.85036964  0.61374820  0.83462132  1
  N  N34  1  0.91537868  0.13625180  0.89963036  1
  N  N35  1  0.64963036  0.38625180  0.33462132  1
  N  N36  1  0.08462132  0.63625180  0.60036964  1
  N  N37  1  0.35036964  0.88625180  0.16537868  1
  N  N38  1  0.58462132  0.86374820  0.39963036  1
  N  N39  1  0.14963036  0.11374820  0.66537868  1
  N  N40  1  0.88625180  0.16537868  0.35036964  1
  N  N41  1  0.38625180  0.33462132  0.64963036  1
  N  N42  1  0.61374820  0.83462132  0.85036964  1
  N  N43  1  0.11374820  0.66537868  0.14963036  1
  N  N44  1  0.12500000  0.01284979  0.26284979  1
  N  N45  1  0.37500000  0.98715021  0.76284979  1
  N  N46  1  0.87500000  0.51284979  0.23715021  1
  N  N47  1  0.26284979  0.12500000  0.01284979  1
  N  N48  1  0.76284979  0.37500000  0.98715021  1
  N  N49  1  0.62500000  0.48715021  0.73715021  1
  N  N50  1  0.73715021  0.62500000  0.48715021  1
  N  N51  1  0.23715021  0.87500000  0.51284979  1
  N  N52  1  0.01284979  0.26284979  0.12500000  1
  N  N53  1  0.51284979  0.23715021  0.87500000  1
  N  N54  1  0.48715021  0.73715021  0.62500000  1
  N  N55  1  0.98715021  0.76284979  0.37500000  1
  O  O56  1  0.12500000  0.94605678  0.19605678  1
  O  O57  1  0.37500000  0.05394322  0.69605678  1
  O  O58  1  0.87500000  0.44605678  0.30394322  1
  O  O59  1  0.19605678  0.12500000  0.94605678  1
  O  O60  1  0.69605678  0.37500000  0.05394322  1
  O  O61  1  0.62500000  0.55394322  0.80394322  1
  O  O62  1  0.80394322  0.62500000  0.55394322  1
  O  O63  1  0.30394322  0.87500000  0.44605678  1
  O  O64  1  0.94605678  0.19605678  0.12500000  1
  O  O65  1  0.44605678  0.30394322  0.87500000  1
  O  O66  1  0.55394322  0.80394322  0.62500000  1
  O  O67  1  0.05394322  0.69605678  0.37500000  1
  O  O68  1  0.05348951  0.39158747  0.44154629  1
  O  O69  1  0.44651049  0.60841253  0.94154629  1
  O  O70  1  0.94651049  0.89158747  0.05845371  1
  O  O71  1  0.44154629  0.05348951  0.39158747  1
  O  O72  1  0.14158747  0.30348951  0.80845371  1
  O  O73  1  0.55348951  0.10841253  0.55845371  1
  O  O74  1  0.94154629  0.44651049  0.60841253  1
  O  O75  1  0.35841253  0.69651049  0.30845371  1
  O  O76  1  0.05845371  0.94651049  0.89158747  1
  O  O77  1  0.64158747  0.19651049  0.19154629  1
  O  O78  1  0.55845371  0.55348951  0.10841253  1
  O  O79  1  0.85841253  0.80348951  0.69154629  1
  O  O80  1  0.39158747  0.44154629  0.05348951  1
  O  O81  1  0.80348951  0.69154629  0.85841253  1
  O  O82  1  0.89158747  0.05845371  0.94651049  1
  O  O83  1  0.69651049  0.30845371  0.35841253  1
  O  O84  1  0.10841253  0.55845371  0.55348951  1
  O  O85  1  0.30348951  0.80845371  0.14158747  1
  O  O86  1  0.60841253  0.94154629  0.44651049  1
  O  O87  1  0.19651049  0.19154629  0.64158747  1
  O  O88  1  0.80845371  0.14158747  0.30348951  1
  O  O89  1  0.30845371  0.35841253  0.69651049  1
  O  O90  1  0.69154629  0.85841253  0.80348951  1
  O  O91  1  0.19154629  0.64158747  0.19651049  1
  O  O92  1  0.08130205  0.49952120  0.32740718  1
  O  O93  1  0.41869795  0.50047880  0.82740718  1
  O  O94  1  0.91869795  0.99952120  0.17259282  1
  O  O95  1  0.32740718  0.08130205  0.49952120  1
  O  O96  1  0.24952120  0.33130205  0.92259282  1
  O  O97  1  0.58130205  0.00047880  0.67259282  1
  O  O98  1  0.82740718  0.41869795  0.50047880  1
  O  O99  1  0.25047880  0.66869795  0.42259282  1
  O  O100  1  0.17259282  0.91869795  0.99952120  1
  O  O101  1  0.74952120  0.16869795  0.07740718  1
  O  O102  1  0.67259282  0.58130205  0.00047880  1
  O  O103  1  0.75047880  0.83130205  0.57740718  1
  O  O104  1  0.49952120  0.32740718  0.08130205  1
  O  O105  1  0.83130205  0.57740718  0.75047880  1
  O  O106  1  0.99952120  0.17259282  0.91869795  1
  O  O107  1  0.66869795  0.42259282  0.25047880  1
  O  O108  1  0.00047880  0.67259282  0.58130205  1
  O  O109  1  0.33130205  0.92259282  0.24952120  1
  O  O110  1  0.50047880  0.82740718  0.41869795  1
  O  O111  1  0.16869795  0.07740718  0.74952120  1
  O  O112  1  0.92259282  0.24952120  0.33130205  1
  O  O113  1  0.42259282  0.25047880  0.66869795  1
  O  O114  1  0.57740718  0.75047880  0.83130205  1
  O  O115  1  0.07740718  0.74952120  0.16869795  1
  O  O116  1  0.16118825  0.35935040  0.32541871  1
  O  O117  1  0.33881175  0.64064960  0.82541871  1
  O  O118  1  0.83881175  0.85935040  0.17458129  1
  O  O119  1  0.32541871  0.16118825  0.35935040  1
  O  O120  1  0.10935040  0.41118825  0.92458129  1
  O  O121  1  0.66118825  0.14064960  0.67458129  1
  O  O122  1  0.82541871  0.33881175  0.64064960  1
  O  O123  1  0.39064960  0.58881175  0.42458129  1
  O  O124  1  0.17458129  0.83881175  0.85935040  1
  O  O125  1  0.60935040  0.08881175  0.07541871  1
  O  O126  1  0.67458129  0.66118825  0.14064960  1
  O  O127  1  0.89064960  0.91118825  0.57541871  1
  O  O128  1  0.35935040  0.32541871  0.16118825  1
  O  O129  1  0.91118825  0.57541871  0.89064960  1
  O  O130  1  0.85935040  0.17458129  0.83881175  1
  O  O131  1  0.58881175  0.42458129  0.39064960  1
  O  O132  1  0.14064960  0.67458129  0.66118825  1
  O  O133  1  0.41118825  0.92458129  0.10935040  1
  O  O134  1  0.64064960  0.82541871  0.33881175  1
  O  O135  1  0.08881175  0.07541871  0.60935040  1
  O  O136  1  0.92458129  0.10935040  0.41118825  1
  O  O137  1  0.42458129  0.39064960  0.58881175  1
  O  O138  1  0.57541871  0.89064960  0.91118825  1
  O  O139  1  0.07541871  0.60935040  0.08881175  1
  O  O140  1  0.09181178  0.09591083  0.24178028  1
  O  O141  1  0.40818822  0.90408917  0.74178028  1
  O  O142  1  0.90818822  0.59591083  0.25821972  1
  O  O143  1  0.24178028  0.09181178  0.09591083  1
  O  O144  1  0.84591083  0.34181178  0.00821972  1
  O  O145  1  0.59181178  0.40408917  0.75821972  1
  O  O146  1  0.74178028  0.40818822  0.90408917  1
  O  O147  1  0.65408917  0.65818822  0.50821972  1
  O  O148  1  0.25821972  0.90818822  0.59591083  1
  O  O149  1  0.34591083  0.15818822  0.99178028  1
  O  O150  1  0.75821972  0.59181178  0.40408917  1
  O  O151  1  0.15408917  0.84181178  0.49178028  1
  O  O152  1  0.09591083  0.24178028  0.09181178  1
  O  O153  1  0.84181178  0.49178028  0.15408917  1
  O  O154  1  0.59591083  0.25821972  0.90818822  1
  O  O155  1  0.65818822  0.50821972  0.65408917  1
  O  O156  1  0.40408917  0.75821972  0.59181178  1
  O  O157  1  0.34181178  0.00821972  0.84591083  1
  O  O158  1  0.90408917  0.74178028  0.40818822  1
  O  O159  1  0.15818822  0.99178028  0.34591083  1
  O  O160  1  0.00821972  0.84591083  0.34181178  1
  O  O161  1  0.50821972  0.65408917  0.65818822  1
  O  O162  1  0.49178028  0.15408917  0.84181178  1
  O  O163  1  0.99178028  0.34591083  0.15818822  1
