# generated using pymatgen
data_U2(Si2Ni)3
_symmetry_space_group_name_H-M   'P 1'
_cell_length_a   10.72020415
_cell_length_b   10.72020415
_cell_length_c   3.97411700
_cell_angle_alpha   90.00000000
_cell_angle_beta   90.00000000
_cell_angle_gamma   158.61700302
_symmetry_Int_Tables_number   1
_chemical_formula_structural   U2(Si2Ni)3
_chemical_formula_sum   'U2 Si6 Ni3'
_cell_volume   166.51907297
_cell_formula_units_Z   1
loop_
 _symmetry_equiv_pos_site_id
 _symmetry_equiv_pos_as_xyz
  1  'x, y, z'
loop_
 _atom_site_type_symbol
 _atom_site_label
 _atom_site_symmetry_multiplicity
 _atom_site_fract_x
 _atom_site_fract_y
 _atom_site_fract_z
 _atom_site_occupancy
  U  U0  1  0.82827500  0.17172500  0.00000000  1
  U  U1  1  0.17172500  0.82827500  0.00000000  1
  Si  Si2  1  0.93974900  0.06025100  0.50000000  1
  Si  Si3  1  0.06025100  0.93974900  0.50000000  1
  Si  Si4  1  0.56047000  0.43953000  0.00000000  1
  Si  Si5  1  0.43953000  0.56047000  0.00000000  1
  Si  Si6  1  0.72113300  0.27886700  0.50000000  1
  Si  Si7  1  0.27886700  0.72113300  0.50000000  1
  Ni  Ni8  1  0.61439400  0.38560600  0.50000000  1
  Ni  Ni9  1  0.38560600  0.61439400  0.50000000  1
  Ni  Ni10  1  0.00000000  0.00000000  0.00000000  1
