# generated using pymatgen
data_Li2Nd(NO3)5
_symmetry_space_group_name_H-M   'P 1'
_cell_length_a   9.04326100
_cell_length_b   10.62223100
_cell_length_c   11.84150400
_cell_angle_alpha   90.00000000
_cell_angle_beta   90.00000000
_cell_angle_gamma   90.00000000
_symmetry_Int_Tables_number   1
_chemical_formula_structural   Li2Nd(NO3)5
_chemical_formula_sum   'Li8 Nd4 N20 O60'
_cell_volume   1137.49022450
_cell_formula_units_Z   4
loop_
 _symmetry_equiv_pos_site_id
 _symmetry_equiv_pos_as_xyz
  1  'x, y, z'
loop_
 _atom_site_type_symbol
 _atom_site_label
 _atom_site_symmetry_multiplicity
 _atom_site_fract_x
 _atom_site_fract_y
 _atom_site_fract_z
 _atom_site_occupancy
  Li  Li0  1  0.11688300  0.22810900  0.32104400  1
  Li  Li1  1  0.88311700  0.77189100  0.67895600  1
  Li  Li2  1  0.88311700  0.77189100  0.32104400  1
  Li  Li3  1  0.38311700  0.72810900  0.17895600  1
  Li  Li4  1  0.11688300  0.22810900  0.67895600  1
  Li  Li5  1  0.61688300  0.27189100  0.82104400  1
  Li  Li6  1  0.61688300  0.27189100  0.17895600  1
  Li  Li7  1  0.38311700  0.72810900  0.82104400  1
  Nd  Nd8  1  0.00000000  0.00000000  0.00000000  1
  Nd  Nd9  1  0.50000000  0.50000000  0.50000000  1
  Nd  Nd10  1  0.00000000  0.50000000  0.00000000  1
  Nd  Nd11  1  0.50000000  0.00000000  0.50000000  1
  N  N12  1  0.00000000  0.00000000  0.26008000  1
  N  N13  1  0.00000000  0.00000000  0.73992000  1
  N  N14  1  0.50000000  0.50000000  0.23992000  1
  N  N15  1  0.50000000  0.50000000  0.76008000  1
  N  N16  1  0.17475600  0.24910100  0.00000000  1
  N  N17  1  0.82524400  0.75089900  0.00000000  1
  N  N18  1  0.32524400  0.74910100  0.50000000  1
  N  N19  1  0.67475600  0.25089900  0.50000000  1
  N  N20  1  0.39997400  0.15494500  0.29135700  1
  N  N21  1  0.60002600  0.84505500  0.70864300  1
  N  N22  1  0.60002600  0.84505500  0.29135700  1
  N  N23  1  0.10002600  0.65494500  0.20864300  1
  N  N24  1  0.39997400  0.15494500  0.70864300  1
  N  N25  1  0.89997400  0.34505500  0.79135700  1
  N  N26  1  0.89997400  0.34505500  0.20864300  1
  N  N27  1  0.10002600  0.65494500  0.79135700  1
  N  N28  1  0.70636500  0.14683300  0.00000000  1
  N  N29  1  0.29363500  0.85316700  0.00000000  1
  N  N30  1  0.79363500  0.64683300  0.50000000  1
  N  N31  1  0.20636500  0.35316700  0.50000000  1
  O  O32  1  0.31195600  0.11244400  0.36810400  1
  O  O33  1  0.68804400  0.88755600  0.63189600  1
  O  O34  1  0.68804400  0.88755600  0.36810400  1
  O  O35  1  0.18804400  0.61244400  0.13189600  1
  O  O36  1  0.31195600  0.11244400  0.63189600  1
  O  O37  1  0.81195600  0.38755600  0.86810400  1
  O  O38  1  0.81195600  0.38755600  0.13189600  1
  O  O39  1  0.18804400  0.61244400  0.86810400  1
  O  O40  1  0.03049900  0.24720300  0.00000000  1
  O  O41  1  0.96950100  0.75279700  0.00000000  1
  O  O42  1  0.46950100  0.74720300  0.50000000  1
  O  O43  1  0.53049900  0.25279700  0.50000000  1
  O  O44  1  0.03648700  0.37435400  0.20136900  1
  O  O45  1  0.96351300  0.62564600  0.79863100  1
  O  O46  1  0.96351300  0.62564600  0.20136900  1
  O  O47  1  0.46351300  0.87435400  0.29863100  1
  O  O48  1  0.03648700  0.37435400  0.79863100  1
  O  O49  1  0.53648700  0.12564600  0.70136900  1
  O  O50  1  0.53648700  0.12564600  0.29863100  1
  O  O51  1  0.46351300  0.87435400  0.70136900  1
  O  O52  1  0.24057200  0.14593900  0.00000000  1
  O  O53  1  0.75942800  0.85406100  0.00000000  1
  O  O54  1  0.25942800  0.64593900  0.50000000  1
  O  O55  1  0.74057200  0.35406100  0.50000000  1
  O  O56  1  0.59701900  0.21996800  0.00000000  1
  O  O57  1  0.40298100  0.78003200  0.00000000  1
  O  O58  1  0.90298100  0.71996800  0.50000000  1
  O  O59  1  0.09701900  0.28003200  0.50000000  1
  O  O60  1  0.00000000  0.00000000  0.36363500  1
  O  O61  1  0.00000000  0.00000000  0.63636500  1
  O  O62  1  0.50000000  0.50000000  0.13636500  1
  O  O63  1  0.50000000  0.50000000  0.86363500  1
  O  O64  1  0.23754000  0.35417000  0.00000000  1
  O  O65  1  0.76246000  0.64583000  0.00000000  1
  O  O66  1  0.26246000  0.85417000  0.50000000  1
  O  O67  1  0.73754000  0.14583000  0.50000000  1
  O  O68  1  0.26426700  0.38940100  0.40763700  1
  O  O69  1  0.73573300  0.61059900  0.59236300  1
  O  O70  1  0.73573300  0.61059900  0.40763700  1
  O  O71  1  0.23573300  0.88940100  0.09236300  1
  O  O72  1  0.26426700  0.38940100  0.59236300  1
  O  O73  1  0.76426700  0.11059900  0.90763700  1
  O  O74  1  0.76426700  0.11059900  0.09236300  1
  O  O75  1  0.23573300  0.88940100  0.90763700  1
  O  O76  1  0.05769500  0.09005400  0.20195700  1
  O  O77  1  0.94230500  0.90994600  0.79804300  1
  O  O78  1  0.94230500  0.90994600  0.20195700  1
  O  O79  1  0.44230500  0.59005400  0.29804300  1
  O  O80  1  0.05769500  0.09005400  0.79804300  1
  O  O81  1  0.55769500  0.40994600  0.70195700  1
  O  O82  1  0.55769500  0.40994600  0.29804300  1
  O  O83  1  0.44230500  0.59005400  0.70195700  1
  O  O84  1  0.35352600  0.22424200  0.21514400  1
  O  O85  1  0.64647400  0.77575800  0.78485600  1
  O  O86  1  0.64647400  0.77575800  0.21514400  1
  O  O87  1  0.14647400  0.72424200  0.28485600  1
  O  O88  1  0.35352600  0.22424200  0.78485600  1
  O  O89  1  0.85352600  0.27575800  0.71514400  1
  O  O90  1  0.85352600  0.27575800  0.28485600  1
  O  O91  1  0.14647400  0.72424200  0.71514400  1
