# generated using pymatgen
data_Na2Mg2P3NO9
_symmetry_space_group_name_H-M   'P 1'
_cell_length_a   9.35243600
_cell_length_b   9.35243600
_cell_length_c   9.35243600
_cell_angle_alpha   90.00000000
_cell_angle_beta   90.00000000
_cell_angle_gamma   90.00000000
_symmetry_Int_Tables_number   1
_chemical_formula_structural   Na2Mg2P3NO9
_chemical_formula_sum   'Na8 Mg8 P12 N4 O36'
_cell_volume   818.03942510
_cell_formula_units_Z   4
loop_
 _symmetry_equiv_pos_site_id
 _symmetry_equiv_pos_as_xyz
  1  'x, y, z'
loop_
 _atom_site_type_symbol
 _atom_site_label
 _atom_site_symmetry_multiplicity
 _atom_site_fract_x
 _atom_site_fract_y
 _atom_site_fract_z
 _atom_site_occupancy
  Na  Na0  1  0.46267500  0.96267500  0.53732500  1
  Na  Na1  1  0.96267500  0.53732500  0.46267500  1
  Na  Na2  1  0.53732500  0.46267500  0.96267500  1
  Na  Na3  1  0.03732500  0.03732500  0.03732500  1
  Na  Na4  1  0.70656900  0.20656900  0.29343100  1
  Na  Na5  1  0.20656900  0.29343100  0.70656900  1
  Na  Na6  1  0.29343100  0.70656900  0.20656900  1
  Na  Na7  1  0.79343100  0.79343100  0.79343100  1
  Mg  Mg8  1  0.92280500  0.42280500  0.07719500  1
  Mg  Mg9  1  0.42280500  0.07719500  0.92280500  1
  Mg  Mg10  1  0.07719500  0.92280500  0.42280500  1
  Mg  Mg11  1  0.57719500  0.57719500  0.57719500  1
  Mg  Mg12  1  0.10194800  0.60194800  0.89805200  1
  Mg  Mg13  1  0.60194800  0.89805200  0.10194800  1
  Mg  Mg14  1  0.89805200  0.10194800  0.60194800  1
  Mg  Mg15  1  0.39805200  0.39805200  0.39805200  1
  P  P16  1  0.23960200  0.65887800  0.59149700  1
  P  P17  1  0.40850300  0.73960200  0.84112200  1
  P  P18  1  0.15887800  0.90850300  0.76039800  1
  P  P19  1  0.73960200  0.84112200  0.40850300  1
  P  P20  1  0.90850300  0.76039800  0.15887800  1
  P  P21  1  0.65887800  0.59149700  0.23960200  1
  P  P22  1  0.76039800  0.15887800  0.90850300  1
  P  P23  1  0.59149700  0.23960200  0.65887800  1
  P  P24  1  0.84112200  0.40850300  0.73960200  1
  P  P25  1  0.26039800  0.34112200  0.09149700  1
  P  P26  1  0.09149700  0.26039800  0.34112200  1
  P  P27  1  0.34112200  0.09149700  0.26039800  1
  N  N28  1  0.30060000  0.80060000  0.69940000  1
  N  N29  1  0.80060000  0.69940000  0.30060000  1
  N  N30  1  0.69940000  0.30060000  0.80060000  1
  N  N31  1  0.19940000  0.19940000  0.19940000  1
  O  O32  1  0.63087500  0.77806100  0.51333700  1
  O  O33  1  0.48666300  0.13087500  0.72193900  1
  O  O34  1  0.27806100  0.98666300  0.36912500  1
  O  O35  1  0.13087500  0.72193900  0.48666300  1
  O  O36  1  0.98666300  0.36912500  0.27806100  1
  O  O37  1  0.77806100  0.51333700  0.63087500  1
  O  O38  1  0.36912500  0.27806100  0.98666300  1
  O  O39  1  0.51333700  0.63087500  0.77806100  1
  O  O40  1  0.72193900  0.48666300  0.13087500  1
  O  O41  1  0.86912500  0.22193900  0.01333700  1
  O  O42  1  0.01333700  0.86912500  0.22193900  1
  O  O43  1  0.22193900  0.01333700  0.86912500  1
  O  O44  1  0.36715800  0.60057100  0.50588900  1
  O  O45  1  0.49411100  0.86715800  0.89942900  1
  O  O46  1  0.10057100  0.99411100  0.63284200  1
  O  O47  1  0.86715800  0.89942900  0.49411100  1
  O  O48  1  0.99411100  0.63284200  0.10057100  1
  O  O49  1  0.60057100  0.50588900  0.36715800  1
  O  O50  1  0.63284200  0.10057100  0.99411100  1
  O  O51  1  0.50588900  0.36715800  0.60057100  1
  O  O52  1  0.89942900  0.49411100  0.86715800  1
  O  O53  1  0.13284200  0.39942900  0.00588900  1
  O  O54  1  0.00588900  0.13284200  0.39942900  1
  O  O55  1  0.39942900  0.00588900  0.13284200  1
  O  O56  1  0.17358000  0.54902800  0.69380500  1
  O  O57  1  0.30619500  0.67358000  0.95097200  1
  O  O58  1  0.04902800  0.80619500  0.82642000  1
  O  O59  1  0.67358000  0.95097200  0.30619500  1
  O  O60  1  0.80619500  0.82642000  0.04902800  1
  O  O61  1  0.54902800  0.69380500  0.17358000  1
  O  O62  1  0.82642000  0.04902800  0.80619500  1
  O  O63  1  0.69380500  0.17358000  0.54902800  1
  O  O64  1  0.95097200  0.30619500  0.67358000  1
  O  O65  1  0.32642000  0.45097200  0.19380500  1
  O  O66  1  0.19380500  0.32642000  0.45097200  1
  O  O67  1  0.45097200  0.19380500  0.32642000  1
