# generated using pymatgen
data_K2Th(AsO4)2
_symmetry_space_group_name_H-M   'P 1'
_cell_length_a   11.57747800
_cell_length_b   7.91285300
_cell_length_c   10.09522154
_cell_angle_alpha   63.48198631
_cell_angle_beta   90.00000000
_cell_angle_gamma   90.00000000
_symmetry_Int_Tables_number   1
_chemical_formula_structural   K2Th(AsO4)2
_chemical_formula_sum   'K8 Th4 As8 O32'
_cell_volume   827.53428478
_cell_formula_units_Z   4
loop_
 _symmetry_equiv_pos_site_id
 _symmetry_equiv_pos_as_xyz
  1  'x, y, z'
loop_
 _atom_site_type_symbol
 _atom_site_label
 _atom_site_symmetry_multiplicity
 _atom_site_fract_x
 _atom_site_fract_y
 _atom_site_fract_z
 _atom_site_occupancy
  K  K0  1  0.62573800  0.14589700  0.95626900  1
  K  K1  1  0.87426200  0.14589700  0.45626900  1
  K  K2  1  0.37426200  0.85410300  0.04373100  1
  K  K3  1  0.12573800  0.85410300  0.54373100  1
  K  K4  1  0.88025500  0.33621000  0.04832900  1
  K  K5  1  0.61974500  0.33621000  0.54832900  1
  K  K6  1  0.11974500  0.66379000  0.95167100  1
  K  K7  1  0.38025500  0.66379000  0.45167100  1
  Th  Th8  1  0.63682800  0.74410200  0.78136700  1
  Th  Th9  1  0.86317200  0.74410200  0.28136700  1
  Th  Th10  1  0.36317200  0.25589800  0.21863300  1
  Th  Th11  1  0.13682800  0.25589800  0.71863300  1
  As  As12  1  0.86138500  0.93572500  0.85466800  1
  As  As13  1  0.63861500  0.93572500  0.35466800  1
  As  As14  1  0.13861500  0.06427500  0.14533200  1
  As  As15  1  0.36138500  0.06427500  0.64533200  1
  As  As16  1  0.63185500  0.53430500  0.14108600  1
  As  As17  1  0.86814500  0.53430500  0.64108600  1
  As  As18  1  0.36814500  0.46569500  0.85891400  1
  As  As19  1  0.13185500  0.46569500  0.35891400  1
  O  O20  1  0.76117300  0.50480400  0.23345300  1
  O  O21  1  0.73882700  0.50480400  0.73345300  1
  O  O22  1  0.23882700  0.49519600  0.76654700  1
  O  O23  1  0.26117300  0.49519600  0.26654700  1
  O  O24  1  0.85893300  0.94736200  0.02091900  1
  O  O25  1  0.64106700  0.94736200  0.52091900  1
  O  O26  1  0.14106700  0.05263800  0.97908100  1
  O  O27  1  0.35893300  0.05263800  0.47908100  1
  O  O28  1  0.84254800  0.70791900  0.87820900  1
  O  O29  1  0.65745200  0.70791900  0.37820900  1
  O  O30  1  0.15745200  0.29208100  0.12179100  1
  O  O31  1  0.34254800  0.29208100  0.62179100  1
  O  O32  1  0.73932900  0.03943400  0.75109400  1
  O  O33  1  0.76067100  0.03943400  0.25109400  1
  O  O34  1  0.26067100  0.96056600  0.24890600  1
  O  O35  1  0.23932900  0.96056600  0.74890600  1
  O  O36  1  0.60541000  0.76847500  0.02198900  1
  O  O37  1  0.89459000  0.76847500  0.52198900  1
  O  O38  1  0.39459000  0.23152500  0.97801100  1
  O  O39  1  0.10541000  0.23152500  0.47801100  1
  O  O40  1  0.63920400  0.44555400  0.01255800  1
  O  O41  1  0.86079600  0.44555400  0.51255800  1
  O  O42  1  0.36079600  0.55444600  0.98744200  1
  O  O43  1  0.13920400  0.55444600  0.48744200  1
  O  O44  1  0.98584300  0.02893600  0.75598700  1
  O  O45  1  0.51415700  0.02893600  0.25598700  1
  O  O46  1  0.01415700  0.97106400  0.24401300  1
  O  O47  1  0.48584300  0.97106400  0.74401300  1
  O  O48  1  0.51996000  0.42568900  0.26366800  1
  O  O49  1  0.98004000  0.42568900  0.76366800  1
  O  O50  1  0.48004000  0.57431100  0.73633200  1
  O  O51  1  0.01996000  0.57431100  0.23633200  1
