# generated using pymatgen
data_Cs2LaBr5
_symmetry_space_group_name_H-M   'P 1'
_cell_length_a   9.19122100
_cell_length_b   9.69649500
_cell_length_c   14.89783700
_cell_angle_alpha   90.00000000
_cell_angle_beta   90.00000000
_cell_angle_gamma   90.00000000
_symmetry_Int_Tables_number   1
_chemical_formula_structural   Cs2LaBr5
_chemical_formula_sum   'Cs8 La4 Br20'
_cell_volume   1327.73439196
_cell_formula_units_Z   4
loop_
 _symmetry_equiv_pos_site_id
 _symmetry_equiv_pos_as_xyz
  1  'x, y, z'
loop_
 _atom_site_type_symbol
 _atom_site_label
 _atom_site_symmetry_multiplicity
 _atom_site_fract_x
 _atom_site_fract_y
 _atom_site_fract_z
 _atom_site_occupancy
  Cs  Cs0  1  0.94581900  0.00602800  0.82775100  1
  Cs  Cs1  1  0.05418100  0.99397200  0.17224900  1
  Cs  Cs2  1  0.44581900  0.99397200  0.67224900  1
  Cs  Cs3  1  0.05418100  0.50602800  0.17224900  1
  Cs  Cs4  1  0.55418100  0.00602800  0.32775100  1
  Cs  Cs5  1  0.94581900  0.49397200  0.82775100  1
  Cs  Cs6  1  0.55418100  0.49397200  0.32775100  1
  Cs  Cs7  1  0.44581900  0.50602800  0.67224900  1
  La  La8  1  0.93181100  0.75000000  0.50352500  1
  La  La9  1  0.06818900  0.25000000  0.49647500  1
  La  La10  1  0.43181100  0.25000000  0.99647500  1
  La  La11  1  0.56818900  0.75000000  0.00352500  1
  Br  Br12  1  0.11401000  0.75000000  0.66876600  1
  Br  Br13  1  0.88599000  0.25000000  0.33123400  1
  Br  Br14  1  0.61401000  0.25000000  0.83123400  1
  Br  Br15  1  0.38599000  0.75000000  0.16876600  1
  Br  Br16  1  0.84271700  0.04150100  0.57086800  1
  Br  Br17  1  0.15728300  0.95849900  0.42913200  1
  Br  Br18  1  0.34271700  0.95849900  0.92913200  1
  Br  Br19  1  0.15728300  0.54150100  0.42913200  1
  Br  Br20  1  0.65728300  0.04150100  0.07086800  1
  Br  Br21  1  0.84271700  0.45849900  0.57086800  1
  Br  Br22  1  0.65728300  0.45849900  0.07086800  1
  Br  Br23  1  0.34271700  0.54150100  0.92913200  1
  Br  Br24  1  0.60261800  0.75000000  0.51189900  1
  Br  Br25  1  0.39738200  0.25000000  0.48810100  1
  Br  Br26  1  0.10261800  0.25000000  0.98810100  1
  Br  Br27  1  0.89738200  0.75000000  0.01189900  1
  Br  Br28  1  0.65192200  0.75000000  0.80814600  1
  Br  Br29  1  0.34807800  0.25000000  0.19185400  1
  Br  Br30  1  0.15192200  0.25000000  0.69185400  1
  Br  Br31  1  0.84807800  0.75000000  0.30814600  1
