# generated using pymatgen
data_HfZn16
_symmetry_space_group_name_H-M   'P 1'
_cell_length_a   6.96157706
_cell_length_b   6.96157706
_cell_length_c   11.84369400
_cell_angle_alpha   90.00000000
_cell_angle_beta   90.00000000
_cell_angle_gamma   112.34343322
_symmetry_Int_Tables_number   1
_chemical_formula_structural   HfZn16
_chemical_formula_sum   'Hf2 Zn32'
_cell_volume   530.89356999
_cell_formula_units_Z   2
loop_
 _symmetry_equiv_pos_site_id
 _symmetry_equiv_pos_as_xyz
  1  'x, y, z'
loop_
 _atom_site_type_symbol
 _atom_site_label
 _atom_site_symmetry_multiplicity
 _atom_site_fract_x
 _atom_site_fract_y
 _atom_site_fract_z
 _atom_site_occupancy
  Hf  Hf0  1  0.04726500  0.95273500  0.25000000  1
  Hf  Hf1  1  0.95273500  0.04726500  0.75000000  1
  Zn  Zn2  1  0.35495200  0.98287700  0.43075200  1
  Zn  Zn3  1  0.64504800  0.01712300  0.93075200  1
  Zn  Zn4  1  0.98287700  0.35495200  0.56924800  1
  Zn  Zn5  1  0.01712300  0.64504800  0.06924800  1
  Zn  Zn6  1  0.64504800  0.01712300  0.56924800  1
  Zn  Zn7  1  0.35495200  0.98287700  0.06924800  1
  Zn  Zn8  1  0.01712300  0.64504800  0.43075200  1
  Zn  Zn9  1  0.98287700  0.35495200  0.93075200  1
  Zn  Zn10  1  0.64866000  0.75601800  0.36590100  1
  Zn  Zn11  1  0.35134000  0.24398200  0.86590100  1
  Zn  Zn12  1  0.75601800  0.64866000  0.63409900  1
  Zn  Zn13  1  0.24398200  0.35134000  0.13409900  1
  Zn  Zn14  1  0.35134000  0.24398200  0.63409900  1
  Zn  Zn15  1  0.64866000  0.75601800  0.13409900  1
  Zn  Zn16  1  0.24398200  0.35134000  0.36590100  1
  Zn  Zn17  1  0.75601800  0.64866000  0.86590100  1
  Zn  Zn18  1  0.47984700  0.19396200  0.25000000  1
  Zn  Zn19  1  0.52015300  0.80603800  0.75000000  1
  Zn  Zn20  1  0.19396200  0.47984700  0.75000000  1
  Zn  Zn21  1  0.80603800  0.52015300  0.25000000  1
  Zn  Zn22  1  0.17781700  0.82218300  0.86043000  1
  Zn  Zn23  1  0.82218300  0.17781700  0.36043000  1
  Zn  Zn24  1  0.82218300  0.17781700  0.13957000  1
  Zn  Zn25  1  0.17781700  0.82218300  0.63957000  1
  Zn  Zn26  1  0.62107900  0.37892100  0.46911100  1
  Zn  Zn27  1  0.37892100  0.62107900  0.96911100  1
  Zn  Zn28  1  0.37892100  0.62107900  0.53088900  1
  Zn  Zn29  1  0.62107900  0.37892100  0.03088900  1
  Zn  Zn30  1  0.29198200  0.70801800  0.25000000  1
  Zn  Zn31  1  0.70801800  0.29198200  0.75000000  1
  Zn  Zn32  1  0.00000000  0.00000000  0.50000000  1
  Zn  Zn33  1  0.00000000  0.00000000  0.00000000  1
