# generated using pymatgen
data_NdSb2Au
_symmetry_space_group_name_H-M   'P 1'
_cell_length_a   4.44601900
_cell_length_b   4.44601900
_cell_length_c   10.42289700
_cell_angle_alpha   90.00000000
_cell_angle_beta   90.00000000
_cell_angle_gamma   90.00000000
_symmetry_Int_Tables_number   1
_chemical_formula_structural   NdSb2Au
_chemical_formula_sum   'Nd2 Sb4 Au2'
_cell_volume   206.03029041
_cell_formula_units_Z   2
loop_
 _symmetry_equiv_pos_site_id
 _symmetry_equiv_pos_as_xyz
  1  'x, y, z'
loop_
 _atom_site_type_symbol
 _atom_site_label
 _atom_site_symmetry_multiplicity
 _atom_site_fract_x
 _atom_site_fract_y
 _atom_site_fract_z
 _atom_site_occupancy
  Nd  Nd0  1  0.00000000  0.50000000  0.75472200  1
  Nd  Nd1  1  0.50000000  0.00000000  0.24527800  1
  Sb  Sb2  1  0.50000000  0.50000000  0.00000000  1
  Sb  Sb3  1  0.00000000  0.00000000  0.00000000  1
  Sb  Sb4  1  0.00000000  0.50000000  0.32111800  1
  Sb  Sb5  1  0.50000000  0.00000000  0.67888200  1
  Au  Au6  1  0.50000000  0.50000000  0.50000000  1
  Au  Au7  1  0.00000000  0.00000000  0.50000000  1
