# generated using pymatgen
data_Na2GeN2
_symmetry_space_group_name_H-M   'P 1'
_cell_length_a   11.25750600
_cell_length_b   11.32068700
_cell_length_c   16.68070700
_cell_angle_alpha   90.00000000
_cell_angle_beta   90.00000000
_cell_angle_gamma   90.00000000
_symmetry_Int_Tables_number   1
_chemical_formula_structural   Na2GeN2
_chemical_formula_sum   'Na64 Ge32 N64'
_cell_volume   2125.83436846
_cell_formula_units_Z   32
loop_
 _symmetry_equiv_pos_site_id
 _symmetry_equiv_pos_as_xyz
  1  'x, y, z'
loop_
 _atom_site_type_symbol
 _atom_site_label
 _atom_site_symmetry_multiplicity
 _atom_site_fract_x
 _atom_site_fract_y
 _atom_site_fract_z
 _atom_site_occupancy
  Na  Na0  1  0.90123200  0.85019100  0.87881800  1
  Na  Na1  1  0.40123200  0.64980900  0.12118200  1
  Na  Na2  1  0.09876800  0.35019100  0.62118200  1
  Na  Na3  1  0.59876800  0.14980900  0.37881800  1
  Na  Na4  1  0.09876800  0.14980900  0.12118200  1
  Na  Na5  1  0.59876800  0.35019100  0.87881800  1
  Na  Na6  1  0.90123200  0.64980900  0.37881800  1
  Na  Na7  1  0.40123200  0.85019100  0.62118200  1
  Na  Na8  1  0.10272100  0.04556000  0.98011100  1
  Na  Na9  1  0.60272100  0.45444000  0.01988900  1
  Na  Na10  1  0.89727900  0.54556000  0.51988900  1
  Na  Na11  1  0.39727900  0.95444000  0.48011100  1
  Na  Na12  1  0.89727900  0.95444000  0.01988900  1
  Na  Na13  1  0.39727900  0.54556000  0.98011100  1
  Na  Na14  1  0.10272100  0.45444000  0.48011100  1
  Na  Na15  1  0.60272100  0.04556000  0.51988900  1
  Na  Na16  1  0.31783800  0.83110900  0.76507500  1
  Na  Na17  1  0.81783800  0.66889100  0.23492500  1
  Na  Na18  1  0.68216200  0.33110900  0.73492500  1
  Na  Na19  1  0.18216200  0.16889100  0.26507500  1
  Na  Na20  1  0.68216200  0.16889100  0.23492500  1
  Na  Na21  1  0.18216200  0.33110900  0.76507500  1
  Na  Na22  1  0.31783800  0.66889100  0.26507500  1
  Na  Na23  1  0.81783800  0.83110900  0.73492500  1
  Na  Na24  1  0.63011200  0.93020800  0.97056400  1
  Na  Na25  1  0.13011200  0.56979200  0.02943600  1
  Na  Na26  1  0.36988800  0.43020800  0.52943600  1
  Na  Na27  1  0.86988800  0.06979200  0.47056400  1
  Na  Na28  1  0.36988800  0.06979200  0.02943600  1
  Na  Na29  1  0.86988800  0.43020800  0.97056400  1
  Na  Na30  1  0.63011200  0.56979200  0.47056400  1
  Na  Na31  1  0.13011200  0.93020800  0.52943600  1
  Na  Na32  1  0.36138800  0.28657600  0.87801600  1
  Na  Na33  1  0.86138800  0.21342400  0.12198400  1
  Na  Na34  1  0.63861200  0.78657600  0.62198400  1
  Na  Na35  1  0.13861200  0.71342400  0.37801600  1
  Na  Na36  1  0.63861200  0.71342400  0.12198400  1
  Na  Na37  1  0.13861200  0.78657600  0.87801600  1
  Na  Na38  1  0.36138800  0.21342400  0.37801600  1
  Na  Na39  1  0.86138800  0.28657600  0.62198400  1
  Na  Na40  1  0.29579300  0.10837200  0.72010700  1
  Na  Na41  1  0.79579300  0.39162800  0.27989300  1
  Na  Na42  1  0.70420700  0.60837200  0.77989300  1
  Na  Na43  1  0.20420700  0.89162800  0.22010700  1
  Na  Na44  1  0.70420700  0.89162800  0.27989300  1
  Na  Na45  1  0.20420700  0.60837200  0.72010700  1
  Na  Na46  1  0.29579300  0.39162800  0.22010700  1
  Na  Na47  1  0.79579300  0.10837200  0.77989300  1
  Na  Na48  1  0.28141600  0.01394400  0.87343000  1
  Na  Na49  1  0.78141600  0.48605600  0.12657000  1
  Na  Na50  1  0.71858400  0.51394400  0.62657000  1
  Na  Na51  1  0.21858400  0.98605600  0.37343000  1
  Na  Na52  1  0.71858400  0.98605600  0.12657000  1
  Na  Na53  1  0.21858400  0.51394400  0.87343000  1
  Na  Na54  1  0.28141600  0.48605600  0.37343000  1
  Na  Na55  1  0.78141600  0.01394400  0.62657000  1
  Na  Na56  1  0.94309200  0.60936800  0.87172500  1
  Na  Na57  1  0.44309200  0.89063200  0.12827500  1
  Na  Na58  1  0.05690800  0.10936800  0.62827500  1
  Na  Na59  1  0.55690800  0.39063200  0.37172500  1
  Na  Na60  1  0.05690800  0.39063200  0.12827500  1
  Na  Na61  1  0.55690800  0.10936800  0.87172500  1
  Na  Na62  1  0.94309200  0.89063200  0.37172500  1
  Na  Na63  1  0.44309200  0.60936800  0.62827500  1
  Ge  Ge64  1  0.85762000  0.18153500  0.94004700  1
  Ge  Ge65  1  0.35762000  0.31846500  0.05995300  1
  Ge  Ge66  1  0.14238000  0.68153500  0.55995300  1
  Ge  Ge67  1  0.64238000  0.81846500  0.44004700  1
  Ge  Ge68  1  0.14238000  0.81846500  0.05995300  1
  Ge  Ge69  1  0.64238000  0.68153500  0.94004700  1
  Ge  Ge70  1  0.85762000  0.31846500  0.44004700  1
  Ge  Ge71  1  0.35762000  0.18153500  0.55995300  1
  Ge  Ge72  1  0.10749300  0.30315800  0.94157300  1
  Ge  Ge73  1  0.60749300  0.19684200  0.05842700  1
  Ge  Ge74  1  0.89250700  0.80315800  0.55842700  1
  Ge  Ge75  1  0.39250700  0.69684200  0.44157300  1
  Ge  Ge76  1  0.89250700  0.69684200  0.05842700  1
  Ge  Ge77  1  0.39250700  0.80315800  0.94157300  1
  Ge  Ge78  1  0.10749300  0.19684200  0.44157300  1
  Ge  Ge79  1  0.60749300  0.30315800  0.55842700  1
  Ge  Ge80  1  0.92808700  0.35505200  0.80219400  1
  Ge  Ge81  1  0.42808700  0.14494800  0.19780600  1
  Ge  Ge82  1  0.07191300  0.85505200  0.69780600  1
  Ge  Ge83  1  0.57191300  0.64494800  0.30219400  1
  Ge  Ge84  1  0.07191300  0.64494800  0.19780600  1
  Ge  Ge85  1  0.57191300  0.85505200  0.80219400  1
  Ge  Ge86  1  0.92808700  0.14494800  0.30219400  1
  Ge  Ge87  1  0.42808700  0.35505200  0.69780600  1
  Ge  Ge88  1  0.05034300  0.10611900  0.81442100  1
  Ge  Ge89  1  0.55034300  0.39388100  0.18557900  1
  Ge  Ge90  1  0.94965700  0.60611900  0.68557900  1
  Ge  Ge91  1  0.44965700  0.89388100  0.31442100  1
  Ge  Ge92  1  0.94965700  0.89388100  0.18557900  1
  Ge  Ge93  1  0.44965700  0.60611900  0.81442100  1
  Ge  Ge94  1  0.05034300  0.39388100  0.31442100  1
  Ge  Ge95  1  0.55034300  0.10611900  0.68557900  1
  N  N96  1  0.93065100  0.05251300  0.88586800  1
  N  N97  1  0.43065100  0.44748700  0.11413200  1
  N  N98  1  0.06934900  0.55251300  0.61413200  1
  N  N99  1  0.56934900  0.94748700  0.38586800  1
  N  N100  1  0.06934900  0.94748700  0.11413200  1
  N  N101  1  0.56934900  0.55251300  0.88586800  1
  N  N102  1  0.93065100  0.44748700  0.38586800  1
  N  N103  1  0.43065100  0.05251300  0.61413200  1
  N  N104  1  0.73378200  0.11595400  0.00437000  1
  N  N105  1  0.23378200  0.38404600  0.99563000  1
  N  N106  1  0.26621800  0.61595400  0.49563000  1
  N  N107  1  0.76621800  0.88404600  0.50437000  1
  N  N108  1  0.26621800  0.88404600  0.99563000  1
  N  N109  1  0.76621800  0.61595400  0.00437000  1
  N  N110  1  0.73378200  0.38404600  0.50437000  1
  N  N111  1  0.23378200  0.11595400  0.49563000  1
  N  N112  1  0.04165000  0.42104100  0.87261100  1
  N  N113  1  0.54165000  0.07895900  0.12738900  1
  N  N114  1  0.95835000  0.92104100  0.62738900  1
  N  N115  1  0.45835000  0.57895900  0.37261100  1
  N  N116  1  0.95835000  0.57895900  0.12738900  1
  N  N117  1  0.45835000  0.92104100  0.87261100  1
  N  N118  1  0.04165000  0.07895900  0.37261100  1
  N  N119  1  0.54165000  0.42104100  0.62738900  1
  N  N120  1  0.13395800  0.97519800  0.76648600  1
  N  N121  1  0.63395800  0.52480200  0.23351400  1
  N  N122  1  0.86604200  0.47519800  0.73351400  1
  N  N123  1  0.36604200  0.02480200  0.26648600  1
  N  N124  1  0.86604200  0.02480200  0.23351400  1
  N  N125  1  0.36604200  0.47519800  0.76648600  1
  N  N126  1  0.13395800  0.52480200  0.26648600  1
  N  N127  1  0.63395800  0.97519800  0.73351400  1
  N  N128  1  0.17339100  0.18239300  0.87560700  1
  N  N129  1  0.67339100  0.31760700  0.12439300  1
  N  N130  1  0.82660900  0.68239300  0.62439300  1
  N  N131  1  0.32660900  0.81760700  0.37560700  1
  N  N132  1  0.82660900  0.81760700  0.12439300  1
  N  N133  1  0.32660900  0.68239300  0.87560700  1
  N  N134  1  0.17339100  0.31760700  0.37560700  1
  N  N135  1  0.67339100  0.18239300  0.62439300  1
  N  N136  1  0.79896400  0.29281300  0.86404400  1
  N  N137  1  0.29896400  0.20718700  0.13595600  1
  N  N138  1  0.20103600  0.79281300  0.63595600  1
  N  N139  1  0.70103600  0.70718700  0.36404400  1
  N  N140  1  0.20103600  0.70718700  0.13595600  1
  N  N141  1  0.70103600  0.79281300  0.86404400  1
  N  N142  1  0.79896400  0.20718700  0.36404400  1
  N  N143  1  0.29896400  0.29281300  0.63595600  1
  N  N144  1  0.99161600  0.22464800  0.73977000  1
  N  N145  1  0.49161600  0.27535200  0.26023000  1
  N  N146  1  0.00838400  0.72464800  0.76023000  1
  N  N147  1  0.50838400  0.77535200  0.23977000  1
  N  N148  1  0.00838400  0.77535200  0.26023000  1
  N  N149  1  0.50838400  0.72464800  0.73977000  1
  N  N150  1  0.99161600  0.27535200  0.23977000  1
  N  N151  1  0.49161600  0.22464800  0.76023000  1
  N  N152  1  0.98295100  0.24712300  0.00931900  1
  N  N153  1  0.48295100  0.25287700  0.99068100  1
  N  N154  1  0.01704900  0.74712300  0.49068100  1
  N  N155  1  0.51704900  0.75287700  0.50931900  1
  N  N156  1  0.01704900  0.75287700  0.99068100  1
  N  N157  1  0.51704900  0.74712300  0.00931900  1
  N  N158  1  0.98295100  0.25287700  0.50931900  1
  N  N159  1  0.48295100  0.24712300  0.49068100  1
