# generated using pymatgen
data_EuGaPt
_symmetry_space_group_name_H-M   'P 1'
_cell_length_a   4.55430400
_cell_length_b   7.34973700
_cell_length_c   7.64588600
_cell_angle_alpha   90.00000000
_cell_angle_beta   90.00000000
_cell_angle_gamma   90.00000000
_symmetry_Int_Tables_number   1
_chemical_formula_structural   EuGaPt
_chemical_formula_sum   'Eu4 Ga4 Pt4'
_cell_volume   255.93025747
_cell_formula_units_Z   4
loop_
 _symmetry_equiv_pos_site_id
 _symmetry_equiv_pos_as_xyz
  1  'x, y, z'
loop_
 _atom_site_type_symbol
 _atom_site_label
 _atom_site_symmetry_multiplicity
 _atom_site_fract_x
 _atom_site_fract_y
 _atom_site_fract_z
 _atom_site_occupancy
  Eu  Eu0  1  0.25000000  0.99090300  0.30866400  1
  Eu  Eu1  1  0.25000000  0.49090300  0.19133600  1
  Eu  Eu2  1  0.75000000  0.00909700  0.69133600  1
  Eu  Eu3  1  0.75000000  0.50909700  0.80866400  1
  Ga  Ga4  1  0.25000000  0.32043700  0.59059800  1
  Ga  Ga5  1  0.25000000  0.82043700  0.90940200  1
  Ga  Ga6  1  0.75000000  0.67956300  0.40940200  1
  Ga  Ga7  1  0.75000000  0.17956300  0.09059800  1
  Pt  Pt8  1  0.25000000  0.18718500  0.91200100  1
  Pt  Pt9  1  0.25000000  0.68718500  0.58799900  1
  Pt  Pt10  1  0.75000000  0.81281500  0.08799900  1
  Pt  Pt11  1  0.75000000  0.31281500  0.41200100  1
