# generated using pymatgen
data_K4P2O7
_symmetry_space_group_name_H-M   'P 1'
_cell_length_a   6.00559899
_cell_length_b   6.00559899
_cell_length_c   15.10803000
_cell_angle_alpha   90.00000000
_cell_angle_beta   90.00000000
_cell_angle_gamma   119.99998889
_symmetry_Int_Tables_number   1
_chemical_formula_structural   K4P2O7
_chemical_formula_sum   'K8 P4 O14'
_cell_volume   471.90130535
_cell_formula_units_Z   2
loop_
 _symmetry_equiv_pos_site_id
 _symmetry_equiv_pos_as_xyz
  1  'x, y, z'
loop_
 _atom_site_type_symbol
 _atom_site_label
 _atom_site_symmetry_multiplicity
 _atom_site_fract_x
 _atom_site_fract_y
 _atom_site_fract_z
 _atom_site_occupancy
  K  K0  1  0.33333300  0.66666700  0.91588600  1
  K  K1  1  0.66666700  0.33333300  0.08411400  1
  K  K2  1  0.66666700  0.33333300  0.41588600  1
  K  K3  1  0.33333300  0.66666700  0.58411400  1
  K  K4  1  0.00000000  0.00000000  0.25000000  1
  K  K5  1  0.00000000  0.00000000  0.75000000  1
  K  K6  1  0.00000000  0.00000000  0.00000000  1
  K  K7  1  0.00000000  0.00000000  0.50000000  1
  P  P8  1  0.33333300  0.66666700  0.14281700  1
  P  P9  1  0.66666700  0.33333300  0.85718300  1
  P  P10  1  0.66666700  0.33333300  0.64281700  1
  P  P11  1  0.33333300  0.66666700  0.35718300  1
  O  O12  1  0.19153100  0.80846900  0.11481700  1
  O  O13  1  0.19153100  0.38306200  0.11481700  1
  O  O14  1  0.61693800  0.80846900  0.11481700  1
  O  O15  1  0.80846900  0.19153100  0.88518300  1
  O  O16  1  0.80846900  0.61693800  0.88518300  1
  O  O17  1  0.38306200  0.19153100  0.88518300  1
  O  O18  1  0.80846900  0.19153100  0.61481700  1
  O  O19  1  0.80846900  0.61693800  0.61481700  1
  O  O20  1  0.38306200  0.19153100  0.61481700  1
  O  O21  1  0.19153100  0.80846900  0.38518300  1
  O  O22  1  0.19153100  0.38306200  0.38518300  1
  O  O23  1  0.61693800  0.80846900  0.38518300  1
  O  O24  1  0.33333300  0.66666700  0.25000000  1
  O  O25  1  0.66666700  0.33333300  0.75000000  1
