# generated using pymatgen
data_TbZnSn
_symmetry_space_group_name_H-M   'P 1'
_cell_length_a   4.51579732
_cell_length_b   4.51579732
_cell_length_c   15.99229300
_cell_angle_alpha   90.00000000
_cell_angle_beta   90.00000000
_cell_angle_gamma   119.99999002
_symmetry_Int_Tables_number   1
_chemical_formula_structural   TbZnSn
_chemical_formula_sum   'Tb4 Zn4 Sn4'
_cell_volume   282.42965543
_cell_formula_units_Z   4
loop_
 _symmetry_equiv_pos_site_id
 _symmetry_equiv_pos_as_xyz
  1  'x, y, z'
loop_
 _atom_site_type_symbol
 _atom_site_label
 _atom_site_symmetry_multiplicity
 _atom_site_fract_x
 _atom_site_fract_y
 _atom_site_fract_z
 _atom_site_occupancy
  Tb  Tb0  1  0.00000000  0.00000000  0.75000000  1
  Tb  Tb1  1  0.00000000  0.00000000  0.25000000  1
  Tb  Tb2  1  0.00000000  0.00000000  0.50000000  1
  Tb  Tb3  1  0.00000000  0.00000000  0.00000000  1
  Zn  Zn4  1  0.66666700  0.33333300  0.83964800  1
  Zn  Zn5  1  0.66666700  0.33333300  0.66035200  1
  Zn  Zn6  1  0.33333300  0.66666700  0.16035200  1
  Zn  Zn7  1  0.33333300  0.66666700  0.33964800  1
  Sn  Sn8  1  0.66666700  0.33333300  0.11356000  1
  Sn  Sn9  1  0.66666700  0.33333300  0.38644000  1
  Sn  Sn10  1  0.33333300  0.66666700  0.88644000  1
  Sn  Sn11  1  0.33333300  0.66666700  0.61356000  1
