# generated using pymatgen
data_HfCoP
_symmetry_space_group_name_H-M   'P 1'
_cell_length_a   3.66693400
_cell_length_b   6.28360900
_cell_length_c   7.08695200
_cell_angle_alpha   90.00000000
_cell_angle_beta   90.00000000
_cell_angle_gamma   90.00000000
_symmetry_Int_Tables_number   1
_chemical_formula_structural   HfCoP
_chemical_formula_sum   'Hf4 Co4 P4'
_cell_volume   163.29456781
_cell_formula_units_Z   4
loop_
 _symmetry_equiv_pos_site_id
 _symmetry_equiv_pos_as_xyz
  1  'x, y, z'
loop_
 _atom_site_type_symbol
 _atom_site_label
 _atom_site_symmetry_multiplicity
 _atom_site_fract_x
 _atom_site_fract_y
 _atom_site_fract_z
 _atom_site_occupancy
  Hf  Hf0  1  0.25000000  0.01984500  0.81764500  1
  Hf  Hf1  1  0.25000000  0.51984500  0.68235500  1
  Hf  Hf2  1  0.75000000  0.98015500  0.18235500  1
  Hf  Hf3  1  0.75000000  0.48015500  0.31764500  1
  Co  Co4  1  0.25000000  0.13876400  0.43796200  1
  Co  Co5  1  0.25000000  0.63876400  0.06203800  1
  Co  Co6  1  0.75000000  0.86123600  0.56203800  1
  Co  Co7  1  0.75000000  0.36123600  0.93796200  1
  P  P8  1  0.25000000  0.77231600  0.38433800  1
  P  P9  1  0.25000000  0.27231600  0.11566200  1
  P  P10  1  0.75000000  0.22768400  0.61566200  1
  P  P11  1  0.75000000  0.72768400  0.88433800  1
