# generated using pymatgen
data_MnCuF6
_symmetry_space_group_name_H-M   'P 1'
_cell_length_a   4.99929318
_cell_length_b   5.10230773
_cell_length_c   5.36922358
_cell_angle_alpha   60.71203721
_cell_angle_beta   62.24826115
_cell_angle_gamma   60.68586764
_symmetry_Int_Tables_number   1
_chemical_formula_structural   MnCuF6
_chemical_formula_sum   'Mn1 Cu1 F6'
_cell_volume   99.44387169
_cell_formula_units_Z   1
loop_
 _symmetry_equiv_pos_site_id
 _symmetry_equiv_pos_as_xyz
  1  'x, y, z'
loop_
 _atom_site_type_symbol
 _atom_site_label
 _atom_site_symmetry_multiplicity
 _atom_site_fract_x
 _atom_site_fract_y
 _atom_site_fract_z
 _atom_site_occupancy
  Mn  Mn0  1  0.50000000  0.50000000  0.50000000  1
  Cu  Cu1  1  0.00000000  0.00000000  0.00000000  1
  F  F2  1  0.74222200  0.37184900  0.74594400  1
  F  F3  1  0.25777800  0.62815100  0.25405600  1
  F  F4  1  0.62536300  0.86000900  0.25958400  1
  F  F5  1  0.37463700  0.13999100  0.74041600  1
  F  F6  1  0.14963000  0.72831200  0.73269100  1
  F  F7  1  0.85037000  0.27168800  0.26730900  1
