# generated using pymatgen
data_Li6B4O9
_symmetry_space_group_name_H-M   'P 1'
_cell_length_a   23.65045800
_cell_length_b   3.39381500
_cell_length_c   9.73317085
_cell_angle_alpha   72.09944618
_cell_angle_beta   90.00000000
_cell_angle_gamma   90.00000000
_symmetry_Int_Tables_number   1
_chemical_formula_structural   Li6B4O9
_chemical_formula_sum   'Li24 B16 O36'
_cell_volume   743.41717571
_cell_formula_units_Z   4
loop_
 _symmetry_equiv_pos_site_id
 _symmetry_equiv_pos_as_xyz
  1  'x, y, z'
loop_
 _atom_site_type_symbol
 _atom_site_label
 _atom_site_symmetry_multiplicity
 _atom_site_fract_x
 _atom_site_fract_y
 _atom_site_fract_z
 _atom_site_occupancy
  Li  Li0  1  0.11863800  0.62992300  0.17884000  1
  Li  Li1  1  0.38136200  0.62992300  0.67884000  1
  Li  Li2  1  0.88136200  0.37007700  0.82116000  1
  Li  Li3  1  0.61863800  0.37007700  0.32116000  1
  Li  Li4  1  0.94250900  0.13974300  0.54132000  1
  Li  Li5  1  0.55749100  0.13974300  0.04132000  1
  Li  Li6  1  0.05749100  0.86025700  0.45868000  1
  Li  Li7  1  0.44250900  0.86025700  0.95868000  1
  Li  Li8  1  0.95818300  0.75133400  0.98961800  1
  Li  Li9  1  0.54181700  0.75133400  0.48961800  1
  Li  Li10  1  0.04181700  0.24866600  0.01038200  1
  Li  Li11  1  0.45818300  0.24866600  0.51038200  1
  Li  Li12  1  0.14336500  0.34228000  0.47879100  1
  Li  Li13  1  0.35663500  0.34228000  0.97879100  1
  Li  Li14  1  0.85663500  0.65772000  0.52120900  1
  Li  Li15  1  0.64336500  0.65772000  0.02120900  1
  Li  Li16  1  0.20424800  0.68296000  0.64906700  1
  Li  Li17  1  0.29575200  0.68296000  0.14906700  1
  Li  Li18  1  0.79575200  0.31704000  0.35093300  1
  Li  Li19  1  0.70424800  0.31704000  0.85093300  1
  Li  Li20  1  0.20626400  0.11932200  0.19727800  1
  Li  Li21  1  0.29373600  0.11932200  0.69727800  1
  Li  Li22  1  0.79373600  0.88067800  0.80272200  1
  Li  Li23  1  0.70626400  0.88067800  0.30272200  1
  B  B24  1  0.97718900  0.50474300  0.73771700  1
  B  B25  1  0.52281100  0.50474300  0.23771700  1
  B  B26  1  0.02281100  0.49525700  0.26228300  1
  B  B27  1  0.47718900  0.49525700  0.76228300  1
  B  B28  1  0.08645400  0.62187300  0.70331000  1
  B  B29  1  0.41354600  0.62187300  0.20331000  1
  B  B30  1  0.91354600  0.37812700  0.29669000  1
  B  B31  1  0.58645400  0.37812700  0.79669000  1
  B  B32  1  0.14803700  0.37035600  0.93524700  1
  B  B33  1  0.35196300  0.37035600  0.43524700  1
  B  B34  1  0.85196300  0.62964400  0.06475300  1
  B  B35  1  0.64803700  0.62964400  0.56475300  1
  B  B36  1  0.25674600  0.40999200  0.91705600  1
  B  B37  1  0.24325400  0.40999200  0.41705600  1
  B  B38  1  0.74325400  0.59000800  0.08294400  1
  B  B39  1  0.75674600  0.59000800  0.58294400  1
  O  O40  1  0.97377200  0.34127900  0.88269100  1
  O  O41  1  0.52622800  0.34127900  0.38269100  1
  O  O42  1  0.02622800  0.65872100  0.11730900  1
  O  O43  1  0.47377200  0.65872100  0.61730900  1
  O  O44  1  0.93175100  0.54516100  0.64575000  1
  O  O45  1  0.56824900  0.54516100  0.14575000  1
  O  O46  1  0.06824900  0.45483900  0.35425000  1
  O  O47  1  0.43175100  0.45483900  0.85425000  1
  O  O48  1  0.02891900  0.67062500  0.66379900  1
  O  O49  1  0.47108100  0.67062500  0.16379900  1
  O  O50  1  0.97108100  0.32937500  0.33620100  1
  O  O51  1  0.52891900  0.32937500  0.83620100  1
  O  O52  1  0.12414900  0.74268600  0.59477800  1
  O  O53  1  0.37585100  0.74268600  0.09477800  1
  O  O54  1  0.87585100  0.25731400  0.40522200  1
  O  O55  1  0.62414900  0.25731400  0.90522200  1
  O  O56  1  0.09842100  0.44762000  0.84959800  1
  O  O57  1  0.40157900  0.44762000  0.34959800  1
  O  O58  1  0.90157900  0.55238000  0.15040200  1
  O  O59  1  0.59842100  0.55238000  0.65040200  1
  O  O60  1  0.19939200  0.46846700  0.86228400  1
  O  O61  1  0.30060800  0.46846700  0.36228400  1
  O  O62  1  0.80060800  0.53153300  0.13771600  1
  O  O63  1  0.69939200  0.53153300  0.63771600  1
  O  O64  1  0.14006100  0.21281300  0.07804400  1
  O  O65  1  0.35993900  0.21281300  0.57804400  1
  O  O66  1  0.85993900  0.78718700  0.92195600  1
  O  O67  1  0.64006100  0.78718700  0.42195600  1
  O  O68  1  0.29756300  0.51936000  0.81215200  1
  O  O69  1  0.20243700  0.51936000  0.31215200  1
  O  O70  1  0.70243700  0.48064000  0.18784800  1
  O  O71  1  0.79756300  0.48064000  0.68784800  1
  O  O72  1  0.26832300  0.25903800  0.06053300  1
  O  O73  1  0.23167700  0.25903800  0.56053300  1
  O  O74  1  0.73167700  0.74096200  0.93946700  1
  O  O75  1  0.76832300  0.74096200  0.43946700  1
