# generated using pymatgen
data_GdIn2Cl5
_symmetry_space_group_name_H-M   'P 1'
_cell_length_a   8.18158700
_cell_length_b   8.55555500
_cell_length_c   13.01152400
_cell_angle_alpha   90.00000000
_cell_angle_beta   90.00000000
_cell_angle_gamma   90.00000000
_symmetry_Int_Tables_number   1
_chemical_formula_structural   GdIn2Cl5
_chemical_formula_sum   'Gd4 In8 Cl20'
_cell_volume   910.78088551
_cell_formula_units_Z   4
loop_
 _symmetry_equiv_pos_site_id
 _symmetry_equiv_pos_as_xyz
  1  'x, y, z'
loop_
 _atom_site_type_symbol
 _atom_site_label
 _atom_site_symmetry_multiplicity
 _atom_site_fract_x
 _atom_site_fract_y
 _atom_site_fract_z
 _atom_site_occupancy
  Gd  Gd0  1  0.92797500  0.75000000  0.50347400  1
  Gd  Gd1  1  0.07202500  0.25000000  0.49652600  1
  Gd  Gd2  1  0.42797500  0.25000000  0.99652600  1
  Gd  Gd3  1  0.57202500  0.75000000  0.00347400  1
  In  In4  1  0.95025400  0.00502500  0.82759700  1
  In  In5  1  0.04974600  0.99497500  0.17240300  1
  In  In6  1  0.45025400  0.99497500  0.67240300  1
  In  In7  1  0.04974600  0.50502500  0.17240300  1
  In  In8  1  0.54974600  0.00502500  0.32759700  1
  In  In9  1  0.95025400  0.49497500  0.82759700  1
  In  In10  1  0.54974600  0.49497500  0.32759700  1
  In  In11  1  0.45025400  0.50502500  0.67240300  1
  Cl  Cl12  1  0.11250400  0.75000000  0.67517300  1
  Cl  Cl13  1  0.88749600  0.25000000  0.32482700  1
  Cl  Cl14  1  0.61250400  0.25000000  0.82482700  1
  Cl  Cl15  1  0.38749600  0.75000000  0.17517300  1
  Cl  Cl16  1  0.84003400  0.04252800  0.57359800  1
  Cl  Cl17  1  0.15996600  0.95747200  0.42640200  1
  Cl  Cl18  1  0.34003400  0.95747200  0.92640200  1
  Cl  Cl19  1  0.15996600  0.54252800  0.42640200  1
  Cl  Cl20  1  0.65996600  0.04252800  0.07359800  1
  Cl  Cl21  1  0.84003400  0.45747200  0.57359800  1
  Cl  Cl22  1  0.65996600  0.45747200  0.07359800  1
  Cl  Cl23  1  0.34003400  0.54252800  0.92640200  1
  Cl  Cl24  1  0.59094700  0.75000000  0.50921500  1
  Cl  Cl25  1  0.40905300  0.25000000  0.49078500  1
  Cl  Cl26  1  0.09094700  0.25000000  0.99078500  1
  Cl  Cl27  1  0.90905300  0.75000000  0.00921500  1
  Cl  Cl28  1  0.65713800  0.75000000  0.80261600  1
  Cl  Cl29  1  0.34286200  0.25000000  0.19738400  1
  Cl  Cl30  1  0.15713800  0.25000000  0.69738400  1
  Cl  Cl31  1  0.84286200  0.75000000  0.30261600  1
