# generated using pymatgen
data_Nd2O3
_symmetry_space_group_name_H-M   'P 1'
_cell_length_a   9.68309759
_cell_length_b   9.68309759
_cell_length_c   9.68309759
_cell_angle_alpha   109.47122063
_cell_angle_beta   109.47122063
_cell_angle_gamma   109.47122063
_symmetry_Int_Tables_number   1
_chemical_formula_structural   Nd2O3
_chemical_formula_sum   'Nd16 O24'
_cell_volume   698.90964820
_cell_formula_units_Z   8
loop_
 _symmetry_equiv_pos_site_id
 _symmetry_equiv_pos_as_xyz
  1  'x, y, z'
loop_
 _atom_site_type_symbol
 _atom_site_label
 _atom_site_symmetry_multiplicity
 _atom_site_fract_x
 _atom_site_fract_y
 _atom_site_fract_z
 _atom_site_occupancy
  Nd  Nd0  1  0.71922300  0.46922300  0.25000000  1
  Nd  Nd1  1  0.75000000  0.78077700  0.03077700  1
  Nd  Nd2  1  0.03077700  0.75000000  0.78077700  1
  Nd  Nd3  1  0.25000000  0.71922300  0.46922300  1
  Nd  Nd4  1  0.46922300  0.25000000  0.71922300  1
  Nd  Nd5  1  0.78077700  0.03077700  0.75000000  1
  Nd  Nd6  1  0.28077700  0.53077700  0.75000000  1
  Nd  Nd7  1  0.25000000  0.21922300  0.96922300  1
  Nd  Nd8  1  0.96922300  0.25000000  0.21922300  1
  Nd  Nd9  1  0.75000000  0.28077700  0.53077700  1
  Nd  Nd10  1  0.53077700  0.75000000  0.28077700  1
  Nd  Nd11  1  0.21922300  0.96922300  0.25000000  1
  Nd  Nd12  1  0.50000000  0.00000000  0.00000000  1
  Nd  Nd13  1  0.00000000  0.00000000  0.50000000  1
  Nd  Nd14  1  0.00000000  0.50000000  0.00000000  1
  Nd  Nd15  1  0.50000000  0.50000000  0.50000000  1
  O  O16  1  0.48800200  0.75898500  0.02816600  1
  O  O17  1  0.26918100  0.74101500  0.22901700  1
  O  O18  1  0.01199800  0.04016400  0.27098300  1
  O  O19  1  0.45983600  0.47183400  0.23081900  1
  O  O20  1  0.47183400  0.23081900  0.45983600  1
  O  O21  1  0.02816600  0.48800200  0.75898500  1
  O  O22  1  0.74101500  0.22901700  0.26918100  1
  O  O23  1  0.27098300  0.01199800  0.04016400  1
  O  O24  1  0.75898500  0.02816600  0.48800200  1
  O  O25  1  0.22901700  0.26918100  0.74101500  1
  O  O26  1  0.04016400  0.27098300  0.01199800  1
  O  O27  1  0.23081900  0.45983600  0.47183400  1
  O  O28  1  0.51199800  0.24101500  0.97183400  1
  O  O29  1  0.73081900  0.25898500  0.77098300  1
  O  O30  1  0.98800200  0.95983600  0.72901700  1
  O  O31  1  0.54016400  0.52816600  0.76918100  1
  O  O32  1  0.76918100  0.54016400  0.52816600  1
  O  O33  1  0.95983600  0.72901700  0.98800200  1
  O  O34  1  0.77098300  0.73081900  0.25898500  1
  O  O35  1  0.24101500  0.97183400  0.51199800  1
  O  O36  1  0.72901700  0.98800200  0.95983600  1
  O  O37  1  0.25898500  0.77098300  0.73081900  1
  O  O38  1  0.97183400  0.51199800  0.24101500  1
  O  O39  1  0.52816600  0.76918100  0.54016400  1
