# generated using pymatgen
data_RbSbO2
_symmetry_space_group_name_H-M   'P 1'
_cell_length_a   6.20979984
_cell_length_b   6.20979984
_cell_length_c   5.67690963
_cell_angle_alpha   68.68928354
_cell_angle_beta   68.68928354
_cell_angle_gamma   98.35085067
_symmetry_Int_Tables_number   1
_chemical_formula_structural   RbSbO2
_chemical_formula_sum   'Rb2 Sb2 O4'
_cell_volume   180.03816349
_cell_formula_units_Z   2
loop_
 _symmetry_equiv_pos_site_id
 _symmetry_equiv_pos_as_xyz
  1  'x, y, z'
loop_
 _atom_site_type_symbol
 _atom_site_label
 _atom_site_symmetry_multiplicity
 _atom_site_fract_x
 _atom_site_fract_y
 _atom_site_fract_z
 _atom_site_occupancy
  Rb  Rb0  1  0.64284100  0.35715900  0.25000000  1
  Rb  Rb1  1  0.35715900  0.64284100  0.75000000  1
  Sb  Sb2  1  0.91514800  0.08485200  0.75000000  1
  Sb  Sb3  1  0.08485200  0.91514800  0.25000000  1
  O  O4  1  0.77575700  0.86985600  0.21243700  1
  O  O5  1  0.13014400  0.22424300  0.28756300  1
  O  O6  1  0.86985600  0.77575700  0.71243700  1
  O  O7  1  0.22424300  0.13014400  0.78756300  1
