# generated using pymatgen
data_ThScFe6
_symmetry_space_group_name_H-M   'P 1'
_cell_length_a   5.03914511
_cell_length_b   5.03914511
_cell_length_c   16.54023915
_cell_angle_alpha   98.76197172
_cell_angle_beta   98.76197172
_cell_angle_gamma   59.99998542
_symmetry_Int_Tables_number   1
_chemical_formula_structural   ThScFe6
_chemical_formula_sum   'Th3 Sc3 Fe18'
_cell_volume   358.06477323
_cell_formula_units_Z   3
loop_
 _symmetry_equiv_pos_site_id
 _symmetry_equiv_pos_as_xyz
  1  'x, y, z'
loop_
 _atom_site_type_symbol
 _atom_site_label
 _atom_site_symmetry_multiplicity
 _atom_site_fract_x
 _atom_site_fract_y
 _atom_site_fract_z
 _atom_site_occupancy
  Th  Th0  1  0.57158100  0.57158100  0.71474400  1
  Th  Th1  1  0.00061800  0.00061800  0.00185300  1
  Th  Th2  1  0.49778600  0.49778600  0.49335800  1
  Sc  Sc3  1  0.42747100  0.42747100  0.28241400  1
  Sc  Sc4  1  0.93018000  0.93018000  0.79054000  1
  Sc  Sc5  1  0.07223400  0.07223400  0.21670100  1
  Fe  Fe6  1  0.45524200  0.95751000  0.37026200  1
  Fe  Fe7  1  0.95766000  0.45880500  0.87527000  1
  Fe  Fe8  1  0.95751000  0.95751000  0.37026200  1
  Fe  Fe9  1  0.45880500  0.45880500  0.87527000  1
  Fe  Fe10  1  0.95751000  0.45524200  0.37026200  1
  Fe  Fe11  1  0.45880500  0.95766000  0.87527000  1
  Fe  Fe12  1  0.04446800  0.54226700  0.12900100  1
  Fe  Fe13  1  0.54287100  0.04118300  0.62523700  1
  Fe  Fe14  1  0.54226700  0.54226700  0.12900100  1
  Fe  Fe15  1  0.04118300  0.04118300  0.62523700  1
  Fe  Fe16  1  0.54226700  0.04446800  0.12900100  1
  Fe  Fe17  1  0.04118300  0.54287100  0.62523700  1
  Fe  Fe18  1  0.33397200  0.33397200  0.00191600  1
  Fe  Fe19  1  0.83311200  0.83311200  0.49933600  1
  Fe  Fe20  1  0.16579400  0.16579400  0.49738100  1
  Fe  Fe21  1  0.66677900  0.66677900  0.00033700  1
  Fe  Fe22  1  0.74992700  0.74992700  0.24978100  1
  Fe  Fe23  1  0.25077500  0.25077500  0.75232500  1
