# generated using pymatgen
data_Li2B6O9F2
_symmetry_space_group_name_H-M   'P 1'
_cell_length_a   8.52748748
_cell_length_b   8.52748748
_cell_length_c   10.16533108
_cell_angle_alpha   89.38437403
_cell_angle_beta   89.38437403
_cell_angle_gamma   146.68393341
_symmetry_Int_Tables_number   1
_chemical_formula_structural   Li2B6O9F2
_chemical_formula_sum   'Li4 B12 O18 F4'
_cell_volume   405.72723492
_cell_formula_units_Z   2
loop_
 _symmetry_equiv_pos_site_id
 _symmetry_equiv_pos_as_xyz
  1  'x, y, z'
loop_
 _atom_site_type_symbol
 _atom_site_label
 _atom_site_symmetry_multiplicity
 _atom_site_fract_x
 _atom_site_fract_y
 _atom_site_fract_z
 _atom_site_occupancy
  Li  Li0  1  0.08078400  0.15402300  0.62101400  1
  Li  Li1  1  0.15402300  0.08078400  0.12101400  1
  Li  Li2  1  0.93809900  0.45295500  0.45120000  1
  Li  Li3  1  0.45295500  0.93809900  0.95120000  1
  B  B4  1  0.52503600  0.79094900  0.51604200  1
  B  B5  1  0.79094900  0.52503600  0.01604200  1
  B  B6  1  0.82906000  0.89700900  0.35556500  1
  B  B7  1  0.89700900  0.82906000  0.85556500  1
  B  B8  1  0.74598100  0.45216200  0.77788700  1
  B  B9  1  0.45216200  0.74598100  0.27788700  1
  B  B10  1  0.60119000  0.08908300  0.65875500  1
  B  B11  1  0.08908300  0.60119000  0.15875500  1
  B  B12  1  0.62784100  0.30232700  0.24356300  1
  B  B13  1  0.30232700  0.62784100  0.74356300  1
  B  B14  1  0.21300000  0.02534700  0.41235100  1
  B  B15  1  0.02534700  0.21300000  0.91235100  1
  O  O16  1  0.34368600  0.58033200  0.62919200  1
  O  O17  1  0.58033200  0.34368600  0.12919200  1
  O  O18  1  0.75543500  0.87068600  0.48371900  1
  O  O19  1  0.87068600  0.75543500  0.98371900  1
  O  O20  1  0.84908500  0.68741000  0.75264400  1
  O  O21  1  0.68741000  0.84908500  0.25264400  1
  O  O22  1  0.73176400  0.34100500  0.67157600  1
  O  O23  1  0.34100500  0.73176400  0.17157600  1
  O  O24  1  0.66733100  0.33937500  0.90357900  1
  O  O25  1  0.33937500  0.66733100  0.40357900  1
  O  O26  1  0.67020900  0.06283500  0.54937300  1
  O  O27  1  0.06283500  0.67020900  0.04937300  1
  O  O28  1  0.41266200  0.87334500  0.75465300  1
  O  O29  1  0.87334500  0.41266200  0.25465300  1
  O  O30  1  0.45958500  0.15865900  0.35279100  1
  O  O31  1  0.15865900  0.45958500  0.85279100  1
  O  O32  1  0.04804300  0.98043800  0.31866900  1
  O  O33  1  0.98043800  0.04804300  0.81866900  1
  F  F34  1  0.30024100  0.19593000  0.51813900  1
  F  F35  1  0.19593000  0.30024100  0.01813900  1
  F  F36  1  0.03737200  0.75672500  0.46978800  1
  F  F37  1  0.75672500  0.03737200  0.96978800  1
