# generated using pymatgen
data_Bi3Sb
_symmetry_space_group_name_H-M   'P 1'
_cell_length_a   8.37594662
_cell_length_b   8.37594662
_cell_length_c   8.37594735
_cell_angle_alpha   31.57620620
_cell_angle_beta   31.57620620
_cell_angle_gamma   31.57620205
_symmetry_Int_Tables_number   1
_chemical_formula_structural   Bi3Sb
_chemical_formula_sum   'Bi3 Sb1'
_cell_volume   143.06084516
_cell_formula_units_Z   1
loop_
 _symmetry_equiv_pos_site_id
 _symmetry_equiv_pos_as_xyz
  1  'x, y, z'
loop_
 _atom_site_type_symbol
 _atom_site_label
 _atom_site_symmetry_multiplicity
 _atom_site_fract_x
 _atom_site_fract_y
 _atom_site_fract_z
 _atom_site_occupancy
  Bi  Bi0  1  0.11622800  0.11622800  0.11622800  1
  Bi  Bi1  1  0.88602900  0.88602900  0.88602900  1
  Bi  Bi2  1  0.38133900  0.38133900  0.38133900  1
  Sb  Sb3  1  0.61640400  0.61640400  0.61640400  1
