# generated using pymatgen
data_Tb2TeO2
_symmetry_space_group_name_H-M   'P 1'
_cell_length_a   6.88680731
_cell_length_b   6.88680731
_cell_length_c   6.88680731
_cell_angle_alpha   146.64619852
_cell_angle_beta   146.64619852
_cell_angle_gamma   47.88793021
_symmetry_Int_Tables_number   1
_chemical_formula_structural   Tb2TeO2
_chemical_formula_sum   'Tb2 Te1 O2'
_cell_volume   98.33745053
_cell_formula_units_Z   1
loop_
 _symmetry_equiv_pos_site_id
 _symmetry_equiv_pos_as_xyz
  1  'x, y, z'
loop_
 _atom_site_type_symbol
 _atom_site_label
 _atom_site_symmetry_multiplicity
 _atom_site_fract_x
 _atom_site_fract_y
 _atom_site_fract_z
 _atom_site_occupancy
  Tb  Tb0  1  0.66227600  0.66227600  0.00000000  1
  Tb  Tb1  1  0.33772400  0.33772400  0.00000000  1
  Te  Te2  1  0.00000000  0.00000000  0.00000000  1
  O  O3  1  0.75000000  0.25000000  0.50000000  1
  O  O4  1  0.25000000  0.75000000  0.50000000  1
