# generated using pymatgen
data_CsMgAlF6
_symmetry_space_group_name_H-M   'P 1'
_cell_length_a   7.22298141
_cell_length_b   7.22298141
_cell_length_c   7.22298141
_cell_angle_alpha   120.46534322
_cell_angle_beta   119.31925575
_cell_angle_gamma   90.18950051
_symmetry_Int_Tables_number   1
_chemical_formula_structural   CsMgAlF6
_chemical_formula_sum   'Cs2 Mg2 Al2 F12'
_cell_volume   266.86046865
_cell_formula_units_Z   2
loop_
 _symmetry_equiv_pos_site_id
 _symmetry_equiv_pos_as_xyz
  1  'x, y, z'
loop_
 _atom_site_type_symbol
 _atom_site_label
 _atom_site_symmetry_multiplicity
 _atom_site_fract_x
 _atom_site_fract_y
 _atom_site_fract_z
 _atom_site_occupancy
  Cs  Cs0  1  0.62220500  0.87220500  0.75000000  1
  Cs  Cs1  1  0.37779500  0.12779500  0.25000000  1
  Mg  Mg2  1  0.50000000  0.50000000  0.00000000  1
  Mg  Mg3  1  0.00000000  0.50000000  0.50000000  1
  Al  Al4  1  0.00000000  0.50000000  0.00000000  1
  Al  Al5  1  0.00000000  0.00000000  0.50000000  1
  F  F6  1  0.05329600  0.80329600  0.25000000  1
  F  F7  1  0.67476700  0.42476700  0.25000000  1
  F  F8  1  0.05613000  0.83131400  0.62881200  1
  F  F9  1  0.70250100  0.42731700  0.87118800  1
  F  F10  1  0.70250100  0.83131400  0.27518400  1
  F  F11  1  0.05613000  0.42731700  0.22481600  1
  F  F12  1  0.94670400  0.19670400  0.75000000  1
  F  F13  1  0.32523300  0.57523300  0.75000000  1
  F  F14  1  0.94387000  0.16868600  0.37118800  1
  F  F15  1  0.29749900  0.57268300  0.12881200  1
  F  F16  1  0.29749900  0.16868600  0.72481600  1
  F  F17  1  0.94387000  0.57268300  0.77518400  1
