# generated using pymatgen
data_Cs2SnSe3
_symmetry_space_group_name_H-M   'P 1'
_cell_length_a   8.52599073
_cell_length_b   8.52599073
_cell_length_c   10.92232103
_cell_angle_alpha   58.65965691
_cell_angle_beta   58.65965691
_cell_angle_gamma   53.50648508
_symmetry_Int_Tables_number   1
_chemical_formula_structural   Cs2SnSe3
_chemical_formula_sum   'Cs4 Sn2 Se6'
_cell_volume   518.83642910
_cell_formula_units_Z   2
loop_
 _symmetry_equiv_pos_site_id
 _symmetry_equiv_pos_as_xyz
  1  'x, y, z'
loop_
 _atom_site_type_symbol
 _atom_site_label
 _atom_site_symmetry_multiplicity
 _atom_site_fract_x
 _atom_site_fract_y
 _atom_site_fract_z
 _atom_site_occupancy
  Cs  Cs0  1  0.31106500  0.31106500  0.31783900  1
  Cs  Cs1  1  0.68893500  0.68893500  0.68216100  1
  Cs  Cs2  1  0.08616400  0.08616400  0.13037400  1
  Cs  Cs3  1  0.91383600  0.91383600  0.86962600  1
  Sn  Sn4  1  0.37925900  0.37925900  0.68655700  1
  Sn  Sn5  1  0.62074100  0.62074100  0.31344300  1
  Se  Se6  1  0.38752000  0.38752000  0.90876000  1
  Se  Se7  1  0.61248000  0.61248000  0.09124000  1
  Se  Se8  1  0.19985100  0.19985100  0.72595600  1
  Se  Se9  1  0.80014900  0.80014900  0.27404400  1
  Se  Se10  1  0.75438000  0.24562000  0.50000000  1
  Se  Se11  1  0.24562000  0.75438000  0.50000000  1
