# generated using pymatgen
data_MnSe2O5
_symmetry_space_group_name_H-M   'P 1'
_cell_length_a   6.41464200
_cell_length_b   6.97243200
_cell_length_c   10.83078300
_cell_angle_alpha   90.00000000
_cell_angle_beta   90.00000000
_cell_angle_gamma   90.00000000
_symmetry_Int_Tables_number   1
_chemical_formula_structural   MnSe2O5
_chemical_formula_sum   'Mn4 Se8 O20'
_cell_volume   484.41386546
_cell_formula_units_Z   4
loop_
 _symmetry_equiv_pos_site_id
 _symmetry_equiv_pos_as_xyz
  1  'x, y, z'
loop_
 _atom_site_type_symbol
 _atom_site_label
 _atom_site_symmetry_multiplicity
 _atom_site_fract_x
 _atom_site_fract_y
 _atom_site_fract_z
 _atom_site_occupancy
  Mn  Mn0  1  0.75000000  0.00000000  0.93962400  1
  Mn  Mn1  1  0.25000000  0.50000000  0.56037600  1
  Mn  Mn2  1  0.25000000  0.00000000  0.06037600  1
  Mn  Mn3  1  0.75000000  0.50000000  0.43962400  1
  Se  Se4  1  0.04169800  0.36610200  0.84423800  1
  Se  Se5  1  0.54169800  0.13389800  0.65576200  1
  Se  Se6  1  0.95830200  0.86610200  0.65576200  1
  Se  Se7  1  0.45830200  0.63389800  0.84423800  1
  Se  Se8  1  0.95830200  0.63389800  0.15576200  1
  Se  Se9  1  0.45830200  0.86610200  0.34423800  1
  Se  Se10  1  0.04169800  0.13389800  0.34423800  1
  Se  Se11  1  0.54169800  0.36610200  0.15576200  1
  O  O12  1  0.25000000  0.00000000  0.42997400  1
  O  O13  1  0.75000000  0.50000000  0.07002600  1
  O  O14  1  0.75000000  0.00000000  0.57002600  1
  O  O15  1  0.25000000  0.50000000  0.92997400  1
  O  O16  1  0.66689600  0.30142200  0.28700400  1
  O  O17  1  0.16689600  0.19857800  0.21299600  1
  O  O18  1  0.33310400  0.80142200  0.21299600  1
  O  O19  1  0.83310400  0.69857800  0.28700400  1
  O  O20  1  0.33310400  0.69857800  0.71299600  1
  O  O21  1  0.83310400  0.80142200  0.78700400  1
  O  O22  1  0.66689600  0.19857800  0.78700400  1
  O  O23  1  0.16689600  0.30142200  0.71299600  1
  O  O24  1  0.04864800  0.33958500  0.43220600  1
  O  O25  1  0.54864800  0.16041500  0.06779400  1
  O  O26  1  0.95135200  0.83958500  0.06779400  1
  O  O27  1  0.45135200  0.66041500  0.43220600  1
  O  O28  1  0.95135200  0.66041500  0.56779400  1
  O  O29  1  0.45135200  0.83958500  0.93220600  1
  O  O30  1  0.04864800  0.16041500  0.93220600  1
  O  O31  1  0.54864800  0.33958500  0.56779400  1
