# generated using pymatgen
data_PmNdTl2
_symmetry_space_group_name_H-M   'P 1'
_cell_length_a   5.50717389
_cell_length_b   5.50717389
_cell_length_c   5.50717389
_cell_angle_alpha   60.00000000
_cell_angle_beta   60.00000000
_cell_angle_gamma   60.00000000
_symmetry_Int_Tables_number   1
_chemical_formula_structural   PmNdTl2
_chemical_formula_sum   'Pm1 Nd1 Tl2'
_cell_volume   118.10583927
_cell_formula_units_Z   1
loop_
 _symmetry_equiv_pos_site_id
 _symmetry_equiv_pos_as_xyz
  1  'x, y, z'
loop_
 _atom_site_type_symbol
 _atom_site_label
 _atom_site_symmetry_multiplicity
 _atom_site_fract_x
 _atom_site_fract_y
 _atom_site_fract_z
 _atom_site_occupancy
  Pm  Pm0  1  0.74999900  0.74999900  0.74999900  1
  Nd  Nd1  1  0.25000000  0.25000000  0.25000000  1
  Tl  Tl2  1  0.00000000  0.00000000  0.00000000  1
  Tl  Tl3  1  0.50000100  0.50000100  0.50000100  1
