# generated using pymatgen
data_TmTe3
_symmetry_space_group_name_H-M   'P 1'
_cell_length_a   13.09236480
_cell_length_b   13.09236480
_cell_length_c   4.34126400
_cell_angle_alpha   90.00000000
_cell_angle_beta   90.00000000
_cell_angle_gamma   160.93943466
_symmetry_Int_Tables_number   1
_chemical_formula_structural   TmTe3
_chemical_formula_sum   'Tm2 Te6'
_cell_volume   243.01063639
_cell_formula_units_Z   2
loop_
 _symmetry_equiv_pos_site_id
 _symmetry_equiv_pos_as_xyz
  1  'x, y, z'
loop_
 _atom_site_type_symbol
 _atom_site_label
 _atom_site_symmetry_multiplicity
 _atom_site_fract_x
 _atom_site_fract_y
 _atom_site_fract_z
 _atom_site_occupancy
  Tm  Tm0  1  0.17033300  0.82966700  0.75000000  1
  Tm  Tm1  1  0.82966700  0.17033300  0.25000000  1
  Te  Te2  1  0.92458600  0.07541400  0.75000000  1
  Te  Te3  1  0.07541400  0.92458600  0.25000000  1
  Te  Te4  1  0.57544000  0.42456000  0.75000000  1
  Te  Te5  1  0.42456000  0.57544000  0.25000000  1
  Te  Te6  1  0.29322800  0.70677200  0.75000000  1
  Te  Te7  1  0.70677200  0.29322800  0.25000000  1
