# generated using pymatgen
data_LaSi3N5
_symmetry_space_group_name_H-M   'P 1'
_cell_length_a   4.83632400
_cell_length_b   7.90358100
_cell_length_c   11.35884600
_cell_angle_alpha   90.00000000
_cell_angle_beta   90.00000000
_cell_angle_gamma   90.00000000
_symmetry_Int_Tables_number   1
_chemical_formula_structural   LaSi3N5
_chemical_formula_sum   'La4 Si12 N20'
_cell_volume   434.18369267
_cell_formula_units_Z   4
loop_
 _symmetry_equiv_pos_site_id
 _symmetry_equiv_pos_as_xyz
  1  'x, y, z'
loop_
 _atom_site_type_symbol
 _atom_site_label
 _atom_site_symmetry_multiplicity
 _atom_site_fract_x
 _atom_site_fract_y
 _atom_site_fract_z
 _atom_site_occupancy
  La  La0  1  0.99482500  0.94013600  0.67006100  1
  La  La1  1  0.49482500  0.55986400  0.32993900  1
  La  La2  1  0.00517500  0.44013600  0.82993900  1
  La  La3  1  0.50517500  0.05986400  0.17006100  1
  Si  Si4  1  0.48630300  0.66194600  0.66029500  1
  Si  Si5  1  0.98630300  0.83805400  0.33970500  1
  Si  Si6  1  0.51369700  0.16194600  0.83970500  1
  Si  Si7  1  0.01369700  0.33805400  0.16029500  1
  Si  Si8  1  0.48341700  0.79321500  0.91666100  1
  Si  Si9  1  0.98341700  0.70678500  0.08333900  1
  Si  Si10  1  0.51658300  0.29321500  0.58333900  1
  Si  Si11  1  0.01658300  0.20678500  0.41666100  1
  Si  Si12  1  0.97636200  0.53287900  0.54085700  1
  Si  Si13  1  0.47636200  0.96712100  0.45914300  1
  Si  Si14  1  0.02363800  0.03287900  0.95914300  1
  Si  Si15  1  0.52363800  0.46712100  0.04085700  1
  N  N16  1  0.45502800  0.84205500  0.57921700  1
  N  N17  1  0.95502800  0.65794500  0.42078300  1
  N  N18  1  0.54497200  0.34205500  0.92078300  1
  N  N19  1  0.04497200  0.15794500  0.07921700  1
  N  N20  1  0.33666900  0.70652100  0.79433300  1
  N  N21  1  0.83666900  0.79347900  0.20566700  1
  N  N22  1  0.66333100  0.20652100  0.70566700  1
  N  N23  1  0.16333100  0.29347900  0.29433300  1
  N  N24  1  0.31532700  0.48167000  0.59301900  1
  N  N25  1  0.81532700  0.01833000  0.40698100  1
  N  N26  1  0.68467300  0.98167000  0.90698100  1
  N  N27  1  0.18467300  0.51833000  0.09301900  1
  N  N28  1  0.20282300  0.84970000  0.00975100  1
  N  N29  1  0.70282300  0.65030000  0.99024900  1
  N  N30  1  0.79717700  0.34970000  0.49024900  1
  N  N31  1  0.29717700  0.15030000  0.50975100  1
  N  N32  1  0.82888000  0.61015300  0.66734700  1
  N  N33  1  0.32888000  0.88984700  0.33265300  1
  N  N34  1  0.17112000  0.11015300  0.83265300  1
  N  N35  1  0.67112000  0.38984700  0.16734700  1
