# generated using pymatgen
data_TlP2HO7
_symmetry_space_group_name_H-M   'P 1'
_cell_length_a   9.17070300
_cell_length_b   7.34018600
_cell_length_c   10.00999800
_cell_angle_alpha   61.45946249
_cell_angle_beta   90.00000000
_cell_angle_gamma   90.00000000
_symmetry_Int_Tables_number   1
_chemical_formula_structural   TlP2HO7
_chemical_formula_sum   'Tl4 P8 H4 O28'
_cell_volume   591.93662937
_cell_formula_units_Z   4
loop_
 _symmetry_equiv_pos_site_id
 _symmetry_equiv_pos_as_xyz
  1  'x, y, z'
loop_
 _atom_site_type_symbol
 _atom_site_label
 _atom_site_symmetry_multiplicity
 _atom_site_fract_x
 _atom_site_fract_y
 _atom_site_fract_z
 _atom_site_occupancy
  Tl  Tl0  1  0.20480900  0.03417800  0.99762500  1
  Tl  Tl1  1  0.29519100  0.03417800  0.49762500  1
  Tl  Tl2  1  0.79519100  0.96582200  0.00237500  1
  Tl  Tl3  1  0.70480900  0.96582200  0.50237500  1
  P  P4  1  0.50575700  0.94250200  0.23042800  1
  P  P5  1  0.99424300  0.94250200  0.73042800  1
  P  P6  1  0.49424300  0.05749800  0.76957200  1
  P  P7  1  0.00575700  0.05749800  0.26957200  1
  P  P8  1  0.35597500  0.56606400  0.24827500  1
  P  P9  1  0.14402500  0.56606400  0.74827500  1
  P  P10  1  0.64402500  0.43393600  0.75172500  1
  P  P11  1  0.85597500  0.43393600  0.25172500  1
  H  H12  1  0.54360200  0.44903400  0.17657800  1
  H  H13  1  0.95639800  0.44903400  0.67657800  1
  H  H14  1  0.45639800  0.55096600  0.82342200  1
  H  H15  1  0.04360200  0.55096600  0.32342200  1
  O  O16  1  0.40836800  0.08034200  0.09802000  1
  O  O17  1  0.09163200  0.08034200  0.59802000  1
  O  O18  1  0.59163200  0.91965800  0.90198000  1
  O  O19  1  0.90836800  0.91965800  0.40198000  1
  O  O20  1  0.66848500  0.95862300  0.19474900  1
  O  O21  1  0.83151500  0.95862300  0.69474900  1
  O  O22  1  0.33151500  0.04137700  0.80525100  1
  O  O23  1  0.16848500  0.04137700  0.30525100  1
  O  O24  1  0.49289000  0.98639900  0.36826700  1
  O  O25  1  0.00711000  0.98639900  0.86826700  1
  O  O26  1  0.50711000  0.01360100  0.63173300  1
  O  O27  1  0.99289000  0.01360100  0.13173300  1
  O  O28  1  0.45655300  0.70340500  0.29749600  1
  O  O29  1  0.04344700  0.70340500  0.79749600  1
  O  O30  1  0.54344700  0.29659500  0.70250400  1
  O  O31  1  0.95655300  0.29659500  0.20250400  1
  O  O32  1  0.22120700  0.68755900  0.16185600  1
  O  O33  1  0.27879300  0.68755900  0.66185600  1
  O  O34  1  0.77879300  0.31244100  0.83814400  1
  O  O35  1  0.72120700  0.31244100  0.33814400  1
  O  O36  1  0.44962500  0.51933900  0.13649900  1
  O  O37  1  0.05037500  0.51933900  0.63649900  1
  O  O38  1  0.55037500  0.48066100  0.86350100  1
  O  O39  1  0.94962500  0.48066100  0.36350100  1
  O  O40  1  0.31870900  0.37625200  0.39702500  1
  O  O41  1  0.18129100  0.37625200  0.89702500  1
  O  O42  1  0.68129100  0.62374800  0.60297500  1
  O  O43  1  0.81870900  0.62374800  0.10297500  1
