# generated using pymatgen
data_Ti2ReOs
_symmetry_space_group_name_H-M   'P 1'
_cell_length_a   3.10304200
_cell_length_b   3.10304200
_cell_length_c   6.23375300
_cell_angle_alpha   90.00000000
_cell_angle_beta   90.00000000
_cell_angle_gamma   90.00000000
_symmetry_Int_Tables_number   1
_chemical_formula_structural   Ti2ReOs
_chemical_formula_sum   'Ti2 Re1 Os1'
_cell_volume   60.02399509
_cell_formula_units_Z   1
loop_
 _symmetry_equiv_pos_site_id
 _symmetry_equiv_pos_as_xyz
  1  'x, y, z'
loop_
 _atom_site_type_symbol
 _atom_site_label
 _atom_site_symmetry_multiplicity
 _atom_site_fract_x
 _atom_site_fract_y
 _atom_site_fract_z
 _atom_site_occupancy
  Ti  Ti0  1  0.50000000  0.50000000  0.24942400  1
  Ti  Ti1  1  0.50000000  0.50000000  0.75057600  1
  Re  Re2  1  0.00000000  0.00000000  0.50000000  1
  Os  Os3  1  0.00000000  0.00000000  0.00000000  1
