# generated using pymatgen
data_Li2Ni3TeO8
_symmetry_space_group_name_H-M   'P 1'
_cell_length_a   5.92347533
_cell_length_b   10.49528431
_cell_length_c   5.92330813
_cell_angle_alpha   107.19058841
_cell_angle_beta   59.59495237
_cell_angle_gamma   90.97439967
_symmetry_Int_Tables_number   1
_chemical_formula_structural   Li2Ni3TeO8
_chemical_formula_sum   'Li4 Ni6 Te2 O16'
_cell_volume   299.45709978
_cell_formula_units_Z   2
loop_
 _symmetry_equiv_pos_site_id
 _symmetry_equiv_pos_as_xyz
  1  'x, y, z'
loop_
 _atom_site_type_symbol
 _atom_site_label
 _atom_site_symmetry_multiplicity
 _atom_site_fract_x
 _atom_site_fract_y
 _atom_site_fract_z
 _atom_site_occupancy
  Li  Li0  1  0.92727600  0.20254400  0.12986700  1
  Li  Li1  1  0.42722100  0.70253300  0.12975000  1
  Li  Li2  1  0.57273100  0.29731200  0.87016200  1
  Li  Li3  1  0.07284600  0.79730800  0.87023600  1
  Ni  Ni4  1  0.99992200  0.00007100  0.49993400  1
  Ni  Ni5  1  0.49998000  0.00000700  0.49993100  1
  Ni  Ni6  1  0.49991200  0.00010100  0.99992400  1
  Ni  Ni7  1  0.50012400  0.49994200  0.49997600  1
  Ni  Ni8  1  0.00008700  0.50037900  0.50049600  1
  Ni  Ni9  1  0.00003900  0.49992000  0.00007500  1
  Te  Te10  1  0.74992600  0.75004300  0.49997100  1
  Te  Te11  1  0.24995200  0.25003100  0.50001500  1
  O  O12  1  0.85360500  0.40608000  0.25981900  1
  O  O13  1  0.35332300  0.90611600  0.25935800  1
  O  O14  1  0.64649200  0.09409000  0.74035100  1
  O  O15  1  0.14686800  0.59413700  0.74096600  1
  O  O16  1  0.63143200  0.62613100  0.71697800  1
  O  O17  1  0.13139200  0.12617400  0.71710400  1
  O  O18  1  0.63291300  0.63432600  0.26731500  1
  O  O19  1  0.13293800  0.13436900  0.26736700  1
  O  O20  1  0.09078000  0.62612700  0.25758600  1
  O  O21  1  0.59084600  0.12619500  0.25754300  1
  O  O22  1  0.40916200  0.87371100  0.74223800  1
  O  O23  1  0.90914600  0.37375000  0.74229000  1
  O  O24  1  0.86708800  0.86549700  0.73248700  1
  O  O25  1  0.36696200  0.36561700  0.73255200  1
  O  O26  1  0.86856200  0.87371100  0.28280600  1
  O  O27  1  0.36847600  0.37377600  0.28290300  1
