# generated using pymatgen
data_Lu2Fe2Si2C
_symmetry_space_group_name_H-M   'P 1'
_cell_length_a   5.55301450
_cell_length_b   5.55301450
_cell_length_c   6.59860363
_cell_angle_alpha   53.69718036
_cell_angle_beta   53.69718036
_cell_angle_gamma   40.90610317
_symmetry_Int_Tables_number   1
_chemical_formula_structural   Lu2Fe2Si2C
_chemical_formula_sum   'Lu2 Fe2 Si2 C1'
_cell_volume   103.26846737
_cell_formula_units_Z   1
loop_
 _symmetry_equiv_pos_site_id
 _symmetry_equiv_pos_as_xyz
  1  'x, y, z'
loop_
 _atom_site_type_symbol
 _atom_site_label
 _atom_site_symmetry_multiplicity
 _atom_site_fract_x
 _atom_site_fract_y
 _atom_site_fract_z
 _atom_site_occupancy
  Lu  Lu0  1  0.55906700  0.55906700  0.17359600  1
  Lu  Lu1  1  0.44093300  0.44093300  0.82640400  1
  Fe  Fe2  1  0.20320400  0.20320400  0.69297300  1
  Fe  Fe3  1  0.79679600  0.79679600  0.30702700  1
  Si  Si4  1  0.15716300  0.15716300  0.39364700  1
  Si  Si5  1  0.84283700  0.84283700  0.60635300  1
  C  C6  1  0.00000000  0.00000000  0.00000000  1
