# generated using pymatgen
data_SmCuSe2
_symmetry_space_group_name_H-M   'P 1'
_cell_length_a   7.43832600
_cell_length_b   6.68792800
_cell_length_c   7.17178306
_cell_angle_alpha   83.68950017
_cell_angle_beta   90.00000000
_cell_angle_gamma   90.00000000
_symmetry_Int_Tables_number   1
_chemical_formula_structural   SmCuSe2
_chemical_formula_sum   'Sm4 Cu4 Se8'
_cell_volume   354.61285267
_cell_formula_units_Z   4
loop_
 _symmetry_equiv_pos_site_id
 _symmetry_equiv_pos_as_xyz
  1  'x, y, z'
loop_
 _atom_site_type_symbol
 _atom_site_label
 _atom_site_symmetry_multiplicity
 _atom_site_fract_x
 _atom_site_fract_y
 _atom_site_fract_z
 _atom_site_occupancy
  Sm  Sm0  1  0.54367400  0.30556000  0.29910600  1
  Sm  Sm1  1  0.04367400  0.69444000  0.20089400  1
  Sm  Sm2  1  0.45632600  0.69444000  0.70089400  1
  Sm  Sm3  1  0.95632600  0.30556000  0.79910600  1
  Cu  Cu4  1  0.84012200  0.92902400  0.54547300  1
  Cu  Cu5  1  0.15987800  0.07097600  0.45452700  1
  Cu  Cu6  1  0.65987800  0.92902400  0.04547300  1
  Cu  Cu7  1  0.34012200  0.07097600  0.95452700  1
  Se  Se8  1  0.72383900  0.57699700  0.00230100  1
  Se  Se9  1  0.77616100  0.57699700  0.50230100  1
  Se  Se10  1  0.22383900  0.42300300  0.49769900  1
  Se  Se11  1  0.27616100  0.42300300  0.99769900  1
  Se  Se12  1  0.61205900  0.09878800  0.71979200  1
  Se  Se13  1  0.11205900  0.90121200  0.78020800  1
  Se  Se14  1  0.38794100  0.90121200  0.28020800  1
  Se  Se15  1  0.88794100  0.09878800  0.21979200  1
