# generated using pymatgen
data_Rb3Na(MoO4)2
_symmetry_space_group_name_H-M   'P 1'
_cell_length_a   6.29070322
_cell_length_b   6.29072971
_cell_length_c   8.00757601
_cell_angle_alpha   89.99979327
_cell_angle_beta   89.99628799
_cell_angle_gamma   120.00037292
_symmetry_Int_Tables_number   1
_chemical_formula_structural   Rb3Na(MoO4)2
_chemical_formula_sum   'Rb3 Na1 Mo2 O8'
_cell_volume   274.42918123
_cell_formula_units_Z   1
loop_
 _symmetry_equiv_pos_site_id
 _symmetry_equiv_pos_as_xyz
  1  'x, y, z'
loop_
 _atom_site_type_symbol
 _atom_site_label
 _atom_site_symmetry_multiplicity
 _atom_site_fract_x
 _atom_site_fract_y
 _atom_site_fract_z
 _atom_site_occupancy
  Rb  Rb0  1  0.66661900  0.33331000  0.33185800  1
  Rb  Rb1  1  0.33338100  0.66669000  0.66814200  1
  Rb  Rb2  1  0.00000000  0.00000000  0.00000000  1
  Na  Na3  1  0.00000000  0.00000000  0.50000000  1
  Mo  Mo4  1  0.33334100  0.66666900  0.22541100  1
  Mo  Mo5  1  0.66665900  0.33333100  0.77458900  1
  O  O6  1  0.17838100  0.82155100  0.30586600  1
  O  O7  1  0.17848000  0.35683000  0.30586600  1
  O  O8  1  0.64320900  0.82165300  0.30588300  1
  O  O9  1  0.82161900  0.17844900  0.69413400  1
  O  O10  1  0.82152000  0.64317000  0.69413400  1
  O  O11  1  0.35679100  0.17834700  0.69411700  1
  O  O12  1  0.33339200  0.66669600  0.00273800  1
  O  O13  1  0.66660800  0.33330400  0.99726200  1
