# generated using pymatgen
data_CsNaEuNb5O15
_symmetry_space_group_name_H-M   'P 1'
_cell_length_a   7.74324000
_cell_length_b   7.94272500
_cell_length_c   10.72505400
_cell_angle_alpha   90.00000000
_cell_angle_beta   90.00000000
_cell_angle_gamma   90.00000000
_symmetry_Int_Tables_number   1
_chemical_formula_structural   CsNaEuNb5O15
_chemical_formula_sum   'Cs2 Na2 Eu2 Nb10 O30'
_cell_volume   659.61683922
_cell_formula_units_Z   2
loop_
 _symmetry_equiv_pos_site_id
 _symmetry_equiv_pos_as_xyz
  1  'x, y, z'
loop_
 _atom_site_type_symbol
 _atom_site_label
 _atom_site_symmetry_multiplicity
 _atom_site_fract_x
 _atom_site_fract_y
 _atom_site_fract_z
 _atom_site_occupancy
  Cs  Cs0  1  0.00000000  0.27270900  0.49667500  1
  Cs  Cs1  1  0.00000000  0.77270900  0.50332500  1
  Na  Na2  1  0.50000000  0.27844000  0.00802500  1
  Na  Na3  1  0.50000000  0.77844000  0.99197500  1
  Eu  Eu4  1  0.00000000  0.77707600  0.98643200  1
  Eu  Eu5  1  0.00000000  0.27707600  0.01356800  1
  Nb  Nb6  1  0.74516200  0.52721300  0.80502400  1
  Nb  Nb7  1  0.25483800  0.52721300  0.80502400  1
  Nb  Nb8  1  0.25483800  0.02721300  0.19497600  1
  Nb  Nb9  1  0.74516200  0.02721300  0.19497600  1
  Nb  Nb10  1  0.74593300  0.03016700  0.80649900  1
  Nb  Nb11  1  0.25406700  0.03016700  0.80649900  1
  Nb  Nb12  1  0.25406700  0.53016700  0.19350100  1
  Nb  Nb13  1  0.74593300  0.53016700  0.19350100  1
  Nb  Nb14  1  0.50000000  0.50018700  0.49924300  1
  Nb  Nb15  1  0.50000000  0.00018700  0.50075700  1
  O  O16  1  0.50000000  0.27041900  0.49525300  1
  O  O17  1  0.50000000  0.77041900  0.50474700  1
  O  O18  1  0.68513000  0.02804400  0.63357000  1
  O  O19  1  0.31487000  0.02804400  0.63357000  1
  O  O20  1  0.31487000  0.52804400  0.36643000  1
  O  O21  1  0.68513000  0.52804400  0.36643000  1
  O  O22  1  0.73372800  0.77623700  0.83635300  1
  O  O23  1  0.26627200  0.77623700  0.83635300  1
  O  O24  1  0.26627200  0.27623700  0.16364700  1
  O  O25  1  0.73372800  0.27623700  0.16364700  1
  O  O26  1  0.79032400  0.27629300  0.82836900  1
  O  O27  1  0.20967600  0.27629300  0.82836900  1
  O  O28  1  0.20967600  0.77629300  0.17163100  1
  O  O29  1  0.79032400  0.77629300  0.17163100  1
  O  O30  1  0.50000000  0.05174200  0.85838200  1
  O  O31  1  0.50000000  0.55174200  0.14161800  1
  O  O32  1  0.68794900  0.51953100  0.63194900  1
  O  O33  1  0.31205100  0.51953100  0.63194900  1
  O  O34  1  0.31205100  0.01953100  0.36805100  1
  O  O35  1  0.68794900  0.01953100  0.36805100  1
  O  O36  1  0.81423000  0.52586400  0.00005600  1
  O  O37  1  0.18577000  0.52586400  0.00005600  1
  O  O38  1  0.18577000  0.02586400  0.99994400  1
  O  O39  1  0.81423000  0.02586400  0.99994400  1
  O  O40  1  0.00000000  0.99175600  0.77963900  1
  O  O41  1  0.00000000  0.49175600  0.22036100  1
  O  O42  1  0.50000000  0.50348100  0.85739300  1
  O  O43  1  0.50000000  0.00348100  0.14260700  1
  O  O44  1  0.00000000  0.56130200  0.78048300  1
  O  O45  1  0.00000000  0.06130200  0.21951700  1
