# generated using pymatgen
data_TmCdAu
_symmetry_space_group_name_H-M   'P 1'
_cell_length_a   3.76097000
_cell_length_b   7.87127602
_cell_length_c   7.87127602
_cell_angle_alpha   120.00000017
_cell_angle_beta   90.00000000
_cell_angle_gamma   90.00000000
_symmetry_Int_Tables_number   1
_chemical_formula_structural   TmCdAu
_chemical_formula_sum   'Tm3 Cd3 Au3'
_cell_volume   201.79982446
_cell_formula_units_Z   3
loop_
 _symmetry_equiv_pos_site_id
 _symmetry_equiv_pos_as_xyz
  1  'x, y, z'
loop_
 _atom_site_type_symbol
 _atom_site_label
 _atom_site_symmetry_multiplicity
 _atom_site_fract_x
 _atom_site_fract_y
 _atom_site_fract_z
 _atom_site_occupancy
  Tm  Tm0  1  0.00000000  0.40027800  0.40027800  1
  Tm  Tm1  1  0.00000000  0.00000000  0.59972200  1
  Tm  Tm2  1  0.00000000  0.59972200  0.00000000  1
  Cd  Cd3  1  0.50000000  0.73054200  0.73054200  1
  Cd  Cd4  1  0.50000000  0.00000000  0.26945800  1
  Cd  Cd5  1  0.50000000  0.26945800  0.00000000  1
  Au  Au6  1  0.50000000  0.66666700  0.33333300  1
  Au  Au7  1  0.50000000  0.33333300  0.66666700  1
  Au  Au8  1  0.00000000  0.00000000  0.00000000  1
