# generated using pymatgen
data_Nd6Cd(SiS7)2
_symmetry_space_group_name_H-M   'P 1'
_cell_length_a   10.28209347
_cell_length_b   10.28209347
_cell_length_c   5.72019700
_cell_angle_alpha   90.00000000
_cell_angle_beta   90.00000000
_cell_angle_gamma   119.99999661
_symmetry_Int_Tables_number   1
_chemical_formula_structural   Nd6Cd(SiS7)2
_chemical_formula_sum   'Nd6 Cd1 Si2 S14'
_cell_volume   523.72671520
_cell_formula_units_Z   1
loop_
 _symmetry_equiv_pos_site_id
 _symmetry_equiv_pos_as_xyz
  1  'x, y, z'
loop_
 _atom_site_type_symbol
 _atom_site_label
 _atom_site_symmetry_multiplicity
 _atom_site_fract_x
 _atom_site_fract_y
 _atom_site_fract_z
 _atom_site_occupancy
  Nd  Nd0  1  0.76483000  0.12212200  0.77223500  1
  Nd  Nd1  1  0.35729200  0.23517000  0.77223500  1
  Nd  Nd2  1  0.87787800  0.64270800  0.77223500  1
  Nd  Nd3  1  0.23621700  0.87770600  0.26795100  1
  Nd  Nd4  1  0.64149000  0.76378300  0.26795100  1
  Nd  Nd5  1  0.12229400  0.35851000  0.26795100  1
  Cd  Cd6  1  0.00000000  0.00000000  0.51703400  1
  Si  Si7  1  0.66666700  0.33333300  0.18673200  1
  Si  Si8  1  0.33333300  0.66666700  0.68104200  1
  S  S9  1  0.83056900  0.08799600  0.28644700  1
  S  S10  1  0.25742700  0.16943100  0.28644700  1
  S  S11  1  0.91200400  0.74257300  0.28644700  1
  S  S12  1  0.16973900  0.91486600  0.77631000  1
  S  S13  1  0.74512700  0.83026100  0.77631000  1
  S  S14  1  0.08513400  0.25487300  0.77631000  1
  S  S15  1  0.66666700  0.33333300  0.55452000  1
  S  S16  1  0.33333300  0.66666700  0.04967600  1
  S  S17  1  0.88524500  0.40855400  0.04018600  1
  S  S18  1  0.52330900  0.11475500  0.04018600  1
  S  S19  1  0.59144600  0.47669100  0.04018600  1
  S  S20  1  0.11462400  0.59178700  0.53653700  1
  S  S21  1  0.47716200  0.88537600  0.53653700  1
  S  S22  1  0.40821300  0.52283800  0.53653700  1
