# generated using pymatgen
data_Mg2TaN3
_symmetry_space_group_name_H-M   'P 1'
_cell_length_a   5.90857675
_cell_length_b   5.90857675
_cell_length_c   5.31545200
_cell_angle_alpha   90.00000000
_cell_angle_beta   90.00000000
_cell_angle_gamma   119.20003003
_symmetry_Int_Tables_number   1
_chemical_formula_structural   Mg2TaN3
_chemical_formula_sum   'Mg4 Ta2 N6'
_cell_volume   161.98742956
_cell_formula_units_Z   2
loop_
 _symmetry_equiv_pos_site_id
 _symmetry_equiv_pos_as_xyz
  1  'x, y, z'
loop_
 _atom_site_type_symbol
 _atom_site_label
 _atom_site_symmetry_multiplicity
 _atom_site_fract_x
 _atom_site_fract_y
 _atom_site_fract_z
 _atom_site_occupancy
  Mg  Mg0  1  0.99169100  0.33073600  0.98639000  1
  Mg  Mg1  1  0.33073600  0.99169100  0.98639000  1
  Mg  Mg2  1  0.00830900  0.66926400  0.48639000  1
  Mg  Mg3  1  0.66926400  0.00830900  0.48639000  1
  Ta  Ta4  1  0.66704300  0.66704300  0.98543900  1
  Ta  Ta5  1  0.33295700  0.33295700  0.48543900  1
  N  N6  1  0.02037400  0.33175200  0.38460300  1
  N  N7  1  0.33175200  0.02037400  0.38460300  1
  N  N8  1  0.97962600  0.66824800  0.88460300  1
  N  N9  1  0.66824800  0.97962600  0.88460300  1
  N  N10  1  0.65040800  0.65040800  0.36057500  1
  N  N11  1  0.34959200  0.34959200  0.86057500  1
