# generated using pymatgen
data_ZrP
_symmetry_space_group_name_H-M   'P 1'
_cell_length_a   3.70740396
_cell_length_b   3.70740396
_cell_length_c   12.63453500
_cell_angle_alpha   90.00000000
_cell_angle_beta   90.00000000
_cell_angle_gamma   119.99999929
_symmetry_Int_Tables_number   1
_chemical_formula_structural   ZrP
_chemical_formula_sum   'Zr4 P4'
_cell_volume   150.39372514
_cell_formula_units_Z   4
loop_
 _symmetry_equiv_pos_site_id
 _symmetry_equiv_pos_as_xyz
  1  'x, y, z'
loop_
 _atom_site_type_symbol
 _atom_site_label
 _atom_site_symmetry_multiplicity
 _atom_site_fract_x
 _atom_site_fract_y
 _atom_site_fract_z
 _atom_site_occupancy
  Zr  Zr0  1  0.33333300  0.66666700  0.38434400  1
  Zr  Zr1  1  0.66666700  0.33333300  0.88434400  1
  Zr  Zr2  1  0.66666700  0.33333300  0.61565600  1
  Zr  Zr3  1  0.33333300  0.66666700  0.11565600  1
  P  P4  1  0.66666700  0.33333300  0.25000000  1
  P  P5  1  0.33333300  0.66666700  0.75000000  1
  P  P6  1  0.00000000  0.00000000  0.50000000  1
  P  P7  1  0.00000000  0.00000000  0.00000000  1
