# generated using pymatgen
data_Ta7(B4Ru3)2
_symmetry_space_group_name_H-M   'P 1'
_cell_length_a   9.58625221
_cell_length_b   9.58625221
_cell_length_c   3.12549800
_cell_angle_alpha   90.00000000
_cell_angle_beta   90.00000000
_cell_angle_gamma   120.00000144
_symmetry_Int_Tables_number   1
_chemical_formula_structural   Ta7(B4Ru3)2
_chemical_formula_sum   'Ta7 B8 Ru6'
_cell_volume   248.74110105
_cell_formula_units_Z   1
loop_
 _symmetry_equiv_pos_site_id
 _symmetry_equiv_pos_as_xyz
  1  'x, y, z'
loop_
 _atom_site_type_symbol
 _atom_site_label
 _atom_site_symmetry_multiplicity
 _atom_site_fract_x
 _atom_site_fract_y
 _atom_site_fract_z
 _atom_site_occupancy
  Ta  Ta0  1  0.00000000  0.00000000  0.00000000  1
  Ta  Ta1  1  0.72405800  0.63805100  0.00000000  1
  Ta  Ta2  1  0.36194900  0.08600700  0.00000000  1
  Ta  Ta3  1  0.91399300  0.27594200  0.00000000  1
  Ta  Ta4  1  0.27594200  0.36194900  0.00000000  1
  Ta  Ta5  1  0.63805100  0.91399300  0.00000000  1
  Ta  Ta6  1  0.08600700  0.72405800  0.00000000  1
  B  B7  1  0.66666700  0.33333300  0.00000000  1
  B  B8  1  0.33333300  0.66666700  0.00000000  1
  B  B9  1  0.15269100  0.93391500  0.50000000  1
  B  B10  1  0.06608500  0.21877600  0.50000000  1
  B  B11  1  0.78122400  0.84730900  0.50000000  1
  B  B12  1  0.84730900  0.06608500  0.50000000  1
  B  B13  1  0.93391500  0.78122400  0.50000000  1
  B  B14  1  0.21877600  0.15269100  0.50000000  1
  Ru  Ru15  1  0.35958400  0.84610100  0.50000000  1
  Ru  Ru16  1  0.15389900  0.51348300  0.50000000  1
  Ru  Ru17  1  0.48651700  0.64041600  0.50000000  1
  Ru  Ru18  1  0.64041600  0.15389900  0.50000000  1
  Ru  Ru19  1  0.84610100  0.48651700  0.50000000  1
  Ru  Ru20  1  0.51348300  0.35958400  0.50000000  1
