# generated using pymatgen
data_Nd2HgO4
_symmetry_space_group_name_H-M   'P 1'
_cell_length_a   7.27161057
_cell_length_b   7.27161057
_cell_length_c   10.35511088
_cell_angle_alpha   60.20292797
_cell_angle_beta   60.20292797
_cell_angle_gamma   30.65006109
_symmetry_Int_Tables_number   1
_chemical_formula_structural   Nd2HgO4
_chemical_formula_sum   'Nd4 Hg2 O8'
_cell_volume   239.22737229
_cell_formula_units_Z   2
loop_
 _symmetry_equiv_pos_site_id
 _symmetry_equiv_pos_as_xyz
  1  'x, y, z'
loop_
 _atom_site_type_symbol
 _atom_site_label
 _atom_site_symmetry_multiplicity
 _atom_site_fract_x
 _atom_site_fract_y
 _atom_site_fract_z
 _atom_site_occupancy
  Nd  Nd0  1  0.38021300  0.38021300  0.45978700  1
  Nd  Nd1  1  0.61978700  0.61978700  0.54021300  1
  Nd  Nd2  1  0.15866800  0.15866800  0.20156800  1
  Nd  Nd3  1  0.84133200  0.84133200  0.79843200  1
  Hg  Hg4  1  0.88504100  0.88504100  0.16137300  1
  Hg  Hg5  1  0.11495900  0.11495900  0.83862700  1
  O  O6  1  0.79602500  0.79602500  0.05803300  1
  O  O7  1  0.20397500  0.20397500  0.94196700  1
  O  O8  1  0.96346400  0.96346400  0.27890300  1
  O  O9  1  0.03653600  0.03653600  0.72109700  1
  O  O10  1  0.58043600  0.58043600  0.34617100  1
  O  O11  1  0.41956400  0.41956400  0.65382900  1
  O  O12  1  0.77168500  0.77168500  0.61052900  1
  O  O13  1  0.22831500  0.22831500  0.38947100  1
