# generated using pymatgen
data_Ba(ScTe2)2
_symmetry_space_group_name_H-M   'P 1'
_cell_length_a   4.32163900
_cell_length_b   13.46869500
_cell_length_c   15.70948900
_cell_angle_alpha   90.00000000
_cell_angle_beta   90.00000000
_cell_angle_gamma   90.00000000
_symmetry_Int_Tables_number   1
_chemical_formula_structural   Ba(ScTe2)2
_chemical_formula_sum   'Ba4 Sc8 Te16'
_cell_volume   914.39967486
_cell_formula_units_Z   4
loop_
 _symmetry_equiv_pos_site_id
 _symmetry_equiv_pos_as_xyz
  1  'x, y, z'
loop_
 _atom_site_type_symbol
 _atom_site_label
 _atom_site_symmetry_multiplicity
 _atom_site_fract_x
 _atom_site_fract_y
 _atom_site_fract_z
 _atom_site_occupancy
  Ba  Ba0  1  0.25000000  0.23777000  0.32821000  1
  Ba  Ba1  1  0.75000000  0.76223000  0.67179000  1
  Ba  Ba2  1  0.25000000  0.73777000  0.17179000  1
  Ba  Ba3  1  0.75000000  0.26223000  0.82821000  1
  Sc  Sc4  1  0.25000000  0.55636900  0.38996900  1
  Sc  Sc5  1  0.75000000  0.44363100  0.61003100  1
  Sc  Sc6  1  0.25000000  0.05636900  0.11003100  1
  Sc  Sc7  1  0.75000000  0.94363100  0.88996900  1
  Sc  Sc8  1  0.75000000  0.41991400  0.09651000  1
  Sc  Sc9  1  0.25000000  0.58008600  0.90349000  1
  Sc  Sc10  1  0.75000000  0.91991400  0.40349000  1
  Sc  Sc11  1  0.25000000  0.08008600  0.59651000  1
  Te  Te12  1  0.75000000  0.02827100  0.71524200  1
  Te  Te13  1  0.25000000  0.97172900  0.28475800  1
  Te  Te14  1  0.75000000  0.52827100  0.78475800  1
  Te  Te15  1  0.25000000  0.47172900  0.21524200  1
  Te  Te16  1  0.75000000  0.41308200  0.42639300  1
  Te  Te17  1  0.25000000  0.58691800  0.57360700  1
  Te  Te18  1  0.75000000  0.91308200  0.07360700  1
  Te  Te19  1  0.25000000  0.08691800  0.92639300  1
  Te  Te20  1  0.75000000  0.20320500  0.14944800  1
  Te  Te21  1  0.25000000  0.79679500  0.85055200  1
  Te  Te22  1  0.75000000  0.70320500  0.35055200  1
  Te  Te23  1  0.25000000  0.29679500  0.64944800  1
  Te  Te24  1  0.75000000  0.12150400  0.47406800  1
  Te  Te25  1  0.25000000  0.87849600  0.52593200  1
  Te  Te26  1  0.75000000  0.62150400  0.02593200  1
  Te  Te27  1  0.25000000  0.37849600  0.97406800  1
