# generated using pymatgen
data_Cs8Zr(MoO4)6
_symmetry_space_group_name_H-M   'P 1'
_cell_length_a   11.32008535
_cell_length_b   11.32008535
_cell_length_c   8.57528827
_cell_angle_alpha   80.78844210
_cell_angle_beta   80.78844210
_cell_angle_gamma   123.45751162
_symmetry_Int_Tables_number   1
_chemical_formula_structural   Cs8Zr(MoO4)6
_chemical_formula_sum   'Cs8 Zr1 Mo6 O24'
_cell_volume   862.83748738
_cell_formula_units_Z   1
loop_
 _symmetry_equiv_pos_site_id
 _symmetry_equiv_pos_as_xyz
  1  'x, y, z'
loop_
 _atom_site_type_symbol
 _atom_site_label
 _atom_site_symmetry_multiplicity
 _atom_site_fract_x
 _atom_site_fract_y
 _atom_site_fract_z
 _atom_site_occupancy
  Cs  Cs0  1  0.21352800  0.21352800  0.35794700  1
  Cs  Cs1  1  0.78647200  0.78647200  0.64205300  1
  Cs  Cs2  1  0.66543800  0.33456200  0.50000000  1
  Cs  Cs3  1  0.33456200  0.66543800  0.50000000  1
  Cs  Cs4  1  0.86734700  0.52116400  0.88992400  1
  Cs  Cs5  1  0.52116400  0.86734700  0.88992400  1
  Cs  Cs6  1  0.13265300  0.47883600  0.11007600  1
  Cs  Cs7  1  0.47883600  0.13265300  0.11007600  1
  Zr  Zr8  1  0.00000000  0.00000000  0.00000000  1
  Mo  Mo9  1  0.94933500  0.25585100  0.72099700  1
  Mo  Mo10  1  0.25585100  0.94933500  0.72099700  1
  Mo  Mo11  1  0.05066500  0.74414900  0.27900300  1
  Mo  Mo12  1  0.74414900  0.05066500  0.27900300  1
  Mo  Mo13  1  0.37668200  0.37668200  0.79774600  1
  Mo  Mo14  1  0.62331800  0.62331800  0.20225400  1
  O  O15  1  0.94283200  0.09138700  0.81766600  1
  O  O16  1  0.09138700  0.94283200  0.81766600  1
  O  O17  1  0.05716800  0.90861300  0.18233400  1
  O  O18  1  0.90861300  0.05716800  0.18233400  1
  O  O19  1  0.76826900  0.21282800  0.77648100  1
  O  O20  1  0.21282800  0.76826900  0.77648100  1
  O  O21  1  0.23173100  0.78717200  0.22351900  1
  O  O22  1  0.78717200  0.23173100  0.22351900  1
  O  O23  1  0.06252300  0.40613700  0.79495600  1
  O  O24  1  0.40613700  0.06252300  0.79495600  1
  O  O25  1  0.93747700  0.59386300  0.20504400  1
  O  O26  1  0.59386300  0.93747700  0.20504400  1
  O  O27  1  0.02499600  0.31151000  0.50178100  1
  O  O28  1  0.31151000  0.02499600  0.50178100  1
  O  O29  1  0.97500400  0.68849000  0.49821900  1
  O  O30  1  0.68849000  0.97500400  0.49821900  1
  O  O31  1  0.39799800  0.54241000  0.81369000  1
  O  O32  1  0.54241000  0.39799800  0.81369000  1
  O  O33  1  0.60200200  0.45759000  0.18631000  1
  O  O34  1  0.45759000  0.60200200  0.18631000  1
  O  O35  1  0.20770900  0.20770900  0.96218200  1
  O  O36  1  0.79229100  0.79229100  0.03781800  1
  O  O37  1  0.35236500  0.35236500  0.60378200  1
  O  O38  1  0.64763500  0.64763500  0.39621800  1
