# generated using pymatgen
data_Nd5Sb3
_symmetry_space_group_name_H-M   'P 1'
_cell_length_a   6.47916100
_cell_length_b   9.35873589
_cell_length_c   9.35475232
_cell_angle_alpha   120.01408774
_cell_angle_beta   90.00000000
_cell_angle_gamma   90.00000000
_symmetry_Int_Tables_number   1
_chemical_formula_structural   Nd5Sb3
_chemical_formula_sum   'Nd10 Sb6'
_cell_volume   491.17609221
_cell_formula_units_Z   2
loop_
 _symmetry_equiv_pos_site_id
 _symmetry_equiv_pos_as_xyz
  1  'x, y, z'
loop_
 _atom_site_type_symbol
 _atom_site_label
 _atom_site_symmetry_multiplicity
 _atom_site_fract_x
 _atom_site_fract_y
 _atom_site_fract_z
 _atom_site_occupancy
  Nd  Nd0  1  0.50000100  0.33333000  0.66668400  1
  Nd  Nd1  1  0.50000100  0.66664600  0.33331600  1
  Nd  Nd2  1  0.00000100  0.66667000  0.33331600  1
  Nd  Nd3  1  0.00000100  0.33335400  0.66668400  1
  Nd  Nd4  1  0.75000000  0.25049800  0.00000000  1
  Nd  Nd5  1  0.75000000  0.74958000  0.74952400  1
  Nd  Nd6  1  0.75000000  0.00005700  0.25047600  1
  Nd  Nd7  1  0.25000000  0.74950200  0.00000000  1
  Nd  Nd8  1  0.25000000  0.25042000  0.25047600  1
  Nd  Nd9  1  0.25000000  0.99994300  0.74952400  1
  Sb  Sb10  1  0.74999700  0.61240200  0.00000000  1
  Sb  Sb11  1  0.75000100  0.38763500  0.38762900  1
  Sb  Sb12  1  0.75000100  0.00000600  0.61237100  1
  Sb  Sb13  1  0.24999700  0.38759800  0.00000000  1
  Sb  Sb14  1  0.25000100  0.61236500  0.61237100  1
  Sb  Sb15  1  0.25000100  0.99999400  0.38762900  1
