# generated using pymatgen
data_KPrS2
_symmetry_space_group_name_H-M   'P 1'
_cell_length_a   7.79346719
_cell_length_b   7.79346719
_cell_length_c   7.79346690
_cell_angle_alpha   31.51967589
_cell_angle_beta   31.51967589
_cell_angle_gamma   31.51967374
_symmetry_Int_Tables_number   1
_chemical_formula_structural   KPrS2
_chemical_formula_sum   'K1 Pr1 S2'
_cell_volume   114.86221563
_cell_formula_units_Z   1
loop_
 _symmetry_equiv_pos_site_id
 _symmetry_equiv_pos_as_xyz
  1  'x, y, z'
loop_
 _atom_site_type_symbol
 _atom_site_label
 _atom_site_symmetry_multiplicity
 _atom_site_fract_x
 _atom_site_fract_y
 _atom_site_fract_z
 _atom_site_occupancy
  K  K0  1  0.50000000  0.50000000  0.50000000  1
  Pr  Pr1  1  0.00000000  0.00000000  0.00000000  1
  S  S2  1  0.73621600  0.73621600  0.73621600  1
  S  S3  1  0.26378400  0.26378400  0.26378400  1
