# generated using pymatgen
data_NaNd(PO3)4
_symmetry_space_group_name_H-M   'P 1'
_cell_length_a   13.36496600
_cell_length_b   7.31852700
_cell_length_c   12.39580531
_cell_angle_alpha   54.23138036
_cell_angle_beta   90.00000000
_cell_angle_gamma   90.00000000
_symmetry_Int_Tables_number   1
_chemical_formula_structural   NaNd(PO3)4
_chemical_formula_sum   'Na4 Nd4 P16 O48'
_cell_volume   983.76816073
_cell_formula_units_Z   4
loop_
 _symmetry_equiv_pos_site_id
 _symmetry_equiv_pos_as_xyz
  1  'x, y, z'
loop_
 _atom_site_type_symbol
 _atom_site_label
 _atom_site_symmetry_multiplicity
 _atom_site_fract_x
 _atom_site_fract_y
 _atom_site_fract_z
 _atom_site_occupancy
  Na  Na0  1  0.77685200  0.43688300  0.06384400  1
  Na  Na1  1  0.27685200  0.56311700  0.43615600  1
  Na  Na2  1  0.22314800  0.56311700  0.93615600  1
  Na  Na3  1  0.72314800  0.43688300  0.56384400  1
  Nd  Nd4  1  0.72146900  0.03486800  0.47817000  1
  Nd  Nd5  1  0.22146900  0.96513200  0.02183000  1
  Nd  Nd6  1  0.27853100  0.96513200  0.52183000  1
  Nd  Nd7  1  0.77853100  0.03486800  0.97817000  1
  P  P8  1  0.61418600  0.61238900  0.26650100  1
  P  P9  1  0.11418600  0.38761100  0.23349900  1
  P  P10  1  0.38581400  0.38761100  0.73349900  1
  P  P11  1  0.88581400  0.61238900  0.76650100  1
  P  P12  1  0.59110800  0.06721900  0.20230400  1
  P  P13  1  0.09110800  0.93278100  0.29769600  1
  P  P14  1  0.40889200  0.93278100  0.79769600  1
  P  P15  1  0.90889200  0.06721900  0.70230400  1
  P  P16  1  0.89875700  0.50703200  0.24166700  1
  P  P17  1  0.39875700  0.49296800  0.25833300  1
  P  P18  1  0.10124300  0.49296800  0.75833300  1
  P  P19  1  0.60124300  0.50703200  0.74166700  1
  P  P20  1  0.87372500  0.84016500  0.30367400  1
  P  P21  1  0.37372500  0.15983500  0.19632600  1
  P  P22  1  0.12627500  0.15983500  0.69632600  1
  P  P23  1  0.62627500  0.84016500  0.80367400  1
  O  O24  1  0.58065400  0.79600800  0.29211100  1
  O  O25  1  0.08065400  0.20399200  0.20788900  1
  O  O26  1  0.41934600  0.20399200  0.70788900  1
  O  O27  1  0.91934600  0.79600800  0.79211100  1
  O  O28  1  0.51303200  0.56778800  0.21652800  1
  O  O29  1  0.01303200  0.43221200  0.28347200  1
  O  O30  1  0.48696800  0.43221200  0.78347200  1
  O  O31  1  0.98696800  0.56778800  0.71652800  1
  O  O32  1  0.64736100  0.40733400  0.39867500  1
  O  O33  1  0.14736100  0.59266600  0.10132500  1
  O  O34  1  0.35263900  0.59266600  0.60132500  1
  O  O35  1  0.85263900  0.40733400  0.89867500  1
  O  O36  1  0.68555200  0.71400200  0.15220000  1
  O  O37  1  0.18555200  0.28599800  0.34780000  1
  O  O38  1  0.31444800  0.28599800  0.84780000  1
  O  O39  1  0.81444800  0.71400200  0.65220000  1
  O  O40  1  0.66074700  0.15403200  0.08673400  1
  O  O41  1  0.87747300  0.59510700  0.33166500  1
  O  O42  1  0.16074700  0.84596800  0.41326600  1
  O  O43  1  0.83925300  0.15403200  0.58673400  1
  O  O44  1  0.61246600  0.13085400  0.29525500  1
  O  O45  1  0.11246600  0.86914600  0.20474500  1
  O  O46  1  0.38753400  0.86914600  0.70474500  1
  O  O47  1  0.88753400  0.13085400  0.79525500  1
  O  O48  1  0.70532300  0.81882400  0.89665200  1
  O  O49  1  0.20532300  0.18117600  0.60334800  1
  O  O50  1  0.29467700  0.18117600  0.10334800  1
  O  O51  1  0.79467700  0.81882400  0.39665200  1
  O  O52  1  0.63444200  0.02058300  0.65720700  1
  O  O53  1  0.13444200  0.97941700  0.84279300  1
  O  O54  1  0.36555800  0.97941700  0.34279300  1
  O  O55  1  0.86555800  0.02058300  0.15720700  1
  O  O56  1  0.66379700  0.29874500  0.79575600  1
  O  O57  1  0.16379700  0.70125500  0.70424400  1
  O  O58  1  0.33620300  0.70125500  0.20424400  1
  O  O59  1  0.83620300  0.29874500  0.29575600  1
  O  O60  1  0.61175700  0.68956100  0.59508600  1
  O  O61  1  0.11175700  0.31043900  0.90491400  1
  O  O62  1  0.38824300  0.31043900  0.40491400  1
  O  O63  1  0.88824300  0.68956100  0.09508600  1
  O  O64  1  0.51982900  0.85252300  0.86050600  1
  O  O65  1  0.01982900  0.14747700  0.63949400  1
  O  O66  1  0.48017100  0.14747700  0.13949400  1
  O  O67  1  0.98017100  0.85252300  0.36050600  1
  O  O68  1  0.62252700  0.59510700  0.83166500  1
  O  O69  1  0.12252700  0.40489300  0.66833500  1
  O  O70  1  0.37747300  0.40489300  0.16833500  1
  O  O71  1  0.33925300  0.84596800  0.91326600  1
