# generated using pymatgen
data_CeAl3Au
_symmetry_space_group_name_H-M   'P 1'
_cell_length_a   6.21012447
_cell_length_b   6.21012447
_cell_length_c   6.21012447
_cell_angle_alpha   139.25590243
_cell_angle_beta   139.25590243
_cell_angle_gamma   58.98486709
_symmetry_Int_Tables_number   1
_chemical_formula_structural   CeAl3Au
_chemical_formula_sum   'Ce1 Al3 Au1'
_cell_volume   101.04969457
_cell_formula_units_Z   1
loop_
 _symmetry_equiv_pos_site_id
 _symmetry_equiv_pos_as_xyz
  1  'x, y, z'
loop_
 _atom_site_type_symbol
 _atom_site_label
 _atom_site_symmetry_multiplicity
 _atom_site_fract_x
 _atom_site_fract_y
 _atom_site_fract_z
 _atom_site_occupancy
  Ce  Ce0  1  0.99156600  0.99156600  0.00000000  1
  Al  Al1  1  0.40045100  0.40045100  0.00000000  1
  Al  Al2  1  0.25378300  0.75378300  0.50000000  1
  Al  Al3  1  0.75378300  0.25378300  0.50000000  1
  Au  Au4  1  0.62841600  0.62841600  0.00000000  1
