# generated using pymatgen
data_Zr(BH4)4
_symmetry_space_group_name_H-M   'P 1'
_cell_length_a   6.27889100
_cell_length_b   6.27889100
_cell_length_c   6.27889100
_cell_angle_alpha   90.00000000
_cell_angle_beta   90.00000000
_cell_angle_gamma   90.00000000
_symmetry_Int_Tables_number   1
_chemical_formula_structural   Zr(BH4)4
_chemical_formula_sum   'Zr1 B4 H16'
_cell_volume   247.54196361
_cell_formula_units_Z   1
loop_
 _symmetry_equiv_pos_site_id
 _symmetry_equiv_pos_as_xyz
  1  'x, y, z'
loop_
 _atom_site_type_symbol
 _atom_site_label
 _atom_site_symmetry_multiplicity
 _atom_site_fract_x
 _atom_site_fract_y
 _atom_site_fract_z
 _atom_site_occupancy
  Zr  Zr0  1  0.00000000  0.00000000  0.00000000  1
  B  B1  1  0.21419200  0.21419200  0.78580800  1
  B  B2  1  0.21419200  0.78580800  0.21419200  1
  B  B3  1  0.78580800  0.21419200  0.21419200  1
  B  B4  1  0.78580800  0.78580800  0.78580800  1
  H  H5  1  0.24351800  0.24351800  0.98062500  1
  H  H6  1  0.24351800  0.01937500  0.75648200  1
  H  H7  1  0.01937500  0.24351800  0.75648200  1
  H  H8  1  0.24351800  0.75648200  0.01937500  1
  H  H9  1  0.24351800  0.98062500  0.24351800  1
  H  H10  1  0.01937500  0.75648200  0.24351800  1
  H  H11  1  0.75648200  0.24351800  0.01937500  1
  H  H12  1  0.75648200  0.01937500  0.24351800  1
  H  H13  1  0.98062500  0.24351800  0.24351800  1
  H  H14  1  0.75648200  0.75648200  0.98062500  1
  H  H15  1  0.75648200  0.98062500  0.75648200  1
  H  H16  1  0.98062500  0.75648200  0.75648200  1
  H  H17  1  0.32385800  0.32385800  0.67614200  1
  H  H18  1  0.32385800  0.67614200  0.32385800  1
  H  H19  1  0.67614200  0.32385800  0.32385800  1
  H  H20  1  0.67614200  0.67614200  0.67614200  1
