# generated using pymatgen
data_Ba2TbCl7
_symmetry_space_group_name_H-M   'P 1'
_cell_length_a   15.72707000
_cell_length_b   6.91829800
_cell_length_c   10.64261520
_cell_angle_alpha   89.23154618
_cell_angle_beta   90.00000000
_cell_angle_gamma   90.00000000
_symmetry_Int_Tables_number   1
_chemical_formula_structural   Ba2TbCl7
_chemical_formula_sum   'Ba8 Tb4 Cl28'
_cell_volume   1157.86088366
_cell_formula_units_Z   4
loop_
 _symmetry_equiv_pos_site_id
 _symmetry_equiv_pos_as_xyz
  1  'x, y, z'
loop_
 _atom_site_type_symbol
 _atom_site_label
 _atom_site_symmetry_multiplicity
 _atom_site_fract_x
 _atom_site_fract_y
 _atom_site_fract_z
 _atom_site_occupancy
  Ba  Ba0  1  0.27973400  0.23415600  0.54916900  1
  Ba  Ba1  1  0.72026600  0.76584400  0.45083100  1
  Ba  Ba2  1  0.77973400  0.76584400  0.95083100  1
  Ba  Ba3  1  0.22026600  0.23415600  0.04916900  1
  Ba  Ba4  1  0.43909600  0.76613600  0.82381500  1
  Ba  Ba5  1  0.56090400  0.23386400  0.17618500  1
  Ba  Ba6  1  0.93909600  0.23386400  0.67618500  1
  Ba  Ba7  1  0.06090400  0.76613600  0.32381500  1
  Tb  Tb8  1  0.12712300  0.71831700  0.78143600  1
  Tb  Tb9  1  0.87287700  0.28168300  0.21856400  1
  Tb  Tb10  1  0.62712300  0.28168300  0.71856400  1
  Tb  Tb11  1  0.37287700  0.71831700  0.28143600  1
  Cl  Cl12  1  0.07100100  0.37040600  0.87577300  1
  Cl  Cl13  1  0.92899900  0.62959400  0.12422700  1
  Cl  Cl14  1  0.57100100  0.62959400  0.62422700  1
  Cl  Cl15  1  0.42899900  0.37040600  0.37577300  1
  Cl  Cl16  1  0.10491500  0.98663900  0.58603200  1
  Cl  Cl17  1  0.89508500  0.01336100  0.41396800  1
  Cl  Cl18  1  0.60491500  0.01336100  0.91396800  1
  Cl  Cl19  1  0.39508500  0.98663900  0.08603200  1
  Cl  Cl20  1  0.95974000  0.79524600  0.78718400  1
  Cl  Cl21  1  0.04026000  0.20475400  0.21281600  1
  Cl  Cl22  1  0.45974000  0.20475400  0.71281600  1
  Cl  Cl23  1  0.54026000  0.79524600  0.28718400  1
  Cl  Cl24  1  0.36041100  0.79109100  0.52832100  1
  Cl  Cl25  1  0.63958900  0.20890900  0.47167900  1
  Cl  Cl26  1  0.86041100  0.20890900  0.97167900  1
  Cl  Cl27  1  0.13958900  0.79109100  0.02832100  1
  Cl  Cl28  1  0.25729400  0.98856600  0.80180100  1
  Cl  Cl29  1  0.74270600  0.01143400  0.19819900  1
  Cl  Cl30  1  0.75729400  0.01143400  0.69819900  1
  Cl  Cl31  1  0.24270600  0.98856600  0.30180100  1
  Cl  Cl32  1  0.27245000  0.50072900  0.79442400  1
  Cl  Cl33  1  0.72755000  0.49927100  0.20557600  1
  Cl  Cl34  1  0.77245000  0.49927100  0.70557600  1
  Cl  Cl35  1  0.22755000  0.50072900  0.29442400  1
  Cl  Cl36  1  0.10445700  0.49959000  0.57104300  1
  Cl  Cl37  1  0.89554300  0.50041000  0.42895700  1
  Cl  Cl38  1  0.60445700  0.50041000  0.92895700  1
  Cl  Cl39  1  0.39554300  0.49959000  0.07104300  1
