# generated using pymatgen
data_MgH8(ClO2)2
_symmetry_space_group_name_H-M   'P 1'
_cell_length_a   7.35038100
_cell_length_b   8.48381500
_cell_length_c   10.96765600
_cell_angle_alpha   90.00000000
_cell_angle_beta   90.00000000
_cell_angle_gamma   90.00000000
_symmetry_Int_Tables_number   1
_chemical_formula_structural   MgH8(ClO2)2
_chemical_formula_sum   'Mg4 H32 Cl8 O16'
_cell_volume   683.93505011
_cell_formula_units_Z   4
loop_
 _symmetry_equiv_pos_site_id
 _symmetry_equiv_pos_as_xyz
  1  'x, y, z'
loop_
 _atom_site_type_symbol
 _atom_site_label
 _atom_site_symmetry_multiplicity
 _atom_site_fract_x
 _atom_site_fract_y
 _atom_site_fract_z
 _atom_site_occupancy
  Mg  Mg0  1  0.50000000  0.12366100  0.75000000  1
  Mg  Mg1  1  0.00000000  0.37633900  0.25000000  1
  Mg  Mg2  1  0.50000000  0.87633900  0.25000000  1
  Mg  Mg3  1  0.00000000  0.62366100  0.75000000  1
  H  H4  1  0.71311700  0.03202400  0.55932500  1
  H  H5  1  0.78688300  0.46797600  0.05932500  1
  H  H6  1  0.21311700  0.46797600  0.44067500  1
  H  H7  1  0.28688300  0.03202400  0.94067500  1
  H  H8  1  0.28688300  0.96797600  0.44067500  1
  H  H9  1  0.21311700  0.53202400  0.94067500  1
  H  H10  1  0.78688300  0.53202400  0.55932500  1
  H  H11  1  0.71311700  0.96797600  0.05932500  1
  H  H12  1  0.70539700  0.21553400  0.55682500  1
  H  H13  1  0.79460300  0.28446600  0.05682500  1
  H  H14  1  0.20539700  0.28446600  0.44317500  1
  H  H15  1  0.29460300  0.21553400  0.94317500  1
  H  H16  1  0.29460300  0.78446600  0.44317500  1
  H  H17  1  0.20539700  0.71553400  0.94317500  1
  H  H18  1  0.79460300  0.71553400  0.55682500  1
  H  H19  1  0.70539700  0.78446600  0.05682500  1
  H  H20  1  0.57252700  0.43809400  0.80274600  1
  H  H21  1  0.92747300  0.06190600  0.30274600  1
  H  H22  1  0.07252700  0.06190600  0.19725400  1
  H  H23  1  0.42747300  0.43809400  0.69725400  1
  H  H24  1  0.42747300  0.56190600  0.19725400  1
  H  H25  1  0.07252700  0.93809400  0.69725400  1
  H  H26  1  0.92747300  0.93809400  0.80274600  1
  H  H27  1  0.57252700  0.56190600  0.30274600  1
  H  H28  1  0.57412700  0.80850600  0.80149100  1
  H  H29  1  0.92587300  0.69149400  0.30149100  1
  H  H30  1  0.07412700  0.69149400  0.19850900  1
  H  H31  1  0.42587300  0.80850600  0.69850900  1
  H  H32  1  0.42587300  0.19149400  0.19850900  1
  H  H33  1  0.07412700  0.30850600  0.69850900  1
  H  H34  1  0.92587300  0.30850600  0.80149100  1
  H  H35  1  0.57412700  0.19149400  0.30149100  1
  Cl  Cl36  1  0.23009100  0.12301500  0.59649400  1
  Cl  Cl37  1  0.26990900  0.37698500  0.09649400  1
  Cl  Cl38  1  0.73009100  0.37698500  0.40350600  1
  Cl  Cl39  1  0.76990900  0.12301500  0.90350600  1
  Cl  Cl40  1  0.76990900  0.87698500  0.40350600  1
  Cl  Cl41  1  0.73009100  0.62301500  0.90350600  1
  Cl  Cl42  1  0.26990900  0.62301500  0.59649400  1
  Cl  Cl43  1  0.23009100  0.87698500  0.09649400  1
  O  O44  1  0.50000000  0.36797600  0.75000000  1
  O  O45  1  0.00000000  0.13202400  0.25000000  1
  O  O46  1  0.50000000  0.63202400  0.25000000  1
  O  O47  1  0.00000000  0.86797600  0.75000000  1
  O  O48  1  0.69111300  0.12461400  0.61192700  1
  O  O49  1  0.80888700  0.37538600  0.11192700  1
  O  O50  1  0.19111300  0.37538600  0.38807300  1
  O  O51  1  0.30888700  0.12461400  0.88807300  1
  O  O52  1  0.30888700  0.87538600  0.38807300  1
  O  O53  1  0.19111300  0.62461400  0.88807300  1
  O  O54  1  0.80888700  0.62461400  0.61192700  1
  O  O55  1  0.69111300  0.87538600  0.11192700  1
  O  O56  1  0.50000000  0.87879800  0.75000000  1
  O  O57  1  0.00000000  0.62120200  0.25000000  1
  O  O58  1  0.50000000  0.12120200  0.25000000  1
  O  O59  1  0.00000000  0.37879800  0.75000000  1
