# generated using pymatgen
data_RbGd(MoO4)2
_symmetry_space_group_name_H-M   'P 1'
_cell_length_a   5.19432200
_cell_length_b   8.29729500
_cell_length_c   18.94408300
_cell_angle_alpha   90.00000000
_cell_angle_beta   90.00000000
_cell_angle_gamma   90.00000000
_symmetry_Int_Tables_number   1
_chemical_formula_structural   RbGd(MoO4)2
_chemical_formula_sum   'Rb4 Gd4 Mo8 O32'
_cell_volume   816.46766039
_cell_formula_units_Z   4
loop_
 _symmetry_equiv_pos_site_id
 _symmetry_equiv_pos_as_xyz
  1  'x, y, z'
loop_
 _atom_site_type_symbol
 _atom_site_label
 _atom_site_symmetry_multiplicity
 _atom_site_fract_x
 _atom_site_fract_y
 _atom_site_fract_z
 _atom_site_occupancy
  Rb  Rb0  1  0.00000000  0.75000000  0.76942000  1
  Rb  Rb1  1  0.00000000  0.25000000  0.23058000  1
  Rb  Rb2  1  0.50000000  0.25000000  0.73058000  1
  Rb  Rb3  1  0.50000000  0.75000000  0.26942000  1
  Gd  Gd4  1  0.00000000  0.75000000  0.00666900  1
  Gd  Gd5  1  0.00000000  0.25000000  0.99333100  1
  Gd  Gd6  1  0.50000000  0.25000000  0.49333100  1
  Gd  Gd7  1  0.50000000  0.75000000  0.50666900  1
  Mo  Mo8  1  0.02294200  0.51578500  0.40021600  1
  Mo  Mo9  1  0.97705800  0.48421500  0.59978400  1
  Mo  Mo10  1  0.47705800  0.01578500  0.09978400  1
  Mo  Mo11  1  0.97705800  0.98421500  0.40021600  1
  Mo  Mo12  1  0.52294200  0.98421500  0.90021600  1
  Mo  Mo13  1  0.02294200  0.01578500  0.59978400  1
  Mo  Mo14  1  0.52294200  0.48421500  0.09978400  1
  Mo  Mo15  1  0.47705800  0.51578500  0.90021600  1
  O  O16  1  0.09852100  0.97471500  0.31404800  1
  O  O17  1  0.90147900  0.02528500  0.68595200  1
  O  O18  1  0.40147900  0.47471500  0.18595200  1
  O  O19  1  0.90147900  0.52528500  0.31404800  1
  O  O20  1  0.59852100  0.52528500  0.81404800  1
  O  O21  1  0.09852100  0.47471500  0.68595200  1
  O  O22  1  0.59852100  0.02528500  0.18595200  1
  O  O23  1  0.40147900  0.97471500  0.81404800  1
  O  O24  1  0.27072500  0.84140800  0.09803100  1
  O  O25  1  0.72927500  0.15859200  0.90196900  1
  O  O26  1  0.22927500  0.34140800  0.40196900  1
  O  O27  1  0.72927500  0.65859200  0.09803100  1
  O  O28  1  0.77072500  0.65859200  0.59803100  1
  O  O29  1  0.27072500  0.34140800  0.90196900  1
  O  O30  1  0.77072500  0.15859200  0.40196900  1
  O  O31  1  0.22927500  0.84140800  0.59803100  1
  O  O32  1  0.25038400  0.50391400  0.03623300  1
  O  O33  1  0.74961600  0.49608600  0.96376700  1
  O  O34  1  0.24961600  0.00391400  0.46376700  1
  O  O35  1  0.74961600  0.99608600  0.03623300  1
  O  O36  1  0.75038400  0.99608600  0.53623300  1
  O  O37  1  0.25038400  0.00391400  0.96376700  1
  O  O38  1  0.75038400  0.49608600  0.46376700  1
  O  O39  1  0.24961600  0.50391400  0.53623300  1
  O  O40  1  0.23934000  0.68682400  0.41036700  1
  O  O41  1  0.76066000  0.31317600  0.58963300  1
  O  O42  1  0.26066000  0.18682400  0.08963300  1
  O  O43  1  0.76066000  0.81317600  0.41036700  1
  O  O44  1  0.73934000  0.81317600  0.91036700  1
  O  O45  1  0.23934000  0.18682400  0.58963300  1
  O  O46  1  0.73934000  0.31317600  0.08963300  1
  O  O47  1  0.26066000  0.68682400  0.91036700  1
