# generated using pymatgen
data_Sr2LiBeB3O8
_symmetry_space_group_name_H-M   'P 1'
_cell_length_a   6.55837700
_cell_length_b   8.68380200
_cell_length_c   13.03300345
_cell_angle_alpha   73.34976362
_cell_angle_beta   90.00000000
_cell_angle_gamma   90.00000000
_symmetry_Int_Tables_number   1
_chemical_formula_structural   Sr2LiBeB3O8
_chemical_formula_sum   'Sr8 Li4 Be4 B12 O32'
_cell_volume   711.12970561
_cell_formula_units_Z   4
loop_
 _symmetry_equiv_pos_site_id
 _symmetry_equiv_pos_as_xyz
  1  'x, y, z'
loop_
 _atom_site_type_symbol
 _atom_site_label
 _atom_site_symmetry_multiplicity
 _atom_site_fract_x
 _atom_site_fract_y
 _atom_site_fract_z
 _atom_site_occupancy
  Sr  Sr0  1  0.74340100  0.64302500  0.92749100  1
  Sr  Sr1  1  0.24340100  0.35697500  0.57250900  1
  Sr  Sr2  1  0.25659900  0.35697500  0.07250900  1
  Sr  Sr3  1  0.75659900  0.64302500  0.42749100  1
  Sr  Sr4  1  0.38924600  0.03572200  0.84186900  1
  Sr  Sr5  1  0.88924600  0.96427800  0.65813100  1
  Sr  Sr6  1  0.61075400  0.96427800  0.15813100  1
  Sr  Sr7  1  0.11075400  0.03572200  0.34186900  1
  Li  Li8  1  0.26903000  0.62672400  0.82815900  1
  Li  Li9  1  0.76903000  0.37327600  0.67184100  1
  Li  Li10  1  0.73097000  0.37327600  0.17184100  1
  Li  Li11  1  0.23097000  0.62672400  0.32815900  1
  Be  Be12  1  0.06984900  0.32417800  0.84464400  1
  Be  Be13  1  0.56984900  0.67582200  0.65535600  1
  Be  Be14  1  0.93015100  0.67582200  0.15535600  1
  Be  Be15  1  0.43015100  0.32417800  0.34464400  1
  B  B16  1  0.76905100  0.26147000  0.98584700  1
  B  B17  1  0.26905100  0.73853000  0.51415300  1
  B  B18  1  0.23094900  0.73853000  0.01415300  1
  B  B19  1  0.73094900  0.26147000  0.48584700  1
  B  B20  1  0.84795400  0.06357300  0.88009700  1
  B  B21  1  0.34795400  0.93642700  0.61990300  1
  B  B22  1  0.15204600  0.93642700  0.11990300  1
  B  B23  1  0.65204600  0.06357300  0.38009700  1
  B  B24  1  0.94884600  0.59784700  0.70635000  1
  B  B25  1  0.44884600  0.40215300  0.79365000  1
  B  B26  1  0.05115400  0.40215300  0.29365000  1
  B  B27  1  0.55115400  0.59784700  0.20635000  1
  O  O28  1  0.73182800  0.11567700  0.95789800  1
  O  O29  1  0.23182800  0.88432300  0.54210200  1
  O  O30  1  0.26817200  0.88432300  0.04210200  1
  O  O31  1  0.76817200  0.11567700  0.45789800  1
  O  O32  1  0.92742600  0.36032700  0.93964600  1
  O  O33  1  0.42742600  0.63967300  0.56035400  1
  O  O34  1  0.07257400  0.63967300  0.06035400  1
  O  O35  1  0.57257400  0.36032700  0.43964600  1
  O  O36  1  0.64237800  0.29112000  0.06020300  1
  O  O37  1  0.14237800  0.70888000  0.43979700  1
  O  O38  1  0.35762200  0.70888000  0.93979700  1
  O  O39  1  0.85762200  0.29112000  0.56020300  1
  O  O40  1  0.02431400  0.14040000  0.83995600  1
  O  O41  1  0.52431400  0.85960000  0.66004400  1
  O  O42  1  0.97568600  0.85960000  0.16004400  1
  O  O43  1  0.47568600  0.14040000  0.33995600  1
  O  O44  1  0.76239700  0.94314200  0.84746700  1
  O  O45  1  0.26239700  0.05685800  0.65253300  1
  O  O46  1  0.23760300  0.05685800  0.15253300  1
  O  O47  1  0.73760300  0.94314200  0.34746700  1
  O  O48  1  0.02343600  0.44231600  0.72365700  1
  O  O49  1  0.52343600  0.55768400  0.77634300  1
  O  O50  1  0.97656400  0.55768400  0.27634300  1
  O  O51  1  0.47656400  0.44231600  0.22365700  1
  O  O52  1  0.30647400  0.34875300  0.87695200  1
  O  O53  1  0.80647400  0.65124700  0.62304800  1
  O  O54  1  0.69352600  0.65124700  0.12304800  1
  O  O55  1  0.19352600  0.34875300  0.37695200  1
  O  O56  1  0.00483400  0.69345300  0.76892600  1
  O  O57  1  0.50483400  0.30654700  0.73107400  1
  O  O58  1  0.99516600  0.30654700  0.23107400  1
  O  O59  1  0.49516600  0.69345300  0.26892600  1
