# generated using pymatgen
data_DyHSO5
_symmetry_space_group_name_H-M   'P 1'
_cell_length_a   8.05083882
_cell_length_b   8.21744920
_cell_length_c   11.08003600
_cell_angle_alpha   90.00000000
_cell_angle_beta   90.00000000
_cell_angle_gamma   93.85092361
_symmetry_Int_Tables_number   1
_chemical_formula_structural   DyHSO5
_chemical_formula_sum   'Dy8 H8 S8 O40'
_cell_volume   731.37087316
_cell_formula_units_Z   8
loop_
 _symmetry_equiv_pos_site_id
 _symmetry_equiv_pos_as_xyz
  1  'x, y, z'
loop_
 _atom_site_type_symbol
 _atom_site_label
 _atom_site_symmetry_multiplicity
 _atom_site_fract_x
 _atom_site_fract_y
 _atom_site_fract_z
 _atom_site_occupancy
  Dy  Dy0  1  0.68780000  0.90727300  0.92589100  1
  Dy  Dy1  1  0.18780000  0.40727300  0.57410900  1
  Dy  Dy2  1  0.31220000  0.09272700  0.07410900  1
  Dy  Dy3  1  0.81220000  0.59272700  0.42589100  1
  Dy  Dy4  1  0.66234400  0.37180900  0.93542400  1
  Dy  Dy5  1  0.16234400  0.87180900  0.56457600  1
  Dy  Dy6  1  0.33765600  0.62819100  0.06457600  1
  Dy  Dy7  1  0.83765600  0.12819100  0.43542400  1
  H  H8  1  0.31432000  0.36239300  0.91129700  1
  H  H9  1  0.81432000  0.86239300  0.58870300  1
  H  H10  1  0.68568000  0.63760700  0.08870300  1
  H  H11  1  0.18568000  0.13760700  0.41129700  1
  H  H12  1  0.66091400  0.12604900  0.11639200  1
  H  H13  1  0.16091400  0.62604900  0.38360800  1
  H  H14  1  0.33908600  0.87395100  0.88360800  1
  H  H15  1  0.83908600  0.37395100  0.61639200  1
  S  S16  1  0.00154800  0.63552900  0.82992700  1
  S  S17  1  0.50154800  0.13552900  0.67007300  1
  S  S18  1  0.99845200  0.36447100  0.17007300  1
  S  S19  1  0.49845200  0.86447100  0.32992700  1
  S  S20  1  0.04436500  0.13290500  0.80884200  1
  S  S21  1  0.54436500  0.63290500  0.69115800  1
  S  S22  1  0.95563500  0.86709500  0.19115800  1
  S  S23  1  0.45563500  0.36709500  0.30884200  1
  O  O24  1  0.11044400  0.29322600  0.75989300  1
  O  O25  1  0.61044400  0.79322600  0.74010700  1
  O  O26  1  0.88955600  0.70677400  0.24010700  1
  O  O27  1  0.38955600  0.20677400  0.25989300  1
  O  O28  1  0.92615600  0.78308100  0.87354300  1
  O  O29  1  0.42615600  0.28308100  0.62645700  1
  O  O30  1  0.07384400  0.21691900  0.12645700  1
  O  O31  1  0.57384400  0.71691900  0.37354300  1
  O  O32  1  0.01920400  0.01509400  0.70811700  1
  O  O33  1  0.51920400  0.51509400  0.79188300  1
  O  O34  1  0.98079600  0.98490600  0.29188300  1
  O  O35  1  0.48079600  0.48490600  0.20811700  1
  O  O36  1  0.37412200  0.36071100  0.98836300  1
  O  O37  1  0.87412200  0.86071100  0.51163700  1
  O  O38  1  0.62587800  0.63928900  0.01163700  1
  O  O39  1  0.12587800  0.13928900  0.48836300  1
  O  O40  1  0.06012600  0.65652600  0.70113900  1
  O  O41  1  0.56012600  0.15652600  0.79886100  1
  O  O42  1  0.93987400  0.34347400  0.29886100  1
  O  O43  1  0.43987400  0.84347400  0.20113900  1
  O  O44  1  0.16711600  0.07607700  0.89655200  1
  O  O45  1  0.66711600  0.57607700  0.60344800  1
  O  O46  1  0.83288400  0.92392300  0.10344800  1
  O  O47  1  0.33288400  0.42392300  0.39655200  1
  O  O48  1  0.87607300  0.49525200  0.83051300  1
  O  O49  1  0.37607300  0.99525200  0.66948700  1
  O  O50  1  0.12392700  0.50474800  0.16948700  1
  O  O51  1  0.62392700  0.00474800  0.33051300  1
  O  O52  1  0.14744200  0.60357300  0.90635700  1
  O  O53  1  0.64744200  0.10357300  0.59364300  1
  O  O54  1  0.85255800  0.39642700  0.09364300  1
  O  O55  1  0.35255800  0.89642700  0.40635700  1
  O  O56  1  0.59944300  0.13048700  0.04079100  1
  O  O57  1  0.09944300  0.63048700  0.45920900  1
  O  O58  1  0.40055700  0.86951300  0.95920900  1
  O  O59  1  0.90055700  0.36951300  0.54079100  1
  O  O60  1  0.87977100  0.14605300  0.86998200  1
  O  O61  1  0.37977100  0.64605300  0.63001800  1
  O  O62  1  0.12022900  0.85394700  0.13001800  1
  O  O63  1  0.62022900  0.35394700  0.36998200  1
