# generated using pymatgen
data_Li9Nd2(PS4)5
_symmetry_space_group_name_H-M   'P 1'
_cell_length_a   9.04543800
_cell_length_b   9.04543800
_cell_length_c   21.14136451
_cell_angle_alpha   85.23011019
_cell_angle_beta   85.23011019
_cell_angle_gamma   66.95209420
_symmetry_Int_Tables_number   1
_chemical_formula_structural   Li9Nd2(PS4)5
_chemical_formula_sum   'Li18 Nd4 P10 S40'
_cell_volume   1583.78090851
_cell_formula_units_Z   2
loop_
 _symmetry_equiv_pos_site_id
 _symmetry_equiv_pos_as_xyz
  1  'x, y, z'
loop_
 _atom_site_type_symbol
 _atom_site_label
 _atom_site_symmetry_multiplicity
 _atom_site_fract_x
 _atom_site_fract_y
 _atom_site_fract_z
 _atom_site_occupancy
  Li  Li0  1  0.57583000  0.52388500  0.88618600  1
  Li  Li1  1  0.47611500  0.42417000  0.61381400  1
  Li  Li2  1  0.42417000  0.47611500  0.11381400  1
  Li  Li3  1  0.52388500  0.57583000  0.38618600  1
  Li  Li4  1  0.81069100  0.63477300  0.97391500  1
  Li  Li5  1  0.36522700  0.18930900  0.52608500  1
  Li  Li6  1  0.18930900  0.36522700  0.02608500  1
  Li  Li7  1  0.63477300  0.81069100  0.47391500  1
  Li  Li8  1  0.00000000  0.50000000  0.50000000  1
  Li  Li9  1  0.50000000  0.00000000  0.00000000  1
  Li  Li10  1  0.85194100  0.23598400  0.65936600  1
  Li  Li11  1  0.76401600  0.14805900  0.84063400  1
  Li  Li12  1  0.14805900  0.76401600  0.34063400  1
  Li  Li13  1  0.23598400  0.85194100  0.15936600  1
  Li  Li14  1  0.12234100  0.81039100  0.55601400  1
  Li  Li15  1  0.18960900  0.87765900  0.94398600  1
  Li  Li16  1  0.87765900  0.18960900  0.44398600  1
  Li  Li17  1  0.81039100  0.12234100  0.05601400  1
  Nd  Nd18  1  0.23944700  0.29053500  0.79975700  1
  Nd  Nd19  1  0.70946500  0.76055300  0.70024300  1
  Nd  Nd20  1  0.76055300  0.70946500  0.20024300  1
  Nd  Nd21  1  0.29053500  0.23944700  0.29975700  1
  P  P22  1  0.99055300  0.25515700  0.94141600  1
  P  P23  1  0.74484300  0.00944700  0.55858400  1
  P  P24  1  0.00944700  0.74484300  0.05858400  1
  P  P25  1  0.25515700  0.99055300  0.44141600  1
  P  P26  1  0.06906400  0.43297000  0.64700200  1
  P  P27  1  0.56703000  0.93093600  0.85299800  1
  P  P28  1  0.93093600  0.56703000  0.35299800  1
  P  P29  1  0.43297000  0.06906400  0.14700200  1
  P  P30  1  0.49631800  0.50368200  0.75000000  1
  P  P31  1  0.50368200  0.49631800  0.25000000  1
  S  S32  1  0.21791900  0.46893000  0.57243100  1
  S  S33  1  0.53107000  0.78208100  0.92756900  1
  S  S34  1  0.78208100  0.53107000  0.42756900  1
  S  S35  1  0.46893000  0.21791900  0.07243100  1
  S  S36  1  0.05848400  0.44449800  0.91434700  1
  S  S37  1  0.55550200  0.94151600  0.58565300  1
  S  S38  1  0.94151600  0.55550200  0.08565300  1
  S  S39  1  0.44449800  0.05848400  0.41434700  1
  S  S40  1  0.11796800  0.12087500  0.01607900  1
  S  S41  1  0.87912500  0.88203200  0.48392100  1
  S  S42  1  0.88203200  0.87912500  0.98392100  1
  S  S43  1  0.12087500  0.11796800  0.51607900  1
  S  S44  1  0.05552300  0.57442800  0.71975600  1
  S  S45  1  0.42557200  0.94447700  0.78024400  1
  S  S46  1  0.94447700  0.42557200  0.28024400  1
  S  S47  1  0.57442800  0.05552300  0.21975600  1
  S  S48  1  0.13872800  0.20133400  0.68340700  1
  S  S49  1  0.79866600  0.86127200  0.81659300  1
  S  S50  1  0.86127200  0.79866600  0.31659300  1
  S  S51  1  0.20133400  0.13872800  0.18340700  1
  S  S52  1  0.75002800  0.34395700  0.96985400  1
  S  S53  1  0.65604300  0.24997200  0.53014600  1
  S  S54  1  0.24997200  0.65604300  0.03014600  1
  S  S55  1  0.34395700  0.75002800  0.46985400  1
  S  S56  1  0.04607800  0.11314400  0.86402200  1
  S  S57  1  0.88685600  0.95392200  0.63597800  1
  S  S58  1  0.95392200  0.88685600  0.13597800  1
  S  S59  1  0.11314400  0.04607800  0.36402200  1
  S  S60  1  0.52329100  0.28388000  0.71865600  1
  S  S61  1  0.71612000  0.47670900  0.78134400  1
  S  S62  1  0.47670900  0.71612000  0.28134400  1
  S  S63  1  0.28388000  0.52329100  0.21865600  1
  S  S64  1  0.49694200  0.15293100  0.89081600  1
  S  S65  1  0.84706900  0.50305800  0.60918400  1
  S  S66  1  0.50305800  0.84706900  0.10918400  1
  S  S67  1  0.15293100  0.49694200  0.39081600  1
  S  S68  1  0.33252200  0.55706200  0.82625900  1
  S  S69  1  0.44293800  0.66747800  0.67374100  1
  S  S70  1  0.66747800  0.44293800  0.17374100  1
  S  S71  1  0.55706200  0.33252200  0.32625900  1
