# generated using pymatgen
data_CsDy2Cl7
_symmetry_space_group_name_H-M   'P 1'
_cell_length_a   7.06489200
_cell_length_b   12.76113400
_cell_length_c   13.98001300
_cell_angle_alpha   90.00000000
_cell_angle_beta   90.00000000
_cell_angle_gamma   90.00000000
_symmetry_Int_Tables_number   1
_chemical_formula_structural   CsDy2Cl7
_chemical_formula_sum   'Cs4 Dy8 Cl28'
_cell_volume   1260.38252046
_cell_formula_units_Z   4
loop_
 _symmetry_equiv_pos_site_id
 _symmetry_equiv_pos_as_xyz
  1  'x, y, z'
loop_
 _atom_site_type_symbol
 _atom_site_label
 _atom_site_symmetry_multiplicity
 _atom_site_fract_x
 _atom_site_fract_y
 _atom_site_fract_z
 _atom_site_occupancy
  Cs  Cs0  1  0.25000000  0.80412500  0.04172700  1
  Cs  Cs1  1  0.75000000  0.19587500  0.95827300  1
  Cs  Cs2  1  0.75000000  0.30412500  0.45827300  1
  Cs  Cs3  1  0.25000000  0.69587500  0.54172700  1
  Dy  Dy4  1  0.25000000  0.45949800  0.23835000  1
  Dy  Dy5  1  0.75000000  0.54050200  0.76165000  1
  Dy  Dy6  1  0.75000000  0.95949800  0.26165000  1
  Dy  Dy7  1  0.25000000  0.04050200  0.73835000  1
  Dy  Dy8  1  0.25000000  0.15608200  0.25003400  1
  Dy  Dy9  1  0.75000000  0.84391800  0.74996600  1
  Dy  Dy10  1  0.75000000  0.65608200  0.24996600  1
  Dy  Dy11  1  0.25000000  0.34391800  0.75003400  1
  Cl  Cl12  1  0.01302500  0.30607300  0.17857400  1
  Cl  Cl13  1  0.98697500  0.69392700  0.82142600  1
  Cl  Cl14  1  0.98697500  0.80607300  0.32142600  1
  Cl  Cl15  1  0.51302500  0.69392700  0.82142600  1
  Cl  Cl16  1  0.01302500  0.19392700  0.67857400  1
  Cl  Cl17  1  0.48697500  0.30607300  0.17857400  1
  Cl  Cl18  1  0.48697500  0.19392700  0.67857400  1
  Cl  Cl19  1  0.51302500  0.80607300  0.32142600  1
  Cl  Cl20  1  0.00908800  0.57476000  0.12745200  1
  Cl  Cl21  1  0.99091200  0.42524000  0.87254800  1
  Cl  Cl22  1  0.99091200  0.07476000  0.37254800  1
  Cl  Cl23  1  0.50908800  0.42524000  0.87254800  1
  Cl  Cl24  1  0.00908800  0.92524000  0.62745200  1
  Cl  Cl25  1  0.49091200  0.57476000  0.12745200  1
  Cl  Cl26  1  0.49091200  0.92524000  0.62745200  1
  Cl  Cl27  1  0.50908800  0.07476000  0.37254800  1
  Cl  Cl28  1  0.00956700  0.04011800  0.13730900  1
  Cl  Cl29  1  0.99043300  0.95988200  0.86269100  1
  Cl  Cl30  1  0.99043300  0.54011800  0.36269100  1
  Cl  Cl31  1  0.50956700  0.95988200  0.86269100  1
  Cl  Cl32  1  0.00956700  0.45988200  0.63730900  1
  Cl  Cl33  1  0.49043300  0.04011800  0.13730900  1
  Cl  Cl34  1  0.49043300  0.45988200  0.63730900  1
  Cl  Cl35  1  0.50956700  0.54011800  0.36269100  1
  Cl  Cl36  1  0.25000000  0.31080700  0.38581400  1
  Cl  Cl37  1  0.75000000  0.68919300  0.61418600  1
  Cl  Cl38  1  0.75000000  0.81080700  0.11418600  1
  Cl  Cl39  1  0.25000000  0.18919300  0.88581400  1
