# generated using pymatgen
data_KBaCr2(PO4)3
_symmetry_space_group_name_H-M   'P 1'
_cell_length_a   9.96085600
_cell_length_b   9.96085600
_cell_length_c   9.96085600
_cell_angle_alpha   90.00000000
_cell_angle_beta   90.00000000
_cell_angle_gamma   90.00000000
_symmetry_Int_Tables_number   1
_chemical_formula_structural   KBaCr2(PO4)3
_chemical_formula_sum   'K4 Ba4 Cr8 P12 O48'
_cell_volume   988.30270760
_cell_formula_units_Z   4
loop_
 _symmetry_equiv_pos_site_id
 _symmetry_equiv_pos_as_xyz
  1  'x, y, z'
loop_
 _atom_site_type_symbol
 _atom_site_label
 _atom_site_symmetry_multiplicity
 _atom_site_fract_x
 _atom_site_fract_y
 _atom_site_fract_z
 _atom_site_occupancy
  K  K0  1  0.20328300  0.70328300  0.79671700  1
  K  K1  1  0.70328300  0.79671700  0.20328300  1
  K  K2  1  0.79671700  0.20328300  0.70328300  1
  K  K3  1  0.29671700  0.29671700  0.29671700  1
  Ba  Ba4  1  0.43249100  0.93249100  0.56750900  1
  Ba  Ba5  1  0.93249100  0.56750900  0.43249100  1
  Ba  Ba6  1  0.56750900  0.43249100  0.93249100  1
  Ba  Ba7  1  0.06750900  0.06750900  0.06750900  1
  Cr  Cr8  1  0.91334500  0.41334500  0.08665500  1
  Cr  Cr9  1  0.41334500  0.08665500  0.91334500  1
  Cr  Cr10  1  0.08665500  0.91334500  0.41334500  1
  Cr  Cr11  1  0.58665500  0.58665500  0.58665500  1
  Cr  Cr12  1  0.64825000  0.14825000  0.35175000  1
  Cr  Cr13  1  0.14825000  0.35175000  0.64825000  1
  Cr  Cr14  1  0.35175000  0.64825000  0.14825000  1
  Cr  Cr15  1  0.85175000  0.85175000  0.85175000  1
  P  P16  1  0.22588100  0.37407500  0.95972100  1
  P  P17  1  0.04027900  0.72588100  0.12592500  1
  P  P18  1  0.87407500  0.54027900  0.77411900  1
  P  P19  1  0.72588100  0.12592500  0.04027900  1
  P  P20  1  0.54027900  0.77411900  0.87407500  1
  P  P21  1  0.37407500  0.95972100  0.22588100  1
  P  P22  1  0.77411900  0.87407500  0.54027900  1
  P  P23  1  0.95972100  0.22588100  0.37407500  1
  P  P24  1  0.12592500  0.04027900  0.72588100  1
  P  P25  1  0.27411900  0.62592500  0.45972100  1
  P  P26  1  0.45972100  0.27411900  0.62592500  1
  P  P27  1  0.62592500  0.45972100  0.27411900  1
  O  O28  1  0.30109900  0.23902700  0.98582000  1
  O  O29  1  0.01418000  0.80109900  0.26097300  1
  O  O30  1  0.73902700  0.51418000  0.69890100  1
  O  O31  1  0.80109900  0.26097300  0.01418000  1
  O  O32  1  0.51418000  0.69890100  0.73902700  1
  O  O33  1  0.23902700  0.98582000  0.30109900  1
  O  O34  1  0.69890100  0.73902700  0.51418000  1
  O  O35  1  0.98582000  0.30109900  0.23902700  1
  O  O36  1  0.26097300  0.01418000  0.80109900  1
  O  O37  1  0.19890100  0.76097300  0.48582000  1
  O  O38  1  0.48582000  0.19890100  0.76097300  1
  O  O39  1  0.76097300  0.48582000  0.19890100  1
  O  O40  1  0.07749500  0.34601900  0.99476100  1
  O  O41  1  0.00523900  0.57749500  0.15398100  1
  O  O42  1  0.84601900  0.50523900  0.92250500  1
  O  O43  1  0.57749500  0.15398100  0.00523900  1
  O  O44  1  0.50523900  0.92250500  0.84601900  1
  O  O45  1  0.34601900  0.99476100  0.07749500  1
  O  O46  1  0.92250500  0.84601900  0.50523900  1
  O  O47  1  0.99476100  0.07749500  0.34601900  1
  O  O48  1  0.15398100  0.00523900  0.57749500  1
  O  O49  1  0.42250500  0.65398100  0.49476100  1
  O  O50  1  0.49476100  0.42250500  0.65398100  1
  O  O51  1  0.65398100  0.49476100  0.42250500  1
  O  O52  1  0.24158100  0.42208100  0.81228700  1
  O  O53  1  0.18771300  0.74158100  0.07791900  1
  O  O54  1  0.92208100  0.68771300  0.75841900  1
  O  O55  1  0.74158100  0.07791900  0.18771300  1
  O  O56  1  0.68771300  0.75841900  0.92208100  1
  O  O57  1  0.42208100  0.81228700  0.24158100  1
  O  O58  1  0.75841900  0.92208100  0.68771300  1
  O  O59  1  0.81228700  0.24158100  0.42208100  1
  O  O60  1  0.07791900  0.18771300  0.74158100  1
  O  O61  1  0.25841900  0.57791900  0.31228700  1
  O  O62  1  0.31228700  0.25841900  0.57791900  1
  O  O63  1  0.57791900  0.31228700  0.25841900  1
  O  O64  1  0.29727400  0.47698200  0.05059900  1
  O  O65  1  0.94940100  0.79727400  0.02301800  1
  O  O66  1  0.97698200  0.44940100  0.70272600  1
  O  O67  1  0.79727400  0.02301800  0.94940100  1
  O  O68  1  0.44940100  0.70272600  0.97698200  1
  O  O69  1  0.47698200  0.05059900  0.29727400  1
  O  O70  1  0.70272600  0.97698200  0.44940100  1
  O  O71  1  0.05059900  0.29727400  0.47698200  1
  O  O72  1  0.02301800  0.94940100  0.79727400  1
  O  O73  1  0.20272600  0.52301800  0.55059900  1
  O  O74  1  0.55059900  0.20272600  0.52301800  1
  O  O75  1  0.52301800  0.55059900  0.20272600  1
