# generated using pymatgen
data_Yb3Zn11
_symmetry_space_group_name_H-M   'P 1'
_cell_length_a   4.37711900
_cell_length_b   8.22055812
_cell_length_c   8.22055812
_cell_angle_alpha   65.69098733
_cell_angle_beta   74.55994171
_cell_angle_gamma   74.55994171
_symmetry_Int_Tables_number   1
_chemical_formula_structural   Yb3Zn11
_chemical_formula_sum   'Yb3 Zn11'
_cell_volume   255.67654459
_cell_formula_units_Z   1
loop_
 _symmetry_equiv_pos_site_id
 _symmetry_equiv_pos_as_xyz
  1  'x, y, z'
loop_
 _atom_site_type_symbol
 _atom_site_label
 _atom_site_symmetry_multiplicity
 _atom_site_fract_x
 _atom_site_fract_y
 _atom_site_fract_z
 _atom_site_occupancy
  Yb  Yb0  1  0.00000000  0.00000000  0.00000000  1
  Yb  Yb1  1  0.70440400  0.29559600  0.29559600  1
  Yb  Yb2  1  0.29559600  0.70440400  0.70440400  1
  Zn  Zn3  1  0.00000000  0.50000000  0.50000000  1
  Zn  Zn4  1  0.50000000  0.68458600  0.31541400  1
  Zn  Zn5  1  0.50000000  0.31541400  0.68458600  1
  Zn  Zn6  1  0.66287000  0.69413600  0.98012400  1
  Zn  Zn7  1  0.33713000  0.30586400  0.01987600  1
  Zn  Zn8  1  0.66287000  0.98012400  0.69413600  1
  Zn  Zn9  1  0.33713000  0.01987600  0.30586400  1
  Zn  Zn10  1  0.86586900  0.42243400  0.84582700  1
  Zn  Zn11  1  0.13413100  0.57756600  0.15417300  1
  Zn  Zn12  1  0.86586900  0.84582700  0.42243400  1
  Zn  Zn13  1  0.13413100  0.15417300  0.57756600  1
