# generated using pymatgen
data_Nb3S4
_symmetry_space_group_name_H-M   'P 1'
_cell_length_a   9.66783190
_cell_length_b   9.66783190
_cell_length_c   3.40854500
_cell_angle_alpha   90.00000000
_cell_angle_beta   90.00000000
_cell_angle_gamma   119.99999934
_symmetry_Int_Tables_number   1
_chemical_formula_structural   Nb3S4
_chemical_formula_sum   'Nb6 S8'
_cell_volume   275.90390534
_cell_formula_units_Z   2
loop_
 _symmetry_equiv_pos_site_id
 _symmetry_equiv_pos_as_xyz
  1  'x, y, z'
loop_
 _atom_site_type_symbol
 _atom_site_label
 _atom_site_symmetry_multiplicity
 _atom_site_fract_x
 _atom_site_fract_y
 _atom_site_fract_z
 _atom_site_occupancy
  Nb  Nb0  1  0.51388500  0.88505900  0.75000000  1
  Nb  Nb1  1  0.62882600  0.51388500  0.25000000  1
  Nb  Nb2  1  0.88505900  0.37117400  0.25000000  1
  Nb  Nb3  1  0.11494100  0.62882600  0.75000000  1
  Nb  Nb4  1  0.37117400  0.48611500  0.75000000  1
  Nb  Nb5  1  0.48611500  0.11494100  0.25000000  1
  S  S6  1  0.65373300  0.71074000  0.75000000  1
  S  S7  1  0.94299300  0.65373300  0.25000000  1
  S  S8  1  0.71074000  0.05700700  0.25000000  1
  S  S9  1  0.28926000  0.94299300  0.75000000  1
  S  S10  1  0.05700700  0.34626700  0.75000000  1
  S  S11  1  0.34626700  0.28926000  0.25000000  1
  S  S12  1  0.33333300  0.66666700  0.25000000  1
  S  S13  1  0.66666700  0.33333300  0.75000000  1
