# generated using pymatgen
data_Na3GaSe3
_symmetry_space_group_name_H-M   'P 1'
_cell_length_a   7.34976500
_cell_length_b   7.57568300
_cell_length_c   15.27825199
_cell_angle_alpha   60.65735978
_cell_angle_beta   90.00000000
_cell_angle_gamma   90.00000000
_symmetry_Int_Tables_number   1
_chemical_formula_structural   Na3GaSe3
_chemical_formula_sum   'Na12 Ga4 Se12'
_cell_volume   741.54646030
_cell_formula_units_Z   4
loop_
 _symmetry_equiv_pos_site_id
 _symmetry_equiv_pos_as_xyz
  1  'x, y, z'
loop_
 _atom_site_type_symbol
 _atom_site_label
 _atom_site_symmetry_multiplicity
 _atom_site_fract_x
 _atom_site_fract_y
 _atom_site_fract_z
 _atom_site_occupancy
  Na  Na0  1  0.02920100  0.94047300  0.28696700  1
  Na  Na1  1  0.52920100  0.05952700  0.21303300  1
  Na  Na2  1  0.97079900  0.05952700  0.71303300  1
  Na  Na3  1  0.47079900  0.94047300  0.78696700  1
  Na  Na4  1  0.00353400  0.72791000  0.10652000  1
  Na  Na5  1  0.50353400  0.27209000  0.39348000  1
  Na  Na6  1  0.99646600  0.27209000  0.89348000  1
  Na  Na7  1  0.49646600  0.72791000  0.60652000  1
  Na  Na8  1  0.00364000  0.31425000  0.39532700  1
  Na  Na9  1  0.50364000  0.68575000  0.10467300  1
  Na  Na10  1  0.99636000  0.68575000  0.60467300  1
  Na  Na11  1  0.49636000  0.31425000  0.89532700  1
  Ga  Ga12  1  0.64434000  0.66655700  0.41789700  1
  Ga  Ga13  1  0.14434000  0.33344300  0.08210300  1
  Ga  Ga14  1  0.35566000  0.33344300  0.58210300  1
  Ga  Ga15  1  0.85566000  0.66655700  0.91789700  1
  Se  Se16  1  0.80466800  0.34577500  0.07351400  1
  Se  Se17  1  0.30466800  0.65422500  0.42648600  1
  Se  Se18  1  0.19533200  0.65422500  0.92648600  1
  Se  Se19  1  0.69533200  0.34577500  0.57351400  1
  Se  Se20  1  0.24862900  0.34429600  0.22841800  1
  Se  Se21  1  0.74862900  0.65570400  0.27158200  1
  Se  Se22  1  0.75137100  0.65570400  0.77158200  1
  Se  Se23  1  0.25137100  0.34429600  0.72841800  1
  Se  Se24  1  0.76051500  0.95056400  0.42893400  1
  Se  Se25  1  0.26051500  0.04943600  0.07106600  1
  Se  Se26  1  0.23948500  0.04943600  0.57106600  1
  Se  Se27  1  0.73948500  0.95056400  0.92893400  1
