# generated using pymatgen
data_U(Al5Ru)2
_symmetry_space_group_name_H-M   'P 1'
_cell_length_a   6.82573035
_cell_length_b   6.82573035
_cell_length_c   9.09400200
_cell_angle_alpha   90.00000000
_cell_angle_beta   90.00000000
_cell_angle_gamma   97.47973977
_symmetry_Int_Tables_number   1
_chemical_formula_structural   U(Al5Ru)2
_chemical_formula_sum   'U2 Al20 Ru4'
_cell_volume   420.08972212
_cell_formula_units_Z   2
loop_
 _symmetry_equiv_pos_site_id
 _symmetry_equiv_pos_as_xyz
  1  'x, y, z'
loop_
 _atom_site_type_symbol
 _atom_site_label
 _atom_site_symmetry_multiplicity
 _atom_site_fract_x
 _atom_site_fract_y
 _atom_site_fract_z
 _atom_site_occupancy
  U  U0  1  0.87566900  0.12433100  0.75000000  1
  U  U1  1  0.12433100  0.87566900  0.25000000  1
  Al  Al2  1  0.77641500  0.77641500  0.00000000  1
  Al  Al3  1  0.77641500  0.77641500  0.50000000  1
  Al  Al4  1  0.22358500  0.22358500  0.00000000  1
  Al  Al5  1  0.22358500  0.22358500  0.50000000  1
  Al  Al6  1  0.62337100  0.37662900  0.95051700  1
  Al  Al7  1  0.37662900  0.62337100  0.04948300  1
  Al  Al8  1  0.62337100  0.37662900  0.54948300  1
  Al  Al9  1  0.37662900  0.62337100  0.45051700  1
  Al  Al10  1  0.84483700  0.15516300  0.39894100  1
  Al  Al11  1  0.15516300  0.84483700  0.60105900  1
  Al  Al12  1  0.84483700  0.15516300  0.10105900  1
  Al  Al13  1  0.15516300  0.84483700  0.89894100  1
  Al  Al14  1  0.40987900  0.14172700  0.75000000  1
  Al  Al15  1  0.14172700  0.40987900  0.25000000  1
  Al  Al16  1  0.59012100  0.85827300  0.25000000  1
  Al  Al17  1  0.85827300  0.59012100  0.75000000  1
  Al  Al18  1  0.51961400  0.77989000  0.75000000  1
  Al  Al19  1  0.77989000  0.51961400  0.25000000  1
  Al  Al20  1  0.48038600  0.22011000  0.25000000  1
  Al  Al21  1  0.22011000  0.48038600  0.75000000  1
  Ru  Ru22  1  0.50000000  0.00000000  0.00000000  1
  Ru  Ru23  1  0.00000000  0.50000000  0.00000000  1
  Ru  Ru24  1  0.50000000  0.00000000  0.50000000  1
  Ru  Ru25  1  0.00000000  0.50000000  0.50000000  1
