# generated using pymatgen
data_BaDyFeCuO5
_symmetry_space_group_name_H-M   'P 1'
_cell_length_a   3.89488200
_cell_length_b   3.89488200
_cell_length_c   7.96393000
_cell_angle_alpha   90.00000000
_cell_angle_beta   90.00000000
_cell_angle_gamma   90.00000000
_symmetry_Int_Tables_number   1
_chemical_formula_structural   BaDyFeCuO5
_chemical_formula_sum   'Ba1 Dy1 Fe1 Cu1 O5'
_cell_volume   120.81366064
_cell_formula_units_Z   1
loop_
 _symmetry_equiv_pos_site_id
 _symmetry_equiv_pos_as_xyz
  1  'x, y, z'
loop_
 _atom_site_type_symbol
 _atom_site_label
 _atom_site_symmetry_multiplicity
 _atom_site_fract_x
 _atom_site_fract_y
 _atom_site_fract_z
 _atom_site_occupancy
  Ba  Ba0  1  0.50000000  0.50000000  0.74520700  1
  Dy  Dy1  1  0.50000000  0.50000000  0.20921200  1
  Fe  Fe2  1  0.00000000  0.00000000  0.44994700  1
  Cu  Cu3  1  0.00000000  0.00000000  0.99854600  1
  O  O4  1  0.50000000  0.00000000  0.02151600  1
  O  O5  1  0.00000000  0.50000000  0.02151600  1
  O  O6  1  0.50000000  0.00000000  0.37871000  1
  O  O7  1  0.00000000  0.50000000  0.37871000  1
  O  O8  1  0.00000000  0.00000000  0.68463600  1
