# generated using pymatgen
data_Ho4C5
_symmetry_space_group_name_H-M   'P 1'
_cell_length_a   3.64409700
_cell_length_b   6.54623700
_cell_length_c   11.91544800
_cell_angle_alpha   90.00000000
_cell_angle_beta   90.00000000
_cell_angle_gamma   90.00000000
_symmetry_Int_Tables_number   1
_chemical_formula_structural   Ho4C5
_chemical_formula_sum   'Ho8 C10'
_cell_volume   284.24447303
_cell_formula_units_Z   2
loop_
 _symmetry_equiv_pos_site_id
 _symmetry_equiv_pos_as_xyz
  1  'x, y, z'
loop_
 _atom_site_type_symbol
 _atom_site_label
 _atom_site_symmetry_multiplicity
 _atom_site_fract_x
 _atom_site_fract_y
 _atom_site_fract_z
 _atom_site_occupancy
  Ho  Ho0  1  0.00000000  0.25641200  0.54221400  1
  Ho  Ho1  1  0.00000000  0.74358800  0.45778600  1
  Ho  Ho2  1  0.00000000  0.75641200  0.95778600  1
  Ho  Ho3  1  0.00000000  0.24358800  0.04221400  1
  Ho  Ho4  1  0.50000000  0.10556700  0.80362300  1
  Ho  Ho5  1  0.50000000  0.89443300  0.19637700  1
  Ho  Ho6  1  0.50000000  0.60556700  0.69637700  1
  Ho  Ho7  1  0.50000000  0.39443300  0.30362300  1
  C  C8  1  0.50000000  0.50000000  0.50000000  1
  C  C9  1  0.50000000  0.00000000  0.00000000  1
  C  C10  1  0.00000000  0.35884000  0.73491200  1
  C  C11  1  0.00000000  0.64116000  0.26508800  1
  C  C12  1  0.00000000  0.85884000  0.76508800  1
  C  C13  1  0.00000000  0.14116000  0.23491200  1
  C  C14  1  0.00000000  0.40199100  0.84443400  1
  C  C15  1  0.00000000  0.59800900  0.15556600  1
  C  C16  1  0.00000000  0.09800900  0.34443400  1
  C  C17  1  0.00000000  0.90199100  0.65556600  1
