# generated using pymatgen
data_KS3
_symmetry_space_group_name_H-M   'P 1'
_cell_length_a   12.11449400
_cell_length_b   6.59335700
_cell_length_c   12.40361224
_cell_angle_alpha   72.70660700
_cell_angle_beta   90.00000000
_cell_angle_gamma   90.00000000
_symmetry_Int_Tables_number   1
_chemical_formula_structural   KS3
_chemical_formula_sum   'K8 S24'
_cell_volume   945.95445342
_cell_formula_units_Z   8
loop_
 _symmetry_equiv_pos_site_id
 _symmetry_equiv_pos_as_xyz
  1  'x, y, z'
loop_
 _atom_site_type_symbol
 _atom_site_label
 _atom_site_symmetry_multiplicity
 _atom_site_fract_x
 _atom_site_fract_y
 _atom_site_fract_z
 _atom_site_occupancy
  K  K0  1  0.63883600  0.21242100  0.97734200  1
  K  K1  1  0.86116400  0.21242100  0.47734200  1
  K  K2  1  0.36116400  0.78757900  0.02265800  1
  K  K3  1  0.13883600  0.78757900  0.52265800  1
  K  K4  1  0.61084800  0.69321600  0.58945700  1
  K  K5  1  0.88915200  0.69321600  0.08945700  1
  K  K6  1  0.38915200  0.30678400  0.41054300  1
  K  K7  1  0.11084800  0.30678400  0.91054300  1
  S  S8  1  0.37187400  0.30180900  0.99960100  1
  S  S9  1  0.12812600  0.30180900  0.49960100  1
  S  S10  1  0.62812600  0.69819100  0.00039900  1
  S  S11  1  0.87187400  0.69819100  0.50039900  1
  S  S12  1  0.41780800  0.47251300  0.83840400  1
  S  S13  1  0.08219200  0.47251300  0.33840400  1
  S  S14  1  0.58219200  0.52748700  0.16159600  1
  S  S15  1  0.91780800  0.52748700  0.66159600  1
  S  S16  1  0.32935300  0.38405100  0.71922400  1
  S  S17  1  0.17064700  0.38405100  0.21922400  1
  S  S18  1  0.67064700  0.61594900  0.28077600  1
  S  S19  1  0.82935300  0.61594900  0.78077600  1
  S  S20  1  0.38570000  0.06353300  0.72801000  1
  S  S21  1  0.11430000  0.06353300  0.22801000  1
  S  S22  1  0.61430000  0.93646700  0.27199000  1
  S  S23  1  0.88570000  0.93646700  0.77199000  1
  S  S24  1  0.55367800  0.06987000  0.72486400  1
  S  S25  1  0.94632200  0.06987000  0.22486400  1
  S  S26  1  0.44632200  0.93013000  0.27513600  1
  S  S27  1  0.05367800  0.93013000  0.77513600  1
  S  S28  1  0.61029000  0.21359700  0.56404000  1
  S  S29  1  0.88971000  0.21359700  0.06404000  1
  S  S30  1  0.38971000  0.78640300  0.43596000  1
  S  S31  1  0.11029000  0.78640300  0.93596000  1
