# generated using pymatgen
data_MgPd3
_symmetry_space_group_name_H-M   'P 1'
_cell_length_a   8.43158061
_cell_length_b   8.43158061
_cell_length_c   8.43158061
_cell_angle_alpha   152.71562968
_cell_angle_beta   152.71562968
_cell_angle_gamma   38.96915617
_symmetry_Int_Tables_number   1
_chemical_formula_structural   MgPd3
_chemical_formula_sum   'Mg2 Pd6'
_cell_volume   125.74042862
_cell_formula_units_Z   2
loop_
 _symmetry_equiv_pos_site_id
 _symmetry_equiv_pos_as_xyz
  1  'x, y, z'
loop_
 _atom_site_type_symbol
 _atom_site_label
 _atom_site_symmetry_multiplicity
 _atom_site_fract_x
 _atom_site_fract_y
 _atom_site_fract_z
 _atom_site_occupancy
  Mg  Mg0  1  0.12368800  0.12368800  0.00000000  1
  Mg  Mg1  1  0.87631200  0.87631200  0.00000000  1
  Pd  Pd2  1  0.00000000  0.50000000  0.50000000  1
  Pd  Pd3  1  0.50000000  0.00000000  0.50000000  1
  Pd  Pd4  1  0.25000000  0.75000000  0.50000000  1
  Pd  Pd5  1  0.75000000  0.25000000  0.50000000  1
  Pd  Pd6  1  0.37442900  0.37442900  0.00000000  1
  Pd  Pd7  1  0.62557100  0.62557100  0.00000000  1
