# generated using pymatgen
data_YbZnGa3
_symmetry_space_group_name_H-M   'P 1'
_cell_length_a   4.21610800
_cell_length_b   4.21610800
_cell_length_c   6.24761429
_cell_angle_alpha   70.28040149
_cell_angle_beta   70.28040149
_cell_angle_gamma   90.00000000
_symmetry_Int_Tables_number   1
_chemical_formula_structural   YbZnGa3
_chemical_formula_sum   'Yb1 Zn1 Ga3'
_cell_volume   97.59564670
_cell_formula_units_Z   1
loop_
 _symmetry_equiv_pos_site_id
 _symmetry_equiv_pos_as_xyz
  1  'x, y, z'
loop_
 _atom_site_type_symbol
 _atom_site_label
 _atom_site_symmetry_multiplicity
 _atom_site_fract_x
 _atom_site_fract_y
 _atom_site_fract_z
 _atom_site_occupancy
  Yb  Yb0  1  0.99979700  0.99979700  0.00040600  1
  Zn  Zn1  1  0.38821400  0.38821400  0.22357100  1
  Ga  Ga2  1  0.60863900  0.60863900  0.78272200  1
  Ga  Ga3  1  0.75167500  0.25167500  0.49665000  1
  Ga  Ga4  1  0.25167500  0.75167500  0.49665000  1
