# generated using pymatgen
data_Cs3Pb4Au
_symmetry_space_group_name_H-M   'P 1'
_cell_length_a   7.08261300
_cell_length_b   7.54190200
_cell_length_c   14.09632000
_cell_angle_alpha   90.00000000
_cell_angle_beta   90.00000000
_cell_angle_gamma   90.00000000
_symmetry_Int_Tables_number   1
_chemical_formula_structural   Cs3Pb4Au
_chemical_formula_sum   'Cs6 Pb8 Au2'
_cell_volume   752.97428916
_cell_formula_units_Z   2
loop_
 _symmetry_equiv_pos_site_id
 _symmetry_equiv_pos_as_xyz
  1  'x, y, z'
loop_
 _atom_site_type_symbol
 _atom_site_label
 _atom_site_symmetry_multiplicity
 _atom_site_fract_x
 _atom_site_fract_y
 _atom_site_fract_z
 _atom_site_occupancy
  Cs  Cs0  1  0.16603300  0.00000000  0.75382900  1
  Cs  Cs1  1  0.16603300  0.00000000  0.24617100  1
  Cs  Cs2  1  0.43549100  0.50000000  0.50000000  1
  Cs  Cs3  1  0.56450900  0.00000000  0.00000000  1
  Cs  Cs4  1  0.83396700  0.50000000  0.25382900  1
  Cs  Cs5  1  0.83396700  0.50000000  0.74617100  1
  Pb  Pb6  1  0.05125700  0.28111500  0.00000000  1
  Pb  Pb7  1  0.05125700  0.71888500  0.00000000  1
  Pb  Pb8  1  0.34520600  0.50000000  0.88381000  1
  Pb  Pb9  1  0.34520600  0.50000000  0.11619000  1
  Pb  Pb10  1  0.65479400  0.00000000  0.38381000  1
  Pb  Pb11  1  0.65479400  0.00000000  0.61619000  1
  Pb  Pb12  1  0.94874300  0.78111500  0.50000000  1
  Pb  Pb13  1  0.94874300  0.21888500  0.50000000  1
  Au  Au14  1  0.30155700  0.00000000  0.50000000  1
  Au  Au15  1  0.69844300  0.50000000  0.00000000  1
