# generated using pymatgen
data_GdErCo4
_symmetry_space_group_name_H-M   'P 1'
_cell_length_a   5.04020340
_cell_length_b   5.04020340
_cell_length_c   5.04020340
_cell_angle_alpha   60.00000000
_cell_angle_beta   60.00000000
_cell_angle_gamma   60.00000000
_symmetry_Int_Tables_number   1
_chemical_formula_structural   GdErCo4
_chemical_formula_sum   'Gd1 Er1 Co4'
_cell_volume   90.53764424
_cell_formula_units_Z   1
loop_
 _symmetry_equiv_pos_site_id
 _symmetry_equiv_pos_as_xyz
  1  'x, y, z'
loop_
 _atom_site_type_symbol
 _atom_site_label
 _atom_site_symmetry_multiplicity
 _atom_site_fract_x
 _atom_site_fract_y
 _atom_site_fract_z
 _atom_site_occupancy
  Gd  Gd0  1  0.50000000  0.50000000  0.50000000  1
  Er  Er1  1  0.25000000  0.25000000  0.25000000  1
  Co  Co2  1  0.87497100  0.37508600  0.87497100  1
  Co  Co3  1  0.87497100  0.87497100  0.87497100  1
  Co  Co4  1  0.87497100  0.87497100  0.37508600  1
  Co  Co5  1  0.37508600  0.87497100  0.87497100  1
