# generated using pymatgen
data_CaCuF4
_symmetry_space_group_name_H-M   'P 1'
_cell_length_a   6.49158971
_cell_length_b   6.49158971
_cell_length_c   6.49158971
_cell_angle_alpha   130.03412862
_cell_angle_beta   130.03412862
_cell_angle_gamma   73.35221045
_symmetry_Int_Tables_number   1
_chemical_formula_structural   CaCuF4
_chemical_formula_sum   'Ca2 Cu2 F8'
_cell_volume   156.54619747
_cell_formula_units_Z   2
loop_
 _symmetry_equiv_pos_site_id
 _symmetry_equiv_pos_as_xyz
  1  'x, y, z'
loop_
 _atom_site_type_symbol
 _atom_site_label
 _atom_site_symmetry_multiplicity
 _atom_site_fract_x
 _atom_site_fract_y
 _atom_site_fract_z
 _atom_site_occupancy
  Ca  Ca0  1  0.75000000  0.75000000  0.00000000  1
  Ca  Ca1  1  0.25000000  0.25000000  0.00000000  1
  Cu  Cu2  1  0.00000000  0.50000000  0.50000000  1
  Cu  Cu3  1  0.50000000  0.00000000  0.50000000  1
  F  F4  1  0.95069600  0.45069600  0.14436000  1
  F  F5  1  0.69366400  0.19366400  0.14436000  1
  F  F6  1  0.04930400  0.54930400  0.85564000  1
  F  F7  1  0.54930400  0.69366400  0.50000000  1
  F  F8  1  0.30633600  0.80633600  0.85564000  1
  F  F9  1  0.80633600  0.95069600  0.50000000  1
  F  F10  1  0.45069600  0.30633600  0.50000000  1
  F  F11  1  0.19366400  0.04930400  0.50000000  1
