# generated using pymatgen
data_KCa2Mg2V3O12
_symmetry_space_group_name_H-M   'P 1'
_cell_length_a   11.03251232
_cell_length_b   11.03251232
_cell_length_c   11.03251232
_cell_angle_alpha   110.27408763
_cell_angle_beta   110.27408763
_cell_angle_gamma   107.87715059
_symmetry_Int_Tables_number   1
_chemical_formula_structural   KCa2Mg2V3O12
_chemical_formula_sum   'K4 Ca8 Mg8 V12 O48'
_cell_volume   1033.11825750
_cell_formula_units_Z   4
loop_
 _symmetry_equiv_pos_site_id
 _symmetry_equiv_pos_as_xyz
  1  'x, y, z'
loop_
 _atom_site_type_symbol
 _atom_site_label
 _atom_site_symmetry_multiplicity
 _atom_site_fract_x
 _atom_site_fract_y
 _atom_site_fract_z
 _atom_site_occupancy
  K  K0  1  0.25000000  0.25000000  0.00000000  1
  K  K1  1  0.00000000  0.50000000  0.50000000  1
  K  K2  1  0.50000000  0.00000000  0.50000000  1
  K  K3  1  0.75000000  0.75000000  0.00000000  1
  Ca  Ca4  1  0.00227600  0.87500000  0.62727600  1
  Ca  Ca5  1  0.24772400  0.37500000  0.37272400  1
  Ca  Ca6  1  0.62500000  0.49772400  0.37272400  1
  Ca  Ca7  1  0.12500000  0.25227600  0.62727600  1
  Ca  Ca8  1  0.74772400  0.37500000  0.87272400  1
  Ca  Ca9  1  0.50227600  0.87500000  0.12727600  1
  Ca  Ca10  1  0.12500000  0.75227600  0.12727600  1
  Ca  Ca11  1  0.62500000  0.99772400  0.87272400  1
  Mg  Mg12  1  0.37500000  0.62500000  0.25000000  1
  Mg  Mg13  1  0.37500000  0.12500000  0.75000000  1
  Mg  Mg14  1  0.87500000  0.12500000  0.25000000  1
  Mg  Mg15  1  0.87500000  0.62500000  0.75000000  1
  Mg  Mg16  1  0.87500000  0.62500000  0.25000000  1
  Mg  Mg17  1  0.87500000  0.12500000  0.75000000  1
  Mg  Mg18  1  0.37500000  0.62500000  0.75000000  1
  Mg  Mg19  1  0.37500000  0.12500000  0.25000000  1
  V  V20  1  0.50000000  0.50000000  0.00000000  1
  V  V21  1  0.75000000  0.25000000  0.50000000  1
  V  V22  1  0.25103600  0.87500000  0.87603600  1
  V  V23  1  0.99896400  0.37500000  0.12396400  1
  V  V24  1  0.62500000  0.74896400  0.62396400  1
  V  V25  1  0.12500000  0.00103600  0.37603600  1
  V  V26  1  0.25000000  0.75000000  0.50000000  1
  V  V27  1  0.00000000  0.00000000  0.00000000  1
  V  V28  1  0.49896400  0.37500000  0.62396400  1
  V  V29  1  0.75103600  0.87500000  0.37603600  1
  V  V30  1  0.12500000  0.50103600  0.87603600  1
  V  V31  1  0.62500000  0.24896400  0.12396400  1
  O  O32  1  0.47508700  0.51751700  0.15253700  1
  O  O33  1  0.36498000  0.32255000  0.84746300  1
  O  O34  1  0.88502000  0.23248300  0.45757000  1
  O  O35  1  0.77491300  0.42745000  0.54243000  1
  O  O36  1  0.25783000  0.01229300  0.83146700  1
  O  O37  1  0.06917400  0.73770700  0.74553700  1
  O  O38  1  0.99217000  0.32363700  0.25446300  1
  O  O39  1  0.18082600  0.42636300  0.16853300  1
  O  O40  1  0.76825100  0.70678400  0.62920000  1
  O  O41  1  0.48174900  0.61094900  0.43853300  1
  O  O42  1  0.07758400  0.13905100  0.37080000  1
  O  O43  1  0.17241600  0.04321600  0.56146700  1
  O  O44  1  0.27491300  0.73248300  0.34746300  1
  O  O45  1  0.38502000  0.92745000  0.65253700  1
  O  O46  1  0.86498000  0.01751700  0.04243000  1
  O  O47  1  0.97508700  0.82255000  0.95757000  1
  O  O48  1  0.49217000  0.23770700  0.66853300  1
  O  O49  1  0.68082600  0.51229300  0.75446300  1
  O  O50  1  0.75783000  0.92636300  0.24553700  1
  O  O51  1  0.56917400  0.82363700  0.33146700  1
  O  O52  1  0.98174900  0.54321600  0.87080000  1
  O  O53  1  0.26825100  0.63905100  0.06146700  1
  O  O54  1  0.67241600  0.11094900  0.12920000  1
  O  O55  1  0.57758400  0.20678400  0.93853300  1
  O  O56  1  0.95678400  0.51825100  0.12920000  1
  O  O57  1  0.86094900  0.23174900  0.93853300  1
  O  O58  1  0.38905100  0.82758400  0.87080000  1
  O  O59  1  0.29321600  0.92241600  0.06146700  1
  O  O60  1  0.76751700  0.22508700  0.65253700  1
  O  O61  1  0.57255000  0.11498000  0.34746300  1
  O  O62  1  0.48248300  0.63502000  0.95757000  1
  O  O63  1  0.67745000  0.52491300  0.04243000  1
  O  O64  1  0.26229300  0.00783000  0.33146700  1
  O  O65  1  0.98770700  0.81917400  0.24553700  1
  O  O66  1  0.57363700  0.74217000  0.75446300  1
  O  O67  1  0.67636300  0.93082600  0.66853300  1
  O  O68  1  0.79321600  0.73174900  0.37080000  1
  O  O69  1  0.88905100  0.01825100  0.56146700  1
  O  O70  1  0.36094900  0.42241600  0.62920000  1
  O  O71  1  0.45678400  0.32758400  0.43853300  1
  O  O72  1  0.98248300  0.02491300  0.84746300  1
  O  O73  1  0.17745000  0.13502000  0.15253700  1
  O  O74  1  0.26751700  0.61498000  0.54243000  1
  O  O75  1  0.07255000  0.72508700  0.45757000  1
  O  O76  1  0.48770700  0.24217000  0.16853300  1
  O  O77  1  0.76229300  0.43082600  0.25446300  1
  O  O78  1  0.17636300  0.50783000  0.74553700  1
  O  O79  1  0.07363700  0.31917400  0.83146700  1
