# generated using pymatgen
data_Rb2UTe3
_symmetry_space_group_name_H-M   'P 1'
_cell_length_a   8.24736894
_cell_length_b   8.24736894
_cell_length_c   9.04736041
_cell_angle_alpha   81.18707937
_cell_angle_beta   81.18707937
_cell_angle_gamma   120.03988833
_symmetry_Int_Tables_number   1
_chemical_formula_structural   Rb2UTe3
_chemical_formula_sum   'Rb4 U2 Te6'
_cell_volume   507.07428048
_cell_formula_units_Z   2
loop_
 _symmetry_equiv_pos_site_id
 _symmetry_equiv_pos_as_xyz
  1  'x, y, z'
loop_
 _atom_site_type_symbol
 _atom_site_label
 _atom_site_symmetry_multiplicity
 _atom_site_fract_x
 _atom_site_fract_y
 _atom_site_fract_z
 _atom_site_occupancy
  Rb  Rb0  1  0.50000000  0.50000000  0.00000000  1
  Rb  Rb1  1  0.65650200  0.34349800  0.50000000  1
  Rb  Rb2  1  0.34349800  0.65650200  0.50000000  1
  Rb  Rb3  1  0.00000000  0.00000000  0.50000000  1
  U  U4  1  0.83235700  0.16764300  0.00000000  1
  U  U5  1  0.16764300  0.83235700  0.00000000  1
  Te  Te6  1  0.80953400  0.80953400  0.20070200  1
  Te  Te7  1  0.19046600  0.19046600  0.79929800  1
  Te  Te8  1  0.43171100  0.05350000  0.20333300  1
  Te  Te9  1  0.56828900  0.94650000  0.79666700  1
  Te  Te10  1  0.94650000  0.56828900  0.79666700  1
  Te  Te11  1  0.05350000  0.43171100  0.20333300  1
