# generated using pymatgen
data_BaNiO3
_symmetry_space_group_name_H-M   'P 1'
_cell_length_a   5.71890611
_cell_length_b   5.71890611
_cell_length_c   4.82609200
_cell_angle_alpha   90.00000000
_cell_angle_beta   90.00000000
_cell_angle_gamma   120.00000122
_symmetry_Int_Tables_number   1
_chemical_formula_structural   BaNiO3
_chemical_formula_sum   'Ba2 Ni2 O6'
_cell_volume   136.69485086
_cell_formula_units_Z   2
loop_
 _symmetry_equiv_pos_site_id
 _symmetry_equiv_pos_as_xyz
  1  'x, y, z'
loop_
 _atom_site_type_symbol
 _atom_site_label
 _atom_site_symmetry_multiplicity
 _atom_site_fract_x
 _atom_site_fract_y
 _atom_site_fract_z
 _atom_site_occupancy
  Ba  Ba0  1  0.66666700  0.33333300  0.74973800  1
  Ba  Ba1  1  0.33333300  0.66666700  0.24973800  1
  Ni  Ni2  1  0.00000000  0.00000000  0.48831700  1
  Ni  Ni3  1  0.00000000  0.00000000  0.98831700  1
  O  O4  1  0.85356300  0.14643700  0.23814900  1
  O  O5  1  0.70712600  0.85356300  0.73814900  1
  O  O6  1  0.14643700  0.29287400  0.73814900  1
  O  O7  1  0.85356300  0.70712600  0.23814900  1
  O  O8  1  0.14643700  0.85356300  0.73814900  1
  O  O9  1  0.29287400  0.14643700  0.23814900  1
