# generated using pymatgen
data_Y2GaNi2
_symmetry_space_group_name_H-M   'P 1'
_cell_length_a   5.40881014
_cell_length_b   5.40881014
_cell_length_c   5.40881014
_cell_angle_alpha   135.35713776
_cell_angle_beta   118.64933894
_cell_angle_gamma   78.99186834
_symmetry_Int_Tables_number   1
_chemical_formula_structural   Y2GaNi2
_chemical_formula_sum   'Y2 Ga1 Ni2'
_cell_volume   94.63925468
_cell_formula_units_Z   1
loop_
 _symmetry_equiv_pos_site_id
 _symmetry_equiv_pos_as_xyz
  1  'x, y, z'
loop_
 _atom_site_type_symbol
 _atom_site_label
 _atom_site_symmetry_multiplicity
 _atom_site_fract_x
 _atom_site_fract_y
 _atom_site_fract_z
 _atom_site_occupancy
  Y  Y0  1  0.70559400  0.20559400  0.50000000  1
  Y  Y1  1  0.29440600  0.79440600  0.50000000  1
  Ga  Ga2  1  0.00000000  0.00000000  0.00000000  1
  Ni  Ni3  1  0.28182800  0.50000000  0.78182800  1
  Ni  Ni4  1  0.71817200  0.50000000  0.21817200  1
