# generated using pymatgen
data_K2RuBr6
_symmetry_space_group_name_H-M   'P 1'
_cell_length_a   7.45010300
_cell_length_b   10.68138100
_cell_length_c   14.93640400
_cell_angle_alpha   90.00000000
_cell_angle_beta   90.00000000
_cell_angle_gamma   90.00000000
_symmetry_Int_Tables_number   1
_chemical_formula_structural   K2RuBr6
_chemical_formula_sum   'K8 Ru4 Br24'
_cell_volume   1188.60002588
_cell_formula_units_Z   4
loop_
 _symmetry_equiv_pos_site_id
 _symmetry_equiv_pos_as_xyz
  1  'x, y, z'
loop_
 _atom_site_type_symbol
 _atom_site_label
 _atom_site_symmetry_multiplicity
 _atom_site_fract_x
 _atom_site_fract_y
 _atom_site_fract_z
 _atom_site_occupancy
  K  K0  1  0.84082000  0.49950200  0.35526400  1
  K  K1  1  0.65918000  0.49950200  0.85526400  1
  K  K2  1  0.34082000  0.99950200  0.14473600  1
  K  K3  1  0.65918000  0.00049800  0.85526400  1
  K  K4  1  0.15918000  0.99950200  0.64473600  1
  K  K5  1  0.15918000  0.50049800  0.64473600  1
  K  K6  1  0.34082000  0.50049800  0.14473600  1
  K  K7  1  0.84082000  0.00049800  0.35526400  1
  Ru  Ru8  1  0.69132800  0.75000000  0.61853700  1
  Ru  Ru9  1  0.19132800  0.25000000  0.88146300  1
  Ru  Ru10  1  0.30867200  0.25000000  0.38146300  1
  Ru  Ru11  1  0.80867200  0.75000000  0.11853700  1
  Br  Br12  1  0.42814700  0.75000000  0.72532500  1
  Br  Br13  1  0.40045800  0.25000000  0.74743100  1
  Br  Br14  1  0.19918000  0.01548900  0.87803700  1
  Br  Br15  1  0.69918000  0.51548900  0.62196300  1
  Br  Br16  1  0.45948100  0.25000000  0.98592400  1
  Br  Br17  1  0.04051900  0.25000000  0.48592400  1
  Br  Br18  1  0.80082000  0.98451100  0.12196300  1
  Br  Br19  1  0.07185300  0.75000000  0.22532500  1
  Br  Br20  1  0.30082000  0.01548900  0.37803700  1
  Br  Br21  1  0.19918000  0.48451100  0.87803700  1
  Br  Br22  1  0.09954200  0.25000000  0.24743100  1
  Br  Br23  1  0.69918000  0.98451100  0.62196300  1
  Br  Br24  1  0.80082000  0.51548900  0.12196300  1
  Br  Br25  1  0.90045800  0.75000000  0.75256900  1
  Br  Br26  1  0.95948100  0.75000000  0.51407600  1
  Br  Br27  1  0.54051900  0.75000000  0.01407600  1
  Br  Br28  1  0.57185300  0.25000000  0.27467500  1
  Br  Br29  1  0.59954200  0.75000000  0.25256900  1
  Br  Br30  1  0.92814700  0.25000000  0.77467500  1
  Br  Br31  1  0.30082000  0.48451100  0.37803700  1
  Br  Br32  1  0.01424400  0.75000000  0.99195600  1
  Br  Br33  1  0.51424400  0.25000000  0.50804400  1
  Br  Br34  1  0.48575600  0.75000000  0.49195600  1
  Br  Br35  1  0.98575600  0.25000000  0.00804400  1
