# generated using pymatgen
data_ScNb(NiSn)2
_symmetry_space_group_name_H-M   'P 1'
_cell_length_a   7.45148305
_cell_length_b   7.45148305
_cell_length_c   7.45148367
_cell_angle_alpha   33.39818528
_cell_angle_beta   33.39818528
_cell_angle_gamma   33.39818503
_symmetry_Int_Tables_number   1
_chemical_formula_structural   ScNb(NiSn)2
_chemical_formula_sum   'Sc1 Nb1 Ni2 Sn2'
_cell_volume   111.63496844
_cell_formula_units_Z   1
loop_
 _symmetry_equiv_pos_site_id
 _symmetry_equiv_pos_as_xyz
  1  'x, y, z'
loop_
 _atom_site_type_symbol
 _atom_site_label
 _atom_site_symmetry_multiplicity
 _atom_site_fract_x
 _atom_site_fract_y
 _atom_site_fract_z
 _atom_site_occupancy
  Sc  Sc0  1  0.99931200  0.99931200  0.99931200  1
  Nb  Nb1  1  0.50142000  0.50142000  0.50142000  1
  Ni  Ni2  1  0.12858800  0.12858800  0.12858800  1
  Ni  Ni3  1  0.62100900  0.62100900  0.62100900  1
  Sn  Sn4  1  0.75002700  0.75002700  0.75002700  1
  Sn  Sn5  1  0.24964200  0.24964200  0.24964200  1
