# generated using pymatgen
data_KVTeO5
_symmetry_space_group_name_H-M   'P 1'
_cell_length_a   11.89466300
_cell_length_b   6.54655300
_cell_length_c   7.07389012
_cell_angle_alpha   73.02279324
_cell_angle_beta   90.00000000
_cell_angle_gamma   90.00000000
_symmetry_Int_Tables_number   1
_chemical_formula_structural   KVTeO5
_chemical_formula_sum   'K4 V4 Te4 O20'
_cell_volume   526.83211261
_cell_formula_units_Z   4
loop_
 _symmetry_equiv_pos_site_id
 _symmetry_equiv_pos_as_xyz
  1  'x, y, z'
loop_
 _atom_site_type_symbol
 _atom_site_label
 _atom_site_symmetry_multiplicity
 _atom_site_fract_x
 _atom_site_fract_y
 _atom_site_fract_z
 _atom_site_occupancy
  K  K0  1  0.31239000  0.17760500  0.83643100  1
  K  K1  1  0.81239000  0.82239500  0.66356900  1
  K  K2  1  0.68761000  0.82239500  0.16356900  1
  K  K3  1  0.18761000  0.17760500  0.33643100  1
  V  V4  1  0.12144300  0.65144900  0.59403200  1
  V  V5  1  0.62144300  0.34855100  0.90596800  1
  V  V6  1  0.87855700  0.34855100  0.40596800  1
  V  V7  1  0.37855700  0.65144900  0.09403200  1
  Te  Te8  1  0.94633100  0.23629200  0.89811400  1
  Te  Te9  1  0.44633100  0.76370800  0.60188600  1
  Te  Te10  1  0.05366900  0.76370800  0.10188600  1
  Te  Te11  1  0.55366900  0.23629200  0.39811400  1
  O  O12  1  0.08972500  0.11412400  0.98768600  1
  O  O13  1  0.58972500  0.88587600  0.51231400  1
  O  O14  1  0.91027500  0.88587600  0.01231400  1
  O  O15  1  0.41027500  0.11412400  0.48768600  1
  O  O16  1  0.01692200  0.53350800  0.78054400  1
  O  O17  1  0.51692200  0.46649200  0.71945600  1
  O  O18  1  0.98307800  0.46649200  0.21945600  1
  O  O19  1  0.48307800  0.53350800  0.28054400  1
  O  O20  1  0.20094500  0.82369700  0.66905500  1
  O  O21  1  0.70094500  0.17630300  0.83094500  1
  O  O22  1  0.79905500  0.17630300  0.33094500  1
  O  O23  1  0.29905500  0.82369700  0.16905500  1
  O  O24  1  0.44963100  0.80731800  0.86278100  1
  O  O25  1  0.94963100  0.19268200  0.63721900  1
  O  O26  1  0.55036900  0.19268200  0.13721900  1
  O  O27  1  0.05036900  0.80731800  0.36278100  1
  O  O28  1  0.29795600  0.46589900  0.04828500  1
  O  O29  1  0.79795600  0.53410100  0.45171500  1
  O  O30  1  0.70204400  0.53410100  0.95171500  1
  O  O31  1  0.20204400  0.46589900  0.54828500  1
