# generated using pymatgen
data_Hf6Al16Pd7
_symmetry_space_group_name_H-M   'P 1'
_cell_length_a   8.77004459
_cell_length_b   8.77004459
_cell_length_c   8.77004459
_cell_angle_alpha   60.00000000
_cell_angle_beta   60.00000000
_cell_angle_gamma   60.00000000
_symmetry_Int_Tables_number   1
_chemical_formula_structural   Hf6Al16Pd7
_chemical_formula_sum   'Hf6 Al16 Pd7'
_cell_volume   476.96927773
_cell_formula_units_Z   1
loop_
 _symmetry_equiv_pos_site_id
 _symmetry_equiv_pos_as_xyz
  1  'x, y, z'
loop_
 _atom_site_type_symbol
 _atom_site_label
 _atom_site_symmetry_multiplicity
 _atom_site_fract_x
 _atom_site_fract_y
 _atom_site_fract_z
 _atom_site_occupancy
  Hf  Hf0  1  0.68183300  0.68183300  0.31816700  1
  Hf  Hf1  1  0.31816700  0.68183300  0.31816700  1
  Hf  Hf2  1  0.68183300  0.31816700  0.31816700  1
  Hf  Hf3  1  0.31816700  0.31816700  0.68183300  1
  Hf  Hf4  1  0.68183300  0.31816700  0.68183300  1
  Hf  Hf5  1  0.31816700  0.68183300  0.68183300  1
  Al  Al6  1  0.87969600  0.87969600  0.36091300  1
  Al  Al7  1  0.87969600  0.36091300  0.87969600  1
  Al  Al8  1  0.36091300  0.87969600  0.87969600  1
  Al  Al9  1  0.87969600  0.87969600  0.87969600  1
  Al  Al10  1  0.12030400  0.12030400  0.63908700  1
  Al  Al11  1  0.12030400  0.63908700  0.12030400  1
  Al  Al12  1  0.63908700  0.12030400  0.12030400  1
  Al  Al13  1  0.12030400  0.12030400  0.12030400  1
  Al  Al14  1  0.66508500  0.66508500  0.00474600  1
  Al  Al15  1  0.66508500  0.00474600  0.66508500  1
  Al  Al16  1  0.00474600  0.66508500  0.66508500  1
  Al  Al17  1  0.66508500  0.66508500  0.66508500  1
  Al  Al18  1  0.33491500  0.33491500  0.99525400  1
  Al  Al19  1  0.33491500  0.99525400  0.33491500  1
  Al  Al20  1  0.99525400  0.33491500  0.33491500  1
  Al  Al21  1  0.33491500  0.33491500  0.33491500  1
  Pd  Pd22  1  0.00000000  0.00000000  0.00000000  1
  Pd  Pd23  1  0.00000000  0.00000000  0.50000000  1
  Pd  Pd24  1  0.50000000  0.00000000  0.50000000  1
  Pd  Pd25  1  0.00000000  0.50000000  0.50000000  1
  Pd  Pd26  1  0.50000000  0.50000000  0.00000000  1
  Pd  Pd27  1  0.00000000  0.50000000  0.00000000  1
  Pd  Pd28  1  0.50000000  0.00000000  0.00000000  1
