# generated using pymatgen
data_Ag2F
_symmetry_space_group_name_H-M   'P 1'
_cell_length_a   3.05726375
_cell_length_b   3.05726375
_cell_length_c   5.79489900
_cell_angle_alpha   90.00000000
_cell_angle_beta   90.00000000
_cell_angle_gamma   119.99999456
_symmetry_Int_Tables_number   1
_chemical_formula_structural   Ag2F
_chemical_formula_sum   'Ag2 F1'
_cell_volume   46.90750569
_cell_formula_units_Z   1
loop_
 _symmetry_equiv_pos_site_id
 _symmetry_equiv_pos_as_xyz
  1  'x, y, z'
loop_
 _atom_site_type_symbol
 _atom_site_label
 _atom_site_symmetry_multiplicity
 _atom_site_fract_x
 _atom_site_fract_y
 _atom_site_fract_z
 _atom_site_occupancy
  Ag  Ag0  1  0.33333300  0.66666700  0.69257900  1
  Ag  Ag1  1  0.66666700  0.33333300  0.30742100  1
  F  F2  1  0.00000000  0.00000000  0.00000000  1
