# generated using pymatgen
data_Eu5Pt4
_symmetry_space_group_name_H-M   'P 1'
_cell_length_a   7.75558200
_cell_length_b   7.93654900
_cell_length_c   15.28540400
_cell_angle_alpha   90.00000000
_cell_angle_beta   90.00000000
_cell_angle_gamma   90.00000000
_symmetry_Int_Tables_number   1
_chemical_formula_structural   Eu5Pt4
_chemical_formula_sum   'Eu20 Pt16'
_cell_volume   940.85569435
_cell_formula_units_Z   4
loop_
 _symmetry_equiv_pos_site_id
 _symmetry_equiv_pos_as_xyz
  1  'x, y, z'
loop_
 _atom_site_type_symbol
 _atom_site_label
 _atom_site_symmetry_multiplicity
 _atom_site_fract_x
 _atom_site_fract_y
 _atom_site_fract_z
 _atom_site_occupancy
  Eu  Eu0  1  0.65703100  0.16699000  0.62233700  1
  Eu  Eu1  1  0.15703100  0.33301000  0.87766300  1
  Eu  Eu2  1  0.34296900  0.83301000  0.12233700  1
  Eu  Eu3  1  0.84296900  0.66699000  0.37766300  1
  Eu  Eu4  1  0.34296900  0.83301000  0.37766300  1
  Eu  Eu5  1  0.84296900  0.66699000  0.12233700  1
  Eu  Eu6  1  0.65703100  0.16699000  0.87766300  1
  Eu  Eu7  1  0.15703100  0.33301000  0.62233700  1
  Eu  Eu8  1  0.49935300  0.68020500  0.59396500  1
  Eu  Eu9  1  0.99935300  0.81979500  0.90603500  1
  Eu  Eu10  1  0.50064700  0.31979500  0.09396500  1
  Eu  Eu11  1  0.00064700  0.18020500  0.40603500  1
  Eu  Eu12  1  0.50064700  0.31979500  0.40603500  1
  Eu  Eu13  1  0.00064700  0.18020500  0.09396500  1
  Eu  Eu14  1  0.49935300  0.68020500  0.90603500  1
  Eu  Eu15  1  0.99935300  0.81979500  0.59396500  1
  Eu  Eu16  1  0.81734500  0.51077600  0.75000000  1
  Eu  Eu17  1  0.31734500  0.98922400  0.75000000  1
  Eu  Eu18  1  0.18265500  0.48922400  0.25000000  1
  Eu  Eu19  1  0.68265500  0.01077600  0.25000000  1
  Pt  Pt20  1  0.67743300  0.96750400  0.45927000  1
  Pt  Pt21  1  0.17743300  0.53249600  0.04073000  1
  Pt  Pt22  1  0.32256700  0.03249600  0.95927000  1
  Pt  Pt23  1  0.82256700  0.46750400  0.54073000  1
  Pt  Pt24  1  0.32256700  0.03249600  0.54073000  1
  Pt  Pt25  1  0.82256700  0.46750400  0.95927000  1
  Pt  Pt26  1  0.67743300  0.96750400  0.04073000  1
  Pt  Pt27  1  0.17743300  0.53249600  0.45927000  1
  Pt  Pt28  1  0.45023200  0.39137100  0.75000000  1
  Pt  Pt29  1  0.95023200  0.10862900  0.75000000  1
  Pt  Pt30  1  0.54976800  0.60862900  0.25000000  1
  Pt  Pt31  1  0.04976800  0.89137100  0.25000000  1
  Pt  Pt32  1  0.69322100  0.86409400  0.75000000  1
  Pt  Pt33  1  0.19322100  0.63590600  0.75000000  1
  Pt  Pt34  1  0.30677900  0.13590600  0.25000000  1
  Pt  Pt35  1  0.80677900  0.36409400  0.25000000  1
