# generated using pymatgen
data_La2C3
_symmetry_space_group_name_H-M   'P 1'
_cell_length_a   7.63737584
_cell_length_b   7.63737584
_cell_length_c   7.63737584
_cell_angle_alpha   109.47122063
_cell_angle_beta   109.47122063
_cell_angle_gamma   109.47122063
_symmetry_Int_Tables_number   1
_chemical_formula_structural   La2C3
_chemical_formula_sum   'La8 C12'
_cell_volume   342.93404268
_cell_formula_units_Z   4
loop_
 _symmetry_equiv_pos_site_id
 _symmetry_equiv_pos_as_xyz
  1  'x, y, z'
loop_
 _atom_site_type_symbol
 _atom_site_label
 _atom_site_symmetry_multiplicity
 _atom_site_fract_x
 _atom_site_fract_y
 _atom_site_fract_z
 _atom_site_occupancy
  La  La0  1  0.60441500  0.60441500  0.60441500  1
  La  La1  1  0.50000000  0.00000000  0.39558500  1
  La  La2  1  0.00000000  0.39558500  0.50000000  1
  La  La3  1  0.39558500  0.50000000  0.00000000  1
  La  La4  1  0.00000000  0.89558500  0.50000000  1
  La  La5  1  0.89558500  0.50000000  0.00000000  1
  La  La6  1  0.50000000  0.00000000  0.89558500  1
  La  La7  1  0.10441500  0.10441500  0.10441500  1
  C  C8  1  0.79960100  0.04960100  0.75000000  1
  C  C9  1  0.95039900  0.20039900  0.75000000  1
  C  C10  1  0.25000000  0.54960100  0.29960100  1
  C  C11  1  0.29960100  0.25000000  0.54960100  1
  C  C12  1  0.75000000  0.95039900  0.20039900  1
  C  C13  1  0.20039900  0.75000000  0.95039900  1
  C  C14  1  0.70039900  0.45039900  0.25000000  1
  C  C15  1  0.45039900  0.25000000  0.70039900  1
  C  C16  1  0.54960100  0.29960100  0.25000000  1
  C  C17  1  0.25000000  0.70039900  0.45039900  1
  C  C18  1  0.75000000  0.79960100  0.04960100  1
  C  C19  1  0.04960100  0.75000000  0.79960100  1
