# generated using pymatgen
data_Yb10Ni28As19
_symmetry_space_group_name_H-M   'P 1'
_cell_length_a   16.01866404
_cell_length_b   16.01866404
_cell_length_c   3.93799400
_cell_angle_alpha   90.00000000
_cell_angle_beta   90.00000000
_cell_angle_gamma   120.00000015
_symmetry_Int_Tables_number   1
_chemical_formula_structural   Yb10Ni28As19
_chemical_formula_sum   'Yb10 Ni28 As19'
_cell_volume   875.10117493
_cell_formula_units_Z   1
loop_
 _symmetry_equiv_pos_site_id
 _symmetry_equiv_pos_as_xyz
  1  'x, y, z'
loop_
 _atom_site_type_symbol
 _atom_site_label
 _atom_site_symmetry_multiplicity
 _atom_site_fract_x
 _atom_site_fract_y
 _atom_site_fract_z
 _atom_site_occupancy
  Yb  Yb0  1  0.72754200  0.03262100  0.50000000  1
  Yb  Yb1  1  0.96737900  0.69492100  0.50000000  1
  Yb  Yb2  1  0.30507900  0.27245800  0.50000000  1
  Yb  Yb3  1  0.18640100  0.52651900  0.00000000  1
  Yb  Yb4  1  0.47348100  0.65988100  0.00000000  1
  Yb  Yb5  1  0.34011900  0.81359900  0.00000000  1
  Yb  Yb6  1  0.66666700  0.33333300  0.00000000  1
  Yb  Yb7  1  0.01955400  0.15202900  0.50000000  1
  Yb  Yb8  1  0.84797100  0.86752500  0.50000000  1
  Yb  Yb9  1  0.13247500  0.98044600  0.50000000  1
  Ni  Ni10  1  0.32713700  0.43330800  0.00000000  1
  Ni  Ni11  1  0.56669200  0.89382900  0.00000000  1
  Ni  Ni12  1  0.10617100  0.67286300  0.00000000  1
  Ni  Ni13  1  0.62435100  0.16135500  0.50000000  1
  Ni  Ni14  1  0.83864500  0.46299600  0.50000000  1
  Ni  Ni15  1  0.53700400  0.37564900  0.50000000  1
  Ni  Ni16  1  0.03417400  0.31359100  0.00000000  1
  Ni  Ni17  1  0.68640900  0.72058300  0.00000000  1
  Ni  Ni18  1  0.27941700  0.96582600  0.00000000  1
  Ni  Ni19  1  0.17417100  0.37445700  0.50000000  1
  Ni  Ni20  1  0.62554300  0.79971400  0.50000000  1
  Ni  Ni21  1  0.20028600  0.82582900  0.50000000  1
  Ni  Ni22  1  0.86196300  0.01191100  0.00000000  1
  Ni  Ni23  1  0.98808900  0.85005200  0.00000000  1
  Ni  Ni24  1  0.14994800  0.13803700  0.00000000  1
  Ni  Ni25  1  0.75756500  0.20262500  0.00000000  1
  Ni  Ni26  1  0.79737500  0.55494000  0.00000000  1
  Ni  Ni27  1  0.44506000  0.24243500  0.00000000  1
  Ni  Ni28  1  0.45921800  0.48774200  0.50000000  1
  Ni  Ni29  1  0.51225800  0.97147600  0.50000000  1
  Ni  Ni30  1  0.02852400  0.54078200  0.50000000  1
  Ni  Ni31  1  0.89808900  0.24976400  0.50000000  1
  Ni  Ni32  1  0.75023600  0.64832500  0.50000000  1
  Ni  Ni33  1  0.35167500  0.10191100  0.50000000  1
  Ni  Ni34  1  0.33333300  0.66666700  0.50000000  1
  Ni  Ni35  1  0.91445100  0.38040500  0.00000000  1
  Ni  Ni36  1  0.61959500  0.53404600  0.00000000  1
  Ni  Ni37  1  0.46595400  0.08554900  0.00000000  1
  As  As38  1  0.00000000  0.00000000  0.00000000  1
  As  As39  1  0.03794400  0.40001100  0.50000000  1
  As  As40  1  0.59998900  0.63793300  0.50000000  1
  As  As41  1  0.36206700  0.96205600  0.50000000  1
  As  As42  1  0.32756900  0.51780300  0.50000000  1
  As  As43  1  0.48219700  0.80976600  0.50000000  1
  As  As44  1  0.19023400  0.67243100  0.50000000  1
  As  As45  1  0.78329400  0.29771200  0.50000000  1
  As  As46  1  0.70228800  0.48558200  0.50000000  1
  As  As47  1  0.51441800  0.21670600  0.50000000  1
  As  As48  1  0.60083300  0.06062800  0.00000000  1
  As  As49  1  0.93937200  0.54020400  0.00000000  1
  As  As50  1  0.45979600  0.39916700  0.00000000  1
  As  As51  1  0.88198600  0.16266900  0.00000000  1
  As  As52  1  0.83733100  0.71931700  0.00000000  1
  As  As53  1  0.28068300  0.11801400  0.00000000  1
  As  As54  1  0.17001800  0.29033000  0.00000000  1
  As  As55  1  0.70967000  0.87968800  0.00000000  1
  As  As56  1  0.12031200  0.82998200  0.00000000  1
