# generated using pymatgen
data_TaAlNi6
_symmetry_space_group_name_H-M   'P 1'
_cell_length_a   5.12034042
_cell_length_b   5.12034042
_cell_length_c   8.29576500
_cell_angle_alpha   90.00000000
_cell_angle_beta   90.00000000
_cell_angle_gamma   120.00000542
_symmetry_Int_Tables_number   1
_chemical_formula_structural   TaAlNi6
_chemical_formula_sum   'Ta2 Al2 Ni12'
_cell_volume   188.35828167
_cell_formula_units_Z   2
loop_
 _symmetry_equiv_pos_site_id
 _symmetry_equiv_pos_as_xyz
  1  'x, y, z'
loop_
 _atom_site_type_symbol
 _atom_site_label
 _atom_site_symmetry_multiplicity
 _atom_site_fract_x
 _atom_site_fract_y
 _atom_site_fract_z
 _atom_site_occupancy
  Ta  Ta0  1  0.00000000  0.00000000  0.00000000  1
  Ta  Ta1  1  0.00000000  0.00000000  0.50000000  1
  Al  Al2  1  0.33333300  0.66666700  0.75000000  1
  Al  Al3  1  0.66666700  0.33333300  0.25000000  1
  Ni  Ni4  1  0.82671300  0.65342600  0.75000000  1
  Ni  Ni5  1  0.34657400  0.17328700  0.75000000  1
  Ni  Ni6  1  0.82671300  0.17328700  0.75000000  1
  Ni  Ni7  1  0.17328700  0.34657400  0.25000000  1
  Ni  Ni8  1  0.65342600  0.82671300  0.25000000  1
  Ni  Ni9  1  0.17328700  0.82671300  0.25000000  1
  Ni  Ni10  1  0.50000000  0.50000000  0.00000000  1
  Ni  Ni11  1  0.50000000  0.00000000  0.00000000  1
  Ni  Ni12  1  0.00000000  0.50000000  0.00000000  1
  Ni  Ni13  1  0.50000000  0.50000000  0.50000000  1
  Ni  Ni14  1  0.50000000  0.00000000  0.50000000  1
  Ni  Ni15  1  0.00000000  0.50000000  0.50000000  1
