# generated using pymatgen
data_UReB4
_symmetry_space_group_name_H-M   'P 1'
_cell_length_a   3.60443000
_cell_length_b   5.92664528
_cell_length_c   5.92664528
_cell_angle_alpha   104.02694293
_cell_angle_beta   90.00000000
_cell_angle_gamma   90.00000000
_symmetry_Int_Tables_number   1
_chemical_formula_structural   UReB4
_chemical_formula_sum   'U2 Re2 B8'
_cell_volume   122.83089448
_cell_formula_units_Z   2
loop_
 _symmetry_equiv_pos_site_id
 _symmetry_equiv_pos_as_xyz
  1  'x, y, z'
loop_
 _atom_site_type_symbol
 _atom_site_label
 _atom_site_symmetry_multiplicity
 _atom_site_fract_x
 _atom_site_fract_y
 _atom_site_fract_z
 _atom_site_occupancy
  U  U0  1  0.00000000  0.30030700  0.69969300  1
  U  U1  1  0.00000000  0.69969300  0.30030700  1
  Re  Re2  1  0.00000000  0.81282100  0.81282100  1
  Re  Re3  1  0.00000000  0.18717900  0.18717900  1
  B  B4  1  0.50000000  0.93567200  0.61655300  1
  B  B5  1  0.50000000  0.06432800  0.38344700  1
  B  B6  1  0.50000000  0.61655300  0.93567200  1
  B  B7  1  0.50000000  0.38344700  0.06432800  1
  B  B8  1  0.50000000  0.61941500  0.61941500  1
  B  B9  1  0.50000000  0.38058500  0.38058500  1
  B  B10  1  0.50000000  0.09293100  0.90706900  1
  B  B11  1  0.50000000  0.90706900  0.09293100  1
