# generated using pymatgen
data_EuMoO4
_symmetry_space_group_name_H-M   'P 1'
_cell_length_a   7.08398782
_cell_length_b   7.08398782
_cell_length_c   7.08398782
_cell_angle_alpha   135.04159409
_cell_angle_beta   135.04159409
_cell_angle_gamma   65.46557853
_symmetry_Int_Tables_number   1
_chemical_formula_structural   EuMoO4
_chemical_formula_sum   'Eu2 Mo2 O8'
_cell_volume   174.86835151
_cell_formula_units_Z   2
loop_
 _symmetry_equiv_pos_site_id
 _symmetry_equiv_pos_as_xyz
  1  'x, y, z'
loop_
 _atom_site_type_symbol
 _atom_site_label
 _atom_site_symmetry_multiplicity
 _atom_site_fract_x
 _atom_site_fract_y
 _atom_site_fract_z
 _atom_site_occupancy
  Eu  Eu0  1  0.75000000  0.25000000  0.50000000  1
  Eu  Eu1  1  0.00000000  0.00000000  0.00000000  1
  Mo  Mo2  1  0.25000000  0.75000000  0.50000000  1
  Mo  Mo3  1  0.50000000  0.50000000  0.00000000  1
  O  O4  1  0.30820200  0.91401800  0.88671300  1
  O  O5  1  0.02730500  0.42148900  0.11328700  1
  O  O6  1  0.17148900  0.55820200  0.89418400  1
  O  O7  1  0.66401800  0.27730500  0.10581600  1
  O  O8  1  0.44179800  0.33598200  0.61328700  1
  O  O9  1  0.72269500  0.82851100  0.38671300  1
  O  O10  1  0.57851100  0.69179800  0.60581600  1
  O  O11  1  0.08598200  0.97269500  0.39418400  1
