# generated using pymatgen
data_K2ZnH12(SeO7)2
_symmetry_space_group_name_H-M   'P 1'
_cell_length_a   12.57447500
_cell_length_b   6.37028300
_cell_length_c   9.26450273
_cell_angle_alpha   75.98366384
_cell_angle_beta   90.00000000
_cell_angle_gamma   90.00000000
_symmetry_Int_Tables_number   1
_chemical_formula_structural   K2ZnH12(SeO7)2
_chemical_formula_sum   'K4 Zn2 H24 Se4 O28'
_cell_volume   720.01895215
_cell_formula_units_Z   2
loop_
 _symmetry_equiv_pos_site_id
 _symmetry_equiv_pos_as_xyz
  1  'x, y, z'
loop_
 _atom_site_type_symbol
 _atom_site_label
 _atom_site_symmetry_multiplicity
 _atom_site_fract_x
 _atom_site_fract_y
 _atom_site_fract_z
 _atom_site_occupancy
  K  K0  1  0.15948900  0.65816900  0.63765900  1
  K  K1  1  0.65948900  0.34183100  0.86234100  1
  K  K2  1  0.84051100  0.34183100  0.36234100  1
  K  K3  1  0.34051100  0.65816900  0.13765900  1
  Zn  Zn4  1  0.50000000  0.00000000  0.50000000  1
  Zn  Zn5  1  0.00000000  0.00000000  0.00000000  1
  H  H6  1  0.41496300  0.68471400  0.70996700  1
  H  H7  1  0.91496300  0.31528600  0.79003300  1
  H  H8  1  0.58503700  0.31528600  0.29003300  1
  H  H9  1  0.08503700  0.68471400  0.20996700  1
  H  H10  1  0.37422700  0.90448500  0.74561700  1
  H  H11  1  0.87422700  0.09551500  0.75438300  1
  H  H12  1  0.62577300  0.09551500  0.25438300  1
  H  H13  1  0.12577300  0.90448500  0.24561700  1
  H  H14  1  0.40125100  0.06793000  0.23529400  1
  H  H15  1  0.90125100  0.93207000  0.26470600  1
  H  H16  1  0.59874900  0.93207000  0.76470600  1
  H  H17  1  0.09874900  0.06793000  0.73529400  1
  H  H18  1  0.31482300  0.98622800  0.36137100  1
  H  H19  1  0.81482300  0.01377200  0.13862900  1
  H  H20  1  0.68517700  0.01377200  0.63862900  1
  H  H21  1  0.18517700  0.98622800  0.86137100  1
  H  H22  1  0.55533600  0.66485000  0.40280600  1
  H  H23  1  0.05533600  0.33515000  0.09719400  1
  H  H24  1  0.44466400  0.33515000  0.59719400  1
  H  H25  1  0.94466400  0.66485000  0.90280600  1
  H  H26  1  0.63935300  0.66627900  0.53103500  1
  H  H27  1  0.13935300  0.33372100  0.96896500  1
  H  H28  1  0.36064700  0.33372100  0.46896500  1
  H  H29  1  0.86064700  0.66627900  0.03103500  1
  Se  Se30  1  0.36370800  0.27154300  0.91270100  1
  Se  Se31  1  0.86370800  0.72845700  0.58729900  1
  Se  Se32  1  0.63629200  0.72845700  0.08729900  1
  Se  Se33  1  0.13629200  0.27154300  0.41270100  1
  O  O34  1  0.25854800  0.43596500  0.90922600  1
  O  O35  1  0.75854800  0.56403500  0.59077400  1
  O  O36  1  0.74145200  0.56403500  0.09077400  1
  O  O37  1  0.24145200  0.43596500  0.40922600  1
  O  O38  1  0.42822900  0.24583900  0.07374800  1
  O  O39  1  0.92822900  0.75416100  0.42625200  1
  O  O40  1  0.57177100  0.75416100  0.92625200  1
  O  O41  1  0.07177100  0.24583900  0.57374800  1
  O  O42  1  0.44561200  0.38976900  0.77339400  1
  O  O43  1  0.94561200  0.61023100  0.72660600  1
  O  O44  1  0.55438800  0.61023100  0.22660600  1
  O  O45  1  0.05438800  0.38976900  0.27339400  1
  O  O46  1  0.32271200  0.02837300  0.89185200  1
  O  O47  1  0.82271200  0.97162700  0.60814800  1
  O  O48  1  0.67728800  0.97162700  0.10814800  1
  O  O49  1  0.17728800  0.02837300  0.39185200  1
  O  O50  1  0.38733900  0.83151200  0.66388500  1
  O  O51  1  0.88733900  0.16848800  0.83611500  1
  O  O52  1  0.61266100  0.16848800  0.33611500  1
  O  O53  1  0.11266100  0.83151200  0.16388500  1
  O  O54  1  0.38839900  0.95814400  0.33125900  1
  O  O55  1  0.88839900  0.04185600  0.16874100  1
  O  O56  1  0.61160100  0.04185600  0.66874100  1
  O  O57  1  0.11160100  0.95814400  0.83125900  1
  O  O58  1  0.56421600  0.70301900  0.50020800  1
  O  O59  1  0.06421600  0.29698100  0.99979200  1
  O  O60  1  0.43578400  0.29698100  0.49979200  1
  O  O61  1  0.93578400  0.70301900  0.00020800  1
