# generated using pymatgen
data_DySiNi4
_symmetry_space_group_name_H-M   'P 1'
_cell_length_a   4.81137284
_cell_length_b   4.81137284
_cell_length_c   3.93421500
_cell_angle_alpha   90.00000000
_cell_angle_beta   90.00000000
_cell_angle_gamma   116.35049862
_symmetry_Int_Tables_number   1
_chemical_formula_structural   DySiNi4
_chemical_formula_sum   'Dy1 Si1 Ni4'
_cell_volume   81.61132826
_cell_formula_units_Z   1
loop_
 _symmetry_equiv_pos_site_id
 _symmetry_equiv_pos_as_xyz
  1  'x, y, z'
loop_
 _atom_site_type_symbol
 _atom_site_label
 _atom_site_symmetry_multiplicity
 _atom_site_fract_x
 _atom_site_fract_y
 _atom_site_fract_z
 _atom_site_occupancy
  Dy  Dy0  1  0.00000000  0.00000000  0.00000000  1
  Si  Si1  1  0.50000000  0.50000000  0.50000000  1
  Ni  Ni2  1  0.34255700  0.65744300  0.00000000  1
  Ni  Ni3  1  0.65744300  0.34255700  0.00000000  1
  Ni  Ni4  1  0.50000000  0.00000000  0.50000000  1
  Ni  Ni5  1  0.00000000  0.50000000  0.50000000  1
