# generated using pymatgen
data_KTmBeF6
_symmetry_space_group_name_H-M   'P 1'
_cell_length_a   5.76657800
_cell_length_b   6.40475470
_cell_length_c   7.03365287
_cell_angle_alpha   113.13745194
_cell_angle_beta   90.00000000
_cell_angle_gamma   90.00000000
_symmetry_Int_Tables_number   1
_chemical_formula_structural   KTmBeF6
_chemical_formula_sum   'K2 Tm2 Be2 F12'
_cell_volume   238.88229514
_cell_formula_units_Z   2
loop_
 _symmetry_equiv_pos_site_id
 _symmetry_equiv_pos_as_xyz
  1  'x, y, z'
loop_
 _atom_site_type_symbol
 _atom_site_label
 _atom_site_symmetry_multiplicity
 _atom_site_fract_x
 _atom_site_fract_y
 _atom_site_fract_z
 _atom_site_occupancy
  K  K0  1  0.75000000  0.07136900  0.20344200  1
  K  K1  1  0.25000000  0.92863100  0.79655800  1
  Tm  Tm2  1  0.75000000  0.38974100  0.82134900  1
  Tm  Tm3  1  0.25000000  0.61025900  0.17865100  1
  Be  Be4  1  0.75000000  0.76643200  0.53582100  1
  Be  Be5  1  0.25000000  0.23356800  0.46417900  1
  F  F6  1  0.96812000  0.76582800  0.40286000  1
  F  F7  1  0.03188000  0.23417200  0.59714000  1
  F  F8  1  0.46812000  0.23417200  0.59714000  1
  F  F9  1  0.53188000  0.76582800  0.40286000  1
  F  F10  1  0.75000000  0.55842500  0.59434200  1
  F  F11  1  0.25000000  0.44157500  0.40565800  1
  F  F12  1  0.99881400  0.67669700  0.96578300  1
  F  F13  1  0.00118600  0.32330300  0.03421700  1
  F  F14  1  0.49881400  0.32330300  0.03421700  1
  F  F15  1  0.50118600  0.67669700  0.96578300  1
  F  F16  1  0.75000000  0.98995900  0.73808000  1
  F  F17  1  0.25000000  0.01004100  0.26192000  1
