# generated using pymatgen
data_SrHg3
_symmetry_space_group_name_H-M   'P 1'
_cell_length_a   6.98940227
_cell_length_b   6.98940227
_cell_length_c   5.37060400
_cell_angle_alpha   90.00000000
_cell_angle_beta   90.00000000
_cell_angle_gamma   120.00000255
_symmetry_Int_Tables_number   1
_chemical_formula_structural   SrHg3
_chemical_formula_sum   'Sr2 Hg6'
_cell_volume   227.21333948
_cell_formula_units_Z   2
loop_
 _symmetry_equiv_pos_site_id
 _symmetry_equiv_pos_as_xyz
  1  'x, y, z'
loop_
 _atom_site_type_symbol
 _atom_site_label
 _atom_site_symmetry_multiplicity
 _atom_site_fract_x
 _atom_site_fract_y
 _atom_site_fract_z
 _atom_site_occupancy
  Sr  Sr0  1  0.33333300  0.66666700  0.25000000  1
  Sr  Sr1  1  0.66666700  0.33333300  0.75000000  1
  Hg  Hg2  1  0.84265400  0.15734600  0.25000000  1
  Hg  Hg3  1  0.84265400  0.68530700  0.25000000  1
  Hg  Hg4  1  0.31469300  0.15734600  0.25000000  1
  Hg  Hg5  1  0.15734600  0.84265400  0.75000000  1
  Hg  Hg6  1  0.15734600  0.31469300  0.75000000  1
  Hg  Hg7  1  0.68530700  0.84265400  0.75000000  1
