# generated using pymatgen
data_Cr(BMo)2
_symmetry_space_group_name_H-M   'P 1'
_cell_length_a   5.84282000
_cell_length_b   5.84282000
_cell_length_c   3.12688700
_cell_angle_alpha   90.00000000
_cell_angle_beta   90.00000000
_cell_angle_gamma   90.00000000
_symmetry_Int_Tables_number   1
_chemical_formula_structural   Cr(BMo)2
_chemical_formula_sum   'Cr2 B4 Mo4'
_cell_volume   106.74737429
_cell_formula_units_Z   2
loop_
 _symmetry_equiv_pos_site_id
 _symmetry_equiv_pos_as_xyz
  1  'x, y, z'
loop_
 _atom_site_type_symbol
 _atom_site_label
 _atom_site_symmetry_multiplicity
 _atom_site_fract_x
 _atom_site_fract_y
 _atom_site_fract_z
 _atom_site_occupancy
  Cr  Cr0  1  0.00000000  0.00000000  0.00000000  1
  Cr  Cr1  1  0.50000000  0.50000000  0.00000000  1
  B  B2  1  0.11362900  0.61362900  0.00000000  1
  B  B3  1  0.88637100  0.38637100  0.00000000  1
  B  B4  1  0.61362900  0.88637100  0.00000000  1
  B  B5  1  0.38637100  0.11362900  0.00000000  1
  Mo  Mo6  1  0.67737900  0.17737900  0.50000000  1
  Mo  Mo7  1  0.32262100  0.82262100  0.50000000  1
  Mo  Mo8  1  0.17737900  0.32262100  0.50000000  1
  Mo  Mo9  1  0.82262100  0.67737900  0.50000000  1
