# generated using pymatgen
data_Er5Ni2Sb
_symmetry_space_group_name_H-M   'P 1'
_cell_length_a   8.55829297
_cell_length_b   8.55829297
_cell_length_c   8.55829297
_cell_angle_alpha   127.71109461
_cell_angle_beta   127.71109461
_cell_angle_gamma   77.09351288
_symmetry_Int_Tables_number   1
_chemical_formula_structural   Er5Ni2Sb
_chemical_formula_sum   'Er10 Ni4 Sb2'
_cell_volume   380.75284814
_cell_formula_units_Z   2
loop_
 _symmetry_equiv_pos_site_id
 _symmetry_equiv_pos_as_xyz
  1  'x, y, z'
loop_
 _atom_site_type_symbol
 _atom_site_label
 _atom_site_symmetry_multiplicity
 _atom_site_fract_x
 _atom_site_fract_y
 _atom_site_fract_z
 _atom_site_occupancy
  Er  Er0  1  0.00000000  0.00000000  0.00000000  1
  Er  Er1  1  0.50000000  0.50000000  0.00000000  1
  Er  Er2  1  0.79617300  0.29617300  0.81813300  1
  Er  Er3  1  0.20382700  0.70382700  0.18186700  1
  Er  Er4  1  0.47804000  0.97804000  0.18186700  1
  Er  Er5  1  0.29617300  0.47804000  0.50000000  1
  Er  Er6  1  0.02196000  0.20382700  0.50000000  1
  Er  Er7  1  0.52196000  0.02196000  0.81813300  1
  Er  Er8  1  0.70382700  0.52196000  0.50000000  1
  Er  Er9  1  0.97804000  0.79617300  0.50000000  1
  Ni  Ni10  1  0.12639300  0.62639300  0.75278700  1
  Ni  Ni11  1  0.87360700  0.37360700  0.24721300  1
  Ni  Ni12  1  0.62639300  0.87360700  0.50000000  1
  Ni  Ni13  1  0.37360700  0.12639300  0.50000000  1
  Sb  Sb14  1  0.25000000  0.25000000  0.00000000  1
  Sb  Sb15  1  0.75000000  0.75000000  0.00000000  1
