# generated using pymatgen
data_Er2(B2Rh3)3
_symmetry_space_group_name_H-M   'P 1'
_cell_length_a   5.59631479
_cell_length_b   5.59631479
_cell_length_c   8.56918200
_cell_angle_alpha   90.00000000
_cell_angle_beta   90.00000000
_cell_angle_gamma   120.00000930
_symmetry_Int_Tables_number   1
_chemical_formula_structural   Er2(B2Rh3)3
_chemical_formula_sum   'Er2 B6 Rh9'
_cell_volume   232.42039133
_cell_formula_units_Z   1
loop_
 _symmetry_equiv_pos_site_id
 _symmetry_equiv_pos_as_xyz
  1  'x, y, z'
loop_
 _atom_site_type_symbol
 _atom_site_label
 _atom_site_symmetry_multiplicity
 _atom_site_fract_x
 _atom_site_fract_y
 _atom_site_fract_z
 _atom_site_occupancy
  Er  Er0  1  0.00000000  0.00000000  0.70648400  1
  Er  Er1  1  0.00000000  0.00000000  0.29351600  1
  B  B2  1  0.66666700  0.33333300  0.00000000  1
  B  B3  1  0.33333300  0.66666700  0.00000000  1
  B  B4  1  0.66666700  0.33333300  0.66712600  1
  B  B5  1  0.33333300  0.66666700  0.66712600  1
  B  B6  1  0.33333300  0.66666700  0.33287400  1
  B  B7  1  0.66666700  0.33333300  0.33287400  1
  Rh  Rh8  1  0.50000000  0.50000000  0.83545400  1
  Rh  Rh9  1  0.50000000  0.00000000  0.83545400  1
  Rh  Rh10  1  0.00000000  0.50000000  0.83545400  1
  Rh  Rh11  1  0.50000000  0.50000000  0.16454600  1
  Rh  Rh12  1  0.50000000  0.00000000  0.16454600  1
  Rh  Rh13  1  0.00000000  0.50000000  0.16454600  1
  Rh  Rh14  1  0.50000000  0.50000000  0.50000000  1
  Rh  Rh15  1  0.50000000  0.00000000  0.50000000  1
  Rh  Rh16  1  0.00000000  0.50000000  0.50000000  1
