# generated using pymatgen
data_Tb7RuI12
_symmetry_space_group_name_H-M   'P 1'
_cell_length_a   9.81976967
_cell_length_b   9.81976967
_cell_length_c   9.81976941
_cell_angle_alpha   107.13551322
_cell_angle_beta   107.13551322
_cell_angle_gamma   107.13551022
_symmetry_Int_Tables_number   1
_chemical_formula_structural   Tb7RuI12
_chemical_formula_sum   'Tb7 Ru1 I12'
_cell_volume   785.65364163
_cell_formula_units_Z   1
loop_
 _symmetry_equiv_pos_site_id
 _symmetry_equiv_pos_as_xyz
  1  'x, y, z'
loop_
 _atom_site_type_symbol
 _atom_site_label
 _atom_site_symmetry_multiplicity
 _atom_site_fract_x
 _atom_site_fract_y
 _atom_site_fract_z
 _atom_site_occupancy
  Tb  Tb0  1  0.90385000  0.70293500  0.97452300  1
  Tb  Tb1  1  0.97452300  0.90385000  0.70293500  1
  Tb  Tb2  1  0.70293500  0.97452300  0.90385000  1
  Tb  Tb3  1  0.09615000  0.29706500  0.02547700  1
  Tb  Tb4  1  0.02547700  0.09615000  0.29706500  1
  Tb  Tb5  1  0.29706500  0.02547700  0.09615000  1
  Tb  Tb6  1  0.50000000  0.50000000  0.50000000  1
  Ru  Ru7  1  0.00000000  0.00000000  0.00000000  1
  I  I8  1  0.61073400  0.83760500  0.53340000  1
  I  I9  1  0.53340000  0.61073400  0.83760500  1
  I  I10  1  0.83760500  0.53340000  0.61073400  1
  I  I11  1  0.38926600  0.16239500  0.46660000  1
  I  I12  1  0.46660000  0.38926600  0.16239500  1
  I  I13  1  0.16239500  0.46660000  0.38926600  1
  I  I14  1  0.67975300  0.07339100  0.22491600  1
  I  I15  1  0.22491600  0.67975300  0.07339100  1
  I  I16  1  0.07339100  0.22491600  0.67975300  1
  I  I17  1  0.32024700  0.92660900  0.77508400  1
  I  I18  1  0.77508400  0.32024700  0.92660900  1
  I  I19  1  0.92660900  0.77508400  0.32024700  1
