# generated using pymatgen
data_CaVSiO5
_symmetry_space_group_name_H-M   'P 1'
_cell_length_a   5.49946193
_cell_length_b   7.48277858
_cell_length_c   9.90974681
_cell_angle_alpha   75.87465631
_cell_angle_beta   91.16569711
_cell_angle_gamma   72.16169541
_symmetry_Int_Tables_number   1
_chemical_formula_structural   CaVSiO5
_chemical_formula_sum   'Ca4 V4 Si4 O20'
_cell_volume   374.45315753
_cell_formula_units_Z   4
loop_
 _symmetry_equiv_pos_site_id
 _symmetry_equiv_pos_as_xyz
  1  'x, y, z'
loop_
 _atom_site_type_symbol
 _atom_site_label
 _atom_site_symmetry_multiplicity
 _atom_site_fract_x
 _atom_site_fract_y
 _atom_site_fract_z
 _atom_site_occupancy
  Ca  Ca0  1  0.12686900  0.54109800  0.20894400  1
  Ca  Ca1  1  0.62695600  0.04108600  0.70888300  1
  Ca  Ca2  1  0.87316000  0.45889900  0.79114000  1
  Ca  Ca3  1  0.37305800  0.95896100  0.29103200  1
  V  V4  1  0.50003300  0.49997500  0.50005800  1
  V  V5  1  0.25029700  0.74977200  0.74985000  1
  V  V6  1  0.00009700  0.99985500  0.99982700  1
  V  V7  1  0.75000200  0.25001900  0.25004700  1
  Si  Si8  1  0.60108200  0.71669600  0.03392700  1
  Si  Si9  1  0.10110500  0.21676200  0.53392200  1
  Si  Si10  1  0.39884200  0.28331900  0.96608900  1
  Si  Si11  1  0.89891100  0.78331800  0.46606600  1
  O  O12  1  0.52657200  0.40688000  0.34254500  1
  O  O13  1  0.02677700  0.90665100  0.84237300  1
  O  O14  1  0.47350800  0.59323100  0.65759800  1
  O  O15  1  0.97315500  0.09326500  0.15753800  1
  O  O16  1  0.78951000  0.83020200  0.07989100  1
  O  O17  1  0.28959800  0.33018700  0.57988000  1
  O  O18  1  0.21025300  0.16987800  0.92026400  1
  O  O19  1  0.71043100  0.66977800  0.42010900  1
  O  O20  1  0.76393700  0.48614400  0.10553800  1
  O  O21  1  0.26416400  0.98619500  0.60527700  1
  O  O22  1  0.23588300  0.51384000  0.89449100  1
  O  O23  1  0.73571600  0.01385400  0.39469600  1
  O  O24  1  0.56025500  0.75527200  0.86216400  1
  O  O25  1  0.06006000  0.25539000  0.36216700  1
  O  O26  1  0.43977600  0.24476300  0.13784300  1
  O  O27  1  0.94001700  0.74462000  0.63784500  1
  O  O28  1  0.32314600  0.78470600  0.09936600  1
  O  O29  1  0.82321400  0.28478800  0.59939500  1
  O  O30  1  0.67674100  0.21525200  0.90060500  1
  O  O31  1  0.17687600  0.71534500  0.40063100  1
