# generated using pymatgen
data_K2U(PdS2)3
_symmetry_space_group_name_H-M   'P 1'
_cell_length_a   11.04880328
_cell_length_b   9.69451738
_cell_length_c   8.69668749
_cell_angle_alpha   73.62427419
_cell_angle_beta   57.33416590
_cell_angle_gamma   49.04155991
_symmetry_Int_Tables_number   1
_chemical_formula_structural   K2U(PdS2)3
_chemical_formula_sum   'K4 U2 Pd6 S12'
_cell_volume   588.41210047
_cell_formula_units_Z   2
loop_
 _symmetry_equiv_pos_site_id
 _symmetry_equiv_pos_as_xyz
  1  'x, y, z'
loop_
 _atom_site_type_symbol
 _atom_site_label
 _atom_site_symmetry_multiplicity
 _atom_site_fract_x
 _atom_site_fract_y
 _atom_site_fract_z
 _atom_site_occupancy
  K  K0  1  0.75000000  0.75000000  0.75000000  1
  K  K1  1  0.25000000  0.25000000  0.25000000  1
  K  K2  1  0.29455500  0.70544500  0.29455500  1
  K  K3  1  0.70544500  0.29455500  0.70544500  1
  U  U4  1  0.83093400  0.83093400  0.16906600  1
  U  U5  1  0.16906600  0.16906600  0.83093400  1
  Pd  Pd6  1  0.50425100  0.17875600  0.49574900  1
  Pd  Pd7  1  0.82124400  0.49574900  0.17875600  1
  Pd  Pd8  1  0.49574900  0.82124400  0.50425100  1
  Pd  Pd9  1  0.17875600  0.50425100  0.82124400  1
  Pd  Pd10  1  0.82724000  0.17276000  0.17276000  1
  Pd  Pd11  1  0.17276000  0.82724000  0.82724000  1
  S  S12  1  0.82827400  0.96364600  0.39912500  1
  S  S13  1  0.80895500  0.39912500  0.96364600  1
  S  S14  1  0.39912500  0.80895500  0.82827400  1
  S  S15  1  0.96364600  0.82827400  0.80895500  1
  S  S16  1  0.17172600  0.03635400  0.60087500  1
  S  S17  1  0.19104500  0.60087500  0.03635400  1
  S  S18  1  0.60087500  0.19104500  0.17172600  1
  S  S19  1  0.03635400  0.17172600  0.19104500  1
  S  S20  1  0.81882200  0.59226700  0.40773300  1
  S  S21  1  0.18117800  0.40773300  0.59226700  1
  S  S22  1  0.40773300  0.18117800  0.81882200  1
  S  S23  1  0.59226700  0.81882200  0.18117800  1
