# generated using pymatgen
data_Al5Co2
_symmetry_space_group_name_H-M   'P 1'
_cell_length_a   7.67118021
_cell_length_b   7.67118021
_cell_length_c   7.59368300
_cell_angle_alpha   90.00000000
_cell_angle_beta   90.00000000
_cell_angle_gamma   120.00000181
_symmetry_Int_Tables_number   1
_chemical_formula_structural   Al5Co2
_chemical_formula_sum   'Al20 Co8'
_cell_volume   386.99687467
_cell_formula_units_Z   4
loop_
 _symmetry_equiv_pos_site_id
 _symmetry_equiv_pos_as_xyz
  1  'x, y, z'
loop_
 _atom_site_type_symbol
 _atom_site_label
 _atom_site_symmetry_multiplicity
 _atom_site_fract_x
 _atom_site_fract_y
 _atom_site_fract_z
 _atom_site_occupancy
  Al  Al0  1  0.00000000  0.00000000  0.00000000  1
  Al  Al1  1  0.00000000  0.00000000  0.50000000  1
  Al  Al2  1  0.46774100  0.93548300  0.25000000  1
  Al  Al3  1  0.53225900  0.46774100  0.75000000  1
  Al  Al4  1  0.93548300  0.46774100  0.75000000  1
  Al  Al5  1  0.06451700  0.53225900  0.25000000  1
  Al  Al6  1  0.46774100  0.53225900  0.25000000  1
  Al  Al7  1  0.53225900  0.06451700  0.75000000  1
  Al  Al8  1  0.19448100  0.38896200  0.94024200  1
  Al  Al9  1  0.80551900  0.19448100  0.44024200  1
  Al  Al10  1  0.38896200  0.19448100  0.44024200  1
  Al  Al11  1  0.61103800  0.80551900  0.94024200  1
  Al  Al12  1  0.19448100  0.80551900  0.94024200  1
  Al  Al13  1  0.80551900  0.61103800  0.05975800  1
  Al  Al14  1  0.80551900  0.19448100  0.05975800  1
  Al  Al15  1  0.80551900  0.61103800  0.44024200  1
  Al  Al16  1  0.38896200  0.19448100  0.05975800  1
  Al  Al17  1  0.61103800  0.80551900  0.55975800  1
  Al  Al18  1  0.19448100  0.38896200  0.55975800  1
  Al  Al19  1  0.19448100  0.80551900  0.55975800  1
  Co  Co20  1  0.33333300  0.66666700  0.75000000  1
  Co  Co21  1  0.66666700  0.33333300  0.25000000  1
  Co  Co22  1  0.12743500  0.25487000  0.25000000  1
  Co  Co23  1  0.87256500  0.12743500  0.75000000  1
  Co  Co24  1  0.25487000  0.12743500  0.75000000  1
  Co  Co25  1  0.74513000  0.87256500  0.25000000  1
  Co  Co26  1  0.12743500  0.87256500  0.25000000  1
  Co  Co27  1  0.87256500  0.74513000  0.75000000  1
