# generated using pymatgen
data_Gd2ReO5
_symmetry_space_group_name_H-M   'P 1'
_cell_length_a   8.64164300
_cell_length_b   8.64164300
_cell_length_c   5.77725100
_cell_angle_alpha   90.00000000
_cell_angle_beta   90.00000000
_cell_angle_gamma   90.00000000
_symmetry_Int_Tables_number   1
_chemical_formula_structural   Gd2ReO5
_chemical_formula_sum   'Gd8 Re4 O20'
_cell_volume   431.43351401
_cell_formula_units_Z   4
loop_
 _symmetry_equiv_pos_site_id
 _symmetry_equiv_pos_as_xyz
  1  'x, y, z'
loop_
 _atom_site_type_symbol
 _atom_site_label
 _atom_site_symmetry_multiplicity
 _atom_site_fract_x
 _atom_site_fract_y
 _atom_site_fract_z
 _atom_site_occupancy
  Gd  Gd0  1  0.35885600  0.34968200  0.24977400  1
  Gd  Gd1  1  0.84968200  0.14114400  0.24977400  1
  Gd  Gd2  1  0.15031800  0.85885600  0.24977400  1
  Gd  Gd3  1  0.64114400  0.65031800  0.24977400  1
  Gd  Gd4  1  0.85885600  0.84968200  0.75022600  1
  Gd  Gd5  1  0.34968200  0.64114400  0.75022600  1
  Gd  Gd6  1  0.65031800  0.35885600  0.75022600  1
  Gd  Gd7  1  0.14114400  0.15031800  0.75022600  1
  Re  Re8  1  0.00000000  0.50000000  0.14760200  1
  Re  Re9  1  0.50000000  0.00000000  0.85239800  1
  Re  Re10  1  0.00000000  0.50000000  0.54038600  1
  Re  Re11  1  0.50000000  0.00000000  0.45961400  1
  O  O12  1  0.00000000  0.00000000  0.00000000  1
  O  O13  1  0.50000000  0.50000000  0.00000000  1
  O  O14  1  0.00000000  0.00000000  0.50000000  1
  O  O15  1  0.50000000  0.50000000  0.50000000  1
  O  O16  1  0.29954400  0.90579500  0.90478500  1
  O  O17  1  0.40579500  0.20045600  0.90478500  1
  O  O18  1  0.59420500  0.79954400  0.90478500  1
  O  O19  1  0.70045600  0.09420500  0.90478500  1
  O  O20  1  0.20045600  0.59420500  0.09521500  1
  O  O21  1  0.09420500  0.29954400  0.09521500  1
  O  O22  1  0.90579500  0.70045600  0.09521500  1
  O  O23  1  0.79954400  0.40579500  0.09521500  1
  O  O24  1  0.90817700  0.29896000  0.60071400  1
  O  O25  1  0.79896000  0.59182300  0.60071400  1
  O  O26  1  0.20104000  0.40817700  0.60071400  1
  O  O27  1  0.09182300  0.70104000  0.60071400  1
  O  O28  1  0.59182300  0.20104000  0.39928600  1
  O  O29  1  0.70104000  0.90817700  0.39928600  1
  O  O30  1  0.29896000  0.09182300  0.39928600  1
  O  O31  1  0.40817700  0.79896000  0.39928600  1
