# generated using pymatgen
data_CsPr2Cl7
_symmetry_space_group_name_H-M   'P 1'
_cell_length_a   9.85100300
_cell_length_b   15.15762000
_cell_length_c   16.99085500
_cell_angle_alpha   90.00000000
_cell_angle_beta   90.00000000
_cell_angle_gamma   90.00000000
_symmetry_Int_Tables_number   1
_chemical_formula_structural   CsPr2Cl7
_chemical_formula_sum   'Cs8 Pr16 Cl56'
_cell_volume   2537.03641066
_cell_formula_units_Z   8
loop_
 _symmetry_equiv_pos_site_id
 _symmetry_equiv_pos_as_xyz
  1  'x, y, z'
loop_
 _atom_site_type_symbol
 _atom_site_label
 _atom_site_symmetry_multiplicity
 _atom_site_fract_x
 _atom_site_fract_y
 _atom_site_fract_z
 _atom_site_occupancy
  Cs  Cs0  1  0.25000000  0.91553400  0.59776000  1
  Cs  Cs1  1  0.75000000  0.08446600  0.40224000  1
  Cs  Cs2  1  0.75000000  0.58446600  0.09776000  1
  Cs  Cs3  1  0.25000000  0.41553400  0.90224000  1
  Cs  Cs4  1  0.25000000  0.56904700  0.56920800  1
  Cs  Cs5  1  0.75000000  0.43095300  0.43079200  1
  Cs  Cs6  1  0.75000000  0.93095300  0.06920800  1
  Cs  Cs7  1  0.25000000  0.06904700  0.93079200  1
  Pr  Pr8  1  0.02649200  0.74432100  0.83917000  1
  Pr  Pr9  1  0.97350800  0.25567900  0.16083000  1
  Pr  Pr10  1  0.97350800  0.75567900  0.33917000  1
  Pr  Pr11  1  0.52649200  0.25567900  0.16083000  1
  Pr  Pr12  1  0.02649200  0.24432100  0.66083000  1
  Pr  Pr13  1  0.47350800  0.74432100  0.83917000  1
  Pr  Pr14  1  0.47350800  0.24432100  0.66083000  1
  Pr  Pr15  1  0.52649200  0.75567900  0.33917000  1
  Pr  Pr16  1  0.25000000  0.71187700  0.06108000  1
  Pr  Pr17  1  0.75000000  0.28812300  0.93892000  1
  Pr  Pr18  1  0.75000000  0.78812300  0.56108000  1
  Pr  Pr19  1  0.25000000  0.21187700  0.43892000  1
  Pr  Pr20  1  0.25000000  0.51301300  0.25600300  1
  Pr  Pr21  1  0.75000000  0.48698700  0.74399700  1
  Pr  Pr22  1  0.75000000  0.98698700  0.75600300  1
  Pr  Pr23  1  0.25000000  0.01301300  0.24399700  1
  Cl  Cl24  1  0.57430300  0.91489600  0.87866300  1
  Cl  Cl25  1  0.42569700  0.08510400  0.12133700  1
  Cl  Cl26  1  0.42569700  0.58510400  0.37866300  1
  Cl  Cl27  1  0.07430300  0.08510400  0.12133700  1
  Cl  Cl28  1  0.57430300  0.41489600  0.62133700  1
  Cl  Cl29  1  0.92569700  0.91489600  0.87866300  1
  Cl  Cl30  1  0.92569700  0.41489600  0.62133700  1
  Cl  Cl31  1  0.07430300  0.58510400  0.37866300  1
  Cl  Cl32  1  0.01986700  0.77783800  0.50438800  1
  Cl  Cl33  1  0.98013300  0.22216200  0.49561200  1
  Cl  Cl34  1  0.98013300  0.72216200  0.00438800  1
  Cl  Cl35  1  0.51986700  0.22216200  0.49561200  1
  Cl  Cl36  1  0.01986700  0.27783800  0.99561200  1
  Cl  Cl37  1  0.48013300  0.77783800  0.50438800  1
  Cl  Cl38  1  0.48013300  0.27783800  0.99561200  1
  Cl  Cl39  1  0.51986700  0.72216200  0.00438800  1
  Cl  Cl40  1  0.25000000  0.80609400  0.34455900  1
  Cl  Cl41  1  0.75000000  0.19390600  0.65544100  1
  Cl  Cl42  1  0.75000000  0.69390600  0.84455900  1
  Cl  Cl43  1  0.25000000  0.30609400  0.15544100  1
  Cl  Cl44  1  0.25000000  0.75130300  0.73189700  1
  Cl  Cl45  1  0.75000000  0.24869700  0.26810300  1
  Cl  Cl46  1  0.75000000  0.74869700  0.23189700  1
  Cl  Cl47  1  0.25000000  0.25130300  0.76810300  1
  Cl  Cl48  1  0.57582600  0.83045300  0.69713800  1
  Cl  Cl49  1  0.42417400  0.16954700  0.30286200  1
  Cl  Cl50  1  0.42417400  0.66954700  0.19713800  1
  Cl  Cl51  1  0.07582600  0.16954700  0.30286200  1
  Cl  Cl52  1  0.57582600  0.33045300  0.80286200  1
  Cl  Cl53  1  0.92417400  0.83045300  0.69713800  1
  Cl  Cl54  1  0.92417400  0.33045300  0.80286200  1
  Cl  Cl55  1  0.07582600  0.66954700  0.19713800  1
  Cl  Cl56  1  0.00758900  0.57205400  0.76864900  1
  Cl  Cl57  1  0.99241100  0.42794600  0.23135100  1
  Cl  Cl58  1  0.99241100  0.92794600  0.26864900  1
  Cl  Cl59  1  0.50758900  0.42794600  0.23135100  1
  Cl  Cl60  1  0.00758900  0.07205400  0.73135100  1
  Cl  Cl61  1  0.49241100  0.57205400  0.76864900  1
  Cl  Cl62  1  0.49241100  0.07205400  0.73135100  1
  Cl  Cl63  1  0.50758900  0.92794600  0.26864900  1
  Cl  Cl64  1  0.25000000  0.52598100  0.08609500  1
  Cl  Cl65  1  0.75000000  0.47401900  0.91390500  1
  Cl  Cl66  1  0.75000000  0.97401900  0.58609500  1
  Cl  Cl67  1  0.25000000  0.02598100  0.41390500  1
  Cl  Cl68  1  0.25000000  0.87919400  0.12368400  1
  Cl  Cl69  1  0.75000000  0.12080600  0.87631600  1
  Cl  Cl70  1  0.75000000  0.62080600  0.62368400  1
  Cl  Cl71  1  0.25000000  0.37919400  0.37631600  1
  Cl  Cl72  1  0.25000000  0.84010500  0.91982800  1
  Cl  Cl73  1  0.75000000  0.15989500  0.08017200  1
  Cl  Cl74  1  0.75000000  0.65989500  0.41982800  1
  Cl  Cl75  1  0.25000000  0.34010500  0.58017200  1
  Cl  Cl76  1  0.25000000  0.63296500  0.90479200  1
  Cl  Cl77  1  0.75000000  0.36703500  0.09520800  1
  Cl  Cl78  1  0.75000000  0.86703500  0.40479200  1
  Cl  Cl79  1  0.25000000  0.13296500  0.59520800  1
