# generated using pymatgen
data_Y2CrFeO6
_symmetry_space_group_name_H-M   'P 1'
_cell_length_a   5.33250906
_cell_length_b   5.62406400
_cell_length_c   7.69540859
_cell_angle_alpha   89.99987190
_cell_angle_beta   90.07292712
_cell_angle_gamma   89.99988519
_symmetry_Int_Tables_number   1
_chemical_formula_structural   Y2CrFeO6
_chemical_formula_sum   'Y4 Cr2 Fe2 O12'
_cell_volume   230.78798108
_cell_formula_units_Z   2
loop_
 _symmetry_equiv_pos_site_id
 _symmetry_equiv_pos_as_xyz
  1  'x, y, z'
loop_
 _atom_site_type_symbol
 _atom_site_label
 _atom_site_symmetry_multiplicity
 _atom_site_fract_x
 _atom_site_fract_y
 _atom_site_fract_z
 _atom_site_occupancy
  Y  Y0  1  0.51833600  0.56702300  0.24997200  1
  Y  Y1  1  0.98165200  0.06702800  0.25002100  1
  Y  Y2  1  0.48165100  0.43295600  0.75002700  1
  Y  Y3  1  0.01833800  0.93297000  0.74997200  1
  Cr  Cr4  1  0.99998700  0.50000300  0.50004100  1
  Cr  Cr5  1  0.50003200  0.00006700  0.99999400  1
  Fe  Fe6  1  0.00001800  0.50004300  0.00001600  1
  Fe  Fe7  1  0.50003000  0.99999800  0.49999200  1
  O  O8  1  0.38800600  0.95952000  0.24869600  1
  O  O9  1  0.11198800  0.45952500  0.25129600  1
  O  O10  1  0.61198700  0.04046300  0.75129800  1
  O  O11  1  0.88800700  0.54046900  0.74869400  1
  O  O12  1  0.80585500  0.80436600  0.05786900  1
  O  O13  1  0.69414200  0.30437600  0.44212800  1
  O  O14  1  0.19414800  0.19560700  0.94213100  1
  O  O15  1  0.30584700  0.69561600  0.55786700  1
  O  O16  1  0.19146000  0.19754700  0.55765600  1
  O  O17  1  0.30852900  0.69753200  0.94233800  1
  O  O18  1  0.80852700  0.80245200  0.44233600  1
  O  O19  1  0.69146100  0.30243900  0.05765700  1
