# generated using pymatgen
data_Er2Si4Mo3
_symmetry_space_group_name_H-M   'P 1'
_cell_length_a   6.90664700
_cell_length_b   6.71833200
_cell_length_c   6.84227448
_cell_angle_alpha   71.02963649
_cell_angle_beta   90.00000000
_cell_angle_gamma   90.00000000
_symmetry_Int_Tables_number   1
_chemical_formula_structural   Er2Si4Mo3
_chemical_formula_sum   'Er4 Si8 Mo6'
_cell_volume   300.24553901
_cell_formula_units_Z   2
loop_
 _symmetry_equiv_pos_site_id
 _symmetry_equiv_pos_as_xyz
  1  'x, y, z'
loop_
 _atom_site_type_symbol
 _atom_site_label
 _atom_site_symmetry_multiplicity
 _atom_site_fract_x
 _atom_site_fract_y
 _atom_site_fract_z
 _atom_site_occupancy
  Er  Er0  1  0.66954600  0.43911700  0.19070100  1
  Er  Er1  1  0.16954600  0.06088300  0.80929900  1
  Er  Er2  1  0.33045400  0.56088300  0.80929900  1
  Er  Er3  1  0.83045400  0.93911700  0.19070100  1
  Si  Si4  1  0.45644100  0.13242700  0.09004600  1
  Si  Si5  1  0.95644100  0.36757300  0.90995400  1
  Si  Si6  1  0.54355900  0.86757300  0.90995400  1
  Si  Si7  1  0.04355900  0.63242700  0.09004600  1
  Si  Si8  1  0.86821300  0.12915100  0.50387100  1
  Si  Si9  1  0.36821300  0.37084900  0.49612900  1
  Si  Si10  1  0.13178700  0.87084900  0.49612900  1
  Si  Si11  1  0.63178700  0.62915100  0.50387100  1
  Mo  Mo12  1  0.50000000  0.00000000  0.50000000  1
  Mo  Mo13  1  0.00000000  0.50000000  0.50000000  1
  Mo  Mo14  1  0.16251400  0.25032500  0.24808300  1
  Mo  Mo15  1  0.66251400  0.24967500  0.75191700  1
  Mo  Mo16  1  0.83748600  0.74967500  0.75191700  1
  Mo  Mo17  1  0.33748600  0.75032500  0.24808300  1
