# generated using pymatgen
data_Nd2Ni2Sn
_symmetry_space_group_name_H-M   'P 1'
_cell_length_a   5.59123851
_cell_length_b   5.59123851
_cell_length_c   5.59123851
_cell_angle_alpha   134.26962428
_cell_angle_beta   117.11976404
_cell_angle_gamma   81.14770691
_symmetry_Int_Tables_number   1
_chemical_formula_structural   Nd2Ni2Sn
_chemical_formula_sum   'Nd2 Ni2 Sn1'
_cell_volume   107.63589444
_cell_formula_units_Z   1
loop_
 _symmetry_equiv_pos_site_id
 _symmetry_equiv_pos_as_xyz
  1  'x, y, z'
loop_
 _atom_site_type_symbol
 _atom_site_label
 _atom_site_symmetry_multiplicity
 _atom_site_fract_x
 _atom_site_fract_y
 _atom_site_fract_z
 _atom_site_occupancy
  Nd  Nd0  1  0.29580800  0.79580800  0.50000000  1
  Nd  Nd1  1  0.70419200  0.20419200  0.50000000  1
  Ni  Ni2  1  0.70798100  0.50000000  0.20798100  1
  Ni  Ni3  1  0.29201900  0.50000000  0.79201900  1
  Sn  Sn4  1  0.00000000  0.00000000  0.00000000  1
