# generated using pymatgen
data_MnCu2SiSe4
_symmetry_space_group_name_H-M   'P 1'
_cell_length_a   6.56689600
_cell_length_b   6.78326800
_cell_length_c   7.94395000
_cell_angle_alpha   90.00000000
_cell_angle_beta   90.00000000
_cell_angle_gamma   90.00000000
_symmetry_Int_Tables_number   1
_chemical_formula_structural   MnCu2SiSe4
_chemical_formula_sum   'Mn2 Cu4 Si2 Se8'
_cell_volume   353.86337585
_cell_formula_units_Z   2
loop_
 _symmetry_equiv_pos_site_id
 _symmetry_equiv_pos_as_xyz
  1  'x, y, z'
loop_
 _atom_site_type_symbol
 _atom_site_label
 _atom_site_symmetry_multiplicity
 _atom_site_fract_x
 _atom_site_fract_y
 _atom_site_fract_z
 _atom_site_occupancy
  Mn  Mn0  1  0.51023600  0.34882800  0.00000000  1
  Mn  Mn1  1  0.01023600  0.65117200  0.50000000  1
  Cu  Cu2  1  0.51537100  0.82411500  0.75618800  1
  Cu  Cu3  1  0.01537100  0.17588500  0.74381200  1
  Cu  Cu4  1  0.01537100  0.17588500  0.25618800  1
  Cu  Cu5  1  0.51537100  0.82411500  0.24381200  1
  Si  Si6  1  0.99862500  0.67339500  0.00000000  1
  Si  Si7  1  0.49862500  0.32660500  0.50000000  1
  Se  Se8  1  0.89570100  0.34751400  0.00000000  1
  Se  Se9  1  0.39570100  0.65248600  0.50000000  1
  Se  Se10  1  0.88204000  0.83789900  0.76220000  1
  Se  Se11  1  0.38204000  0.16210100  0.73780000  1
  Se  Se12  1  0.38204000  0.16210100  0.26220000  1
  Se  Se13  1  0.88204000  0.83789900  0.23780000  1
  Se  Se14  1  0.35311700  0.68575100  0.00000000  1
  Se  Se15  1  0.85311700  0.31424900  0.50000000  1
