# generated using pymatgen
data_Ba(Cu2P)4
_symmetry_space_group_name_H-M   'P 1'
_cell_length_a   7.46811211
_cell_length_b   7.46811211
_cell_length_c   7.46811211
_cell_angle_alpha   93.83954629
_cell_angle_beta   93.83954629
_cell_angle_gamma   150.00566543
_symmetry_Int_Tables_number   1
_chemical_formula_structural   Ba(Cu2P)4
_chemical_formula_sum   'Ba1 Cu8 P4'
_cell_volume   201.13036155
_cell_formula_units_Z   1
loop_
 _symmetry_equiv_pos_site_id
 _symmetry_equiv_pos_as_xyz
  1  'x, y, z'
loop_
 _atom_site_type_symbol
 _atom_site_label
 _atom_site_symmetry_multiplicity
 _atom_site_fract_x
 _atom_site_fract_y
 _atom_site_fract_z
 _atom_site_occupancy
  Ba  Ba0  1  0.00000000  0.00000000  0.00000000  1
  Cu  Cu1  1  0.77096500  0.33860500  0.10957000  1
  Cu  Cu2  1  0.33860500  0.22903500  0.56764000  1
  Cu  Cu3  1  0.01364200  0.36563000  0.37927200  1
  Cu  Cu4  1  0.98635800  0.63437000  0.62072800  1
  Cu  Cu5  1  0.63437000  0.01364200  0.64801300  1
  Cu  Cu6  1  0.66139500  0.77096500  0.43236000  1
  Cu  Cu7  1  0.36563000  0.98635800  0.35198700  1
  Cu  Cu8  1  0.22903500  0.66139500  0.89043000  1
  P  P9  1  0.57515100  0.23364400  0.80879500  1
  P  P10  1  0.42484900  0.76635600  0.19120500  1
  P  P11  1  0.76635600  0.57515100  0.34150700  1
  P  P12  1  0.23364400  0.42484900  0.65849300  1
