# generated using pymatgen
data_Sc2TlCu3S5
_symmetry_space_group_name_H-M   'P 1'
_cell_length_a   7.12427614
_cell_length_b   7.12427614
_cell_length_c   15.75548300
_cell_angle_alpha   90.00000000
_cell_angle_beta   90.00000000
_cell_angle_gamma   149.06739549
_symmetry_Int_Tables_number   1
_chemical_formula_structural   Sc2TlCu3S5
_chemical_formula_sum   'Sc4 Tl2 Cu6 S10'
_cell_volume   411.05621324
_cell_formula_units_Z   2
loop_
 _symmetry_equiv_pos_site_id
 _symmetry_equiv_pos_as_xyz
  1  'x, y, z'
loop_
 _atom_site_type_symbol
 _atom_site_label
 _atom_site_symmetry_multiplicity
 _atom_site_fract_x
 _atom_site_fract_y
 _atom_site_fract_z
 _atom_site_occupancy
  Sc  Sc0  1  0.69321000  0.30679000  0.59439900  1
  Sc  Sc1  1  0.30679000  0.69321000  0.40560100  1
  Sc  Sc2  1  0.30679000  0.69321000  0.09439900  1
  Sc  Sc3  1  0.69321000  0.30679000  0.90560100  1
  Tl  Tl4  1  0.56892900  0.43107100  0.25000000  1
  Tl  Tl5  1  0.43107100  0.56892900  0.75000000  1
  Cu  Cu6  1  0.91742300  0.08257700  0.54356000  1
  Cu  Cu7  1  0.08257700  0.91742300  0.45644000  1
  Cu  Cu8  1  0.08257700  0.91742300  0.04356000  1
  Cu  Cu9  1  0.91742300  0.08257700  0.95644000  1
  Cu  Cu10  1  0.85474100  0.14525900  0.25000000  1
  Cu  Cu11  1  0.14525900  0.85474100  0.75000000  1
  S  S12  1  0.25762000  0.74238000  0.25000000  1
  S  S13  1  0.74238000  0.25762000  0.75000000  1
  S  S14  1  0.67326400  0.32673600  0.06901300  1
  S  S15  1  0.32673600  0.67326400  0.93098700  1
  S  S16  1  0.32673600  0.67326400  0.56901300  1
  S  S17  1  0.67326400  0.32673600  0.43098700  1
  S  S18  1  0.93423000  0.06577000  0.11315300  1
  S  S19  1  0.06577000  0.93423000  0.88684700  1
  S  S20  1  0.06577000  0.93423000  0.61315300  1
  S  S21  1  0.93423000  0.06577000  0.38684700  1
