# generated using pymatgen
data_Na2ZnFeF7
_symmetry_space_group_name_H-M   'P 1'
_cell_length_a   7.41292246
_cell_length_b   7.41292246
_cell_length_c   24.92823890
_cell_angle_alpha   81.76709746
_cell_angle_beta   81.76709746
_cell_angle_gamma   60.55547468
_symmetry_Int_Tables_number   1
_chemical_formula_structural   Na2ZnFeF7
_chemical_formula_sum   'Na16 Zn8 Fe8 F56'
_cell_volume   1176.38873120
_cell_formula_units_Z   8
loop_
 _symmetry_equiv_pos_site_id
 _symmetry_equiv_pos_as_xyz
  1  'x, y, z'
loop_
 _atom_site_type_symbol
 _atom_site_label
 _atom_site_symmetry_multiplicity
 _atom_site_fract_x
 _atom_site_fract_y
 _atom_site_fract_z
 _atom_site_occupancy
  Na  Na0  1  0.00000000  0.00000000  0.00000000  1
  Na  Na1  1  0.00000000  0.00000000  0.50000000  1
  Na  Na2  1  0.50000000  0.50000000  0.00000000  1
  Na  Na3  1  0.50000000  0.50000000  0.50000000  1
  Na  Na4  1  0.00000000  0.50000000  0.50000000  1
  Na  Na5  1  0.50000000  0.00000000  0.00000000  1
  Na  Na6  1  0.21363700  0.78636300  0.75000000  1
  Na  Na7  1  0.78636300  0.21363700  0.25000000  1
  Na  Na8  1  0.20345600  0.30064300  0.75153200  1
  Na  Na9  1  0.69935700  0.79654400  0.74846800  1
  Na  Na10  1  0.79654400  0.69935700  0.24846800  1
  Na  Na11  1  0.30064300  0.20345600  0.25153200  1
  Na  Na12  1  0.86134900  0.88709800  0.87844700  1
  Na  Na13  1  0.11290200  0.13865100  0.62155300  1
  Na  Na14  1  0.13865100  0.11290200  0.12155300  1
  Na  Na15  1  0.88709800  0.86134900  0.37844700  1
  Zn  Zn16  1  0.38669400  0.86539900  0.37446100  1
  Zn  Zn17  1  0.13460100  0.61330600  0.12553900  1
  Zn  Zn18  1  0.61330600  0.13460100  0.62553900  1
  Zn  Zn19  1  0.86539900  0.38669400  0.87446100  1
  Zn  Zn20  1  0.38576900  0.36923800  0.37197900  1
  Zn  Zn21  1  0.63076200  0.61423100  0.12802100  1
  Zn  Zn22  1  0.61423100  0.63076200  0.62802100  1
  Zn  Zn23  1  0.36923800  0.38576900  0.87197900  1
  Fe  Fe24  1  0.88826000  0.36357800  0.37484800  1
  Fe  Fe25  1  0.63642200  0.11174000  0.12515200  1
  Fe  Fe26  1  0.11174000  0.63642200  0.62515200  1
  Fe  Fe27  1  0.36357800  0.88826000  0.87484800  1
  Fe  Fe28  1  0.24714500  0.75285500  0.25000000  1
  Fe  Fe29  1  0.75285500  0.24714500  0.75000000  1
  Fe  Fe30  1  0.50000000  0.00000000  0.50000000  1
  Fe  Fe31  1  0.00000000  0.50000000  0.00000000  1
  F  F32  1  0.81417300  0.36370900  0.45452800  1
  F  F33  1  0.63629100  0.18582700  0.04547200  1
  F  F34  1  0.18582700  0.63629100  0.54547200  1
  F  F35  1  0.36370900  0.81417300  0.95452800  1
  F  F36  1  0.96963600  0.36048600  0.29568100  1
  F  F37  1  0.63951400  0.03036400  0.20431900  1
  F  F38  1  0.03036400  0.63951400  0.70431900  1
  F  F39  1  0.36048600  0.96963600  0.79568100  1
  F  F40  1  0.13907200  0.02597100  0.20954300  1
  F  F41  1  0.97402900  0.86092800  0.29045700  1
  F  F42  1  0.86092800  0.97402900  0.79045700  1
  F  F43  1  0.02597100  0.13907200  0.70954300  1
  F  F44  1  0.79360000  0.86652700  0.46821900  1
  F  F45  1  0.13347300  0.20640000  0.03178100  1
  F  F46  1  0.20640000  0.13347300  0.53178100  1
  F  F47  1  0.86652700  0.79360000  0.96821900  1
  F  F48  1  0.30682800  0.64213600  0.39998600  1
  F  F49  1  0.35786400  0.69317200  0.10001400  1
  F  F50  1  0.69317200  0.35786400  0.60001400  1
  F  F51  1  0.64213600  0.30682800  0.89998600  1
  F  F52  1  0.45640900  0.09470000  0.34606400  1
  F  F53  1  0.36180400  0.86182100  0.29419300  1
  F  F54  1  0.90530000  0.54359100  0.15393600  1
  F  F55  1  0.09470000  0.45640900  0.84606400  1
  F  F56  1  0.69849600  0.66090200  0.35995200  1
  F  F57  1  0.33909800  0.30150400  0.14004800  1
  F  F58  1  0.30150400  0.33909800  0.64004800  1
  F  F59  1  0.66090200  0.69849600  0.85995200  1
  F  F60  1  0.07382600  0.06589800  0.39118700  1
  F  F61  1  0.93410200  0.92617400  0.10881300  1
  F  F62  1  0.92617400  0.93410200  0.60881300  1
  F  F63  1  0.06589800  0.07382600  0.89118700  1
  F  F64  1  0.25524600  0.42095300  0.95264100  1
  F  F65  1  0.57904700  0.74475400  0.54735900  1
  F  F66  1  0.74475400  0.57904700  0.04735900  1
  F  F67  1  0.42095300  0.25524600  0.45264100  1
  F  F68  1  0.47427300  0.36208800  0.79044400  1
  F  F69  1  0.63791200  0.52572700  0.70955600  1
  F  F70  1  0.52572700  0.63791200  0.20955600  1
  F  F71  1  0.36208800  0.47427300  0.29044400  1
  F  F72  1  0.27017900  0.69854300  0.85837400  1
  F  F73  1  0.30145700  0.72982100  0.64162600  1
  F  F74  1  0.72982100  0.30145700  0.14162600  1
  F  F75  1  0.69854300  0.27017900  0.35837400  1
  F  F76  1  0.46179600  0.07538000  0.89011100  1
  F  F77  1  0.92462000  0.53820400  0.60988900  1
  F  F78  1  0.53820400  0.92462000  0.10988900  1
  F  F79  1  0.07538000  0.46179600  0.39011100  1
  F  F80  1  0.86354900  0.41680400  0.95483000  1
  F  F81  1  0.58319600  0.13645100  0.54517000  1
  F  F82  1  0.13645100  0.58319600  0.04517000  1
  F  F83  1  0.41680400  0.86354900  0.45483000  1
  F  F84  1  0.86182100  0.36180400  0.79419300  1
  F  F85  1  0.63819600  0.13817900  0.70580700  1
  F  F86  1  0.13817900  0.63819600  0.20580700  1
  F  F87  1  0.54359100  0.90530000  0.65393600  1
