# generated using pymatgen
data_NaEr(MoO4)2
_symmetry_space_group_name_H-M   'P 1'
_cell_length_a   6.77338696
_cell_length_b   6.77338696
_cell_length_c   6.77338696
_cell_angle_alpha   134.59829367
_cell_angle_beta   134.59829367
_cell_angle_gamma   66.15500525
_symmetry_Int_Tables_number   1
_chemical_formula_structural   NaEr(MoO4)2
_chemical_formula_sum   'Na1 Er1 Mo2 O8'
_cell_volume   155.12473931
_cell_formula_units_Z   1
loop_
 _symmetry_equiv_pos_site_id
 _symmetry_equiv_pos_as_xyz
  1  'x, y, z'
loop_
 _atom_site_type_symbol
 _atom_site_label
 _atom_site_symmetry_multiplicity
 _atom_site_fract_x
 _atom_site_fract_y
 _atom_site_fract_z
 _atom_site_occupancy
  Na  Na0  1  0.00000000  0.00000000  0.00000000  1
  Er  Er1  1  0.75000000  0.25000000  0.50000000  1
  Mo  Mo2  1  0.50000000  0.50000000  0.00000000  1
  Mo  Mo3  1  0.25000000  0.75000000  0.50000000  1
  O  O4  1  0.44398300  0.34444400  0.60842800  1
  O  O5  1  0.73601600  0.83555500  0.39157200  1
  O  O6  1  0.57887800  0.66782700  0.58341900  1
  O  O7  1  0.08440800  0.99546000  0.41658100  1
  O  O8  1  0.33217300  0.91559200  0.91105100  1
  O  O9  1  0.00454000  0.42112200  0.08894900  1
  O  O10  1  0.16444500  0.55601700  0.90046100  1
  O  O11  1  0.65555600  0.26398400  0.09953900  1
