# generated using pymatgen
data_K2CrO4
_symmetry_space_group_name_H-M   'P 1'
_cell_length_a   6.04799800
_cell_length_b   7.77111900
_cell_length_c   10.59316000
_cell_angle_alpha   90.00000000
_cell_angle_beta   90.00000000
_cell_angle_gamma   90.00000000
_symmetry_Int_Tables_number   1
_chemical_formula_structural   K2CrO4
_chemical_formula_sum   'K8 Cr4 O16'
_cell_volume   497.87547097
_cell_formula_units_Z   4
loop_
 _symmetry_equiv_pos_site_id
 _symmetry_equiv_pos_as_xyz
  1  'x, y, z'
loop_
 _atom_site_type_symbol
 _atom_site_label
 _atom_site_symmetry_multiplicity
 _atom_site_fract_x
 _atom_site_fract_y
 _atom_site_fract_z
 _atom_site_occupancy
  K  K0  1  0.25000000  0.66691400  0.92190900  1
  K  K1  1  0.75000000  0.33308600  0.07809100  1
  K  K2  1  0.25000000  0.16691400  0.57809100  1
  K  K3  1  0.75000000  0.83308600  0.42190900  1
  K  K4  1  0.75000000  0.00439200  0.79968700  1
  K  K5  1  0.25000000  0.99560800  0.20031300  1
  K  K6  1  0.75000000  0.50439200  0.70031300  1
  K  K7  1  0.25000000  0.49560800  0.29968700  1
  Cr  Cr8  1  0.25000000  0.22576200  0.91956900  1
  Cr  Cr9  1  0.75000000  0.77423800  0.08043100  1
  Cr  Cr10  1  0.25000000  0.72576200  0.58043100  1
  Cr  Cr11  1  0.75000000  0.27423800  0.41956900  1
  O  O12  1  0.02464700  0.79418900  0.65611500  1
  O  O13  1  0.52464700  0.20581100  0.34388500  1
  O  O14  1  0.47535300  0.29418900  0.84388500  1
  O  O15  1  0.97535300  0.70581100  0.15611500  1
  O  O16  1  0.97535300  0.20581100  0.34388500  1
  O  O17  1  0.47535300  0.79418900  0.65611500  1
  O  O18  1  0.52464700  0.70581100  0.15611500  1
  O  O19  1  0.02464700  0.29418900  0.84388500  1
  O  O20  1  0.75000000  0.19144200  0.56552300  1
  O  O21  1  0.25000000  0.80855800  0.43447700  1
  O  O22  1  0.75000000  0.69144200  0.93447700  1
  O  O23  1  0.25000000  0.30855800  0.06552300  1
  O  O24  1  0.25000000  0.01249200  0.92636700  1
  O  O25  1  0.75000000  0.98750800  0.07363300  1
  O  O26  1  0.25000000  0.51249200  0.57363300  1
  O  O27  1  0.75000000  0.48750800  0.42636700  1
