# generated using pymatgen
data_K3MnPCO7
_symmetry_space_group_name_H-M   'P 1'
_cell_length_a   7.04805000
_cell_length_b   5.67218100
_cell_length_c   9.76642896
_cell_angle_alpha   89.06013362
_cell_angle_beta   90.00000000
_cell_angle_gamma   90.00000000
_symmetry_Int_Tables_number   1
_chemical_formula_structural   K3MnPCO7
_chemical_formula_sum   'K6 Mn2 P2 C2 O14'
_cell_volume   390.38796382
_cell_formula_units_Z   2
loop_
 _symmetry_equiv_pos_site_id
 _symmetry_equiv_pos_as_xyz
  1  'x, y, z'
loop_
 _atom_site_type_symbol
 _atom_site_label
 _atom_site_symmetry_multiplicity
 _atom_site_fract_x
 _atom_site_fract_y
 _atom_site_fract_z
 _atom_site_occupancy
  K  K0  1  0.25000000  0.76208100  0.92126200  1
  K  K1  1  0.00871900  0.25861600  0.73072100  1
  K  K2  1  0.49128100  0.25861600  0.73072100  1
  K  K3  1  0.50871900  0.74138400  0.26927900  1
  K  K4  1  0.99128100  0.74138400  0.26927900  1
  K  K5  1  0.75000000  0.23791900  0.07873800  1
  Mn  Mn6  1  0.75000000  0.77490200  0.63617700  1
  Mn  Mn7  1  0.25000000  0.22509800  0.36382300  1
  P  P8  1  0.25000000  0.71477900  0.57754700  1
  P  P9  1  0.75000000  0.28522100  0.42245300  1
  C  C10  1  0.75000000  0.74162400  0.91778900  1
  C  C11  1  0.25000000  0.25837600  0.08221100  1
  O  O12  1  0.25000000  0.26720300  0.94926200  1
  O  O13  1  0.75000000  0.94393900  0.85188700  1
  O  O14  1  0.75000000  0.54920100  0.84631400  1
  O  O15  1  0.07047800  0.76089200  0.66709600  1
  O  O16  1  0.42952200  0.76089200  0.66709600  1
  O  O17  1  0.25000000  0.45046900  0.53359100  1
  O  O18  1  0.75000000  0.12428600  0.55273400  1
  O  O19  1  0.25000000  0.87571400  0.44726600  1
  O  O20  1  0.75000000  0.54953100  0.46640900  1
  O  O21  1  0.57047800  0.23910800  0.33290400  1
  O  O22  1  0.92952200  0.23910800  0.33290400  1
  O  O23  1  0.25000000  0.45079900  0.15368600  1
  O  O24  1  0.25000000  0.05606100  0.14811300  1
  O  O25  1  0.75000000  0.73279700  0.05073800  1
