# generated using pymatgen
data_Yb2Ni7
_symmetry_space_group_name_H-M   'P 1'
_cell_length_a   4.87913314
_cell_length_b   4.87913300
_cell_length_c   12.15204731
_cell_angle_alpha   78.41897021
_cell_angle_beta   78.41897229
_cell_angle_gamma   59.99999417
_symmetry_Int_Tables_number   1
_chemical_formula_structural   Yb2Ni7
_chemical_formula_sum   'Yb4 Ni14'
_cell_volume   243.70898755
_cell_formula_units_Z   2
loop_
 _symmetry_equiv_pos_site_id
 _symmetry_equiv_pos_as_xyz
  1  'x, y, z'
loop_
 _atom_site_type_symbol
 _atom_site_label
 _atom_site_symmetry_multiplicity
 _atom_site_fract_x
 _atom_site_fract_y
 _atom_site_fract_z
 _atom_site_occupancy
  Yb  Yb0  1  0.94845500  0.94845500  0.15463600  1
  Yb  Yb1  1  0.05154500  0.05154500  0.84536400  1
  Yb  Yb2  1  0.85270700  0.85270700  0.44187800  1
  Yb  Yb3  1  0.14729300  0.14729300  0.55812200  1
  Ni  Ni4  1  0.50000000  0.50000000  0.50000000  1
  Ni  Ni5  1  0.72248000  0.72248000  0.83255900  1
  Ni  Ni6  1  0.27752000  0.27752000  0.16744100  1
  Ni  Ni7  1  0.61137000  0.61137000  0.16589000  1
  Ni  Ni8  1  0.38863000  0.38863000  0.83411000  1
  Ni  Ni9  1  0.00000000  0.50000000  0.00000000  1
  Ni  Ni10  1  0.50000000  0.00000000  0.00000000  1
  Ni  Ni11  1  0.50000000  0.50000000  0.00000000  1
  Ni  Ni12  1  0.38845800  0.38845800  0.33172000  1
  Ni  Ni13  1  0.89136400  0.38845800  0.33172000  1
  Ni  Ni14  1  0.38845800  0.89136400  0.33172000  1
  Ni  Ni15  1  0.61154200  0.61154200  0.66828000  1
  Ni  Ni16  1  0.10863600  0.61154200  0.66828000  1
  Ni  Ni17  1  0.61154200  0.10863600  0.66828000  1
