# generated using pymatgen
data_Ba5P3O12F
_symmetry_space_group_name_H-M   'P 1'
_cell_length_a   10.36526542
_cell_length_b   10.36526542
_cell_length_c   7.79264400
_cell_angle_alpha   90.00000000
_cell_angle_beta   90.00000000
_cell_angle_gamma   119.99999628
_symmetry_Int_Tables_number   1
_chemical_formula_structural   Ba5P3O12F
_chemical_formula_sum   'Ba10 P6 O24 F2'
_cell_volume   725.06399382
_cell_formula_units_Z   2
loop_
 _symmetry_equiv_pos_site_id
 _symmetry_equiv_pos_as_xyz
  1  'x, y, z'
loop_
 _atom_site_type_symbol
 _atom_site_label
 _atom_site_symmetry_multiplicity
 _atom_site_fract_x
 _atom_site_fract_y
 _atom_site_fract_z
 _atom_site_occupancy
  Ba  Ba0  1  0.66666700  0.33333300  0.00066900  1
  Ba  Ba1  1  0.33333300  0.66666700  0.99933100  1
  Ba  Ba2  1  0.33333300  0.66666700  0.50066900  1
  Ba  Ba3  1  0.66666700  0.33333300  0.49933100  1
  Ba  Ba4  1  0.75751000  0.01273200  0.75000000  1
  Ba  Ba5  1  0.24249000  0.98726800  0.25000000  1
  Ba  Ba6  1  0.25522200  0.24249000  0.75000000  1
  Ba  Ba7  1  0.74477800  0.75751000  0.25000000  1
  Ba  Ba8  1  0.98726800  0.74477800  0.75000000  1
  Ba  Ba9  1  0.01273200  0.25522200  0.25000000  1
  P  P10  1  0.60122600  0.63187900  0.75000000  1
  P  P11  1  0.39877400  0.36812100  0.25000000  1
  P  P12  1  0.03065300  0.39877400  0.75000000  1
  P  P13  1  0.96934700  0.60122600  0.25000000  1
  P  P14  1  0.36812100  0.96934700  0.75000000  1
  P  P15  1  0.63187900  0.03065300  0.25000000  1
  O  O16  1  0.85850800  0.33351900  0.75000000  1
  O  O17  1  0.14149200  0.66648100  0.25000000  1
  O  O18  1  0.47501000  0.14149200  0.75000000  1
  O  O19  1  0.52499000  0.85850800  0.25000000  1
  O  O20  1  0.66648100  0.52499000  0.75000000  1
  O  O21  1  0.33351900  0.47501000  0.25000000  1
  O  O22  1  0.42717200  0.54094700  0.75000000  1
  O  O23  1  0.57282800  0.45905300  0.25000000  1
  O  O24  1  0.11377500  0.57282800  0.75000000  1
  O  O25  1  0.88622500  0.42717200  0.25000000  1
  O  O26  1  0.45905300  0.88622500  0.75000000  1
  O  O27  1  0.54094700  0.11377500  0.25000000  1
  O  O28  1  0.65370400  0.73343800  0.91275300  1
  O  O29  1  0.34629600  0.26656200  0.08724700  1
  O  O30  1  0.07973300  0.34629600  0.91275300  1
  O  O31  1  0.34629600  0.26656200  0.41275300  1
  O  O32  1  0.92026700  0.65370400  0.08724700  1
  O  O33  1  0.65370400  0.73343800  0.58724700  1
  O  O34  1  0.26656200  0.92026700  0.91275300  1
  O  O35  1  0.92026700  0.65370400  0.41275300  1
  O  O36  1  0.73343800  0.07973300  0.08724700  1
  O  O37  1  0.07973300  0.34629600  0.58724700  1
  O  O38  1  0.73343800  0.07973300  0.41275300  1
  O  O39  1  0.26656200  0.92026700  0.58724700  1
  F  F40  1  0.00000000  0.00000000  0.75000000  1
  F  F41  1  0.00000000  0.00000000  0.25000000  1
