# generated using pymatgen
data_Na5Ti2Si2PO13
_symmetry_space_group_name_H-M   'P 1'
_cell_length_a   5.46057100
_cell_length_b   7.15861649
_cell_length_c   14.69889168
_cell_angle_alpha   100.01235782
_cell_angle_beta   96.56017829
_cell_angle_gamma   90.56616250
_symmetry_Int_Tables_number   1
_chemical_formula_structural   Na5Ti2Si2PO13
_chemical_formula_sum   'Na10 Ti4 Si4 P2 O26'
_cell_volume   561.86622715
_cell_formula_units_Z   2
loop_
 _symmetry_equiv_pos_site_id
 _symmetry_equiv_pos_as_xyz
  1  'x, y, z'
loop_
 _atom_site_type_symbol
 _atom_site_label
 _atom_site_symmetry_multiplicity
 _atom_site_fract_x
 _atom_site_fract_y
 _atom_site_fract_z
 _atom_site_occupancy
  Na  Na0  1  0.75559100  0.25626500  0.58099300  1
  Na  Na1  1  0.24440900  0.74373500  0.41900700  1
  Na  Na2  1  0.32601700  0.53965500  0.60451700  1
  Na  Na3  1  0.67398300  0.46034500  0.39548300  1
  Na  Na4  1  0.32124900  0.03267300  0.63756700  1
  Na  Na5  1  0.67875100  0.96732700  0.36243300  1
  Na  Na6  1  0.75406900  0.87734500  0.00110200  1
  Na  Na7  1  0.17322100  0.42095000  0.23160200  1
  Na  Na8  1  0.82677900  0.57905000  0.76839800  1
  Na  Na9  1  0.24593100  0.12265500  0.99889800  1
  Ti  Ti10  1  0.77862300  0.38222400  0.98953000  1
  Ti  Ti11  1  0.22137700  0.61777600  0.01047000  1
  Ti  Ti12  1  0.82876000  0.06951300  0.77909400  1
  Ti  Ti13  1  0.17124000  0.93048700  0.22090600  1
  Si  Si14  1  0.35314900  0.35817900  0.80310600  1
  Si  Si15  1  0.32754700  0.79490700  0.82447400  1
  Si  Si16  1  0.64685100  0.64182100  0.19689400  1
  Si  Si17  1  0.67245300  0.20509300  0.17552600  1
  P  P18  1  0.17805300  0.22695200  0.42993500  1
  P  P19  1  0.82194700  0.77304800  0.57006500  1
  O  O20  1  0.66985500  0.76965400  0.47400200  1
  O  O21  1  0.33014500  0.23034600  0.52599800  1
  O  O22  1  0.74832100  0.59858200  0.61193400  1
  O  O23  1  0.25167900  0.40141800  0.38806600  1
  O  O24  1  0.10089300  0.77442700  0.56032000  1
  O  O25  1  0.89910700  0.22557300  0.43968000  1
  O  O26  1  0.91773500  0.57764800  0.93295900  1
  O  O27  1  0.08226500  0.42235200  0.06704100  1
  O  O28  1  0.76567900  0.96503000  0.63620400  1
  O  O29  1  0.23432100  0.03497000  0.36379600  1
  O  O30  1  0.86168500  0.17342000  0.90822900  1
  O  O31  1  0.13831500  0.82658000  0.09177100  1
  O  O32  1  0.58666100  0.26911700  0.75079700  1
  O  O33  1  0.41333900  0.73088300  0.24920300  1
  O  O34  1  0.09763000  0.24098700  0.75764200  1
  O  O35  1  0.90237000  0.75901300  0.24235800  1
  O  O36  1  0.41299200  0.39370000  0.91753900  1
  O  O37  1  0.58700800  0.60630000  0.08246100  1
  O  O38  1  0.55512800  0.90152600  0.79139000  1
  O  O39  1  0.44487200  0.09847400  0.20861000  1
  O  O40  1  0.67865400  0.42998800  0.23033300  1
  O  O41  1  0.32134600  0.57001200  0.76966700  1
  O  O42  1  0.64140800  0.19993900  0.06382800  1
  O  O43  1  0.35859200  0.80006100  0.93617200  1
  O  O44  1  0.93956200  0.12420300  0.20780400  1
  O  O45  1  0.06043800  0.87579700  0.79219600  1
