# generated using pymatgen
data_ErFeRu
_symmetry_space_group_name_H-M   'P 1'
_cell_length_a   5.23101402
_cell_length_b   5.23101402
_cell_length_c   5.23101402
_cell_angle_alpha   121.33979075
_cell_angle_beta   118.40962480
_cell_angle_gamma   90.23580944
_symmetry_Int_Tables_number   1
_chemical_formula_structural   ErFeRu
_chemical_formula_sum   'Er2 Fe2 Ru2'
_cell_volume   101.32275599
_cell_formula_units_Z   2
loop_
 _symmetry_equiv_pos_site_id
 _symmetry_equiv_pos_as_xyz
  1  'x, y, z'
loop_
 _atom_site_type_symbol
 _atom_site_label
 _atom_site_symmetry_multiplicity
 _atom_site_fract_x
 _atom_site_fract_y
 _atom_site_fract_z
 _atom_site_occupancy
  Er  Er0  1  0.37542400  0.12542400  0.25000000  1
  Er  Er1  1  0.62457600  0.87457600  0.75000000  1
  Fe  Fe2  1  0.00000000  0.50000000  0.00000000  1
  Fe  Fe3  1  0.00000000  0.00000000  0.50000000  1
  Ru  Ru4  1  0.50000000  0.50000000  0.00000000  1
  Ru  Ru5  1  0.00000000  0.50000000  0.50000000  1
