# generated using pymatgen
data_AlCuGeSe4
_symmetry_space_group_name_H-M   'P 1'
_cell_length_a   5.58486000
_cell_length_b   5.58486000
_cell_length_c   6.67538137
_cell_angle_alpha   65.27157937
_cell_angle_beta   65.27157937
_cell_angle_gamma   90.00000000
_symmetry_Int_Tables_number   1
_chemical_formula_structural   AlCuGeSe4
_chemical_formula_sum   'Al1 Cu1 Ge1 Se4'
_cell_volume   167.86657915
_cell_formula_units_Z   1
loop_
 _symmetry_equiv_pos_site_id
 _symmetry_equiv_pos_as_xyz
  1  'x, y, z'
loop_
 _atom_site_type_symbol
 _atom_site_label
 _atom_site_symmetry_multiplicity
 _atom_site_fract_x
 _atom_site_fract_y
 _atom_site_fract_z
 _atom_site_occupancy
  Al  Al0  1  0.25000000  0.75000000  0.50000000  1
  Cu  Cu1  1  0.00000000  0.00000000  0.00000000  1
  Ge  Ge2  1  0.50000000  0.50000000  0.00000000  1
  Se  Se3  1  0.39436200  0.89336200  0.73578200  1
  Se  Se4  1  0.86985600  0.37085600  0.73578200  1
  Se  Se5  1  0.10663800  0.13014400  0.26421800  1
  Se  Se6  1  0.62914400  0.60563800  0.26421800  1
