# generated using pymatgen
data_Tb2ZnNi2
_symmetry_space_group_name_H-M   'P 1'
_cell_length_a   5.32208292
_cell_length_b   5.32208292
_cell_length_c   5.32208292
_cell_angle_alpha   132.98094891
_cell_angle_beta   119.33522158
_cell_angle_gamma   80.11486046
_symmetry_Int_Tables_number   1
_chemical_formula_structural   Tb2ZnNi2
_chemical_formula_sum   'Tb2 Zn1 Ni2'
_cell_volume   92.97447452
_cell_formula_units_Z   1
loop_
 _symmetry_equiv_pos_site_id
 _symmetry_equiv_pos_as_xyz
  1  'x, y, z'
loop_
 _atom_site_type_symbol
 _atom_site_label
 _atom_site_symmetry_multiplicity
 _atom_site_fract_x
 _atom_site_fract_y
 _atom_site_fract_z
 _atom_site_occupancy
  Tb  Tb0  1  0.70221200  0.20221200  0.50000000  1
  Tb  Tb1  1  0.29778800  0.79778800  0.50000000  1
  Zn  Zn2  1  0.00000000  0.00000000  0.00000000  1
  Ni  Ni3  1  0.26925400  0.50000000  0.76925400  1
  Ni  Ni4  1  0.73074600  0.50000000  0.23074600  1
