# generated using pymatgen
data_Y3BCl3
_symmetry_space_group_name_H-M   'P 1'
_cell_length_a   9.48012895
_cell_length_b   9.48012895
_cell_length_c   9.48012895
_cell_angle_alpha   109.47122063
_cell_angle_beta   109.47122063
_cell_angle_gamma   109.47122063
_symmetry_Int_Tables_number   1
_chemical_formula_structural   Y3BCl3
_chemical_formula_sum   'Y12 B4 Cl12'
_cell_volume   655.87464643
_cell_formula_units_Z   4
loop_
 _symmetry_equiv_pos_site_id
 _symmetry_equiv_pos_as_xyz
  1  'x, y, z'
loop_
 _atom_site_type_symbol
 _atom_site_label
 _atom_site_symmetry_multiplicity
 _atom_site_fract_x
 _atom_site_fract_y
 _atom_site_fract_z
 _atom_site_occupancy
  Y  Y0  1  0.46868100  0.48434000  0.23434000  1
  Y  Y1  1  0.75000000  0.23434000  0.26566000  1
  Y  Y2  1  0.75000000  0.01566000  0.48434000  1
  Y  Y3  1  0.23434000  0.46868100  0.48434000  1
  Y  Y4  1  0.26566000  0.75000000  0.23434000  1
  Y  Y5  1  0.03131900  0.26566000  0.01566000  1
  Y  Y6  1  0.01566000  0.03131900  0.26566000  1
  Y  Y7  1  0.48434000  0.75000000  0.01566000  1
  Y  Y8  1  0.48434000  0.23434000  0.46868100  1
  Y  Y9  1  0.01566000  0.48434000  0.75000000  1
  Y  Y10  1  0.26566000  0.01566000  0.03131900  1
  Y  Y11  1  0.23434000  0.26566000  0.75000000  1
  B  B12  1  0.25000000  0.25000000  0.25000000  1
  B  B13  1  0.50000000  0.00000000  0.25000000  1
  B  B14  1  0.00000000  0.25000000  0.50000000  1
  B  B15  1  0.25000000  0.50000000  0.00000000  1
  Cl  Cl16  1  0.25000000  0.75585500  0.74414500  1
  Cl  Cl17  1  0.51171000  0.50585500  0.75585500  1
  Cl  Cl18  1  0.98829000  0.74414500  0.99414500  1
  Cl  Cl19  1  0.74414500  0.25000000  0.75585500  1
  Cl  Cl20  1  0.99414500  0.98829000  0.74414500  1
  Cl  Cl21  1  0.25000000  0.99414500  0.50585500  1
  Cl  Cl22  1  0.75585500  0.51171000  0.50585500  1
  Cl  Cl23  1  0.50585500  0.25000000  0.99414500  1
  Cl  Cl24  1  0.75585500  0.74414500  0.25000000  1
  Cl  Cl25  1  0.74414500  0.99414500  0.98829000  1
  Cl  Cl26  1  0.99414500  0.50585500  0.25000000  1
  Cl  Cl27  1  0.50585500  0.75585500  0.51171000  1
