# generated using pymatgen
data_KAs2HO6
_symmetry_space_group_name_H-M   'P 1'
_cell_length_a   6.21749502
_cell_length_b   9.31441972
_cell_length_c   9.86277100
_cell_angle_alpha   90.00000000
_cell_angle_beta   90.00000000
_cell_angle_gamma   94.36651547
_symmetry_Int_Tables_number   1
_chemical_formula_structural   KAs2HO6
_chemical_formula_sum   'K4 As8 H4 O24'
_cell_volume   569.51844048
_cell_formula_units_Z   4
loop_
 _symmetry_equiv_pos_site_id
 _symmetry_equiv_pos_as_xyz
  1  'x, y, z'
loop_
 _atom_site_type_symbol
 _atom_site_label
 _atom_site_symmetry_multiplicity
 _atom_site_fract_x
 _atom_site_fract_y
 _atom_site_fract_z
 _atom_site_occupancy
  K  K0  1  0.39303100  0.02448900  0.69334500  1
  K  K1  1  0.60696900  0.47551100  0.19334500  1
  K  K2  1  0.60696900  0.97551100  0.30665500  1
  K  K3  1  0.39303100  0.52448900  0.80665500  1
  As  As4  1  0.83981200  0.75404100  0.61216600  1
  As  As5  1  0.16018800  0.74595900  0.11216600  1
  As  As6  1  0.16018800  0.24595900  0.38783400  1
  As  As7  1  0.83981200  0.25404100  0.88783400  1
  As  As8  1  0.88910700  0.91666000  0.90188400  1
  As  As9  1  0.11089300  0.58334000  0.40188400  1
  As  As10  1  0.11089300  0.08334000  0.09811600  1
  As  As11  1  0.88910700  0.41666000  0.59811600  1
  H  H12  1  0.55950200  0.78931500  0.95895800  1
  H  H13  1  0.44049800  0.71068500  0.45895800  1
  H  H14  1  0.44049800  0.21068500  0.04104200  1
  H  H15  1  0.55950200  0.28931500  0.54104200  1
  O  O16  1  0.61232000  0.82186200  0.55862000  1
  O  O17  1  0.38768000  0.67813800  0.05862000  1
  O  O18  1  0.38768000  0.17813800  0.44138000  1
  O  O19  1  0.61232000  0.32186200  0.94138000  1
  O  O20  1  0.79750900  0.58491600  0.68798700  1
  O  O21  1  0.20249100  0.91508400  0.18798700  1
  O  O22  1  0.20249100  0.41508400  0.31201300  1
  O  O23  1  0.79750900  0.08491600  0.81201300  1
  O  O24  1  0.96783300  0.74180500  0.98298200  1
  O  O25  1  0.03216700  0.75819500  0.48298200  1
  O  O26  1  0.03216700  0.25819500  0.01701800  1
  O  O27  1  0.96783300  0.24180500  0.51701800  1
  O  O28  1  0.98965000  0.86035900  0.73227400  1
  O  O29  1  0.01035000  0.63964100  0.23227400  1
  O  O30  1  0.01035000  0.13964100  0.26772600  1
  O  O31  1  0.98965000  0.36035900  0.76772600  1
  O  O32  1  0.62320600  0.83356700  0.87386200  1
  O  O33  1  0.37679400  0.66643300  0.37386200  1
  O  O34  1  0.37679400  0.16643300  0.12613800  1
  O  O35  1  0.62320600  0.33356700  0.62613800  1
  O  O36  1  0.83583500  0.99668600  0.07065800  1
  O  O37  1  0.16416500  0.50331400  0.57065800  1
  O  O38  1  0.16416500  0.00331400  0.92934200  1
  O  O39  1  0.83583500  0.49668600  0.42934200  1
