# generated using pymatgen
data_Cs6U5(AsO7)4
_symmetry_space_group_name_H-M   'P 1'
_cell_length_a   8.07000000
_cell_length_b   9.46745463
_cell_length_c   12.08920192
_cell_angle_alpha   75.69099322
_cell_angle_beta   73.88835724
_cell_angle_gamma   86.73298123
_symmetry_Int_Tables_number   1
_chemical_formula_structural   Cs6U5(AsO7)4
_chemical_formula_sum   'Cs6 U5 As4 O28'
_cell_volume   859.76983344
_cell_formula_units_Z   1
loop_
 _symmetry_equiv_pos_site_id
 _symmetry_equiv_pos_as_xyz
  1  'x, y, z'
loop_
 _atom_site_type_symbol
 _atom_site_label
 _atom_site_symmetry_multiplicity
 _atom_site_fract_x
 _atom_site_fract_y
 _atom_site_fract_z
 _atom_site_occupancy
  Cs  Cs0  1  0.87353100  0.29920300  0.53197900  1
  Cs  Cs1  1  0.12646900  0.70079700  0.46802100  1
  Cs  Cs2  1  0.93613600  0.37342100  0.87554300  1
  Cs  Cs3  1  0.06386400  0.62657900  0.12445700  1
  Cs  Cs4  1  0.00977400  0.87869000  0.76672400  1
  Cs  Cs5  1  0.99022600  0.12131000  0.23327600  1
  U  U6  1  0.45201800  0.98310100  0.84308000  1
  U  U7  1  0.54798200  0.01689900  0.15692000  1
  U  U8  1  0.50883100  0.62589000  0.72197500  1
  U  U9  1  0.49116900  0.37411000  0.27802500  1
  U  U10  1  0.50000000  0.00000000  0.50000000  1
  As  As11  1  0.39799400  0.31029900  0.99243400  1
  As  As12  1  0.60200600  0.68970100  0.00756600  1
  As  As13  1  0.36650900  0.32300100  0.61513000  1
  As  As14  1  0.63349100  0.67699900  0.38487000  1
  O  O15  1  0.18881000  0.35420400  0.02528100  1
  O  O16  1  0.81119000  0.64579600  0.97471900  1
  O  O17  1  0.53444600  0.42721000  0.87572200  1
  O  O18  1  0.46555400  0.57279000  0.12427800  1
  O  O19  1  0.43396200  0.13140000  0.97568800  1
  O  O20  1  0.56603800  0.86860000  0.02431200  1
  O  O21  1  0.48108300  0.27602700  0.11611100  1
  O  O22  1  0.51891700  0.72397300  0.88388900  1
  O  O23  1  0.17299300  0.39432800  0.60986200  1
  O  O24  1  0.82700700  0.60567200  0.39013800  1
  O  O25  1  0.51323600  0.43495100  0.63344300  1
  O  O26  1  0.48676400  0.56504900  0.36655700  1
  O  O27  1  0.33977200  0.16474600  0.72916000  1
  O  O28  1  0.66022800  0.83525400  0.27084000  1
  O  O29  1  0.47797200  0.25754800  0.49047600  1
  O  O30  1  0.52202800  0.74245200  0.50952400  1
  O  O31  1  0.22981300  0.91924300  0.92337000  1
  O  O32  1  0.77018700  0.08075700  0.07663000  1
  O  O33  1  0.67419400  0.05006000  0.76488500  1
  O  O34  1  0.32580600  0.94994000  0.23511500  1
  O  O35  1  0.74523800  0.63517500  0.67644100  1
  O  O36  1  0.25476200  0.36482500  0.32355900  1
  O  O37  1  0.27204400  0.61387200  0.76686500  1
  O  O38  1  0.72795600  0.38612800  0.23313500  1
  O  O39  1  0.73442200  0.01623100  0.48069300  1
  O  O40  1  0.26557800  0.98376900  0.51930700  1
  O  O41  1  0.46324100  0.88134000  0.68716600  1
  O  O42  1  0.53675900  0.11866000  0.31283400  1
