# generated using pymatgen
data_Eu4Bi2O
_symmetry_space_group_name_H-M   'P 1'
_cell_length_a   9.33571838
_cell_length_b   9.33571838
_cell_length_c   9.33571838
_cell_angle_alpha   149.34164267
_cell_angle_beta   149.34164267
_cell_angle_gamma   43.90866686
_symmetry_Int_Tables_number   1
_chemical_formula_structural   Eu4Bi2O
_chemical_formula_sum   'Eu4 Bi2 O1'
_cell_volume   210.96681916
_cell_formula_units_Z   1
loop_
 _symmetry_equiv_pos_site_id
 _symmetry_equiv_pos_as_xyz
  1  'x, y, z'
loop_
 _atom_site_type_symbol
 _atom_site_label
 _atom_site_symmetry_multiplicity
 _atom_site_fract_x
 _atom_site_fract_y
 _atom_site_fract_z
 _atom_site_occupancy
  Eu  Eu0  1  0.00000000  0.50000000  0.50000000  1
  Eu  Eu1  1  0.50000000  0.00000000  0.50000000  1
  Eu  Eu2  1  0.83241100  0.83241100  0.00000000  1
  Eu  Eu3  1  0.16758900  0.16758900  0.00000000  1
  Bi  Bi4  1  0.63859700  0.63859700  0.00000000  1
  Bi  Bi5  1  0.36140300  0.36140300  0.00000000  1
  O  O6  1  0.00000000  0.00000000  0.00000000  1
