# generated using pymatgen
data_Na6Co(SO4)4
_symmetry_space_group_name_H-M   'P 1'
_cell_length_a   8.41763209
_cell_length_b   9.31315200
_cell_length_c   9.93272574
_cell_angle_alpha   90.00000000
_cell_angle_beta   114.01176312
_cell_angle_gamma   90.00000000
_symmetry_Int_Tables_number   1
_chemical_formula_structural   Na6Co(SO4)4
_chemical_formula_sum   'Na12 Co2 S8 O32'
_cell_volume   711.28807696
_cell_formula_units_Z   2
loop_
 _symmetry_equiv_pos_site_id
 _symmetry_equiv_pos_as_xyz
  1  'x, y, z'
loop_
 _atom_site_type_symbol
 _atom_site_label
 _atom_site_symmetry_multiplicity
 _atom_site_fract_x
 _atom_site_fract_y
 _atom_site_fract_z
 _atom_site_occupancy
  Na  Na0  1  0.91068800  0.84861900  0.55342500  1
  Na  Na1  1  0.08931200  0.15138100  0.44657500  1
  Na  Na2  1  0.58931200  0.34861900  0.44657500  1
  Na  Na3  1  0.41068800  0.65138100  0.55342500  1
  Na  Na4  1  0.53285200  0.98471200  0.68948400  1
  Na  Na5  1  0.46714800  0.01528800  0.31051600  1
  Na  Na6  1  0.96714800  0.48471200  0.31051600  1
  Na  Na7  1  0.03285200  0.51528800  0.68948400  1
  Na  Na8  1  0.81598400  0.36279800  0.89001700  1
  Na  Na9  1  0.18401600  0.63720200  0.10998300  1
  Na  Na10  1  0.68401600  0.86279800  0.10998300  1
  Na  Na11  1  0.31598400  0.13720200  0.89001700  1
  Co  Co12  1  0.00000000  0.00000000  0.00000000  1
  Co  Co13  1  0.50000000  0.50000000  0.00000000  1
  S  S14  1  0.77550500  0.69477800  0.86003300  1
  S  S15  1  0.22449500  0.30522200  0.13996700  1
  S  S16  1  0.72449500  0.19477800  0.13996700  1
  S  S17  1  0.27550500  0.80522200  0.86003300  1
  S  S18  1  0.65266700  0.64715900  0.33747700  1
  S  S19  1  0.34733300  0.35284100  0.66252300  1
  S  S20  1  0.84733300  0.14715900  0.66252300  1
  S  S21  1  0.15266700  0.85284100  0.33747700  1
  O  O22  1  0.84450000  0.81586000  0.97013700  1
  O  O23  1  0.15550000  0.18414000  0.02986300  1
  O  O24  1  0.65550000  0.31586000  0.02986300  1
  O  O25  1  0.34450000  0.68414000  0.97013700  1
  O  O26  1  0.92299800  0.60387700  0.86413000  1
  O  O27  1  0.07700200  0.39612300  0.13587000  1
  O  O28  1  0.57700200  0.10387700  0.13587000  1
  O  O29  1  0.42299800  0.89612300  0.86413000  1
  O  O30  1  0.00007000  0.91563600  0.35391900  1
  O  O31  1  0.99993000  0.08436400  0.64608100  1
  O  O32  1  0.49993000  0.41563600  0.64608100  1
  O  O33  1  0.50007000  0.58436400  0.35391900  1
  O  O34  1  0.67893800  0.75581100  0.71059000  1
  O  O35  1  0.32106200  0.24418900  0.28941000  1
  O  O36  1  0.82106200  0.25581100  0.28941000  1
  O  O37  1  0.17893800  0.74418900  0.71059000  1
  O  O38  1  0.65956600  0.60619800  0.90594500  1
  O  O39  1  0.34043400  0.39380200  0.09405500  1
  O  O40  1  0.84043400  0.10619800  0.09405500  1
  O  O41  1  0.15956600  0.89380200  0.90594500  1
  O  O42  1  0.81740500  0.60282500  0.46199400  1
  O  O43  1  0.18259500  0.39717500  0.53800600  1
  O  O44  1  0.68259500  0.10282500  0.53800600  1
  O  O45  1  0.31740500  0.89717500  0.46199400  1
  O  O46  1  0.33414500  0.40663600  0.80163200  1
  O  O47  1  0.66585500  0.59336400  0.19836800  1
  O  O48  1  0.16585500  0.90663600  0.19836800  1
  O  O49  1  0.83414500  0.09336400  0.80163200  1
  O  O50  1  0.85932500  0.30657500  0.67011200  1
  O  O51  1  0.14067600  0.69342500  0.32988800  1
  O  O52  1  0.64067500  0.80657500  0.32988800  1
  O  O53  1  0.35932400  0.19342500  0.67011200  1
