# generated using pymatgen
data_Ca2GaSi
_symmetry_space_group_name_H-M   'P 1'
_cell_length_a   5.96491636
_cell_length_b   5.96491636
_cell_length_c   4.10745800
_cell_angle_alpha   90.00000000
_cell_angle_beta   90.00000000
_cell_angle_gamma   136.08437856
_symmetry_Int_Tables_number   1
_chemical_formula_structural   Ca2GaSi
_chemical_formula_sum   'Ca2 Ga1 Si1'
_cell_volume   101.36542415
_cell_formula_units_Z   1
loop_
 _symmetry_equiv_pos_site_id
 _symmetry_equiv_pos_as_xyz
  1  'x, y, z'
loop_
 _atom_site_type_symbol
 _atom_site_label
 _atom_site_symmetry_multiplicity
 _atom_site_fract_x
 _atom_site_fract_y
 _atom_site_fract_z
 _atom_site_occupancy
  Ca  Ca0  1  0.36037400  0.63962600  0.50000000  1
  Ca  Ca1  1  0.64113000  0.35887000  0.00000000  1
  Ga  Ga2  1  0.06775600  0.93224400  0.50000000  1
  Si  Si3  1  0.93074100  0.06925900  0.00000000  1
