# generated using pymatgen
data_SrCd2Pd
_symmetry_space_group_name_H-M   'P 1'
_cell_length_a   5.81639313
_cell_length_b   5.81639313
_cell_length_c   8.23798300
_cell_angle_alpha   90.00000000
_cell_angle_beta   90.00000000
_cell_angle_gamma   134.06376996
_symmetry_Int_Tables_number   1
_chemical_formula_structural   SrCd2Pd
_chemical_formula_sum   'Sr2 Cd4 Pd2'
_cell_volume   200.26044826
_cell_formula_units_Z   2
loop_
 _symmetry_equiv_pos_site_id
 _symmetry_equiv_pos_as_xyz
  1  'x, y, z'
loop_
 _atom_site_type_symbol
 _atom_site_label
 _atom_site_symmetry_multiplicity
 _atom_site_fract_x
 _atom_site_fract_y
 _atom_site_fract_z
 _atom_site_occupancy
  Sr  Sr0  1  0.93686400  0.06313600  0.25000000  1
  Sr  Sr1  1  0.06313600  0.93686400  0.75000000  1
  Cd  Cd2  1  0.64972900  0.35027100  0.44523600  1
  Cd  Cd3  1  0.35027100  0.64972900  0.55476400  1
  Cd  Cd4  1  0.64972900  0.35027100  0.05476400  1
  Cd  Cd5  1  0.35027100  0.64972900  0.94523600  1
  Pd  Pd6  1  0.22223600  0.77776400  0.25000000  1
  Pd  Pd7  1  0.77776400  0.22223600  0.75000000  1
