# generated using pymatgen
data_Tm2CoGe2
_symmetry_space_group_name_H-M   'P 1'
_cell_length_a   5.52302579
_cell_length_b   5.52302579
_cell_length_c   9.97352272
_cell_angle_alpha   64.52655299
_cell_angle_beta   64.52655299
_cell_angle_gamma   44.63094496
_symmetry_Int_Tables_number   1
_chemical_formula_structural   Tm2CoGe2
_chemical_formula_sum   'Tm4 Co2 Ge4'
_cell_volume   189.23035564
_cell_formula_units_Z   2
loop_
 _symmetry_equiv_pos_site_id
 _symmetry_equiv_pos_as_xyz
  1  'x, y, z'
loop_
 _atom_site_type_symbol
 _atom_site_label
 _atom_site_symmetry_multiplicity
 _atom_site_fract_x
 _atom_site_fract_y
 _atom_site_fract_z
 _atom_site_occupancy
  Tm  Tm0  1  0.18417800  0.18417800  0.88912700  1
  Tm  Tm1  1  0.81582200  0.81582200  0.11087300  1
  Tm  Tm2  1  0.00567600  0.00567600  0.66674400  1
  Tm  Tm3  1  0.99432400  0.99432400  0.33325600  1
  Co  Co4  1  0.27098400  0.27098400  0.35261900  1
  Co  Co5  1  0.72901600  0.72901600  0.64738100  1
  Ge  Ge6  1  0.48502200  0.48502200  0.87535300  1
  Ge  Ge7  1  0.51497800  0.51497800  0.12464700  1
  Ge  Ge8  1  0.34533100  0.34533100  0.56568200  1
  Ge  Ge9  1  0.65466900  0.65466900  0.43431800  1
