# generated using pymatgen
data_Tb2(B2Rh3)3
_symmetry_space_group_name_H-M   'P 1'
_cell_length_a   5.61662394
_cell_length_b   5.61662394
_cell_length_c   8.58554300
_cell_angle_alpha   90.00000000
_cell_angle_beta   90.00000000
_cell_angle_gamma   119.99999931
_symmetry_Int_Tables_number   1
_chemical_formula_structural   Tb2(B2Rh3)3
_chemical_formula_sum   'Tb2 B6 Rh9'
_cell_volume   234.55737687
_cell_formula_units_Z   1
loop_
 _symmetry_equiv_pos_site_id
 _symmetry_equiv_pos_as_xyz
  1  'x, y, z'
loop_
 _atom_site_type_symbol
 _atom_site_label
 _atom_site_symmetry_multiplicity
 _atom_site_fract_x
 _atom_site_fract_y
 _atom_site_fract_z
 _atom_site_occupancy
  Tb  Tb0  1  0.00000000  0.00000000  0.70608500  1
  Tb  Tb1  1  0.00000000  0.00000000  0.29391500  1
  B  B2  1  0.66666700  0.33333300  0.00000000  1
  B  B3  1  0.33333300  0.66666700  0.00000000  1
  B  B4  1  0.66666700  0.33333300  0.66727400  1
  B  B5  1  0.33333300  0.66666700  0.66727400  1
  B  B6  1  0.33333300  0.66666700  0.33272600  1
  B  B7  1  0.66666700  0.33333300  0.33272600  1
  Rh  Rh8  1  0.50000000  0.50000000  0.83575500  1
  Rh  Rh9  1  0.50000000  0.00000000  0.83575500  1
  Rh  Rh10  1  0.00000000  0.50000000  0.83575500  1
  Rh  Rh11  1  0.50000000  0.50000000  0.16424500  1
  Rh  Rh12  1  0.50000000  0.00000000  0.16424500  1
  Rh  Rh13  1  0.00000000  0.50000000  0.16424500  1
  Rh  Rh14  1  0.50000000  0.50000000  0.50000000  1
  Rh  Rh15  1  0.50000000  0.00000000  0.50000000  1
  Rh  Rh16  1  0.00000000  0.50000000  0.50000000  1
