# generated using pymatgen
data_BaYZn3GaO7
_symmetry_space_group_name_H-M   'P 1'
_cell_length_a   6.43487902
_cell_length_b   6.43487902
_cell_length_c   10.39218100
_cell_angle_alpha   90.00000000
_cell_angle_beta   90.00000000
_cell_angle_gamma   120.00001052
_symmetry_Int_Tables_number   1
_chemical_formula_structural   BaYZn3GaO7
_chemical_formula_sum   'Ba2 Y2 Zn6 Ga2 O14'
_cell_volume   372.66453179
_cell_formula_units_Z   2
loop_
 _symmetry_equiv_pos_site_id
 _symmetry_equiv_pos_as_xyz
  1  'x, y, z'
loop_
 _atom_site_type_symbol
 _atom_site_label
 _atom_site_symmetry_multiplicity
 _atom_site_fract_x
 _atom_site_fract_y
 _atom_site_fract_z
 _atom_site_occupancy
  Ba  Ba0  1  0.66666700  0.33333300  0.99096500  1
  Ba  Ba1  1  0.33333300  0.66666700  0.49096500  1
  Y  Y2  1  0.66666700  0.33333300  0.63425700  1
  Y  Y3  1  0.33333300  0.66666700  0.13425700  1
  Zn  Zn4  1  0.17062900  0.82937100  0.81713300  1
  Zn  Zn5  1  0.65874200  0.82937100  0.81713300  1
  Zn  Zn6  1  0.17062900  0.34125800  0.81713300  1
  Zn  Zn7  1  0.82937100  0.17062900  0.31713300  1
  Zn  Zn8  1  0.34125800  0.17062900  0.31713300  1
  Zn  Zn9  1  0.82937100  0.65874200  0.31713300  1
  Ga  Ga10  1  0.00000000  0.00000000  0.06708600  1
  Ga  Ga11  1  0.00000000  0.00000000  0.56708600  1
  O  O12  1  0.50533700  0.49466300  0.76332000  1
  O  O13  1  0.98932600  0.49466300  0.76332000  1
  O  O14  1  0.50533700  0.01067400  0.76332000  1
  O  O15  1  0.49466300  0.50533700  0.26332000  1
  O  O16  1  0.01067400  0.50533700  0.26332000  1
  O  O17  1  0.49466300  0.98932600  0.26332000  1
  O  O18  1  0.00000000  0.00000000  0.24878500  1
  O  O19  1  0.00000000  0.00000000  0.74878500  1
  O  O20  1  0.15908800  0.84091200  0.01026600  1
  O  O21  1  0.68182400  0.84091200  0.01026600  1
  O  O22  1  0.15908800  0.31817600  0.01026600  1
  O  O23  1  0.84091200  0.15908800  0.51026600  1
  O  O24  1  0.31817600  0.15908800  0.51026600  1
  O  O25  1  0.84091200  0.68182400  0.51026600  1
