# generated using pymatgen
data_Eu(AlAu)2
_symmetry_space_group_name_H-M   'P 1'
_cell_length_a   4.46308200
_cell_length_b   4.46308200
_cell_length_c   10.59680400
_cell_angle_alpha   90.00000000
_cell_angle_beta   90.00000000
_cell_angle_gamma   90.00000000
_symmetry_Int_Tables_number   1
_chemical_formula_structural   Eu(AlAu)2
_chemical_formula_sum   'Eu2 Al4 Au4'
_cell_volume   211.07880850
_cell_formula_units_Z   2
loop_
 _symmetry_equiv_pos_site_id
 _symmetry_equiv_pos_as_xyz
  1  'x, y, z'
loop_
 _atom_site_type_symbol
 _atom_site_label
 _atom_site_symmetry_multiplicity
 _atom_site_fract_x
 _atom_site_fract_y
 _atom_site_fract_z
 _atom_site_occupancy
  Eu  Eu0  1  0.00000000  0.50000000  0.75016900  1
  Eu  Eu1  1  0.50000000  0.00000000  0.24983100  1
  Al  Al2  1  0.00000000  0.50000000  0.12815000  1
  Al  Al3  1  0.50000000  0.00000000  0.87185000  1
  Al  Al4  1  0.00000000  0.00000000  0.50000000  1
  Al  Al5  1  0.50000000  0.50000000  0.50000000  1
  Au  Au6  1  0.00000000  0.50000000  0.36906900  1
  Au  Au7  1  0.50000000  0.00000000  0.63093100  1
  Au  Au8  1  0.00000000  0.00000000  0.00000000  1
  Au  Au9  1  0.50000000  0.50000000  0.00000000  1
