# generated using pymatgen
data_Sm2Be2SiO7
_symmetry_space_group_name_H-M   'P 1'
_cell_length_a   7.44393300
_cell_length_b   7.44393300
_cell_length_c   4.86074500
_cell_angle_alpha   90.00000000
_cell_angle_beta   90.00000000
_cell_angle_gamma   90.00000000
_symmetry_Int_Tables_number   1
_chemical_formula_structural   Sm2Be2SiO7
_chemical_formula_sum   'Sm4 Be4 Si2 O14'
_cell_volume   269.34427519
_cell_formula_units_Z   2
loop_
 _symmetry_equiv_pos_site_id
 _symmetry_equiv_pos_as_xyz
  1  'x, y, z'
loop_
 _atom_site_type_symbol
 _atom_site_label
 _atom_site_symmetry_multiplicity
 _atom_site_fract_x
 _atom_site_fract_y
 _atom_site_fract_z
 _atom_site_occupancy
  Sm  Sm0  1  0.16033100  0.33966900  0.50857800  1
  Sm  Sm1  1  0.83966900  0.66033100  0.50857800  1
  Sm  Sm2  1  0.66033100  0.16033100  0.49142200  1
  Sm  Sm3  1  0.33966900  0.83966900  0.49142200  1
  Be  Be4  1  0.63491500  0.86508500  0.96118800  1
  Be  Be5  1  0.36508500  0.13491500  0.96118800  1
  Be  Be6  1  0.13491500  0.63491500  0.03881200  1
  Be  Be7  1  0.86508500  0.36508500  0.03881200  1
  Si  Si8  1  0.00000000  0.00000000  0.00000000  1
  Si  Si9  1  0.50000000  0.50000000  0.00000000  1
  O  O10  1  0.00000000  0.50000000  0.17858200  1
  O  O11  1  0.50000000  0.00000000  0.82141800  1
  O  O12  1  0.64028900  0.85971100  0.28738800  1
  O  O13  1  0.35971100  0.14028900  0.28738800  1
  O  O14  1  0.14028900  0.64028900  0.71261200  1
  O  O15  1  0.85971100  0.35971100  0.71261200  1
  O  O16  1  0.07754000  0.83546400  0.19411100  1
  O  O17  1  0.92246000  0.16453600  0.19411100  1
  O  O18  1  0.16453600  0.07754000  0.80588900  1
  O  O19  1  0.42246000  0.33546400  0.80588900  1
  O  O20  1  0.83546400  0.92246000  0.80588900  1
  O  O21  1  0.57754000  0.66453600  0.80588900  1
  O  O22  1  0.33546400  0.57754000  0.19411100  1
  O  O23  1  0.66453600  0.42246000  0.19411100  1
