# generated using pymatgen
data_Sc5(In2Rh)2
_symmetry_space_group_name_H-M   'P 1'
_cell_length_a   3.35268100
_cell_length_b   7.73716900
_cell_length_c   17.69198300
_cell_angle_alpha   90.00000000
_cell_angle_beta   90.00000000
_cell_angle_gamma   90.00000000
_symmetry_Int_Tables_number   1
_chemical_formula_structural   Sc5(In2Rh)2
_chemical_formula_sum   'Sc10 In8 Rh4'
_cell_volume   458.93463009
_cell_formula_units_Z   2
loop_
 _symmetry_equiv_pos_site_id
 _symmetry_equiv_pos_as_xyz
  1  'x, y, z'
loop_
 _atom_site_type_symbol
 _atom_site_label
 _atom_site_symmetry_multiplicity
 _atom_site_fract_x
 _atom_site_fract_y
 _atom_site_fract_z
 _atom_site_occupancy
  Sc  Sc0  1  0.00000000  0.00000000  0.00000000  1
  Sc  Sc1  1  0.00000000  0.50000000  0.50000000  1
  Sc  Sc2  1  0.00000000  0.74499000  0.77908200  1
  Sc  Sc3  1  0.00000000  0.25501000  0.22091800  1
  Sc  Sc4  1  0.00000000  0.24499000  0.72091800  1
  Sc  Sc5  1  0.00000000  0.75501000  0.27908200  1
  Sc  Sc6  1  0.00000000  0.87595400  0.58548200  1
  Sc  Sc7  1  0.00000000  0.12404600  0.41451800  1
  Sc  Sc8  1  0.00000000  0.37595400  0.91451800  1
  Sc  Sc9  1  0.00000000  0.62404600  0.08548200  1
  In  In10  1  0.50000000  0.79621800  0.43320900  1
  In  In11  1  0.50000000  0.20378200  0.56679100  1
  In  In12  1  0.50000000  0.29621800  0.06679100  1
  In  In13  1  0.50000000  0.70378200  0.93320900  1
  In  In14  1  0.50000000  0.93072300  0.14926700  1
  In  In15  1  0.50000000  0.06927700  0.85073300  1
  In  In16  1  0.50000000  0.43072300  0.35073300  1
  In  In17  1  0.50000000  0.56927700  0.64926700  1
  Rh  Rh18  1  0.50000000  0.96256100  0.69426600  1
  Rh  Rh19  1  0.50000000  0.03743900  0.30573400  1
  Rh  Rh20  1  0.50000000  0.46256100  0.80573400  1
  Rh  Rh21  1  0.50000000  0.53743900  0.19426600  1
