# generated using pymatgen
data_K2YF5
_symmetry_space_group_name_H-M   'P 1'
_cell_length_a   6.71001300
_cell_length_b   7.34664000
_cell_length_c   10.99937000
_cell_angle_alpha   90.00000000
_cell_angle_beta   90.00000000
_cell_angle_gamma   90.00000000
_symmetry_Int_Tables_number   1
_chemical_formula_structural   K2YF5
_chemical_formula_sum   'K8 Y4 F20'
_cell_volume   542.22549246
_cell_formula_units_Z   4
loop_
 _symmetry_equiv_pos_site_id
 _symmetry_equiv_pos_as_xyz
  1  'x, y, z'
loop_
 _atom_site_type_symbol
 _atom_site_label
 _atom_site_symmetry_multiplicity
 _atom_site_fract_x
 _atom_site_fract_y
 _atom_site_fract_z
 _atom_site_occupancy
  K  K0  1  0.96755800  0.50271500  0.67112400  1
  K  K1  1  0.03244200  0.00271500  0.32887600  1
  K  K2  1  0.53244200  0.50271500  0.17112400  1
  K  K3  1  0.46755800  0.00271500  0.82887600  1
  K  K4  1  0.96755800  0.99728500  0.67112400  1
  K  K5  1  0.03244200  0.49728500  0.32887600  1
  K  K6  1  0.53244200  0.99728500  0.17112400  1
  K  K7  1  0.46755800  0.49728500  0.82887600  1
  Y  Y8  1  0.93578600  0.25000000  0.99746200  1
  Y  Y9  1  0.06421400  0.75000000  0.00253800  1
  Y  Y10  1  0.56421400  0.25000000  0.49746200  1
  Y  Y11  1  0.43578600  0.75000000  0.50253800  1
  F  F12  1  0.85298400  0.53504500  0.92486200  1
  F  F13  1  0.14701600  0.03504500  0.07513800  1
  F  F14  1  0.64701600  0.53504500  0.42486200  1
  F  F15  1  0.35298400  0.03504500  0.57513800  1
  F  F16  1  0.85298400  0.96495500  0.92486200  1
  F  F17  1  0.14701600  0.46495500  0.07513800  1
  F  F18  1  0.64701600  0.96495500  0.42486200  1
  F  F19  1  0.35298400  0.46495500  0.57513800  1
  F  F20  1  0.62679000  0.75000000  0.66654500  1
  F  F21  1  0.37321000  0.25000000  0.33345500  1
  F  F22  1  0.87321000  0.75000000  0.16654500  1
  F  F23  1  0.12679000  0.25000000  0.83345500  1
  F  F24  1  0.10659400  0.75000000  0.51334300  1
  F  F25  1  0.89340600  0.25000000  0.48665700  1
  F  F26  1  0.39340600  0.75000000  0.01334300  1
  F  F27  1  0.60659400  0.25000000  0.98665700  1
  F  F28  1  0.16028400  0.75000000  0.80892000  1
  F  F29  1  0.83971600  0.25000000  0.19108000  1
  F  F30  1  0.33971600  0.75000000  0.30892000  1
  F  F31  1  0.66028400  0.25000000  0.69108000  1
