# generated using pymatgen
data_CuRe2(H2O3)4
_symmetry_space_group_name_H-M   'P 1'
_cell_length_a   6.86377393
_cell_length_b   7.11783226
_cell_length_c   7.40394227
_cell_angle_alpha   60.27985491
_cell_angle_beta   68.95296734
_cell_angle_gamma   71.53333124
_symmetry_Int_Tables_number   1
_chemical_formula_structural   CuRe2(H2O3)4
_chemical_formula_sum   'Cu1 Re2 H8 O12'
_cell_volume   288.85666639
_cell_formula_units_Z   1
loop_
 _symmetry_equiv_pos_site_id
 _symmetry_equiv_pos_as_xyz
  1  'x, y, z'
loop_
 _atom_site_type_symbol
 _atom_site_label
 _atom_site_symmetry_multiplicity
 _atom_site_fract_x
 _atom_site_fract_y
 _atom_site_fract_z
 _atom_site_occupancy
  Cu  Cu0  1  0.50000000  0.00000000  0.00000000  1
  Re  Re1  1  0.93635800  0.67106600  0.68809100  1
  Re  Re2  1  0.06364200  0.32893400  0.31190900  1
  H  H3  1  0.73245600  0.19360200  0.03872900  1
  H  H4  1  0.26754400  0.80639800  0.96127100  1
  H  H5  1  0.74814400  0.94885300  0.23061000  1
  H  H6  1  0.25185600  0.05114700  0.76939000  1
  H  H7  1  0.60763200  0.58722700  0.26443600  1
  H  H8  1  0.39236800  0.41277300  0.73556400  1
  H  H9  1  0.37925700  0.68976300  0.36955200  1
  H  H10  1  0.62074300  0.31023700  0.63044800  1
  O  O11  1  0.21762200  0.62866200  0.61752800  1
  O  O12  1  0.78237800  0.37133800  0.38247200  1
  O  O13  1  0.84734700  0.74038400  0.46573600  1
  O  O14  1  0.15265300  0.25961600  0.53426400  1
  O  O15  1  0.84983800  0.43150600  0.90271800  1
  O  O16  1  0.15016200  0.56849400  0.09728200  1
  O  O17  1  0.83508600  0.88394800  0.76821000  1
  O  O18  1  0.16491400  0.11605200  0.23179000  1
  O  O19  1  0.65834900  0.06561100  0.13478900  1
  O  O20  1  0.34165100  0.93438900  0.86521100  1
  O  O21  1  0.47960400  0.70075200  0.22930700  1
  O  O22  1  0.52039600  0.29924800  0.77069300  1
