# generated using pymatgen
data_Ba2DyCl7
_symmetry_space_group_name_H-M   'P 1'
_cell_length_a   15.72596400
_cell_length_b   6.91062400
_cell_length_c   10.64523789
_cell_angle_alpha   89.29279731
_cell_angle_beta   90.00000000
_cell_angle_gamma   90.00000000
_symmetry_Int_Tables_number   1
_chemical_formula_structural   Ba2DyCl7
_chemical_formula_sum   'Ba8 Dy4 Cl28'
_cell_volume   1156.79613557
_cell_formula_units_Z   4
loop_
 _symmetry_equiv_pos_site_id
 _symmetry_equiv_pos_as_xyz
  1  'x, y, z'
loop_
 _atom_site_type_symbol
 _atom_site_label
 _atom_site_symmetry_multiplicity
 _atom_site_fract_x
 _atom_site_fract_y
 _atom_site_fract_z
 _atom_site_occupancy
  Ba  Ba0  1  0.27980300  0.23503900  0.54917500  1
  Ba  Ba1  1  0.72019700  0.76496100  0.45082500  1
  Ba  Ba2  1  0.77980300  0.76496100  0.95082500  1
  Ba  Ba3  1  0.22019700  0.23503900  0.04917500  1
  Ba  Ba4  1  0.43910200  0.76545800  0.82367400  1
  Ba  Ba5  1  0.56089800  0.23454200  0.17632600  1
  Ba  Ba6  1  0.93910200  0.23454200  0.67632600  1
  Ba  Ba7  1  0.06089800  0.76545800  0.32367400  1
  Dy  Dy8  1  0.12686700  0.71694900  0.78196800  1
  Dy  Dy9  1  0.87313300  0.28305100  0.21803200  1
  Dy  Dy10  1  0.62686700  0.28305100  0.71803200  1
  Dy  Dy11  1  0.37313300  0.71694900  0.28196800  1
  Cl  Cl12  1  0.07099400  0.37108900  0.87570200  1
  Cl  Cl13  1  0.92900600  0.62891100  0.12429800  1
  Cl  Cl14  1  0.57099400  0.62891100  0.62429800  1
  Cl  Cl15  1  0.42900600  0.37108900  0.37570200  1
  Cl  Cl16  1  0.10496600  0.98628000  0.58638700  1
  Cl  Cl17  1  0.89503400  0.01372000  0.41361300  1
  Cl  Cl18  1  0.60496600  0.01372000  0.91361300  1
  Cl  Cl19  1  0.39503400  0.98628000  0.08638700  1
  Cl  Cl20  1  0.96036300  0.79417400  0.78697600  1
  Cl  Cl21  1  0.03963700  0.20582600  0.21302400  1
  Cl  Cl22  1  0.46036300  0.20582600  0.71302400  1
  Cl  Cl23  1  0.53963700  0.79417400  0.28697600  1
  Cl  Cl24  1  0.36038400  0.79031600  0.52758200  1
  Cl  Cl25  1  0.63961600  0.20968400  0.47241800  1
  Cl  Cl26  1  0.86038400  0.20968400  0.97241800  1
  Cl  Cl27  1  0.13961600  0.79031600  0.02758200  1
  Cl  Cl28  1  0.25694400  0.98808400  0.80179500  1
  Cl  Cl29  1  0.74305600  0.01191600  0.19820500  1
  Cl  Cl30  1  0.75694400  0.01191600  0.69820500  1
  Cl  Cl31  1  0.24305600  0.98808400  0.30179500  1
  Cl  Cl32  1  0.27193700  0.50144800  0.79448200  1
  Cl  Cl33  1  0.72806300  0.49855200  0.20551800  1
  Cl  Cl34  1  0.77193700  0.49855200  0.70551800  1
  Cl  Cl35  1  0.22806300  0.50144800  0.29448200  1
  Cl  Cl36  1  0.10450900  0.50013200  0.57151800  1
  Cl  Cl37  1  0.89549100  0.49986800  0.42848200  1
  Cl  Cl38  1  0.60450900  0.49986800  0.92848200  1
  Cl  Cl39  1  0.39549100  0.50013200  0.07151800  1
