# generated using pymatgen
data_YMo2O7F
_symmetry_space_group_name_H-M   'P 1'
_cell_length_a   6.65999700
_cell_length_b   4.35898900
_cell_length_c   11.54535377
_cell_angle_alpha   89.49145365
_cell_angle_beta   90.00000000
_cell_angle_gamma   90.00000000
_symmetry_Int_Tables_number   1
_chemical_formula_structural   YMo2O7F
_chemical_formula_sum   'Y2 Mo4 O14 F2'
_cell_volume   335.15827342
_cell_formula_units_Z   2
loop_
 _symmetry_equiv_pos_site_id
 _symmetry_equiv_pos_as_xyz
  1  'x, y, z'
loop_
 _atom_site_type_symbol
 _atom_site_label
 _atom_site_symmetry_multiplicity
 _atom_site_fract_x
 _atom_site_fract_y
 _atom_site_fract_z
 _atom_site_occupancy
  Y  Y0  1  0.79906400  0.00000000  0.75000000  1
  Y  Y1  1  0.20093600  0.00000000  0.25000000  1
  Mo  Mo2  1  0.33149900  0.90307900  0.59422600  1
  Mo  Mo3  1  0.33149900  0.09692100  0.90577400  1
  Mo  Mo4  1  0.66850100  0.09692100  0.40577400  1
  Mo  Mo5  1  0.66850100  0.90307900  0.09422600  1
  O  O6  1  0.34229100  0.50587300  0.59706400  1
  O  O7  1  0.34229100  0.49412700  0.90293600  1
  O  O8  1  0.65770900  0.49412700  0.40293600  1
  O  O9  1  0.65770900  0.50587300  0.09706400  1
  O  O10  1  0.07789400  0.98304900  0.62815600  1
  O  O11  1  0.07789400  0.01695100  0.87184400  1
  O  O12  1  0.92210600  0.01695100  0.37184400  1
  O  O13  1  0.92210600  0.98304900  0.12815600  1
  O  O14  1  0.64931500  0.99908600  0.56654300  1
  O  O15  1  0.64931500  0.00091400  0.93345700  1
  O  O16  1  0.35068500  0.00091400  0.43345700  1
  O  O17  1  0.35068500  0.99908600  0.06654300  1
  O  O18  1  0.44041900  0.00000000  0.75000000  1
  O  O19  1  0.55958100  0.00000000  0.25000000  1
  F  F20  1  0.80290300  0.50000000  0.75000000  1
  F  F21  1  0.19709700  0.50000000  0.25000000  1
