# generated using pymatgen
data_Rb2Ni3S4
_symmetry_space_group_name_H-M   'P 1'
_cell_length_a   8.39317685
_cell_length_b   7.33774964
_cell_length_c   5.83473665
_cell_angle_alpha   78.24731093
_cell_angle_beta   58.86195048
_cell_angle_gamma   42.89073859
_symmetry_Int_Tables_number   1
_chemical_formula_structural   Rb2Ni3S4
_chemical_formula_sum   'Rb2 Ni3 S4'
_cell_volume   199.64576901
_cell_formula_units_Z   1
loop_
 _symmetry_equiv_pos_site_id
 _symmetry_equiv_pos_as_xyz
  1  'x, y, z'
loop_
 _atom_site_type_symbol
 _atom_site_label
 _atom_site_symmetry_multiplicity
 _atom_site_fract_x
 _atom_site_fract_y
 _atom_site_fract_z
 _atom_site_occupancy
  Rb  Rb0  1  0.65848700  0.65848700  0.34151300  1
  Rb  Rb1  1  0.34151300  0.34151300  0.65848700  1
  Ni  Ni2  1  0.00000000  0.00000000  0.00000000  1
  Ni  Ni3  1  0.00000000  0.00000000  0.50000000  1
  Ni  Ni4  1  0.50000000  0.50000000  0.00000000  1
  S  S5  1  0.06080000  0.72617900  0.27382100  1
  S  S6  1  0.27382100  0.93920000  0.06080000  1
  S  S7  1  0.72617900  0.06080000  0.93920000  1
  S  S8  1  0.93920000  0.27382100  0.72617900  1
