# generated using pymatgen
data_TbGa2Ag
_symmetry_space_group_name_H-M   'P 1'
_cell_length_a   4.37881300
_cell_length_b   6.96438200
_cell_length_c   10.25596300
_cell_angle_alpha   90.00000000
_cell_angle_beta   90.00000000
_cell_angle_gamma   90.00000000
_symmetry_Int_Tables_number   1
_chemical_formula_structural   TbGa2Ag
_chemical_formula_sum   'Tb4 Ga8 Ag4'
_cell_volume   312.76304201
_cell_formula_units_Z   4
loop_
 _symmetry_equiv_pos_site_id
 _symmetry_equiv_pos_as_xyz
  1  'x, y, z'
loop_
 _atom_site_type_symbol
 _atom_site_label
 _atom_site_symmetry_multiplicity
 _atom_site_fract_x
 _atom_site_fract_y
 _atom_site_fract_z
 _atom_site_occupancy
  Tb  Tb0  1  0.25000000  0.77986000  0.82752800  1
  Tb  Tb1  1  0.75000000  0.22014000  0.17247200  1
  Tb  Tb2  1  0.75000000  0.72014000  0.32752800  1
  Tb  Tb3  1  0.25000000  0.27986000  0.67247200  1
  Ga  Ga4  1  0.25000000  0.92811600  0.15288800  1
  Ga  Ga5  1  0.75000000  0.07188400  0.84711200  1
  Ga  Ga6  1  0.75000000  0.57188400  0.65288800  1
  Ga  Ga7  1  0.25000000  0.42811600  0.34711200  1
  Ga  Ga8  1  0.25000000  0.70402100  0.53734600  1
  Ga  Ga9  1  0.75000000  0.29597900  0.46265400  1
  Ga  Ga10  1  0.75000000  0.79597900  0.03734600  1
  Ga  Ga11  1  0.25000000  0.20402100  0.96265400  1
  Ag  Ag12  1  0.25000000  0.54343900  0.09768000  1
  Ag  Ag13  1  0.75000000  0.45656100  0.90232000  1
  Ag  Ag14  1  0.75000000  0.95656100  0.59768000  1
  Ag  Ag15  1  0.25000000  0.04343900  0.40232000  1
