# generated using pymatgen
data_PrB4
_symmetry_space_group_name_H-M   'P 1'
_cell_length_a   7.27020900
_cell_length_b   7.27020900
_cell_length_c   4.14410600
_cell_angle_alpha   90.00000000
_cell_angle_beta   90.00000000
_cell_angle_gamma   90.00000000
_symmetry_Int_Tables_number   1
_chemical_formula_structural   PrB4
_chemical_formula_sum   'Pr4 B16'
_cell_volume   219.04061355
_cell_formula_units_Z   4
loop_
 _symmetry_equiv_pos_site_id
 _symmetry_equiv_pos_as_xyz
  1  'x, y, z'
loop_
 _atom_site_type_symbol
 _atom_site_label
 _atom_site_symmetry_multiplicity
 _atom_site_fract_x
 _atom_site_fract_y
 _atom_site_fract_z
 _atom_site_occupancy
  Pr  Pr0  1  0.18287200  0.68287200  0.00000000  1
  Pr  Pr1  1  0.68287200  0.81712800  0.00000000  1
  Pr  Pr2  1  0.31712800  0.18287200  0.00000000  1
  Pr  Pr3  1  0.81712800  0.31712800  0.00000000  1
  B  B4  1  0.32623600  0.46109500  0.50000000  1
  B  B5  1  0.67376400  0.53890500  0.50000000  1
  B  B6  1  0.53890500  0.32623600  0.50000000  1
  B  B7  1  0.46109500  0.67376400  0.50000000  1
  B  B8  1  0.00000000  0.00000000  0.20526000  1
  B  B9  1  0.50000000  0.50000000  0.79474000  1
  B  B10  1  0.00000000  0.00000000  0.79474000  1
  B  B11  1  0.50000000  0.50000000  0.20526000  1
  B  B12  1  0.58824200  0.08824200  0.50000000  1
  B  B13  1  0.08824200  0.41175800  0.50000000  1
  B  B14  1  0.91175800  0.58824200  0.50000000  1
  B  B15  1  0.41175800  0.91175800  0.50000000  1
  B  B16  1  0.03890500  0.17376400  0.50000000  1
  B  B17  1  0.17376400  0.96109500  0.50000000  1
  B  B18  1  0.82623600  0.03890500  0.50000000  1
  B  B19  1  0.96109500  0.82623600  0.50000000  1
