# generated using pymatgen
data_GdNbO4
_symmetry_space_group_name_H-M   'P 1'
_cell_length_a   6.68062760
_cell_length_b   6.68062760
_cell_length_c   5.17109874
_cell_angle_alpha   69.10108386
_cell_angle_beta   69.10108386
_cell_angle_gamma   114.78472840
_symmetry_Int_Tables_number   1
_chemical_formula_structural   GdNbO4
_chemical_formula_sum   'Gd2 Nb2 O8'
_cell_volume   157.05194661
_cell_formula_units_Z   2
loop_
 _symmetry_equiv_pos_site_id
 _symmetry_equiv_pos_as_xyz
  1  'x, y, z'
loop_
 _atom_site_type_symbol
 _atom_site_label
 _atom_site_symmetry_multiplicity
 _atom_site_fract_x
 _atom_site_fract_y
 _atom_site_fract_z
 _atom_site_occupancy
  Gd  Gd0  1  0.62885400  0.37114600  0.75000000  1
  Gd  Gd1  1  0.37114600  0.62885400  0.25000000  1
  Nb  Nb2  1  0.10603400  0.89396600  0.75000000  1
  Nb  Nb3  1  0.89396600  0.10603400  0.25000000  1
  O  O4  1  0.78637000  0.72187700  0.20172600  1
  O  O5  1  0.27812300  0.21363000  0.29827400  1
  O  O6  1  0.21363000  0.27812300  0.79827400  1
  O  O7  1  0.72187700  0.78637000  0.70172600  1
  O  O8  1  0.36603800  0.94776000  0.84026600  1
  O  O9  1  0.05224000  0.63396200  0.65973400  1
  O  O10  1  0.63396200  0.05224000  0.15973400  1
  O  O11  1  0.94776000  0.36603800  0.34026600  1
