# generated using pymatgen
data_TeF6
_symmetry_space_group_name_H-M   'P 1'
_cell_length_a   5.28110600
_cell_length_b   9.06405800
_cell_length_c   10.11022000
_cell_angle_alpha   90.00000000
_cell_angle_beta   90.00000000
_cell_angle_gamma   90.00000000
_symmetry_Int_Tables_number   1
_chemical_formula_structural   TeF6
_chemical_formula_sum   'Te4 F24'
_cell_volume   483.95854952
_cell_formula_units_Z   4
loop_
 _symmetry_equiv_pos_site_id
 _symmetry_equiv_pos_as_xyz
  1  'x, y, z'
loop_
 _atom_site_type_symbol
 _atom_site_label
 _atom_site_symmetry_multiplicity
 _atom_site_fract_x
 _atom_site_fract_y
 _atom_site_fract_z
 _atom_site_occupancy
  Te  Te0  1  0.59715800  0.75000000  0.62769500  1
  Te  Te1  1  0.09715800  0.25000000  0.87230500  1
  Te  Te2  1  0.40284200  0.25000000  0.37230500  1
  Te  Te3  1  0.90284200  0.75000000  0.12769500  1
  F  F4  1  0.55478500  0.39534500  0.26874900  1
  F  F5  1  0.05478500  0.60465500  0.23125100  1
  F  F6  1  0.44521500  0.89534500  0.73125100  1
  F  F7  1  0.94521500  0.10465500  0.76874900  1
  F  F8  1  0.18249900  0.75000000  0.01504600  1
  F  F9  1  0.68249900  0.25000000  0.48495400  1
  F  F10  1  0.81750100  0.25000000  0.98495400  1
  F  F11  1  0.31750100  0.75000000  0.51504600  1
  F  F12  1  0.62257600  0.75000000  0.24008200  1
  F  F13  1  0.12257600  0.25000000  0.25991800  1
  F  F14  1  0.37742400  0.25000000  0.75991800  1
  F  F15  1  0.87742400  0.75000000  0.74008200  1
  F  F16  1  0.75000800  0.89548100  0.02450500  1
  F  F17  1  0.25000800  0.10451900  0.47549500  1
  F  F18  1  0.24999200  0.39548100  0.97549500  1
  F  F19  1  0.74999200  0.60451900  0.52450500  1
  F  F20  1  0.24999200  0.10451900  0.97549500  1
  F  F21  1  0.74999200  0.89548100  0.52450500  1
  F  F22  1  0.75000800  0.60451900  0.02450500  1
  F  F23  1  0.25000800  0.39548100  0.47549500  1
  F  F24  1  0.05478500  0.89534500  0.23125100  1
  F  F25  1  0.55478500  0.10465500  0.26874900  1
  F  F26  1  0.94521500  0.39534500  0.76874900  1
  F  F27  1  0.44521500  0.60465500  0.73125100  1
