# generated using pymatgen
data_TbGaAu
_symmetry_space_group_name_H-M   'P 1'
_cell_length_a   5.72127658
_cell_length_b   5.72127658
_cell_length_c   7.17728672
_cell_angle_alpha   52.30755499
_cell_angle_beta   52.30755499
_cell_angle_gamma   46.67087905
_symmetry_Int_Tables_number   1
_chemical_formula_structural   TbGaAu
_chemical_formula_sum   'Tb2 Ga2 Au2'
_cell_volume   127.49728138
_cell_formula_units_Z   2
loop_
 _symmetry_equiv_pos_site_id
 _symmetry_equiv_pos_as_xyz
  1  'x, y, z'
loop_
 _atom_site_type_symbol
 _atom_site_label
 _atom_site_symmetry_multiplicity
 _atom_site_fract_x
 _atom_site_fract_y
 _atom_site_fract_z
 _atom_site_occupancy
  Tb  Tb0  1  0.53668900  0.53668900  0.70305700  1
  Tb  Tb1  1  0.46331100  0.46331100  0.29694300  1
  Ga  Ga2  1  0.84181200  0.84181200  0.10707500  1
  Ga  Ga3  1  0.15818800  0.15818800  0.89292500  1
  Au  Au4  1  0.17778000  0.17778000  0.28238500  1
  Au  Au5  1  0.82222000  0.82222000  0.71761500  1
