# generated using pymatgen
data_Tm6Ti4Al43
_symmetry_space_group_name_H-M   'P 1'
_cell_length_a   11.04570910
_cell_length_b   11.04570910
_cell_length_c   17.69112600
_cell_angle_alpha   90.00000000
_cell_angle_beta   90.00000000
_cell_angle_gamma   120.00000658
_symmetry_Int_Tables_number   1
_chemical_formula_structural   Tm6Ti4Al43
_chemical_formula_sum   'Tm12 Ti8 Al86'
_cell_volume   1869.27536018
_cell_formula_units_Z   2
loop_
 _symmetry_equiv_pos_site_id
 _symmetry_equiv_pos_as_xyz
  1  'x, y, z'
loop_
 _atom_site_type_symbol
 _atom_site_label
 _atom_site_symmetry_multiplicity
 _atom_site_fract_x
 _atom_site_fract_y
 _atom_site_fract_z
 _atom_site_occupancy
  Tm  Tm0  1  0.53127300  0.00000000  0.59662200  1
  Tm  Tm1  1  0.46872700  0.00000000  0.40337800  1
  Tm  Tm2  1  0.00000000  0.53127300  0.59662200  1
  Tm  Tm3  1  0.46872700  0.00000000  0.09662200  1
  Tm  Tm4  1  0.00000000  0.53127300  0.90337800  1
  Tm  Tm5  1  0.00000000  0.46872700  0.40337800  1
  Tm  Tm6  1  0.53127300  0.00000000  0.90337800  1
  Tm  Tm7  1  0.00000000  0.46872700  0.09662200  1
  Tm  Tm8  1  0.46872700  0.46872700  0.59662200  1
  Tm  Tm9  1  0.53127300  0.53127300  0.40337800  1
  Tm  Tm10  1  0.53127300  0.53127300  0.09662200  1
  Tm  Tm11  1  0.46872700  0.46872700  0.90337800  1
  Ti  Ti12  1  0.00000000  0.00000000  0.50000000  1
  Ti  Ti13  1  0.00000000  0.00000000  0.00000000  1
  Ti  Ti14  1  0.72761900  0.00000000  0.75000000  1
  Ti  Ti15  1  0.27238100  0.00000000  0.25000000  1
  Ti  Ti16  1  0.00000000  0.72761900  0.75000000  1
  Ti  Ti17  1  0.00000000  0.27238100  0.25000000  1
  Ti  Ti18  1  0.27238100  0.27238100  0.75000000  1
  Ti  Ti19  1  0.72761900  0.72761900  0.25000000  1
  Al  Al20  1  0.14975800  0.59718800  0.75000000  1
  Al  Al21  1  0.85024200  0.40281200  0.25000000  1
  Al  Al22  1  0.40281200  0.55257000  0.75000000  1
  Al  Al23  1  0.59718800  0.14975800  0.75000000  1
  Al  Al24  1  0.59718800  0.44743000  0.25000000  1
  Al  Al25  1  0.40281200  0.85024200  0.25000000  1
  Al  Al26  1  0.44743000  0.85024200  0.75000000  1
  Al  Al27  1  0.55257000  0.40281200  0.75000000  1
  Al  Al28  1  0.55257000  0.14975800  0.25000000  1
  Al  Al29  1  0.44743000  0.59718800  0.25000000  1
  Al  Al30  1  0.85024200  0.44743000  0.75000000  1
  Al  Al31  1  0.14975800  0.55257000  0.25000000  1
  Al  Al32  1  0.15711100  0.00000000  0.11587700  1
  Al  Al33  1  0.84288900  0.00000000  0.88412300  1
  Al  Al34  1  0.00000000  0.15711100  0.11587700  1
  Al  Al35  1  0.84288900  0.00000000  0.61587700  1
  Al  Al36  1  0.00000000  0.15711100  0.38412300  1
  Al  Al37  1  0.00000000  0.84288900  0.88412300  1
  Al  Al38  1  0.15711100  0.00000000  0.38412300  1
  Al  Al39  1  0.00000000  0.84288900  0.61587700  1
  Al  Al40  1  0.84288900  0.84288900  0.11587700  1
  Al  Al41  1  0.15711100  0.15711100  0.88412300  1
  Al  Al42  1  0.15711100  0.15711100  0.61587700  1
  Al  Al43  1  0.84288900  0.84288900  0.38412300  1
  Al  Al44  1  0.24742900  0.49485800  0.50000000  1
  Al  Al45  1  0.75257100  0.50514200  0.50000000  1
  Al  Al46  1  0.50514200  0.75257100  0.50000000  1
  Al  Al47  1  0.75257100  0.50514200  0.00000000  1
  Al  Al48  1  0.49485800  0.24742900  0.00000000  1
  Al  Al49  1  0.49485800  0.24742900  0.50000000  1
  Al  Al50  1  0.24742900  0.49485800  0.00000000  1
  Al  Al51  1  0.50514200  0.75257100  0.00000000  1
  Al  Al52  1  0.24742900  0.75257100  0.50000000  1
  Al  Al53  1  0.75257100  0.24742900  0.50000000  1
  Al  Al54  1  0.75257100  0.24742900  0.00000000  1
  Al  Al55  1  0.24742900  0.75257100  0.00000000  1
  Al  Al56  1  0.14665300  0.00000000  0.75000000  1
  Al  Al57  1  0.85334700  0.00000000  0.25000000  1
  Al  Al58  1  0.00000000  0.14665300  0.75000000  1
  Al  Al59  1  0.00000000  0.85334700  0.25000000  1
  Al  Al60  1  0.85334700  0.85334700  0.75000000  1
  Al  Al61  1  0.14665300  0.14665300  0.25000000  1
  Al  Al62  1  0.33333300  0.66666700  0.62594800  1
  Al  Al63  1  0.66666700  0.33333300  0.37405200  1
  Al  Al64  1  0.66666700  0.33333300  0.12594800  1
  Al  Al65  1  0.66666700  0.33333300  0.87405200  1
  Al  Al66  1  0.33333300  0.66666700  0.87405200  1
  Al  Al67  1  0.33333300  0.66666700  0.12594800  1
  Al  Al68  1  0.33333300  0.66666700  0.37405200  1
  Al  Al69  1  0.66666700  0.33333300  0.62594800  1
  Al  Al70  1  0.25464700  0.00000000  0.52909600  1
  Al  Al71  1  0.74535300  0.00000000  0.47090400  1
  Al  Al72  1  0.00000000  0.25464700  0.52909600  1
  Al  Al73  1  0.74535300  0.00000000  0.02909600  1
  Al  Al74  1  0.00000000  0.25464700  0.97090400  1
  Al  Al75  1  0.00000000  0.74535300  0.47090400  1
  Al  Al76  1  0.25464700  0.00000000  0.97090400  1
  Al  Al77  1  0.00000000  0.74535300  0.02909600  1
  Al  Al78  1  0.74535300  0.74535300  0.52909600  1
  Al  Al79  1  0.25464700  0.25464700  0.47090400  1
  Al  Al80  1  0.25464700  0.25464700  0.02909600  1
  Al  Al81  1  0.74535300  0.74535300  0.97090400  1
  Al  Al82  1  0.15830100  0.39374700  0.66424500  1
  Al  Al83  1  0.84169900  0.60625300  0.33575500  1
  Al  Al84  1  0.60625300  0.76455300  0.66424500  1
  Al  Al85  1  0.84169900  0.60625300  0.16424500  1
  Al  Al86  1  0.39374700  0.15830100  0.83575500  1
  Al  Al87  1  0.39374700  0.23544700  0.33575500  1
  Al  Al88  1  0.15830100  0.39374700  0.83575500  1
  Al  Al89  1  0.60625300  0.84169900  0.16424500  1
  Al  Al90  1  0.23544700  0.84169900  0.66424500  1
  Al  Al91  1  0.39374700  0.23544700  0.16424500  1
  Al  Al92  1  0.76455300  0.60625300  0.83575500  1
  Al  Al93  1  0.76455300  0.15830100  0.33575500  1
  Al  Al94  1  0.60625300  0.76455300  0.83575500  1
  Al  Al95  1  0.23544700  0.39374700  0.16424500  1
  Al  Al96  1  0.60625300  0.84169900  0.33575500  1
  Al  Al97  1  0.39374700  0.15830100  0.66424500  1
  Al  Al98  1  0.76455300  0.15830100  0.16424500  1
  Al  Al99  1  0.23544700  0.39374700  0.33575500  1
  Al  Al100  1  0.23544700  0.84169900  0.83575500  1
  Al  Al101  1  0.76455300  0.60625300  0.66424500  1
  Al  Al102  1  0.84169900  0.23544700  0.83575500  1
  Al  Al103  1  0.15830100  0.76455300  0.16424500  1
  Al  Al104  1  0.15830100  0.76455300  0.33575500  1
  Al  Al105  1  0.84169900  0.23544700  0.66424500  1
