# generated using pymatgen
data_KSr(BH4)3
_symmetry_space_group_name_H-M   'P 1'
_cell_length_a   8.13887100
_cell_length_b   8.76193700
_cell_length_c   11.61249500
_cell_angle_alpha   90.00000000
_cell_angle_beta   90.00000000
_cell_angle_gamma   90.00000000
_symmetry_Int_Tables_number   1
_chemical_formula_structural   KSr(BH4)3
_chemical_formula_sum   'K4 Sr4 B12 H48'
_cell_volume   828.11343633
_cell_formula_units_Z   4
loop_
 _symmetry_equiv_pos_site_id
 _symmetry_equiv_pos_as_xyz
  1  'x, y, z'
loop_
 _atom_site_type_symbol
 _atom_site_label
 _atom_site_symmetry_multiplicity
 _atom_site_fract_x
 _atom_site_fract_y
 _atom_site_fract_z
 _atom_site_occupancy
  K  K0  1  0.53080600  0.94379100  0.75489700  1
  K  K1  1  0.46919400  0.05620900  0.25489700  1
  K  K2  1  0.96919400  0.44379100  0.25489700  1
  K  K3  1  0.03080600  0.55620900  0.75489700  1
  Sr  Sr4  1  0.95709800  0.97199900  0.49661000  1
  Sr  Sr5  1  0.04290200  0.02800100  0.99661000  1
  Sr  Sr6  1  0.54290200  0.47199900  0.99661000  1
  Sr  Sr7  1  0.45709800  0.52800100  0.49661000  1
  B  B8  1  0.42068500  0.48427100  0.76868800  1
  B  B9  1  0.57931500  0.51572900  0.26868800  1
  B  B10  1  0.07931500  0.98427100  0.26868800  1
  B  B11  1  0.92068500  0.01572900  0.76868800  1
  B  B12  1  0.17006700  0.35527200  0.47065700  1
  B  B13  1  0.82993300  0.64472800  0.97065700  1
  B  B14  1  0.32993300  0.85527200  0.97065700  1
  B  B15  1  0.67006700  0.14472800  0.47065700  1
  B  B16  1  0.80788500  0.68277000  0.53843000  1
  B  B17  1  0.19211500  0.31723000  0.03843000  1
  B  B18  1  0.69211500  0.18277000  0.03843000  1
  B  B19  1  0.30788500  0.81723000  0.53843000  1
  H  H20  1  0.32495700  0.48927700  0.84981200  1
  H  H21  1  0.67504300  0.51072300  0.34981200  1
  H  H22  1  0.17504300  0.98927700  0.34981200  1
  H  H23  1  0.82495700  0.01072300  0.84981200  1
  H  H24  1  0.51070600  0.59564400  0.77042600  1
  H  H25  1  0.48929400  0.40435600  0.27042600  1
  H  H26  1  0.98929400  0.09564400  0.27042600  1
  H  H27  1  0.01070600  0.90435600  0.77042600  1
  H  H28  1  0.50285300  0.36611000  0.77348100  1
  H  H29  1  0.49714700  0.63389000  0.27348100  1
  H  H30  1  0.99714700  0.86611000  0.27348100  1
  H  H31  1  0.00285300  0.13389000  0.77348100  1
  H  H32  1  0.33352500  0.48245500  0.68358700  1
  H  H33  1  0.66647500  0.51754500  0.18358700  1
  H  H34  1  0.16647500  0.98245500  0.18358700  1
  H  H35  1  0.83352500  0.01754500  0.68358700  1
  H  H36  1  0.04353000  0.28120900  0.46201000  1
  H  H37  1  0.95647000  0.71879100  0.96201000  1
  H  H38  1  0.45647000  0.78120900  0.96201000  1
  H  H39  1  0.54353000  0.21879100  0.46201000  1
  H  H40  1  0.25492300  0.34331800  0.38302200  1
  H  H41  1  0.74507700  0.65668200  0.88302200  1
  H  H42  1  0.24507700  0.84331800  0.88302200  1
  H  H43  1  0.75492300  0.15668200  0.38302200  1
  H  H44  1  0.13342800  0.49090300  0.48307500  1
  H  H45  1  0.86657200  0.50909700  0.98307500  1
  H  H46  1  0.36657200  0.99090300  0.98307500  1
  H  H47  1  0.63342800  0.00909700  0.48307500  1
  H  H48  1  0.25074100  0.31315800  0.55406000  1
  H  H49  1  0.74925900  0.68684200  0.05406000  1
  H  H50  1  0.24925900  0.81315800  0.05406000  1
  H  H51  1  0.75074100  0.18684200  0.55406000  1
  H  H52  1  0.69357100  0.76689900  0.51147000  1
  H  H53  1  0.30642900  0.23310100  0.01147000  1
  H  H54  1  0.80642900  0.26689900  0.01147000  1
  H  H55  1  0.19357100  0.73310100  0.51147000  1
  H  H56  1  0.87519100  0.73950000  0.62300900  1
  H  H57  1  0.12480900  0.26050000  0.12300900  1
  H  H58  1  0.62480900  0.23950000  0.12300900  1
  H  H59  1  0.37519100  0.76050000  0.62300900  1
  H  H60  1  0.76078900  0.55442100  0.56347400  1
  H  H61  1  0.23921100  0.44557900  0.06347400  1
  H  H62  1  0.73921100  0.05442100  0.06347400  1
  H  H63  1  0.26078900  0.94557900  0.56347400  1
  H  H64  1  0.90703100  0.67613200  0.45878300  1
  H  H65  1  0.09296900  0.32386800  0.95878300  1
  H  H66  1  0.59296900  0.17613200  0.95878300  1
  H  H67  1  0.40703100  0.82386800  0.45878300  1
