# generated using pymatgen
data_Ba2LuReO6
_symmetry_space_group_name_H-M   'P 1'
_cell_length_a   5.92323551
_cell_length_b   5.92323551
_cell_length_c   5.92515694
_cell_angle_alpha   60.01223716
_cell_angle_beta   60.01223716
_cell_angle_gamma   60.00427230
_symmetry_Int_Tables_number   1
_chemical_formula_structural   Ba2LuReO6
_chemical_formula_sum   'Ba2 Lu1 Re1 O6'
_cell_volume   147.02703223
_cell_formula_units_Z   1
loop_
 _symmetry_equiv_pos_site_id
 _symmetry_equiv_pos_as_xyz
  1  'x, y, z'
loop_
 _atom_site_type_symbol
 _atom_site_label
 _atom_site_symmetry_multiplicity
 _atom_site_fract_x
 _atom_site_fract_y
 _atom_site_fract_z
 _atom_site_occupancy
  Ba  Ba0  1  0.74978700  0.74978700  0.74972200  1
  Ba  Ba1  1  0.25021300  0.25021300  0.25027800  1
  Lu  Lu2  1  0.00000000  0.00000000  0.00000000  1
  Re  Re3  1  0.50000000  0.50000000  0.50000000  1
  O  O4  1  0.26200900  0.26200900  0.74966700  1
  O  O5  1  0.73799100  0.73799100  0.25033300  1
  O  O6  1  0.74405200  0.26762100  0.73183100  1
  O  O7  1  0.25594800  0.73237900  0.26816900  1
  O  O8  1  0.73237900  0.25594800  0.26816900  1
  O  O9  1  0.26762100  0.74405200  0.73183100  1
