# generated using pymatgen
data_BHS3O11
_symmetry_space_group_name_H-M   'P 1'
_cell_length_a   11.88376400
_cell_length_b   8.78285100
_cell_length_c   16.15802112
_cell_angle_alpha   89.73940967
_cell_angle_beta   90.00000000
_cell_angle_gamma   90.00000000
_symmetry_Int_Tables_number   1
_chemical_formula_structural   BHS3O11
_chemical_formula_sum   'B8 H8 S24 O88'
_cell_volume   1686.44900390
_cell_formula_units_Z   8
loop_
 _symmetry_equiv_pos_site_id
 _symmetry_equiv_pos_as_xyz
  1  'x, y, z'
loop_
 _atom_site_type_symbol
 _atom_site_label
 _atom_site_symmetry_multiplicity
 _atom_site_fract_x
 _atom_site_fract_y
 _atom_site_fract_z
 _atom_site_occupancy
  B  B0  1  0.69025100  0.55069300  0.37827000  1
  B  B1  1  0.19025100  0.94930700  0.62173000  1
  B  B2  1  0.30974900  0.44930700  0.62173000  1
  B  B3  1  0.80974900  0.05069300  0.37827000  1
  B  B4  1  0.29925300  0.91759400  0.11286500  1
  B  B5  1  0.79925300  0.58240600  0.88713500  1
  B  B6  1  0.70074700  0.08240600  0.88713500  1
  B  B7  1  0.20074700  0.41759400  0.11286500  1
  H  H8  1  0.25821600  0.64407100  0.90821800  1
  H  H9  1  0.75821600  0.85592900  0.09178200  1
  H  H10  1  0.74178400  0.35592900  0.09178200  1
  H  H11  1  0.24178400  0.14407100  0.90821800  1
  H  H12  1  0.79547300  0.40234400  0.58093700  1
  H  H13  1  0.29547300  0.09765600  0.41906300  1
  H  H14  1  0.20452700  0.59765600  0.41906300  1
  H  H15  1  0.70452700  0.90234400  0.58093700  1
  S  S16  1  0.32559300  0.64038200  0.03113000  1
  S  S17  1  0.82559300  0.85961800  0.96887000  1
  S  S18  1  0.67440700  0.35961800  0.96887000  1
  S  S19  1  0.17440700  0.14038200  0.03113000  1
  S  S20  1  0.36130500  0.92672800  0.27387100  1
  S  S21  1  0.86130500  0.57327200  0.72612900  1
  S  S22  1  0.63869500  0.07327200  0.72612900  1
  S  S23  1  0.13869500  0.42672800  0.27387100  1
  S  S24  1  0.48679000  0.06986900  0.14430300  1
  S  S25  1  0.98679000  0.43013100  0.85569700  1
  S  S26  1  0.51321000  0.93013100  0.85569700  1
  S  S27  1  0.01321000  0.56986900  0.14430300  1
  S  S28  1  0.82305900  0.33061900  0.45341300  1
  S  S29  1  0.32305900  0.16938100  0.54658700  1
  S  S30  1  0.17694100  0.66938100  0.54658700  1
  S  S31  1  0.67694100  0.83061900  0.45341300  1
  S  S32  1  0.62796200  0.53723700  0.21820400  1
  S  S33  1  0.12796200  0.96276300  0.78179600  1
  S  S34  1  0.37203800  0.46276300  0.78179600  1
  S  S35  1  0.87203800  0.03723700  0.21820400  1
  S  S36  1  0.50769400  0.38502300  0.34837700  1
  S  S37  1  0.00769400  0.11497700  0.65162300  1
  S  S38  1  0.49230600  0.61497700  0.65162300  1
  S  S39  1  0.99230600  0.88502300  0.34837700  1
  O  O40  1  0.43782900  0.64548800  0.00204800  1
  O  O41  1  0.93782900  0.85451200  0.99795200  1
  O  O42  1  0.56217100  0.35451200  0.99795200  1
  O  O43  1  0.06217100  0.14548800  0.00204800  1
  O  O44  1  0.23620700  0.68007400  0.96523200  1
  O  O45  1  0.73620700  0.81992600  0.03476800  1
  O  O46  1  0.76379300  0.31992600  0.03476800  1
  O  O47  1  0.26379300  0.18007400  0.96523200  1
  O  O48  1  0.34197900  0.05242700  0.32867100  1
  O  O49  1  0.84197900  0.44757300  0.67132900  1
  O  O50  1  0.65802100  0.94757300  0.67132900  1
  O  O51  1  0.15802100  0.55242700  0.32867100  1
  O  O52  1  0.36816900  0.77518200  0.30476900  1
  O  O53  1  0.86816900  0.72481800  0.69523100  1
  O  O54  1  0.63183100  0.22481800  0.69523100  1
  O  O55  1  0.13183100  0.27518200  0.30476900  1
  O  O56  1  0.59925200  0.05606500  0.11566700  1
  O  O57  1  0.09925200  0.44393500  0.88433300  1
  O  O58  1  0.40074800  0.94393500  0.88433300  1
  O  O59  1  0.90074800  0.55606500  0.11566700  1
  O  O60  1  0.43718500  0.21259500  0.16487000  1
  O  O61  1  0.93718500  0.28740500  0.83513000  1
  O  O62  1  0.56281500  0.78740500  0.83513000  1
  O  O63  1  0.06281500  0.71259500  0.16487000  1
  O  O64  1  0.94174200  0.33306500  0.46395000  1
  O  O65  1  0.44174200  0.16693500  0.53605000  1
  O  O66  1  0.05825800  0.66693500  0.53605000  1
  O  O67  1  0.55825800  0.83306500  0.46395000  1
  O  O68  1  0.75249500  0.37871700  0.52785100  1
  O  O69  1  0.25249500  0.12128300  0.47214900  1
  O  O70  1  0.24750500  0.62128300  0.47214900  1
  O  O71  1  0.74750500  0.87871700  0.52785100  1
  O  O72  1  0.68823600  0.40409900  0.19110900  1
  O  O73  1  0.18823600  0.09590100  0.80889100  1
  O  O74  1  0.31176400  0.59590100  0.80889100  1
  O  O75  1  0.81176400  0.90409900  0.19110900  1
  O  O76  1  0.59748600  0.65337200  0.16100800  1
  O  O77  1  0.09748600  0.84662800  0.83899200  1
  O  O78  1  0.40251400  0.34662800  0.83899200  1
  O  O79  1  0.90251400  0.15337200  0.16100800  1
  O  O80  1  0.39390500  0.39312000  0.37483500  1
  O  O81  1  0.89390500  0.10688000  0.62516500  1
  O  O82  1  0.60609500  0.60688000  0.62516500  1
  O  O83  1  0.10609500  0.89312000  0.37483500  1
  O  O84  1  0.56475400  0.24421000  0.33501700  1
  O  O85  1  0.06475400  0.25579000  0.66498300  1
  O  O86  1  0.43524600  0.75579000  0.66498300  1
  O  O87  1  0.93524600  0.74421000  0.33501700  1
  O  O88  1  0.29514000  0.74671300  0.10123700  1
  O  O89  1  0.79514000  0.75328700  0.89876300  1
  O  O90  1  0.70486000  0.25328700  0.89876300  1
  O  O91  1  0.20486000  0.24671300  0.10123700  1
  O  O92  1  0.29775900  0.48232300  0.06512900  1
  O  O93  1  0.79775900  0.01767700  0.93487100  1
  O  O94  1  0.70224100  0.51767700  0.93487100  1
  O  O95  1  0.20224100  0.98232300  0.06512900  1
  O  O96  1  0.27642400  0.94373100  0.20081200  1
  O  O97  1  0.77642400  0.55626900  0.79918800  1
  O  O98  1  0.72357600  0.05626900  0.79918800  1
  O  O99  1  0.22357600  0.44373100  0.20081200  1
  O  O100  1  0.40745100  0.97749200  0.08497000  1
  O  O101  1  0.90745100  0.52250800  0.91503000  1
  O  O102  1  0.59254900  0.02250800  0.91503000  1
  O  O103  1  0.09254900  0.47749200  0.08497000  1
  O  O104  1  0.78320200  0.43261800  0.38290600  1
  O  O105  1  0.28320200  0.06738200  0.61709400  1
  O  O106  1  0.21679800  0.56738200  0.61709400  1
  O  O107  1  0.71679800  0.93261800  0.38290600  1
  O  O108  1  0.77419900  0.17338900  0.43540700  1
  O  O109  1  0.27419900  0.32661100  0.56459300  1
  O  O110  1  0.22580100  0.82661100  0.56459300  1
  O  O111  1  0.72580100  0.67338900  0.43540700  1
  O  O112  1  0.58045100  0.49215900  0.40439900  1
  O  O113  1  0.08045100  0.00784100  0.59560100  1
  O  O114  1  0.41954900  0.50784100  0.59560100  1
  O  O115  1  0.91954900  0.99215900  0.40439900  1
  O  O116  1  0.68935500  0.61008800  0.29348600  1
  O  O117  1  0.18935500  0.88991200  0.70651400  1
  O  O118  1  0.31064500  0.38991200  0.70651400  1
  O  O119  1  0.81064500  0.11008800  0.29348600  1
  O  O120  1  0.48214300  0.95586500  0.22688500  1
  O  O121  1  0.98214300  0.54413500  0.77311500  1
  O  O122  1  0.51785700  0.04413500  0.77311500  1
  O  O123  1  0.01785700  0.45586500  0.22688500  1
  O  O124  1  0.50871600  0.48538200  0.26061200  1
  O  O125  1  0.00871600  0.01461800  0.73938800  1
  O  O126  1  0.49128400  0.51461800  0.73938800  1
  O  O127  1  0.99128400  0.98538200  0.26061200  1
