# generated using pymatgen
data_Rb2Sn2H3N
_symmetry_space_group_name_H-M   'P 1'
_cell_length_a   9.70636100
_cell_length_b   13.43459300
_cell_length_c   13.55191558
_cell_angle_alpha   73.02899836
_cell_angle_beta   90.00000000
_cell_angle_gamma   90.00000000
_symmetry_Int_Tables_number   1
_chemical_formula_structural   Rb2Sn2H3N
_chemical_formula_sum   'Rb16 Sn16 H24 N8'
_cell_volume   1690.22724150
_cell_formula_units_Z   8
loop_
 _symmetry_equiv_pos_site_id
 _symmetry_equiv_pos_as_xyz
  1  'x, y, z'
loop_
 _atom_site_type_symbol
 _atom_site_label
 _atom_site_symmetry_multiplicity
 _atom_site_fract_x
 _atom_site_fract_y
 _atom_site_fract_z
 _atom_site_occupancy
  Rb  Rb0  1  0.54939100  0.18071300  0.57317300  1
  Rb  Rb1  1  0.04939100  0.31928700  0.42682700  1
  Rb  Rb2  1  0.45060900  0.81928700  0.42682700  1
  Rb  Rb3  1  0.95060900  0.68071300  0.57317300  1
  Rb  Rb4  1  0.22097900  0.92153900  0.86684900  1
  Rb  Rb5  1  0.72097900  0.57846100  0.13315100  1
  Rb  Rb6  1  0.77902100  0.07846100  0.13315100  1
  Rb  Rb7  1  0.27902100  0.42153900  0.86684900  1
  Rb  Rb8  1  0.20215200  0.01189600  0.53608600  1
  Rb  Rb9  1  0.70215200  0.48810400  0.46391400  1
  Rb  Rb10  1  0.79784800  0.98810400  0.46391400  1
  Rb  Rb11  1  0.29784800  0.51189600  0.53608600  1
  Rb  Rb12  1  0.71999200  0.93559300  0.90764900  1
  Rb  Rb13  1  0.21999200  0.56440700  0.09235100  1
  Rb  Rb14  1  0.28000800  0.06440700  0.09235100  1
  Rb  Rb15  1  0.78000800  0.43559300  0.90764900  1
  Sn  Sn16  1  0.21286700  0.21236400  0.71634600  1
  Sn  Sn17  1  0.71286700  0.28763600  0.28365400  1
  Sn  Sn18  1  0.78713300  0.78763600  0.28365400  1
  Sn  Sn19  1  0.28713300  0.71236400  0.71634600  1
  Sn  Sn20  1  0.00298000  0.19024700  0.88364000  1
  Sn  Sn21  1  0.50298000  0.30975300  0.11636000  1
  Sn  Sn22  1  0.99702000  0.80975300  0.11636000  1
  Sn  Sn23  1  0.49702000  0.69024700  0.88364000  1
  Sn  Sn24  1  0.98431200  0.36779400  0.69027600  1
  Sn  Sn25  1  0.48431200  0.13220600  0.30972400  1
  Sn  Sn26  1  0.01568800  0.63220600  0.30972400  1
  Sn  Sn27  1  0.51568800  0.86779400  0.69027600  1
  Sn  Sn28  1  0.92098700  0.15117200  0.68693300  1
  Sn  Sn29  1  0.42098700  0.34882800  0.31306700  1
  Sn  Sn30  1  0.07901300  0.84882800  0.31306700  1
  Sn  Sn31  1  0.57901300  0.65117200  0.68693300  1
  H  H32  1  0.15449500  0.16947700  0.30201600  1
  H  H33  1  0.65449500  0.33052300  0.69798400  1
  H  H34  1  0.84550500  0.83052300  0.69798400  1
  H  H35  1  0.34550500  0.66947700  0.30201600  1
  H  H36  1  0.98327300  0.16936200  0.29396700  1
  H  H37  1  0.48327300  0.33063800  0.70603300  1
  H  H38  1  0.01672700  0.83063800  0.70603300  1
  H  H39  1  0.51672700  0.66936200  0.29396700  1
  H  H40  1  0.66325400  0.17079300  0.87513300  1
  H  H41  1  0.16325400  0.32920700  0.12486700  1
  H  H42  1  0.33674600  0.82920700  0.12486700  1
  H  H43  1  0.83674600  0.67079300  0.87513300  1
  H  H44  1  0.49940800  0.13988300  0.87053000  1
  H  H45  1  0.99940800  0.36011700  0.12947000  1
  H  H46  1  0.50059200  0.86011700  0.12947000  1
  H  H47  1  0.00059200  0.63988300  0.87053000  1
  H  H48  1  0.55366000  0.18825600  0.96122300  1
  H  H49  1  0.05366000  0.31174400  0.03877700  1
  H  H50  1  0.44634000  0.81174400  0.03877700  1
  H  H51  1  0.94634000  0.68825600  0.96122300  1
  H  H52  1  0.07198500  0.05944400  0.31399800  1
  H  H53  1  0.57198500  0.44055600  0.68600200  1
  H  H54  1  0.92801500  0.94055600  0.68600200  1
  H  H55  1  0.42801500  0.55944400  0.31399800  1
  N  N56  1  0.06678500  0.12883900  0.33252800  1
  N  N57  1  0.56678500  0.37116100  0.66747200  1
  N  N58  1  0.93321500  0.87116100  0.66747200  1
  N  N59  1  0.43321500  0.62883900  0.33252800  1
  N  N60  1  0.58044100  0.13738800  0.92000000  1
  N  N61  1  0.08044100  0.36261200  0.08000000  1
  N  N62  1  0.41955900  0.86261200  0.08000000  1
  N  N63  1  0.91955900  0.63738800  0.92000000  1
