# generated using pymatgen
data_NaSn2F5
_symmetry_space_group_name_H-M   'P 1'
_cell_length_a   9.22690600
_cell_length_b   9.22690600
_cell_length_c   14.03372400
_cell_angle_alpha   90.00000000
_cell_angle_beta   90.00000000
_cell_angle_gamma   90.00000000
_symmetry_Int_Tables_number   1
_chemical_formula_structural   NaSn2F5
_chemical_formula_sum   'Na8 Sn16 F40'
_cell_volume   1194.77224019
_cell_formula_units_Z   8
loop_
 _symmetry_equiv_pos_site_id
 _symmetry_equiv_pos_as_xyz
  1  'x, y, z'
loop_
 _atom_site_type_symbol
 _atom_site_label
 _atom_site_symmetry_multiplicity
 _atom_site_fract_x
 _atom_site_fract_y
 _atom_site_fract_z
 _atom_site_occupancy
  Na  Na0  1  0.50000000  0.00000000  0.75000000  1
  Na  Na1  1  0.50000000  0.00000000  0.25000000  1
  Na  Na2  1  0.00000000  0.50000000  0.75000000  1
  Na  Na3  1  0.00000000  0.50000000  0.25000000  1
  Na  Na4  1  0.50000000  0.00000000  0.00000000  1
  Na  Na5  1  0.50000000  0.00000000  0.50000000  1
  Na  Na6  1  0.00000000  0.50000000  0.50000000  1
  Na  Na7  1  0.00000000  0.50000000  0.00000000  1
  Sn  Sn8  1  0.68518800  0.66813500  0.86726500  1
  Sn  Sn9  1  0.83186500  0.18518800  0.36726500  1
  Sn  Sn10  1  0.31481200  0.66813500  0.63273500  1
  Sn  Sn11  1  0.31481200  0.33186500  0.86726500  1
  Sn  Sn12  1  0.16813500  0.81481200  0.36726500  1
  Sn  Sn13  1  0.83186500  0.81481200  0.13273500  1
  Sn  Sn14  1  0.16813500  0.18518800  0.13273500  1
  Sn  Sn15  1  0.68518800  0.33186500  0.63273500  1
  Sn  Sn16  1  0.33186500  0.68518800  0.13273500  1
  Sn  Sn17  1  0.66813500  0.31481200  0.13273500  1
  Sn  Sn18  1  0.18518800  0.83186500  0.86726500  1
  Sn  Sn19  1  0.18518800  0.16813500  0.63273500  1
  Sn  Sn20  1  0.81481200  0.83186500  0.63273500  1
  Sn  Sn21  1  0.66813500  0.68518800  0.36726500  1
  Sn  Sn22  1  0.33186500  0.31481200  0.36726500  1
  Sn  Sn23  1  0.81481200  0.16813500  0.86726500  1
  F  F24  1  0.80650700  0.30650700  0.00000000  1
  F  F25  1  0.85001800  0.41083000  0.38499200  1
  F  F26  1  0.08917000  0.64998200  0.61500800  1
  F  F27  1  0.08917000  0.35001800  0.88499200  1
  F  F28  1  0.91083000  0.64998200  0.88499200  1
  F  F29  1  0.85001800  0.58917000  0.11500800  1
  F  F30  1  0.14998200  0.41083000  0.11500800  1
  F  F31  1  0.91083000  0.35001800  0.61500800  1
  F  F32  1  0.30650700  0.80650700  0.50000000  1
  F  F33  1  0.69349300  0.80650700  0.00000000  1
  F  F34  1  0.30650700  0.19349300  0.00000000  1
  F  F35  1  0.69349300  0.19349300  0.50000000  1
  F  F36  1  0.19349300  0.69349300  0.00000000  1
  F  F37  1  0.80650700  0.69349300  0.50000000  1
  F  F38  1  0.19349300  0.30650700  0.50000000  1
  F  F39  1  0.14998200  0.58917000  0.38499200  1
  F  F40  1  0.37023600  0.78098600  0.29903500  1
  F  F41  1  0.37023600  0.21901400  0.20096500  1
  F  F42  1  0.62976400  0.78098600  0.20096500  1
  F  F43  1  0.71901400  0.87023600  0.79903500  1
  F  F44  1  0.28098600  0.12976400  0.79903500  1
  F  F45  1  0.28098600  0.87023600  0.70096500  1
  F  F46  1  0.62976400  0.21901400  0.29903500  1
  F  F47  1  0.35001800  0.91083000  0.11500800  1
  F  F48  1  0.78098600  0.37023600  0.79903500  1
  F  F49  1  0.12976400  0.28098600  0.29903500  1
  F  F50  1  0.87023600  0.71901400  0.29903500  1
  F  F51  1  0.78098600  0.62976400  0.70096500  1
  F  F52  1  0.21901400  0.37023600  0.70096500  1
  F  F53  1  0.21901400  0.62976400  0.79903500  1
  F  F54  1  0.87023600  0.28098600  0.20096500  1
  F  F55  1  0.12976400  0.71901400  0.20096500  1
  F  F56  1  0.58917000  0.14998200  0.88499200  1
  F  F57  1  0.35001800  0.08917000  0.38499200  1
  F  F58  1  0.64998200  0.91083000  0.38499200  1
  F  F59  1  0.58917000  0.85001800  0.61500800  1
  F  F60  1  0.41083000  0.14998200  0.61500800  1
  F  F61  1  0.41083000  0.85001800  0.88499200  1
  F  F62  1  0.64998200  0.08917000  0.11500800  1
  F  F63  1  0.71901400  0.12976400  0.70096500  1
