# generated using pymatgen
data_Pr5(Sn5Ir2)2
_symmetry_space_group_name_H-M   'P 1'
_cell_length_a   14.19269600
_cell_length_b   14.19269600
_cell_length_c   4.70257600
_cell_angle_alpha   90.00000000
_cell_angle_beta   90.00000000
_cell_angle_gamma   90.00000000
_symmetry_Int_Tables_number   1
_chemical_formula_structural   Pr5(Sn5Ir2)2
_chemical_formula_sum   'Pr10 Sn20 Ir8'
_cell_volume   947.25220325
_cell_formula_units_Z   2
loop_
 _symmetry_equiv_pos_site_id
 _symmetry_equiv_pos_as_xyz
  1  'x, y, z'
loop_
 _atom_site_type_symbol
 _atom_site_label
 _atom_site_symmetry_multiplicity
 _atom_site_fract_x
 _atom_site_fract_y
 _atom_site_fract_z
 _atom_site_occupancy
  Pr  Pr0  1  0.50000000  0.50000000  0.00000000  1
  Pr  Pr1  1  0.00000000  0.00000000  0.00000000  1
  Pr  Pr2  1  0.67647400  0.17647400  0.50000000  1
  Pr  Pr3  1  0.32352600  0.82352600  0.50000000  1
  Pr  Pr4  1  0.17647400  0.32352600  0.50000000  1
  Pr  Pr5  1  0.82352600  0.67647400  0.50000000  1
  Pr  Pr6  1  0.88749500  0.38749500  0.50000000  1
  Pr  Pr7  1  0.11250500  0.61250500  0.50000000  1
  Pr  Pr8  1  0.38749500  0.11250500  0.50000000  1
  Pr  Pr9  1  0.61250500  0.88749500  0.50000000  1
  Sn  Sn10  1  0.56957200  0.06957200  0.00000000  1
  Sn  Sn11  1  0.43042800  0.93042800  0.00000000  1
  Sn  Sn12  1  0.06957200  0.43042800  0.00000000  1
  Sn  Sn13  1  0.93042800  0.56957200  0.00000000  1
  Sn  Sn14  1  0.65523500  0.69816700  0.00000000  1
  Sn  Sn15  1  0.34476500  0.30183300  0.00000000  1
  Sn  Sn16  1  0.15523500  0.80183300  0.00000000  1
  Sn  Sn17  1  0.84476500  0.19816700  0.00000000  1
  Sn  Sn18  1  0.30183300  0.65523500  0.00000000  1
  Sn  Sn19  1  0.69816700  0.34476500  0.00000000  1
  Sn  Sn20  1  0.19816700  0.15523500  0.00000000  1
  Sn  Sn21  1  0.80183300  0.84476500  0.00000000  1
  Sn  Sn22  1  0.66342400  0.50554200  0.50000000  1
  Sn  Sn23  1  0.33657600  0.49445800  0.50000000  1
  Sn  Sn24  1  0.16342400  0.99445800  0.50000000  1
  Sn  Sn25  1  0.83657600  0.00554200  0.50000000  1
  Sn  Sn26  1  0.49445800  0.66342400  0.50000000  1
  Sn  Sn27  1  0.50554200  0.33657600  0.50000000  1
  Sn  Sn28  1  0.00554200  0.16342400  0.50000000  1
  Sn  Sn29  1  0.99445800  0.83657600  0.50000000  1
  Ir  Ir30  1  0.74613800  0.52733400  0.00000000  1
  Ir  Ir31  1  0.25386200  0.47266600  0.00000000  1
  Ir  Ir32  1  0.24613800  0.97266600  0.00000000  1
  Ir  Ir33  1  0.75386200  0.02733400  0.00000000  1
  Ir  Ir34  1  0.47266600  0.74613800  0.00000000  1
  Ir  Ir35  1  0.52733400  0.25386200  0.00000000  1
  Ir  Ir36  1  0.02733400  0.24613800  0.00000000  1
  Ir  Ir37  1  0.97266600  0.75386200  0.00000000  1
