# generated using pymatgen
data_Ta3S2
_symmetry_space_group_name_H-M   'P 1'
_cell_length_a   9.14769092
_cell_length_b   9.14769092
_cell_length_c   7.53161700
_cell_angle_alpha   90.00000000
_cell_angle_beta   90.00000000
_cell_angle_gamma   144.00993056
_symmetry_Int_Tables_number   1
_chemical_formula_structural   Ta3S2
_chemical_formula_sum   'Ta12 S8'
_cell_volume   370.36185864
_cell_formula_units_Z   4
loop_
 _symmetry_equiv_pos_site_id
 _symmetry_equiv_pos_as_xyz
  1  'x, y, z'
loop_
 _atom_site_type_symbol
 _atom_site_label
 _atom_site_symmetry_multiplicity
 _atom_site_fract_x
 _atom_site_fract_y
 _atom_site_fract_z
 _atom_site_occupancy
  Ta  Ta0  1  0.22933500  0.72933500  0.65627400  1
  Ta  Ta1  1  0.72933500  0.22933500  0.34372600  1
  Ta  Ta2  1  0.49511500  0.99511500  0.99464200  1
  Ta  Ta3  1  0.99511500  0.49511500  0.00535800  1
  Ta  Ta4  1  0.83327000  0.16680400  0.71937600  1
  Ta  Ta5  1  0.16680400  0.83327000  0.28062400  1
  Ta  Ta6  1  0.33327000  0.66680400  0.28062400  1
  Ta  Ta7  1  0.66680400  0.33327000  0.71937600  1
  Ta  Ta8  1  0.88567300  0.10150000  0.10481200  1
  Ta  Ta9  1  0.10150000  0.88567300  0.89518800  1
  Ta  Ta10  1  0.38567300  0.60150000  0.89518800  1
  Ta  Ta11  1  0.60150000  0.38567300  0.10481200  1
  S  S12  1  0.82823700  0.90951800  0.82829300  1
  S  S13  1  0.90951800  0.82823700  0.17170700  1
  S  S14  1  0.32823700  0.40951800  0.17170700  1
  S  S15  1  0.40951800  0.32823700  0.82829300  1
  S  S16  1  0.25365000  0.48749700  0.58411200  1
  S  S17  1  0.48749700  0.25365000  0.41588800  1
  S  S18  1  0.75365000  0.98749700  0.41588800  1
  S  S19  1  0.98749700  0.75365000  0.58411200  1
