# generated using pymatgen
data_Zr(TlSe)4
_symmetry_space_group_name_H-M   'P 1'
_cell_length_a   9.56577100
_cell_length_b   9.56848520
_cell_length_c   16.45336976
_cell_angle_alpha   104.48007875
_cell_angle_beta   105.11165403
_cell_angle_gamma   90.02872428
_symmetry_Int_Tables_number   1
_chemical_formula_structural   Zr(TlSe)4
_chemical_formula_sum   'Zr5 Tl20 Se20'
_cell_volume   1404.23492874
_cell_formula_units_Z   5
loop_
 _symmetry_equiv_pos_site_id
 _symmetry_equiv_pos_as_xyz
  1  'x, y, z'
loop_
 _atom_site_type_symbol
 _atom_site_label
 _atom_site_symmetry_multiplicity
 _atom_site_fract_x
 _atom_site_fract_y
 _atom_site_fract_z
 _atom_site_occupancy
  Zr  Zr0  1  0.98319100  0.31348900  0.40025100  1
  Zr  Zr1  1  0.01680900  0.68651100  0.59974900  1
  Zr  Zr2  1  0.82235000  0.69459700  0.80017000  1
  Zr  Zr3  1  0.17765000  0.30540300  0.19983000  1
  Zr  Zr4  1  0.00000000  0.50000000  0.00000000  1
  Tl  Tl5  1  0.95279400  0.91754300  0.19923200  1
  Tl  Tl6  1  0.04720600  0.08245700  0.80076800  1
  Tl  Tl7  1  0.78433400  0.28169100  0.59978000  1
  Tl  Tl8  1  0.21566600  0.71830900  0.40022000  1
  Tl  Tl9  1  0.78007300  0.91360900  0.40542100  1
  Tl  Tl10  1  0.21992700  0.08639100  0.59457900  1
  Tl  Tl11  1  0.77829100  0.54422800  0.20387200  1
  Tl  Tl12  1  0.22170900  0.45577200  0.79612800  1
  Tl  Tl13  1  0.62182600  0.90433000  0.61113300  1
  Tl  Tl14  1  0.37817400  0.09567000  0.38886700  1
  Tl  Tl15  1  0.61086700  0.30001400  0.80837600  1
  Tl  Tl16  1  0.38913300  0.69998600  0.19162400  1
  Tl  Tl17  1  0.58877300  0.53297300  0.40067700  1
  Tl  Tl18  1  0.41122700  0.46702700  0.59932300  1
  Tl  Tl19  1  0.41973900  0.90237900  0.79937100  1
  Tl  Tl20  1  0.58026100  0.09762100  0.20062900  1
  Tl  Tl21  1  0.39231600  0.28201600  0.00179300  1
  Tl  Tl22  1  0.60768400  0.71798400  0.99820700  1
  Tl  Tl23  1  0.22505700  0.89754200  0.99264600  1
  Tl  Tl24  1  0.77494300  0.10245800  0.00735400  1
  Se  Se25  1  0.93655900  0.95599600  0.59842400  1
  Se  Se26  1  0.06344100  0.04400400  0.40157600  1
  Se  Se27  1  0.93016300  0.60373000  0.42090400  1
  Se  Se28  1  0.06983700  0.39627000  0.57909600  1
  Se  Se29  1  0.92605700  0.77080200  0.98060500  1
  Se  Se30  1  0.07394300  0.22919800  0.01939500  1
  Se  Se31  1  0.90964700  0.41948100  0.82013100  1
  Se  Se32  1  0.09035300  0.58051900  0.17986900  1
  Se  Se33  1  0.75498300  0.96833500  0.80628200  1
  Se  Se34  1  0.24501700  0.03166500  0.19371800  1
  Se  Se35  1  0.74485800  0.61510500  0.62093500  1
  Se  Se36  1  0.25514200  0.38489500  0.37906500  1
  Se  Se37  1  0.55220700  0.62003200  0.80215300  1
  Se  Se38  1  0.44779300  0.37996800  0.19784700  1
  Se  Se39  1  0.28967900  0.76086600  0.60389400  1
  Se  Se40  1  0.71032100  0.23913400  0.39610600  1
  Se  Se41  1  0.27474800  0.57243100  0.99689000  1
  Se  Se42  1  0.72525200  0.42756900  0.00311000  1
  Se  Se43  1  0.09551000  0.74279800  0.77803700  1
  Se  Se44  1  0.90449000  0.25720200  0.22196300  1
