# generated using pymatgen
data_YGa2Pd
_symmetry_space_group_name_H-M   'P 1'
_cell_length_a   5.56605181
_cell_length_b   5.56605181
_cell_length_c   6.61929600
_cell_angle_alpha   90.00000000
_cell_angle_beta   90.00000000
_cell_angle_gamma   132.95294104
_symmetry_Int_Tables_number   1
_chemical_formula_structural   YGa2Pd
_chemical_formula_sum   'Y2 Ga4 Pd2'
_cell_volume   150.09496034
_cell_formula_units_Z   2
loop_
 _symmetry_equiv_pos_site_id
 _symmetry_equiv_pos_as_xyz
  1  'x, y, z'
loop_
 _atom_site_type_symbol
 _atom_site_label
 _atom_site_symmetry_multiplicity
 _atom_site_fract_x
 _atom_site_fract_y
 _atom_site_fract_z
 _atom_site_occupancy
  Y  Y0  1  0.58785600  0.41214400  0.25000000  1
  Y  Y1  1  0.41214400  0.58785600  0.75000000  1
  Ga  Ga2  1  0.87175100  0.12824900  0.44651800  1
  Ga  Ga3  1  0.12824900  0.87175100  0.55348200  1
  Ga  Ga4  1  0.87175100  0.12824900  0.05348200  1
  Ga  Ga5  1  0.12824900  0.87175100  0.94651800  1
  Pd  Pd6  1  0.29960900  0.70039100  0.25000000  1
  Pd  Pd7  1  0.70039100  0.29960900  0.75000000  1
