# generated using pymatgen
data_CaSeO4
_symmetry_space_group_name_H-M   'P 1'
_cell_length_a   6.48194900
_cell_length_b   7.33286800
_cell_length_c   8.22537996
_cell_angle_alpha   116.47110697
_cell_angle_beta   90.00000000
_cell_angle_gamma   90.00000000
_symmetry_Int_Tables_number   1
_chemical_formula_structural   CaSeO4
_chemical_formula_sum   'Ca4 Se4 O16'
_cell_volume   349.97397641
_cell_formula_units_Z   4
loop_
 _symmetry_equiv_pos_site_id
 _symmetry_equiv_pos_as_xyz
  1  'x, y, z'
loop_
 _atom_site_type_symbol
 _atom_site_label
 _atom_site_symmetry_multiplicity
 _atom_site_fract_x
 _atom_site_fract_y
 _atom_site_fract_z
 _atom_site_occupancy
  Ca  Ca0  1  0.11992100  0.12472800  0.24945700  1
  Ca  Ca1  1  0.88007900  0.87527200  0.75054300  1
  Ca  Ca2  1  0.61992100  0.37527200  0.75054300  1
  Ca  Ca3  1  0.38007900  0.62472800  0.24945700  1
  Se  Se4  1  0.11531100  0.37672400  0.75344900  1
  Se  Se5  1  0.88468900  0.62327600  0.24655100  1
  Se  Se6  1  0.61531100  0.12327600  0.24655100  1
  Se  Se7  1  0.38468900  0.87672400  0.75344900  1
  O  O8  1  0.25660200  0.28150200  0.56300400  1
  O  O9  1  0.74339800  0.71849800  0.43699600  1
  O  O10  1  0.75660200  0.21849800  0.43699600  1
  O  O11  1  0.24339800  0.78150200  0.56300400  1
  O  O12  1  0.29038800  0.46012800  0.92025700  1
  O  O13  1  0.70961200  0.53987200  0.07974300  1
  O  O14  1  0.79038800  0.03987200  0.07974300  1
  O  O15  1  0.20961200  0.96012800  0.92025700  1
  O  O16  1  0.95441700  0.55868100  0.76147300  1
  O  O17  1  0.04558300  0.79720800  0.23852700  1
  O  O18  1  0.45441700  0.29720800  0.23852700  1
  O  O19  1  0.54558300  0.05868100  0.76147300  1
  O  O20  1  0.04558300  0.44131900  0.23852700  1
  O  O21  1  0.95441700  0.20279200  0.76147300  1
  O  O22  1  0.54558300  0.70279200  0.76147300  1
  O  O23  1  0.45441700  0.94131900  0.23852700  1
