# generated using pymatgen
data_Sr(BeN)2
_symmetry_space_group_name_H-M   'P 1'
_cell_length_a   5.50992225
_cell_length_b   5.50992225
_cell_length_c   5.50992225
_cell_angle_alpha   118.67433152
_cell_angle_beta   118.67433152
_cell_angle_gamma   92.31188309
_symmetry_Int_Tables_number   1
_chemical_formula_structural   Sr(BeN)2
_chemical_formula_sum   'Sr2 Be4 N4'
_cell_volume   120.54667091
_cell_formula_units_Z   2
loop_
 _symmetry_equiv_pos_site_id
 _symmetry_equiv_pos_as_xyz
  1  'x, y, z'
loop_
 _atom_site_type_symbol
 _atom_site_label
 _atom_site_symmetry_multiplicity
 _atom_site_fract_x
 _atom_site_fract_y
 _atom_site_fract_z
 _atom_site_occupancy
  Sr  Sr0  1  0.75000000  0.75000000  0.00000000  1
  Sr  Sr1  1  0.25000000  0.25000000  0.00000000  1
  Be  Be2  1  0.12728500  0.62728500  0.75457000  1
  Be  Be3  1  0.62728500  0.87271500  0.50000000  1
  Be  Be4  1  0.87271500  0.37271500  0.24543000  1
  Be  Be5  1  0.37271500  0.12728500  0.50000000  1
  N  N6  1  0.16782800  0.33217200  0.50000000  1
  N  N7  1  0.66782800  0.16782800  0.83565500  1
  N  N8  1  0.33217200  0.83217200  0.16434500  1
  N  N9  1  0.83217200  0.66782800  0.50000000  1
