# generated using pymatgen
data_HoAlSi
_symmetry_space_group_name_H-M   'P 1'
_cell_length_a   5.49890288
_cell_length_b   5.49890288
_cell_length_c   5.67873100
_cell_angle_alpha   90.00000000
_cell_angle_beta   90.00000000
_cell_angle_gamma   137.20414063
_symmetry_Int_Tables_number   1
_chemical_formula_structural   HoAlSi
_chemical_formula_sum   'Ho2 Al2 Si2'
_cell_volume   116.65985813
_cell_formula_units_Z   2
loop_
 _symmetry_equiv_pos_site_id
 _symmetry_equiv_pos_as_xyz
  1  'x, y, z'
loop_
 _atom_site_type_symbol
 _atom_site_label
 _atom_site_symmetry_multiplicity
 _atom_site_fract_x
 _atom_site_fract_y
 _atom_site_fract_z
 _atom_site_occupancy
  Ho  Ho0  1  0.69410800  0.30589200  0.25000000  1
  Ho  Ho1  1  0.30589200  0.69410800  0.75000000  1
  Al  Al2  1  0.00000000  0.00000000  0.00000000  1
  Al  Al3  1  0.00000000  0.00000000  0.50000000  1
  Si  Si4  1  0.39950100  0.60049900  0.25000000  1
  Si  Si5  1  0.60049900  0.39950100  0.75000000  1
