# generated using pymatgen
data_TbCuPbS3
_symmetry_space_group_name_H-M   'P 1'
_cell_length_a   6.82669990
_cell_length_b   6.82669990
_cell_length_c   10.26269700
_cell_angle_alpha   90.00000000
_cell_angle_beta   90.00000000
_cell_angle_gamma   146.25153269
_symmetry_Int_Tables_number   1
_chemical_formula_structural   TbCuPbS3
_chemical_formula_sum   'Tb2 Cu2 Pb2 S6'
_cell_volume   265.70804963
_cell_formula_units_Z   2
loop_
 _symmetry_equiv_pos_site_id
 _symmetry_equiv_pos_as_xyz
  1  'x, y, z'
loop_
 _atom_site_type_symbol
 _atom_site_label
 _atom_site_symmetry_multiplicity
 _atom_site_fract_x
 _atom_site_fract_y
 _atom_site_fract_z
 _atom_site_occupancy
  Tb  Tb0  1  0.99582700  0.00417300  0.49780200  1
  Tb  Tb1  1  0.00417300  0.99582700  0.99780200  1
  Cu  Cu2  1  0.46617100  0.53382900  0.24878300  1
  Cu  Cu3  1  0.53382900  0.46617100  0.74878300  1
  Pb  Pb4  1  0.74813000  0.25187000  0.22337400  1
  Pb  Pb5  1  0.25187000  0.74813000  0.72337400  1
  S  S6  1  0.07468400  0.92531600  0.25006600  1
  S  S7  1  0.92531600  0.07468400  0.75006600  1
  S  S8  1  0.36169900  0.63830100  0.43224600  1
  S  S9  1  0.63630100  0.36369900  0.56622800  1
  S  S10  1  0.36369900  0.63630100  0.06622800  1
  S  S11  1  0.63830100  0.36169900  0.93224600  1
