# generated using pymatgen
data_In5CuTe8
_symmetry_space_group_name_H-M   'P 1'
_cell_length_a   7.73241241
_cell_length_b   7.73241241
_cell_length_c   9.01705706
_cell_angle_alpha   89.95299567
_cell_angle_beta   89.95299567
_cell_angle_gamma   109.28922330
_symmetry_Int_Tables_number   1
_chemical_formula_structural   In5CuTe8
_chemical_formula_sum   'In5 Cu1 Te8'
_cell_volume   508.86596930
_cell_formula_units_Z   1
loop_
 _symmetry_equiv_pos_site_id
 _symmetry_equiv_pos_as_xyz
  1  'x, y, z'
loop_
 _atom_site_type_symbol
 _atom_site_label
 _atom_site_symmetry_multiplicity
 _atom_site_fract_x
 _atom_site_fract_y
 _atom_site_fract_z
 _atom_site_occupancy
  In  In0  1  0.50954400  0.49045600  0.00000000  1
  In  In1  1  0.99002300  0.00997700  0.50000000  1
  In  In2  1  0.49981600  0.50018400  0.50000000  1
  In  In3  1  0.51025800  0.01039400  0.24314100  1
  In  In4  1  0.98960600  0.48974200  0.75685900  1
  Cu  Cu5  1  0.99944400  0.00055600  0.00000000  1
  Te  Te6  1  0.89484900  0.64256600  0.01613900  1
  Te  Te7  1  0.38502400  0.11057200  0.52210700  1
  Te  Te8  1  0.35743400  0.10515100  0.98386100  1
  Te  Te9  1  0.88942800  0.61497600  0.47789300  1
  Te  Te10  1  0.85339000  0.10435600  0.76820000  1
  Te  Te11  1  0.34116800  0.61562800  0.24771000  1
  Te  Te12  1  0.89564400  0.14661000  0.23180000  1
  Te  Te13  1  0.38437200  0.65883200  0.75229000  1
