# generated using pymatgen
data_BaCr2(P2O7)2
_symmetry_space_group_name_H-M   'P 1'
_cell_length_a   6.25289853
_cell_length_b   6.28250341
_cell_length_c   7.97788903
_cell_angle_alpha   96.61015534
_cell_angle_beta   101.51967949
_cell_angle_gamma   105.89906258
_symmetry_Int_Tables_number   1
_chemical_formula_structural   BaCr2(P2O7)2
_chemical_formula_sum   'Ba1 Cr2 P4 O14'
_cell_volume   290.50661588
_cell_formula_units_Z   1
loop_
 _symmetry_equiv_pos_site_id
 _symmetry_equiv_pos_as_xyz
  1  'x, y, z'
loop_
 _atom_site_type_symbol
 _atom_site_label
 _atom_site_symmetry_multiplicity
 _atom_site_fract_x
 _atom_site_fract_y
 _atom_site_fract_z
 _atom_site_occupancy
  Ba  Ba0  1  0.00000000  0.00000000  0.00000000  1
  Cr  Cr1  1  0.62543100  0.31129800  0.77111400  1
  Cr  Cr2  1  0.37456900  0.68870200  0.22888600  1
  P  P3  1  0.81715600  0.53773400  0.19435400  1
  P  P4  1  0.18284400  0.46226600  0.80564600  1
  P  P5  1  0.51416800  0.75705700  0.66530600  1
  P  P6  1  0.48583200  0.24294300  0.33469400  1
  O  O7  1  0.93395500  0.31881700  0.73289400  1
  O  O8  1  0.06604500  0.68118300  0.26710600  1
  O  O9  1  0.68090000  0.63923400  0.75674200  1
  O  O10  1  0.31910000  0.36076600  0.24325800  1
  O  O11  1  0.67393900  0.70044100  0.16793500  1
  O  O12  1  0.32606100  0.29955900  0.83206500  1
  O  O13  1  0.56875800  0.98362700  0.78639100  1
  O  O14  1  0.43124200  0.01637300  0.21360900  1
  O  O15  1  0.52358600  0.77315300  0.48010200  1
  O  O16  1  0.47641400  0.22684700  0.51989800  1
  O  O17  1  0.25558600  0.60630000  0.65967800  1
  O  O18  1  0.74441400  0.39370000  0.34032200  1
  O  O19  1  0.22017600  0.63585000  0.96978500  1
  O  O20  1  0.77982400  0.36415000  0.03021500  1
