# generated using pymatgen
data_Gd2SbO2
_symmetry_space_group_name_H-M   'P 1'
_cell_length_a   7.27064775
_cell_length_b   7.27064775
_cell_length_c   7.27064775
_cell_angle_alpha   148.96848297
_cell_angle_beta   148.85622634
_cell_angle_gamma   44.54039873
_symmetry_Int_Tables_number   1
_chemical_formula_structural   Gd2SbO2
_chemical_formula_sum   'Gd2 Sb1 O2'
_cell_volume   102.16455398
_cell_formula_units_Z   1
loop_
 _symmetry_equiv_pos_site_id
 _symmetry_equiv_pos_as_xyz
  1  'x, y, z'
loop_
 _atom_site_type_symbol
 _atom_site_label
 _atom_site_symmetry_multiplicity
 _atom_site_fract_x
 _atom_site_fract_y
 _atom_site_fract_z
 _atom_site_occupancy
  Gd  Gd0  1  0.33614300  0.32393600  0.98779300  1
  Gd  Gd1  1  0.66385700  0.65165100  0.98779300  1
  Sb  Sb2  1  0.00000000  0.96780400  0.96780400  1
  O  O3  1  0.75016700  0.23627200  0.48610500  1
  O  O4  1  0.24983300  0.73593800  0.48610500  1
