# generated using pymatgen
data_Ba(AlS2)2
_symmetry_space_group_name_H-M   'P 1'
_cell_length_a   12.79680800
_cell_length_b   12.79680800
_cell_length_c   12.79680800
_cell_angle_alpha   90.00000000
_cell_angle_beta   90.00000000
_cell_angle_gamma   90.00000000
_symmetry_Int_Tables_number   1
_chemical_formula_structural   Ba(AlS2)2
_chemical_formula_sum   'Ba12 Al24 S48'
_cell_volume   2095.58345938
_cell_formula_units_Z   12
loop_
 _symmetry_equiv_pos_site_id
 _symmetry_equiv_pos_as_xyz
  1  'x, y, z'
loop_
 _atom_site_type_symbol
 _atom_site_label
 _atom_site_symmetry_multiplicity
 _atom_site_fract_x
 _atom_site_fract_y
 _atom_site_fract_z
 _atom_site_occupancy
  Ba  Ba0  1  0.37279400  0.12720600  0.87279400  1
  Ba  Ba1  1  0.12720600  0.87279400  0.37279400  1
  Ba  Ba2  1  0.87279400  0.37279400  0.12720600  1
  Ba  Ba3  1  0.62720600  0.62720600  0.62720600  1
  Ba  Ba4  1  0.62720600  0.87279400  0.12720600  1
  Ba  Ba5  1  0.87279400  0.12720600  0.62720600  1
  Ba  Ba6  1  0.12720600  0.62720600  0.87279400  1
  Ba  Ba7  1  0.37279400  0.37279400  0.37279400  1
  Ba  Ba8  1  0.00000000  0.50000000  0.50000000  1
  Ba  Ba9  1  0.50000000  0.50000000  0.00000000  1
  Ba  Ba10  1  0.50000000  0.00000000  0.50000000  1
  Ba  Ba11  1  0.00000000  0.00000000  0.00000000  1
  Al  Al12  1  0.64338000  0.62646500  0.30402700  1
  Al  Al13  1  0.69597300  0.35662000  0.37353500  1
  Al  Al14  1  0.19597300  0.14338000  0.62646500  1
  Al  Al15  1  0.30402700  0.85662000  0.12646500  1
  Al  Al16  1  0.14338000  0.62646500  0.19597300  1
  Al  Al17  1  0.12646500  0.30402700  0.85662000  1
  Al  Al18  1  0.62646500  0.19597300  0.14338000  1
  Al  Al19  1  0.35662000  0.37353500  0.69597300  1
  Al  Al20  1  0.37353500  0.69597300  0.35662000  1
  Al  Al21  1  0.85662000  0.12646500  0.30402700  1
  Al  Al22  1  0.64338000  0.87353500  0.80402700  1
  Al  Al23  1  0.87353500  0.80402700  0.64338000  1
  Al  Al24  1  0.19597300  0.35662000  0.12646500  1
  Al  Al25  1  0.12646500  0.19597300  0.35662000  1
  Al  Al26  1  0.35662000  0.12646500  0.19597300  1
  Al  Al27  1  0.14338000  0.87353500  0.69597300  1
  Al  Al28  1  0.62646500  0.30402700  0.64338000  1
  Al  Al29  1  0.80402700  0.64338000  0.87353500  1
  Al  Al30  1  0.37353500  0.80402700  0.85662000  1
  Al  Al31  1  0.87353500  0.69597300  0.14338000  1
  Al  Al32  1  0.85662000  0.37353500  0.80402700  1
  Al  Al33  1  0.69597300  0.14338000  0.87353500  1
  Al  Al34  1  0.80402700  0.85662000  0.37353500  1
  Al  Al35  1  0.30402700  0.64338000  0.62646500  1
  S  S36  1  0.72785300  0.52518200  0.42076800  1
  S  S37  1  0.77214700  0.47481800  0.92076800  1
  S  S38  1  0.92076800  0.77214700  0.47481800  1
  S  S39  1  0.47481800  0.92076800  0.77214700  1
  S  S40  1  0.02518200  0.07923200  0.27214700  1
  S  S41  1  0.42076800  0.72785300  0.52518200  1
  S  S42  1  0.52518200  0.42076800  0.72785300  1
  S  S43  1  0.57923200  0.22785300  0.97481800  1
  S  S44  1  0.07923200  0.27214700  0.02518200  1
  S  S45  1  0.97481800  0.57923200  0.22785300  1
  S  S46  1  0.27214700  0.02518200  0.07923200  1
  S  S47  1  0.22785300  0.97481800  0.57923200  1
  S  S48  1  0.35981200  0.29100400  0.12866900  1
  S  S49  1  0.12866900  0.35981200  0.29100400  1
  S  S50  1  0.29100400  0.12866900  0.35981200  1
  S  S51  1  0.20899600  0.87133100  0.85981200  1
  S  S52  1  0.62866900  0.14018800  0.70899600  1
  S  S53  1  0.70899600  0.62866900  0.14018800  1
  S  S54  1  0.37133100  0.64018800  0.79100400  1
  S  S55  1  0.87133100  0.85981200  0.20899600  1
  S  S56  1  0.79100400  0.37133100  0.64018800  1
  S  S57  1  0.85981200  0.20899600  0.87133100  1
  S  S58  1  0.64018800  0.79100400  0.37133100  1
  S  S59  1  0.14018800  0.70899600  0.62866900  1
  S  S60  1  0.64018800  0.70899600  0.87133100  1
  S  S61  1  0.87133100  0.64018800  0.70899600  1
  S  S62  1  0.70899600  0.87133100  0.64018800  1
  S  S63  1  0.79100400  0.12866900  0.14018800  1
  S  S64  1  0.37133100  0.85981200  0.29100400  1
  S  S65  1  0.29100400  0.37133100  0.85981200  1
  S  S66  1  0.62866900  0.35981200  0.20899600  1
  S  S67  1  0.12866900  0.14018800  0.79100400  1
  S  S68  1  0.20899600  0.62866900  0.35981200  1
  S  S69  1  0.14018800  0.79100400  0.12866900  1
  S  S70  1  0.35981200  0.20899600  0.62866900  1
  S  S71  1  0.85981200  0.29100400  0.37133100  1
  S  S72  1  0.22785300  0.52518200  0.07923200  1
  S  S73  1  0.07923200  0.22785300  0.52518200  1
  S  S74  1  0.52518200  0.07923200  0.22785300  1
  S  S75  1  0.27214700  0.47481800  0.57923200  1
  S  S76  1  0.57923200  0.27214700  0.47481800  1
  S  S77  1  0.47481800  0.57923200  0.27214700  1
  S  S78  1  0.42076800  0.77214700  0.02518200  1
  S  S79  1  0.92076800  0.72785300  0.97481800  1
  S  S80  1  0.02518200  0.42076800  0.77214700  1
  S  S81  1  0.72785300  0.97481800  0.92076800  1
  S  S82  1  0.77214700  0.02518200  0.42076800  1
  S  S83  1  0.97481800  0.92076800  0.72785300  1
