# generated using pymatgen
data_HfMnGe2
_symmetry_space_group_name_H-M   'P 1'
_cell_length_a   8.07699500
_cell_length_b   9.20731100
_cell_length_c   10.08271900
_cell_angle_alpha   90.00000000
_cell_angle_beta   90.00000000
_cell_angle_gamma   90.00000000
_symmetry_Int_Tables_number   1
_chemical_formula_structural   HfMnGe2
_chemical_formula_sum   'Hf12 Mn12 Ge24'
_cell_volume   749.82564647
_cell_formula_units_Z   12
loop_
 _symmetry_equiv_pos_site_id
 _symmetry_equiv_pos_as_xyz
  1  'x, y, z'
loop_
 _atom_site_type_symbol
 _atom_site_label
 _atom_site_symmetry_multiplicity
 _atom_site_fract_x
 _atom_site_fract_y
 _atom_site_fract_z
 _atom_site_occupancy
  Hf  Hf0  1  0.24212200  0.82807600  0.45349100  1
  Hf  Hf1  1  0.24212200  0.17192400  0.54650900  1
  Hf  Hf2  1  0.75787800  0.32807600  0.04650900  1
  Hf  Hf3  1  0.75787800  0.67192400  0.95349100  1
  Hf  Hf4  1  0.75787800  0.17192400  0.54650900  1
  Hf  Hf5  1  0.75787800  0.82807600  0.45349100  1
  Hf  Hf6  1  0.24212200  0.67192400  0.95349100  1
  Hf  Hf7  1  0.24212200  0.32807600  0.04650900  1
  Hf  Hf8  1  0.00000000  0.83472000  0.17945000  1
  Hf  Hf9  1  0.00000000  0.16528000  0.82055000  1
  Hf  Hf10  1  0.00000000  0.33472000  0.32055000  1
  Hf  Hf11  1  0.00000000  0.66528000  0.67945000  1
  Mn  Mn12  1  0.24992000  0.58994400  0.25096500  1
  Mn  Mn13  1  0.24992000  0.41005600  0.74903500  1
  Mn  Mn14  1  0.75008000  0.08994400  0.24903500  1
  Mn  Mn15  1  0.75008000  0.91005600  0.75096500  1
  Mn  Mn16  1  0.75008000  0.41005600  0.74903500  1
  Mn  Mn17  1  0.75008000  0.58994400  0.25096500  1
  Mn  Mn18  1  0.24992000  0.91005600  0.75096500  1
  Mn  Mn19  1  0.24992000  0.08994400  0.24903500  1
  Mn  Mn20  1  0.24629000  0.50000000  0.50000000  1
  Mn  Mn21  1  0.75371000  0.00000000  0.00000000  1
  Mn  Mn22  1  0.75371000  0.50000000  0.50000000  1
  Mn  Mn23  1  0.24629000  0.00000000  0.00000000  1
  Ge  Ge24  1  0.34287600  0.83905600  0.18352900  1
  Ge  Ge25  1  0.34287600  0.16094400  0.81647100  1
  Ge  Ge26  1  0.65712400  0.33905600  0.31647100  1
  Ge  Ge27  1  0.65712400  0.66094400  0.68352900  1
  Ge  Ge28  1  0.65712400  0.16094400  0.81647100  1
  Ge  Ge29  1  0.65712400  0.83905600  0.18352900  1
  Ge  Ge30  1  0.34287600  0.66094400  0.68352900  1
  Ge  Ge31  1  0.34287600  0.33905600  0.31647100  1
  Ge  Ge32  1  0.50000000  0.54845100  0.12145600  1
  Ge  Ge33  1  0.50000000  0.45154900  0.87854400  1
  Ge  Ge34  1  0.50000000  0.04845100  0.37854400  1
  Ge  Ge35  1  0.50000000  0.95154900  0.62145600  1
  Ge  Ge36  1  0.00000000  0.54033200  0.12123700  1
  Ge  Ge37  1  0.00000000  0.45966800  0.87876300  1
  Ge  Ge38  1  0.00000000  0.04033200  0.37876300  1
  Ge  Ge39  1  0.00000000  0.95966800  0.62123700  1
  Ge  Ge40  1  0.50000000  0.62962500  0.40287500  1
  Ge  Ge41  1  0.50000000  0.37037500  0.59712500  1
  Ge  Ge42  1  0.50000000  0.12962500  0.09712500  1
  Ge  Ge43  1  0.50000000  0.87037500  0.90287500  1
  Ge  Ge44  1  0.00000000  0.63007600  0.39777200  1
  Ge  Ge45  1  0.00000000  0.36992400  0.60222800  1
  Ge  Ge46  1  0.00000000  0.13007600  0.10222800  1
  Ge  Ge47  1  0.00000000  0.86992400  0.89777200  1
