# generated using pymatgen
data_LaZnNi4
_symmetry_space_group_name_H-M   'P 1'
_cell_length_a   3.96605100
_cell_length_b   5.11506864
_cell_length_c   5.11496045
_cell_angle_alpha   119.99450987
_cell_angle_beta   90.00000000
_cell_angle_gamma   90.00000000
_symmetry_Int_Tables_number   1
_chemical_formula_structural   LaZnNi4
_chemical_formula_sum   'La1 Zn1 Ni4'
_cell_volume   89.86833502
_cell_formula_units_Z   1
loop_
 _symmetry_equiv_pos_site_id
 _symmetry_equiv_pos_as_xyz
  1  'x, y, z'
loop_
 _atom_site_type_symbol
 _atom_site_label
 _atom_site_symmetry_multiplicity
 _atom_site_fract_x
 _atom_site_fract_y
 _atom_site_fract_z
 _atom_site_occupancy
  La  La0  1  0.00000000  0.99997400  0.00001500  1
  Zn  Zn1  1  0.00000000  0.33332900  0.66667300  1
  Ni  Ni2  1  0.00000000  0.66661200  0.33333800  1
  Ni  Ni3  1  0.50000000  0.50255400  0.00508100  1
  Ni  Ni4  1  0.50000000  0.50252900  0.49745900  1
  Ni  Ni5  1  0.50000000  0.99490300  0.49743400  1
