# generated using pymatgen
data_CsSm(WO4)2
_symmetry_space_group_name_H-M   'P 1'
_cell_length_a   7.74736584
_cell_length_b   7.74736584
_cell_length_c   7.59499899
_cell_angle_alpha   62.98827434
_cell_angle_beta   62.98827434
_cell_angle_gamma   89.45515508
_symmetry_Int_Tables_number   1
_chemical_formula_structural   CsSm(WO4)2
_chemical_formula_sum   'Cs2 Sm2 W4 O16'
_cell_volume   350.53781650
_cell_formula_units_Z   2
loop_
 _symmetry_equiv_pos_site_id
 _symmetry_equiv_pos_as_xyz
  1  'x, y, z'
loop_
 _atom_site_type_symbol
 _atom_site_label
 _atom_site_symmetry_multiplicity
 _atom_site_fract_x
 _atom_site_fract_y
 _atom_site_fract_z
 _atom_site_occupancy
  Cs  Cs0  1  0.19817900  0.80182100  0.75000000  1
  Cs  Cs1  1  0.80182100  0.19817900  0.25000000  1
  Sm  Sm2  1  0.77557800  0.22442200  0.75000000  1
  Sm  Sm3  1  0.22442200  0.77557800  0.25000000  1
  W  W4  1  0.69692600  0.68503400  0.78233700  1
  W  W5  1  0.30307400  0.31496600  0.21766300  1
  W  W6  1  0.31496600  0.30307400  0.71766300  1
  W  W7  1  0.68503400  0.69692600  0.28233700  1
  O  O8  1  0.62073400  0.74633900  0.56497100  1
  O  O9  1  0.37926600  0.25366100  0.43502900  1
  O  O10  1  0.25366100  0.37926600  0.93502900  1
  O  O11  1  0.74633900  0.62073400  0.06497100  1
  O  O12  1  0.37816600  0.06729200  0.86868700  1
  O  O13  1  0.62183400  0.93270800  0.13131300  1
  O  O14  1  0.93270800  0.62183400  0.63131300  1
  O  O15  1  0.06729200  0.37816600  0.36868700  1
  O  O16  1  0.58699700  0.37197900  0.96874800  1
  O  O17  1  0.41300300  0.62802100  0.03125200  1
  O  O18  1  0.62802100  0.41300300  0.53125200  1
  O  O19  1  0.37197900  0.58699700  0.46874800  1
  O  O20  1  0.78227200  0.94444600  0.69928600  1
  O  O21  1  0.21772800  0.05555400  0.30071400  1
  O  O22  1  0.05555400  0.21772800  0.80071400  1
  O  O23  1  0.94444600  0.78227200  0.19928600  1
