# generated using pymatgen
data_TlMo2P3O13
_symmetry_space_group_name_H-M   'P 1'
_cell_length_a   19.38993400
_cell_length_b   6.51645700
_cell_length_c   9.96926867
_cell_angle_alpha   72.82603069
_cell_angle_beta   90.00000000
_cell_angle_gamma   90.00000000
_symmetry_Int_Tables_number   1
_chemical_formula_structural   TlMo2P3O13
_chemical_formula_sum   'Tl4 Mo8 P12 O52'
_cell_volume   1203.48902453
_cell_formula_units_Z   4
loop_
 _symmetry_equiv_pos_site_id
 _symmetry_equiv_pos_as_xyz
  1  'x, y, z'
loop_
 _atom_site_type_symbol
 _atom_site_label
 _atom_site_symmetry_multiplicity
 _atom_site_fract_x
 _atom_site_fract_y
 _atom_site_fract_z
 _atom_site_occupancy
  Tl  Tl0  1  0.65921600  0.45878600  0.35612300  1
  Tl  Tl1  1  0.15921600  0.04121400  0.64387700  1
  Tl  Tl2  1  0.34078400  0.54121400  0.64387700  1
  Tl  Tl3  1  0.84078400  0.95878600  0.35612300  1
  Mo  Mo4  1  0.66131900  0.11318500  0.06051300  1
  Mo  Mo5  1  0.16131900  0.38681500  0.93948700  1
  Mo  Mo6  1  0.33868100  0.88681500  0.93948700  1
  Mo  Mo7  1  0.83868100  0.61318500  0.06051300  1
  Mo  Mo8  1  0.87645700  0.31262100  0.62123100  1
  Mo  Mo9  1  0.37645700  0.18737900  0.37876900  1
  Mo  Mo10  1  0.12354300  0.68737900  0.37876900  1
  Mo  Mo11  1  0.62354300  0.81262100  0.62123100  1
  P  P12  1  0.82481100  0.15469200  0.96598900  1
  P  P13  1  0.32481100  0.34530800  0.03401100  1
  P  P14  1  0.17518900  0.84530800  0.03401100  1
  P  P15  1  0.67518900  0.65469200  0.96598900  1
  P  P16  1  0.96580200  0.49055700  0.30288700  1
  P  P17  1  0.46580200  0.00944300  0.69711300  1
  P  P18  1  0.03419800  0.50944300  0.69711300  1
  P  P19  1  0.53419800  0.99055700  0.30288700  1
  P  P20  1  0.08964900  0.23371000  0.29220700  1
  P  P21  1  0.58964900  0.26629000  0.70779300  1
  P  P22  1  0.91035100  0.76629000  0.70779300  1
  P  P23  1  0.41035100  0.73371000  0.29220700  1
  O  O24  1  0.65473300  0.42770800  0.05901800  1
  O  O25  1  0.15473300  0.07229200  0.94098200  1
  O  O26  1  0.34526700  0.57229200  0.94098200  1
  O  O27  1  0.84526700  0.92770800  0.05901800  1
  O  O28  1  0.56572700  0.07237800  0.15625500  1
  O  O29  1  0.06572700  0.42762200  0.84374500  1
  O  O30  1  0.43427300  0.92762200  0.84374500  1
  O  O31  1  0.93427300  0.57237800  0.15625500  1
  O  O32  1  0.65256500  0.80582400  0.05186100  1
  O  O33  1  0.15256500  0.69417600  0.94813900  1
  O  O34  1  0.34743500  0.19417600  0.94813900  1
  O  O35  1  0.84743500  0.30582400  0.05186100  1
  O  O36  1  0.70916300  0.04391600  0.21338000  1
  O  O37  1  0.20916300  0.45608400  0.78662000  1
  O  O38  1  0.29083700  0.95608400  0.78662000  1
  O  O39  1  0.79083700  0.54391600  0.21338000  1
  O  O40  1  0.00792300  0.27321100  0.30653700  1
  O  O41  1  0.50792300  0.22678900  0.69346300  1
  O  O42  1  0.99207700  0.72678900  0.69346300  1
  O  O43  1  0.49207700  0.77321100  0.30653700  1
  O  O44  1  0.74693500  0.17136600  0.93264900  1
  O  O45  1  0.24693500  0.32863400  0.06735100  1
  O  O46  1  0.25306500  0.82863400  0.06735100  1
  O  O47  1  0.75306500  0.67136600  0.93264900  1
  O  O48  1  0.79177500  0.31387400  0.57140200  1
  O  O49  1  0.29177500  0.18612600  0.42859800  1
  O  O50  1  0.20822500  0.68612600  0.42859800  1
  O  O51  1  0.70822500  0.81387400  0.57140200  1
  O  O52  1  0.87306500  0.63023500  0.62696400  1
  O  O53  1  0.37306500  0.86976500  0.37303600  1
  O  O54  1  0.12693500  0.36976500  0.37303600  1
  O  O55  1  0.62693500  0.13023500  0.62696400  1
  O  O56  1  0.60753600  0.21349000  0.86208400  1
  O  O57  1  0.10753600  0.28651000  0.13791600  1
  O  O58  1  0.39246400  0.78651000  0.13791600  1
  O  O59  1  0.89246400  0.71349000  0.86208400  1
  O  O60  1  0.90054200  0.00300900  0.62188900  1
  O  O61  1  0.40054200  0.49699100  0.37811100  1
  O  O62  1  0.09945800  0.99699100  0.37811100  1
  O  O63  1  0.59945800  0.50300900  0.62188900  1
  O  O64  1  0.90837700  0.41875600  0.41181200  1
  O  O65  1  0.40837700  0.08124400  0.58818800  1
  O  O66  1  0.09162300  0.58124400  0.58818800  1
  O  O67  1  0.59162300  0.91875600  0.41181200  1
  O  O68  1  0.98384700  0.35141000  0.66500800  1
  O  O69  1  0.48384700  0.14859000  0.33499200  1
  O  O70  1  0.01615300  0.64859000  0.33499200  1
  O  O71  1  0.51615300  0.85141000  0.66500800  1
  O  O72  1  0.86595700  0.20913400  0.82901100  1
  O  O73  1  0.36595700  0.29086600  0.17098900  1
  O  O74  1  0.13404300  0.79086600  0.17098900  1
  O  O75  1  0.63404300  0.70913400  0.82901100  1
