# generated using pymatgen
data_Ta2Co3Si
_symmetry_space_group_name_H-M   'P 1'
_cell_length_a   4.85464174
_cell_length_b   4.85464174
_cell_length_c   7.56431700
_cell_angle_alpha   90.00000000
_cell_angle_beta   90.00000000
_cell_angle_gamma   119.99999648
_symmetry_Int_Tables_number   1
_chemical_formula_structural   Ta2Co3Si
_chemical_formula_sum   'Ta4 Co6 Si2'
_cell_volume   154.38842590
_cell_formula_units_Z   2
loop_
 _symmetry_equiv_pos_site_id
 _symmetry_equiv_pos_as_xyz
  1  'x, y, z'
loop_
 _atom_site_type_symbol
 _atom_site_label
 _atom_site_symmetry_multiplicity
 _atom_site_fract_x
 _atom_site_fract_y
 _atom_site_fract_z
 _atom_site_occupancy
  Ta  Ta0  1  0.33333300  0.66666700  0.44047000  1
  Ta  Ta1  1  0.66666700  0.33333300  0.55953000  1
  Ta  Ta2  1  0.66666700  0.33333300  0.94047000  1
  Ta  Ta3  1  0.33333300  0.66666700  0.05953000  1
  Co  Co4  1  0.83046400  0.16953600  0.25000000  1
  Co  Co5  1  0.83046400  0.66092900  0.25000000  1
  Co  Co6  1  0.33907100  0.16953600  0.25000000  1
  Co  Co7  1  0.16953600  0.83046400  0.75000000  1
  Co  Co8  1  0.16953600  0.33907100  0.75000000  1
  Co  Co9  1  0.66092900  0.83046400  0.75000000  1
  Si  Si10  1  0.00000000  0.00000000  0.50000000  1
  Si  Si11  1  0.00000000  0.00000000  0.00000000  1
