# generated using pymatgen
data_TbSnGe
_symmetry_space_group_name_H-M   'P 1'
_cell_length_a   8.47985497
_cell_length_b   8.47985497
_cell_length_c   4.10968600
_cell_angle_alpha   90.00000000
_cell_angle_beta   90.00000000
_cell_angle_gamma   150.79526048
_symmetry_Int_Tables_number   1
_chemical_formula_structural   TbSnGe
_chemical_formula_sum   'Tb2 Sn2 Ge2'
_cell_volume   144.19316403
_cell_formula_units_Z   2
loop_
 _symmetry_equiv_pos_site_id
 _symmetry_equiv_pos_as_xyz
  1  'x, y, z'
loop_
 _atom_site_type_symbol
 _atom_site_label
 _atom_site_symmetry_multiplicity
 _atom_site_fract_x
 _atom_site_fract_y
 _atom_site_fract_z
 _atom_site_occupancy
  Tb  Tb0  1  0.90561000  0.09439000  0.75000000  1
  Tb  Tb1  1  0.09439000  0.90561000  0.25000000  1
  Sn  Sn2  1  0.25506300  0.74493700  0.75000000  1
  Sn  Sn3  1  0.74493700  0.25506300  0.25000000  1
  Ge  Ge4  1  0.55291100  0.44708900  0.75000000  1
  Ge  Ge5  1  0.44708900  0.55291100  0.25000000  1
