# generated using pymatgen
data_Sr10Mg5Mo4WO30
_symmetry_space_group_name_H-M   'P 1'
_cell_length_a   5.64543500
_cell_length_b   5.65814253
_cell_length_c   23.38010847
_cell_angle_alpha   83.46178734
_cell_angle_beta   83.06846960
_cell_angle_gamma   60.08955288
_symmetry_Int_Tables_number   1
_chemical_formula_structural   Sr10Mg5Mo4WO30
_chemical_formula_sum   'Sr10 Mg5 Mo4 W1 O30'
_cell_volume   641.36724184
_cell_formula_units_Z   1
loop_
 _symmetry_equiv_pos_site_id
 _symmetry_equiv_pos_as_xyz
  1  'x, y, z'
loop_
 _atom_site_type_symbol
 _atom_site_label
 _atom_site_symmetry_multiplicity
 _atom_site_fract_x
 _atom_site_fract_y
 _atom_site_fract_z
 _atom_site_occupancy
  Sr  Sr0  1  0.84974300  0.84966100  0.94949200  1
  Sr  Sr1  1  0.44937700  0.44953500  0.15075700  1
  Sr  Sr2  1  0.04963900  0.04959600  0.35012300  1
  Sr  Sr3  1  0.64962800  0.64963400  0.55012200  1
  Sr  Sr4  1  0.24964400  0.24960600  0.75008500  1
  Sr  Sr5  1  0.55062300  0.55046500  0.84924300  1
  Sr  Sr6  1  0.15025700  0.15033900  0.05050800  1
  Sr  Sr7  1  0.75035600  0.75039400  0.24991500  1
  Sr  Sr8  1  0.35037200  0.35036600  0.44987800  1
  Sr  Sr9  1  0.95036100  0.95040400  0.64987700  1
  Mg  Mg10  1  0.20001500  0.19993800  0.90025400  1
  Mg  Mg11  1  0.79998500  0.80006200  0.09974600  1
  Mg  Mg12  1  0.39999100  0.39996900  0.30007300  1
  Mg  Mg13  1  0.00000000  0.00000000  0.50000000  1
  Mg  Mg14  1  0.60000900  0.60003100  0.69992700  1
  Mo  Mo15  1  0.89999600  0.90000900  0.79995700  1
  Mo  Mo16  1  0.10000400  0.09999100  0.20004300  1
  Mo  Mo17  1  0.70001900  0.70000300  0.39998000  1
  Mo  Mo18  1  0.29998100  0.29999700  0.60002000  1
  W  W19  1  0.50000000  0.50000000  0.00000000  1
  O  O20  1  0.53915100  0.03287200  0.84075700  1
  O  O21  1  0.13792100  0.63325800  0.04083000  1
  O  O22  1  0.73908800  0.23288300  0.24089900  1
  O  O23  1  0.33902900  0.83291200  0.44083000  1
  O  O24  1  0.93909100  0.43289400  0.64077800  1
  O  O25  1  0.86207900  0.36674200  0.95917000  1
  O  O26  1  0.46084900  0.96712800  0.15924300  1
  O  O27  1  0.06090900  0.56710600  0.35922200  1
  O  O28  1  0.66097100  0.16708800  0.55917000  1
  O  O29  1  0.26091200  0.76711700  0.75910100  1
  O  O30  1  0.37020600  0.84556400  0.95357100  1
  O  O31  1  0.97037900  0.44464300  0.15374600  1
  O  O32  1  0.57033800  0.04466500  0.35371000  1
  O  O33  1  0.17031800  0.64478600  0.55367200  1
  O  O34  1  0.77028400  0.24481200  0.75363100  1
  O  O35  1  0.02962100  0.55535700  0.84625400  1
  O  O36  1  0.62979400  0.15443600  0.04642900  1
  O  O37  1  0.22971600  0.75518800  0.24636900  1
  O  O38  1  0.82968200  0.35521400  0.44632800  1
  O  O39  1  0.42966200  0.95533500  0.64629000  1
  O  O40  1  0.00838800  0.04575000  0.85708500  1
  O  O41  1  0.60802300  0.64585400  0.05753300  1
  O  O42  1  0.20829600  0.24570100  0.25724900  1
  O  O43  1  0.80823900  0.84569200  0.45723000  1
  O  O44  1  0.40823700  0.44563000  0.65719400  1
  O  O45  1  0.39197700  0.35414600  0.94246700  1
  O  O46  1  0.99161200  0.95425000  0.14291500  1
  O  O47  1  0.59176300  0.55437000  0.34280600  1
  O  O48  1  0.19176100  0.15430800  0.54277000  1
  O  O49  1  0.79170400  0.75429900  0.74275100  1
