# generated using pymatgen
data_Ta2CdO6
_symmetry_space_group_name_H-M   'P 1'
_cell_length_a   5.18161400
_cell_length_b   6.00252300
_cell_length_c   14.98624000
_cell_angle_alpha   90.00000000
_cell_angle_beta   90.00000000
_cell_angle_gamma   90.00000000
_symmetry_Int_Tables_number   1
_chemical_formula_structural   Ta2CdO6
_chemical_formula_sum   'Ta8 Cd4 O24'
_cell_volume   466.11338424
_cell_formula_units_Z   4
loop_
 _symmetry_equiv_pos_site_id
 _symmetry_equiv_pos_as_xyz
  1  'x, y, z'
loop_
 _atom_site_type_symbol
 _atom_site_label
 _atom_site_symmetry_multiplicity
 _atom_site_fract_x
 _atom_site_fract_y
 _atom_site_fract_z
 _atom_site_occupancy
  Ta  Ta0  1  0.24187700  0.82629700  0.83382000  1
  Ta  Ta1  1  0.75812300  0.17370300  0.16618000  1
  Ta  Ta2  1  0.74187700  0.67370300  0.66618000  1
  Ta  Ta3  1  0.25812300  0.82629700  0.16618000  1
  Ta  Ta4  1  0.25812300  0.32629700  0.33382000  1
  Ta  Ta5  1  0.74187700  0.17370300  0.83382000  1
  Ta  Ta6  1  0.75812300  0.67370300  0.33382000  1
  Ta  Ta7  1  0.24187700  0.32629700  0.66618000  1
  Cd  Cd8  1  0.25000000  0.81792000  0.50000000  1
  Cd  Cd9  1  0.75000000  0.18208000  0.50000000  1
  Cd  Cd10  1  0.75000000  0.68208000  0.00000000  1
  Cd  Cd11  1  0.25000000  0.31792000  0.00000000  1
  O  O12  1  0.11360100  0.62445900  0.91328800  1
  O  O13  1  0.88639900  0.37554100  0.08671200  1
  O  O14  1  0.61360100  0.87554100  0.58671200  1
  O  O15  1  0.38639900  0.62445900  0.08671200  1
  O  O16  1  0.38639900  0.12445900  0.41328800  1
  O  O17  1  0.61360100  0.37554100  0.91328800  1
  O  O18  1  0.88639900  0.87554100  0.41328800  1
  O  O19  1  0.11360100  0.12445900  0.58671200  1
  O  O20  1  0.06135400  0.59137700  0.60540900  1
  O  O21  1  0.93864600  0.40862300  0.39459100  1
  O  O22  1  0.56135400  0.90862300  0.89459100  1
  O  O23  1  0.43864600  0.59137700  0.39459100  1
  O  O24  1  0.43864600  0.09137700  0.10540900  1
  O  O25  1  0.56135400  0.40862300  0.60540900  1
  O  O26  1  0.93864600  0.90862300  0.10540900  1
  O  O27  1  0.06135400  0.09137700  0.89459100  1
  O  O28  1  0.41944900  0.63253900  0.74552900  1
  O  O29  1  0.58055100  0.36746100  0.25447100  1
  O  O30  1  0.91944900  0.86746100  0.75447100  1
  O  O31  1  0.08055100  0.63253900  0.25447100  1
  O  O32  1  0.08055100  0.13253900  0.24552900  1
  O  O33  1  0.91944900  0.36746100  0.74552900  1
  O  O34  1  0.58055100  0.86746100  0.24552900  1
  O  O35  1  0.41944900  0.13253900  0.75447100  1
