# generated using pymatgen
data_Eu3IrO7
_symmetry_space_group_name_H-M   'P 1'
_cell_length_a   6.59374753
_cell_length_b   6.59374753
_cell_length_c   7.54248700
_cell_angle_alpha   90.00000000
_cell_angle_beta   90.00000000
_cell_angle_gamma   110.85993498
_symmetry_Int_Tables_number   1
_chemical_formula_structural   Eu3IrO7
_chemical_formula_sum   'Eu6 Ir2 O14'
_cell_volume   306.43402634
_cell_formula_units_Z   2
loop_
 _symmetry_equiv_pos_site_id
 _symmetry_equiv_pos_as_xyz
  1  'x, y, z'
loop_
 _atom_site_type_symbol
 _atom_site_label
 _atom_site_symmetry_multiplicity
 _atom_site_fract_x
 _atom_site_fract_y
 _atom_site_fract_z
 _atom_site_occupancy
  Eu  Eu0  1  0.00000000  0.00000000  0.00000000  1
  Eu  Eu1  1  0.00000000  0.00000000  0.50000000  1
  Eu  Eu2  1  0.47794600  0.93574900  0.75000000  1
  Eu  Eu3  1  0.52205400  0.06425100  0.25000000  1
  Eu  Eu4  1  0.93574900  0.47794600  0.75000000  1
  Eu  Eu5  1  0.06425100  0.52205400  0.25000000  1
  Ir  Ir6  1  0.50000000  0.50000000  0.00000000  1
  Ir  Ir7  1  0.50000000  0.50000000  0.50000000  1
  O  O8  1  0.58839200  0.58839200  0.75000000  1
  O  O9  1  0.41160800  0.41160800  0.25000000  1
  O  O10  1  0.84276100  0.10823100  0.75000000  1
  O  O11  1  0.15723900  0.89176900  0.25000000  1
  O  O12  1  0.10823100  0.84276100  0.75000000  1
  O  O13  1  0.89176900  0.15723900  0.25000000  1
  O  O14  1  0.44169200  0.19042700  0.96073100  1
  O  O15  1  0.55830800  0.80957300  0.46073100  1
  O  O16  1  0.19042700  0.44169200  0.96073100  1
  O  O17  1  0.80957300  0.55830800  0.46073100  1
  O  O18  1  0.44169200  0.19042700  0.53926900  1
  O  O19  1  0.55830800  0.80957300  0.03926900  1
  O  O20  1  0.80957300  0.55830800  0.03926900  1
  O  O21  1  0.19042700  0.44169200  0.53926900  1
