# generated using pymatgen
data_K3Nd(BO3)2
_symmetry_space_group_name_H-M   'P 1'
_cell_length_a   7.25221800
_cell_length_b   9.15666300
_cell_length_c   11.33934000
_cell_angle_alpha   90.00000000
_cell_angle_beta   90.00000000
_cell_angle_gamma   90.00000000
_symmetry_Int_Tables_number   1
_chemical_formula_structural   K3Nd(BO3)2
_chemical_formula_sum   'K12 Nd4 B8 O24'
_cell_volume   753.00152999
_cell_formula_units_Z   4
loop_
 _symmetry_equiv_pos_site_id
 _symmetry_equiv_pos_as_xyz
  1  'x, y, z'
loop_
 _atom_site_type_symbol
 _atom_site_label
 _atom_site_symmetry_multiplicity
 _atom_site_fract_x
 _atom_site_fract_y
 _atom_site_fract_z
 _atom_site_occupancy
  K  K0  1  0.25000000  0.93897000  0.13041700  1
  K  K1  1  0.75000000  0.06103000  0.86958300  1
  K  K2  1  0.75000000  0.56103000  0.63041700  1
  K  K3  1  0.25000000  0.43897000  0.36958300  1
  K  K4  1  0.50425500  0.69953900  0.90239600  1
  K  K5  1  0.49574500  0.30046100  0.09760400  1
  K  K6  1  0.49574500  0.80046100  0.40239600  1
  K  K7  1  0.00425500  0.30046100  0.09760400  1
  K  K8  1  0.50425500  0.19953900  0.59760400  1
  K  K9  1  0.99574500  0.69953900  0.90239600  1
  K  K10  1  0.99574500  0.19953900  0.59760400  1
  K  K11  1  0.00425500  0.80046100  0.40239600  1
  Nd  Nd12  1  0.25000000  0.87400100  0.66869000  1
  Nd  Nd13  1  0.75000000  0.12599900  0.33131000  1
  Nd  Nd14  1  0.75000000  0.62599900  0.16869000  1
  Nd  Nd15  1  0.25000000  0.37400100  0.83131000  1
  B  B16  1  0.25000000  0.56211700  0.62590400  1
  B  B17  1  0.75000000  0.43788300  0.37409600  1
  B  B18  1  0.75000000  0.93788300  0.12590400  1
  B  B19  1  0.25000000  0.06211700  0.87409600  1
  B  B20  1  0.25000000  0.58943200  0.11683500  1
  B  B21  1  0.75000000  0.41056800  0.88316500  1
  B  B22  1  0.75000000  0.91056800  0.61683500  1
  B  B23  1  0.25000000  0.08943200  0.38316500  1
  O  O24  1  0.08282700  0.62844200  0.16958800  1
  O  O25  1  0.91717300  0.37155800  0.83041200  1
  O  O26  1  0.91717300  0.87155800  0.66958800  1
  O  O27  1  0.58282700  0.37155800  0.83041200  1
  O  O28  1  0.08282700  0.12844200  0.33041200  1
  O  O29  1  0.41717300  0.62844200  0.16958800  1
  O  O30  1  0.41717300  0.12844200  0.33041200  1
  O  O31  1  0.58282700  0.87155800  0.66958800  1
  O  O32  1  0.25000000  0.50910100  0.01155500  1
  O  O33  1  0.75000000  0.49089900  0.98844500  1
  O  O34  1  0.75000000  0.99089900  0.51155500  1
  O  O35  1  0.25000000  0.00910100  0.48844500  1
  O  O36  1  0.25000000  0.62102900  0.74147200  1
  O  O37  1  0.75000000  0.37897100  0.25852800  1
  O  O38  1  0.75000000  0.87897100  0.24147200  1
  O  O39  1  0.25000000  0.12102900  0.75852800  1
  O  O40  1  0.25000000  0.65952600  0.53284200  1
  O  O41  1  0.75000000  0.34047400  0.46715800  1
  O  O42  1  0.75000000  0.84047400  0.03284200  1
  O  O43  1  0.25000000  0.15952600  0.96715800  1
  O  O44  1  0.25000000  0.91219600  0.88532500  1
  O  O45  1  0.75000000  0.08780400  0.11467500  1
  O  O46  1  0.75000000  0.58780400  0.38532500  1
  O  O47  1  0.25000000  0.41219600  0.61467500  1
