# generated using pymatgen
data_CsPPbO4
_symmetry_space_group_name_H-M   'P 1'
_cell_length_a   5.80160800
_cell_length_b   9.16267500
_cell_length_c   10.08387500
_cell_angle_alpha   90.00000000
_cell_angle_beta   90.00000000
_cell_angle_gamma   90.00000000
_symmetry_Int_Tables_number   1
_chemical_formula_structural   CsPPbO4
_chemical_formula_sum   'Cs4 P4 Pb4 O16'
_cell_volume   536.04113391
_cell_formula_units_Z   4
loop_
 _symmetry_equiv_pos_site_id
 _symmetry_equiv_pos_as_xyz
  1  'x, y, z'
loop_
 _atom_site_type_symbol
 _atom_site_label
 _atom_site_symmetry_multiplicity
 _atom_site_fract_x
 _atom_site_fract_y
 _atom_site_fract_z
 _atom_site_occupancy
  Cs  Cs0  1  0.75000000  0.64797000  0.02296800  1
  Cs  Cs1  1  0.75000000  0.85203000  0.52296800  1
  Cs  Cs2  1  0.25000000  0.35203000  0.97703200  1
  Cs  Cs3  1  0.25000000  0.14797000  0.47703200  1
  P  P4  1  0.75000000  0.09064500  0.83503600  1
  P  P5  1  0.75000000  0.40935500  0.33503600  1
  P  P6  1  0.25000000  0.90935500  0.16496400  1
  P  P7  1  0.25000000  0.59064500  0.66496400  1
  Pb  Pb8  1  0.75000000  0.08759200  0.15721600  1
  Pb  Pb9  1  0.75000000  0.41240800  0.65721600  1
  Pb  Pb10  1  0.25000000  0.91240800  0.84278400  1
  Pb  Pb11  1  0.25000000  0.58759200  0.34278400  1
  O  O12  1  0.75000000  0.96540400  0.94211300  1
  O  O13  1  0.75000000  0.53459600  0.44211300  1
  O  O14  1  0.25000000  0.03459600  0.05788700  1
  O  O15  1  0.25000000  0.46540400  0.55788700  1
  O  O16  1  0.75000000  0.24212800  0.90336100  1
  O  O17  1  0.75000000  0.25787200  0.40336100  1
  O  O18  1  0.25000000  0.75787200  0.09663900  1
  O  O19  1  0.25000000  0.74212800  0.59663900  1
  O  O20  1  0.97046000  0.07193000  0.74652000  1
  O  O21  1  0.52954000  0.42807000  0.24652000  1
  O  O22  1  0.47046000  0.92807000  0.25348000  1
  O  O23  1  0.02954000  0.57193000  0.75348000  1
  O  O24  1  0.02954000  0.92807000  0.25348000  1
  O  O25  1  0.47046000  0.57193000  0.75348000  1
  O  O26  1  0.52954000  0.07193000  0.74652000  1
  O  O27  1  0.97046000  0.42807000  0.24652000  1
