# generated using pymatgen
data_Ba2Ni(PO4)2
_symmetry_space_group_name_H-M   'P 1'
_cell_length_a   5.39430304
_cell_length_b   8.93458200
_cell_length_c   16.24997500
_cell_angle_alpha   90.00000000
_cell_angle_beta   90.81521983
_cell_angle_gamma   90.00000000
_symmetry_Int_Tables_number   1
_chemical_formula_structural   Ba2Ni(PO4)2
_chemical_formula_sum   'Ba8 Ni4 P8 O32'
_cell_volume   783.10196742
_cell_formula_units_Z   4
loop_
 _symmetry_equiv_pos_site_id
 _symmetry_equiv_pos_as_xyz
  1  'x, y, z'
loop_
 _atom_site_type_symbol
 _atom_site_label
 _atom_site_symmetry_multiplicity
 _atom_site_fract_x
 _atom_site_fract_y
 _atom_site_fract_z
 _atom_site_occupancy
  Ba  Ba0  1  0.24252700  0.65380700  0.76967100  1
  Ba  Ba1  1  0.25747400  0.15380600  0.73032900  1
  Ba  Ba2  1  0.75747300  0.34619400  0.23032900  1
  Ba  Ba3  1  0.74252600  0.84619300  0.26967100  1
  Ba  Ba4  1  0.80188300  0.20304600  0.48132600  1
  Ba  Ba5  1  0.69811700  0.70304500  0.01867400  1
  Ba  Ba6  1  0.19811700  0.79695500  0.51867400  1
  Ba  Ba7  1  0.30188200  0.29695500  0.98132600  1
  Ni  Ni8  1  0.77454300  0.01156900  0.86667400  1
  Ni  Ni9  1  0.72545700  0.51156900  0.63332600  1
  Ni  Ni10  1  0.27454300  0.48843000  0.36667400  1
  Ni  Ni11  1  0.22545600  0.98843100  0.13332600  1
  P  P12  1  0.74829500  0.88753500  0.66663700  1
  P  P13  1  0.75170300  0.38753500  0.83336400  1
  P  P14  1  0.25170400  0.11246500  0.33336300  1
  P  P15  1  0.24829700  0.61246500  0.16663600  1
  P  P16  1  0.23199300  0.91380600  0.92179100  1
  P  P17  1  0.73199400  0.58619400  0.42179100  1
  P  P18  1  0.76800600  0.08619300  0.07820900  1
  P  P19  1  0.26800700  0.41380700  0.57820900  1
  O  O20  1  0.85247000  0.97000200  0.74456100  1
  O  O21  1  0.64753000  0.47000200  0.75543800  1
  O  O22  1  0.14752900  0.02999900  0.25543900  1
  O  O23  1  0.35247000  0.52999800  0.24456200  1
  O  O24  1  0.45978600  0.88728800  0.66600600  1
  O  O25  1  0.04021500  0.38728900  0.83399400  1
  O  O26  1  0.54021600  0.11271100  0.33399400  1
  O  O27  1  0.95978500  0.61271000  0.16600600  1
  O  O28  1  0.85555400  0.72412700  0.66778300  1
  O  O29  1  0.64444600  0.22412700  0.83221700  1
  O  O30  1  0.14444600  0.27587300  0.33221700  1
  O  O31  1  0.35555500  0.77587300  0.16778300  1
  O  O32  1  0.84695700  0.96993100  0.58904400  1
  O  O33  1  0.65304300  0.46993200  0.91095500  1
  O  O34  1  0.15304200  0.03006800  0.41095600  1
  O  O35  1  0.34695700  0.53006900  0.08904500  1
  O  O36  1  0.46775300  0.86584500  0.87316300  1
  O  O37  1  0.03224500  0.36584600  0.62683700  1
  O  O38  1  0.53224600  0.13415400  0.12683700  1
  O  O39  1  0.96775400  0.63415500  0.37316300  1
  O  O40  1  0.79104900  0.58841000  0.51433300  1
  O  O41  1  0.70895200  0.08841000  0.98566700  1
  O  O42  1  0.20895300  0.41159000  0.48566700  1
  O  O43  1  0.29104800  0.91158900  0.01433300  1
  O  O44  1  0.51461600  0.69498200  0.39998500  1
  O  O45  1  0.98538500  0.19498300  0.10001500  1
  O  O46  1  0.14559100  0.06998300  0.88886700  1
  O  O47  1  0.01461500  0.80501800  0.89998500  1
  O  O48  1  0.64559100  0.43001700  0.38886700  1
  O  O49  1  0.85440900  0.93001700  0.11113300  1
  O  O50  1  0.35441000  0.56998300  0.61113300  1
  O  O51  1  0.48538600  0.30501800  0.60001500  1
