# generated using pymatgen
data_La4CdPt
_symmetry_space_group_name_H-M   'P 1'
_cell_length_a   10.20091334
_cell_length_b   10.20091334
_cell_length_c   10.20091334
_cell_angle_alpha   60.00000000
_cell_angle_beta   60.00000000
_cell_angle_gamma   60.00000000
_symmetry_Int_Tables_number   1
_chemical_formula_structural   La4CdPt
_chemical_formula_sum   'La16 Cd4 Pt4'
_cell_volume   750.58896815
_cell_formula_units_Z   4
loop_
 _symmetry_equiv_pos_site_id
 _symmetry_equiv_pos_as_xyz
  1  'x, y, z'
loop_
 _atom_site_type_symbol
 _atom_site_label
 _atom_site_symmetry_multiplicity
 _atom_site_fract_x
 _atom_site_fract_y
 _atom_site_fract_z
 _atom_site_occupancy
  La  La0  1  0.59905000  0.59905000  0.59905000  1
  La  La1  1  0.59905000  0.59905000  0.20285100  1
  La  La2  1  0.59905000  0.20285100  0.59905000  1
  La  La3  1  0.20285100  0.59905000  0.59905000  1
  La  La4  1  0.05962700  0.44037300  0.44037300  1
  La  La5  1  0.44037300  0.05962700  0.05962700  1
  La  La6  1  0.44037300  0.05962700  0.44037300  1
  La  La7  1  0.05962700  0.44037300  0.05962700  1
  La  La8  1  0.44037300  0.44037300  0.05962700  1
  La  La9  1  0.05962700  0.05962700  0.44037300  1
  La  La10  1  0.18690900  0.81309100  0.81309100  1
  La  La11  1  0.81309100  0.18690900  0.18690900  1
  La  La12  1  0.81309100  0.18690900  0.81309100  1
  La  La13  1  0.18690900  0.81309100  0.18690900  1
  La  La14  1  0.81309100  0.81309100  0.18690900  1
  La  La15  1  0.18690900  0.18690900  0.81309100  1
  Cd  Cd16  1  0.83137000  0.83137000  0.83137000  1
  Cd  Cd17  1  0.83137000  0.83137000  0.50589000  1
  Cd  Cd18  1  0.83137000  0.50589000  0.83137000  1
  Cd  Cd19  1  0.50589000  0.83137000  0.83137000  1
  Pt  Pt20  1  0.39224900  0.39224900  0.39224900  1
  Pt  Pt21  1  0.39224900  0.39224900  0.82325300  1
  Pt  Pt22  1  0.39224900  0.82325300  0.39224900  1
  Pt  Pt23  1  0.82325300  0.39224900  0.39224900  1
