# generated using pymatgen
data_K4V2S4O19
_symmetry_space_group_name_H-M   'P 1'
_cell_length_a   7.96204200
_cell_length_b   10.73223053
_cell_length_c   12.25891434
_cell_angle_alpha   76.58805452
_cell_angle_beta   75.59078340
_cell_angle_gamma   71.21239375
_symmetry_Int_Tables_number   1
_chemical_formula_structural   K4V2S4O19
_chemical_formula_sum   'K8 V4 S8 O38'
_cell_volume   947.26494658
_cell_formula_units_Z   2
loop_
 _symmetry_equiv_pos_site_id
 _symmetry_equiv_pos_as_xyz
  1  'x, y, z'
loop_
 _atom_site_type_symbol
 _atom_site_label
 _atom_site_symmetry_multiplicity
 _atom_site_fract_x
 _atom_site_fract_y
 _atom_site_fract_z
 _atom_site_occupancy
  K  K0  1  0.20431800  0.65201300  0.05415200  1
  K  K1  1  0.79568200  0.34798700  0.94584800  1
  K  K2  1  0.59358100  0.96704200  0.15848900  1
  K  K3  1  0.40641900  0.03295800  0.84151100  1
  K  K4  1  0.93552600  0.83495600  0.44988000  1
  K  K5  1  0.06447400  0.16504400  0.55012000  1
  K  K6  1  0.30557700  0.45531300  0.64451900  1
  K  K7  1  0.69442300  0.54468700  0.35548100  1
  V  V8  1  0.55096700  0.71387500  0.69902700  1
  V  V9  1  0.44903300  0.28612500  0.30097300  1
  V  V10  1  0.88210000  0.77662800  0.81161700  1
  V  V11  1  0.11790000  0.22337200  0.18838300  1
  S  S12  1  0.92139100  0.00184700  0.84960800  1
  S  S13  1  0.07860900  0.99815300  0.15039200  1
  S  S14  1  0.80549800  0.47489200  0.63923200  1
  S  S15  1  0.19450200  0.52510800  0.36076800  1
  S  S16  1  0.42210500  0.82457000  0.50464300  1
  S  S17  1  0.57789500  0.17543000  0.49535700  1
  S  S18  1  0.29966100  0.31808800  0.97231000  1
  S  S19  1  0.70033900  0.68191200  0.02769000  1
  O  O20  1  0.37553200  0.17850600  0.02772800  1
  O  O21  1  0.62446800  0.82149400  0.97227200  1
  O  O22  1  0.63707900  0.52513200  0.73715100  1
  O  O23  1  0.36292100  0.47486800  0.26284900  1
  O  O24  1  0.51228400  0.87483300  0.57853200  1
  O  O25  1  0.48771600  0.12516700  0.42146800  1
  O  O26  1  0.24076200  0.32266800  0.86717600  1
  O  O27  1  0.75923800  0.67733200  0.13282400  1
  O  O28  1  0.98591300  0.85619300  0.90758600  1
  O  O29  1  0.01408700  0.14380700  0.09241400  1
  O  O30  1  0.82627900  0.60292700  0.56721800  1
  O  O31  1  0.17372100  0.39707300  0.43278200  1
  O  O32  1  0.75049600  0.39396300  0.58096800  1
  O  O33  1  0.24950400  0.60603700  0.41903200  1
  O  O34  1  0.43808200  0.68419100  0.57660300  1
  O  O35  1  0.56191800  0.31580900  0.42339700  1
  O  O36  1  0.12130900  0.36771700  0.06468200  1
  O  O37  1  0.87869100  0.63228300  0.93531800  1
  O  O38  1  0.06490800  0.70783300  0.72868700  1
  O  O39  1  0.93509200  0.29216700  0.27131300  1
  O  O40  1  0.82593400  0.97536400  0.76401000  1
  O  O41  1  0.17406600  0.02463600  0.23599000  1
  O  O42  1  0.79080000  0.08393800  0.92916600  1
  O  O43  1  0.20920000  0.91606200  0.07083400  1
  O  O44  1  0.95557900  0.39960100  0.69806600  1
  O  O45  1  0.04442100  0.60039900  0.30193400  1
  O  O46  1  0.23463800  0.90237700  0.50733200  1
  O  O47  1  0.76536200  0.09762300  0.49266800  1
  O  O48  1  0.40930700  0.40697600  0.96263400  1
  O  O49  1  0.59069300  0.59302400  0.03736600  1
  O  O50  1  0.70891600  0.77430000  0.74110300  1
  O  O51  1  0.29108400  0.22570000  0.25889700  1
  O  O52  1  0.07203400  0.05452200  0.78744500  1
  O  O53  1  0.92796600  0.94547800  0.21255500  1
  O  O54  1  0.53315100  0.81625900  0.39120000  1
  O  O55  1  0.46684900  0.18374100  0.60880000  1
  O  O56  1  0.37772000  0.74211800  0.80129100  1
  O  O57  1  0.62228000  0.25788200  0.19870900  1
