# generated using pymatgen
data_Hf5CoP3
_symmetry_space_group_name_H-M   'P 1'
_cell_length_a   3.59249400
_cell_length_b   10.18687800
_cell_length_c   16.98133400
_cell_angle_alpha   90.00000000
_cell_angle_beta   90.00000000
_cell_angle_gamma   90.00000000
_symmetry_Int_Tables_number   1
_chemical_formula_structural   Hf5CoP3
_chemical_formula_sum   'Hf20 Co4 P12'
_cell_volume   621.45396109
_cell_formula_units_Z   4
loop_
 _symmetry_equiv_pos_site_id
 _symmetry_equiv_pos_as_xyz
  1  'x, y, z'
loop_
 _atom_site_type_symbol
 _atom_site_label
 _atom_site_symmetry_multiplicity
 _atom_site_fract_x
 _atom_site_fract_y
 _atom_site_fract_z
 _atom_site_occupancy
  Hf  Hf0  1  0.25000000  0.12185400  0.47626200  1
  Hf  Hf1  1  0.75000000  0.87814600  0.52373800  1
  Hf  Hf2  1  0.75000000  0.62185400  0.02373800  1
  Hf  Hf3  1  0.25000000  0.37814600  0.97626200  1
  Hf  Hf4  1  0.25000000  0.06151200  0.07589100  1
  Hf  Hf5  1  0.75000000  0.93848800  0.92410900  1
  Hf  Hf6  1  0.75000000  0.56151200  0.42410900  1
  Hf  Hf7  1  0.25000000  0.43848800  0.57589100  1
  Hf  Hf8  1  0.25000000  0.48823100  0.27257600  1
  Hf  Hf9  1  0.75000000  0.51176900  0.72742400  1
  Hf  Hf10  1  0.75000000  0.98823100  0.22742400  1
  Hf  Hf11  1  0.25000000  0.01176900  0.77257600  1
  Hf  Hf12  1  0.25000000  0.81500700  0.36811100  1
  Hf  Hf13  1  0.75000000  0.18499300  0.63188900  1
  Hf  Hf14  1  0.75000000  0.31500700  0.13188900  1
  Hf  Hf15  1  0.25000000  0.68499300  0.86811100  1
  Hf  Hf16  1  0.25000000  0.75363600  0.16772800  1
  Hf  Hf17  1  0.75000000  0.24636400  0.83227200  1
  Hf  Hf18  1  0.75000000  0.25363600  0.33227200  1
  Hf  Hf19  1  0.25000000  0.74636400  0.66772800  1
  Co  Co20  1  0.25000000  0.36749900  0.41213900  1
  Co  Co21  1  0.75000000  0.63250100  0.58786100  1
  Co  Co22  1  0.75000000  0.86749900  0.08786100  1
  Co  Co23  1  0.25000000  0.13250100  0.91213900  1
  P  P24  1  0.25000000  0.81100500  0.00932900  1
  P  P25  1  0.75000000  0.18899500  0.99067100  1
  P  P26  1  0.75000000  0.31100500  0.49067100  1
  P  P27  1  0.25000000  0.68899500  0.50932900  1
  P  P28  1  0.25000000  0.50532400  0.11614000  1
  P  P29  1  0.75000000  0.49467600  0.88386000  1
  P  P30  1  0.75000000  0.00532400  0.38386000  1
  P  P31  1  0.25000000  0.99467600  0.61614000  1
  P  P32  1  0.25000000  0.18524200  0.21806000  1
  P  P33  1  0.75000000  0.81475800  0.78194000  1
  P  P34  1  0.75000000  0.68524200  0.28194000  1
  P  P35  1  0.25000000  0.31475800  0.71806000  1
