# generated using pymatgen
data_Na3WN3
_symmetry_space_group_name_H-M   'P 1'
_cell_length_a   8.88625322
_cell_length_b   8.88625322
_cell_length_c   6.44309673
_cell_angle_alpha   69.05732705
_cell_angle_beta   69.05732705
_cell_angle_gamma   77.30630048
_symmetry_Int_Tables_number   1
_chemical_formula_structural   Na3WN3
_chemical_formula_sum   'Na12 W4 N12'
_cell_volume   441.30651765
_cell_formula_units_Z   4
loop_
 _symmetry_equiv_pos_site_id
 _symmetry_equiv_pos_as_xyz
  1  'x, y, z'
loop_
 _atom_site_type_symbol
 _atom_site_label
 _atom_site_symmetry_multiplicity
 _atom_site_fract_x
 _atom_site_fract_y
 _atom_site_fract_z
 _atom_site_occupancy
  Na  Na0  1  0.08079300  0.14861500  0.38837700  1
  Na  Na1  1  0.14861500  0.08079300  0.88837700  1
  Na  Na2  1  0.88239600  0.84770700  0.87306400  1
  Na  Na3  1  0.84770700  0.88239600  0.37306400  1
  Na  Na4  1  0.64035100  0.60800400  0.69287100  1
  Na  Na5  1  0.60800400  0.64035100  0.19287100  1
  Na  Na6  1  0.39539500  0.36547100  0.92549500  1
  Na  Na7  1  0.36547100  0.39539500  0.42549500  1
  Na  Na8  1  0.70488800  0.27452300  0.47137000  1
  Na  Na9  1  0.27452300  0.70488800  0.97137000  1
  Na  Na10  1  0.47082600  0.99545400  0.46839500  1
  Na  Na11  1  0.99545400  0.47082600  0.96839500  1
  W  W12  1  0.50891800  0.99231400  0.92422700  1
  W  W13  1  0.99231400  0.50891800  0.42422700  1
  W  W14  1  0.23813400  0.75981700  0.49171200  1
  W  W15  1  0.75981700  0.23813400  0.99171200  1
  N  N16  1  0.64498300  0.05589200  0.04961000  1
  N  N17  1  0.05589200  0.64498300  0.54961000  1
  N  N18  1  0.87867900  0.32825700  0.66590400  1
  N  N19  1  0.32825700  0.87867900  0.16590400  1
  N  N20  1  0.63708700  0.85687800  0.75558100  1
  N  N21  1  0.85687800  0.63708700  0.25558100  1
  N  N22  1  0.16697200  0.90288800  0.66429100  1
  N  N23  1  0.90288800  0.16697200  0.16429100  1
  N  N24  1  0.39877200  0.61365100  0.59134800  1
  N  N25  1  0.61365100  0.39877200  0.09134800  1
  N  N26  1  0.42457500  0.16781900  0.72595500  1
  N  N27  1  0.16781900  0.42457500  0.22595500  1
