# generated using pymatgen
data_CeTaTiO6
_symmetry_space_group_name_H-M   'P 1'
_cell_length_a   5.36751400
_cell_length_b   7.58220800
_cell_length_c   11.15673900
_cell_angle_alpha   90.00000000
_cell_angle_beta   90.00000000
_cell_angle_gamma   90.00000000
_symmetry_Int_Tables_number   1
_chemical_formula_structural   CeTaTiO6
_chemical_formula_sum   'Ce4 Ta4 Ti4 O24'
_cell_volume   454.05258582
_cell_formula_units_Z   4
loop_
 _symmetry_equiv_pos_site_id
 _symmetry_equiv_pos_as_xyz
  1  'x, y, z'
loop_
 _atom_site_type_symbol
 _atom_site_label
 _atom_site_symmetry_multiplicity
 _atom_site_fract_x
 _atom_site_fract_y
 _atom_site_fract_z
 _atom_site_occupancy
  Ce  Ce0  1  0.45283700  0.74846300  0.95727500  1
  Ce  Ce1  1  0.04716300  0.74846300  0.45727500  1
  Ce  Ce2  1  0.54716300  0.24846300  0.04272500  1
  Ce  Ce3  1  0.95283700  0.24846300  0.54272500  1
  Ta  Ta4  1  0.45990500  0.50581200  0.64440400  1
  Ta  Ta5  1  0.54009500  0.00581200  0.35559600  1
  Ta  Ta6  1  0.95990500  0.00581200  0.85559600  1
  Ta  Ta7  1  0.04009500  0.50581200  0.14440400  1
  Ti  Ti8  1  0.03617700  0.99416500  0.14234800  1
  Ti  Ti9  1  0.96382300  0.49416500  0.85765200  1
  Ti  Ti10  1  0.53617700  0.49416500  0.35765200  1
  Ti  Ti11  1  0.46382300  0.99416500  0.64234800  1
  O  O12  1  0.15807000  0.75138700  0.11965100  1
  O  O13  1  0.34193000  0.75138700  0.61965100  1
  O  O14  1  0.84193000  0.25138700  0.88034900  1
  O  O15  1  0.65807000  0.25138700  0.38034900  1
  O  O16  1  0.05221500  0.74941000  0.85730400  1
  O  O17  1  0.44778500  0.74941000  0.35730400  1
  O  O18  1  0.94778500  0.24941000  0.14269600  1
  O  O19  1  0.55221500  0.24941000  0.64269600  1
  O  O20  1  0.23722700  0.03776300  0.97304500  1
  O  O21  1  0.26611000  0.46248200  0.47563900  1
  O  O22  1  0.76277300  0.53776300  0.02695500  1
  O  O23  1  0.73389000  0.96248200  0.52436100  1
  O  O24  1  0.76611000  0.96248200  0.02436100  1
  O  O25  1  0.73722700  0.53776300  0.52695500  1
  O  O26  1  0.23389000  0.46248200  0.97563900  1
  O  O27  1  0.26277300  0.03776300  0.47304500  1
  O  O28  1  0.62761700  0.55992100  0.79021500  1
  O  O29  1  0.87652900  0.94059800  0.28780700  1
  O  O30  1  0.37238300  0.05992100  0.20978500  1
  O  O31  1  0.12347100  0.44059800  0.71219300  1
  O  O32  1  0.37652900  0.44059800  0.21219300  1
  O  O33  1  0.12761700  0.05992100  0.70978500  1
  O  O34  1  0.62347100  0.94059800  0.78780700  1
  O  O35  1  0.87238300  0.55992100  0.29021500  1
