# generated using pymatgen
data_KTb2Cl7
_symmetry_space_group_name_H-M   'P 1'
_cell_length_a   12.67340900
_cell_length_b   6.97551100
_cell_length_c   13.58142855
_cell_angle_alpha   89.20585760
_cell_angle_beta   90.00000000
_cell_angle_gamma   90.00000000
_symmetry_Int_Tables_number   1
_chemical_formula_structural   KTb2Cl7
_chemical_formula_sum   'K4 Tb8 Cl28'
_cell_volume   1200.53054482
_cell_formula_units_Z   4
loop_
 _symmetry_equiv_pos_site_id
 _symmetry_equiv_pos_as_xyz
  1  'x, y, z'
loop_
 _atom_site_type_symbol
 _atom_site_label
 _atom_site_symmetry_multiplicity
 _atom_site_fract_x
 _atom_site_fract_y
 _atom_site_fract_z
 _atom_site_occupancy
  K  K0  1  0.20023200  0.75490000  0.03714800  1
  K  K1  1  0.79976800  0.24510000  0.96285200  1
  K  K2  1  0.70023200  0.24510000  0.46285200  1
  K  K3  1  0.29976800  0.75490000  0.53714800  1
  Tb  Tb4  1  0.53812400  0.77584700  0.23757600  1
  Tb  Tb5  1  0.46187600  0.22415300  0.76242400  1
  Tb  Tb6  1  0.03812400  0.22415300  0.26242400  1
  Tb  Tb7  1  0.96187600  0.77584700  0.73757600  1
  Tb  Tb8  1  0.84079800  0.72749700  0.24758000  1
  Tb  Tb9  1  0.15920200  0.27250300  0.75242000  1
  Tb  Tb10  1  0.34079800  0.27250300  0.25242000  1
  Tb  Tb11  1  0.65920200  0.72749700  0.74758000  1
  Cl  Cl12  1  0.97481500  0.94582700  0.13588300  1
  Cl  Cl13  1  0.02518500  0.05417300  0.86411700  1
  Cl  Cl14  1  0.47481500  0.05417300  0.36411700  1
  Cl  Cl15  1  0.52518500  0.94582700  0.63588300  1
  Cl  Cl16  1  0.68609100  0.74692000  0.38803100  1
  Cl  Cl17  1  0.31390900  0.25308000  0.61196900  1
  Cl  Cl18  1  0.18609100  0.25308000  0.11196900  1
  Cl  Cl19  1  0.81390900  0.74692000  0.88803100  1
  Cl  Cl20  1  0.67950600  0.51691300  0.17430100  1
  Cl  Cl21  1  0.32049400  0.48308700  0.82569900  1
  Cl  Cl22  1  0.17950600  0.48308700  0.32569900  1
  Cl  Cl23  1  0.82049400  0.51691300  0.67430100  1
  Cl  Cl24  1  0.92535600  0.97806100  0.37664100  1
  Cl  Cl25  1  0.07464400  0.02193900  0.62335900  1
  Cl  Cl26  1  0.42535600  0.02193900  0.12335900  1
  Cl  Cl27  1  0.57464400  0.97806100  0.87664100  1
  Cl  Cl28  1  0.94288800  0.46558500  0.13202900  1
  Cl  Cl29  1  0.05711200  0.53441500  0.86797100  1
  Cl  Cl30  1  0.44288800  0.53441500  0.36797100  1
  Cl  Cl31  1  0.55711200  0.46558500  0.63202900  1
  Cl  Cl32  1  0.70350000  0.99818200  0.17503500  1
  Cl  Cl33  1  0.29650000  0.00181800  0.82496500  1
  Cl  Cl34  1  0.20350000  0.00181800  0.32496500  1
  Cl  Cl35  1  0.79650000  0.99818200  0.67503500  1
  Cl  Cl36  1  0.91262000  0.45696800  0.37498600  1
  Cl  Cl37  1  0.08738000  0.54303200  0.62501400  1
  Cl  Cl38  1  0.41262000  0.54303200  0.12501400  1
  Cl  Cl39  1  0.58738000  0.45696800  0.87498600  1
