# generated using pymatgen
data_LiSmGe
_symmetry_space_group_name_H-M   'P 1'
_cell_length_a   7.22309545
_cell_length_b   7.22309545
_cell_length_c   4.33438400
_cell_angle_alpha   90.00000000
_cell_angle_beta   90.00000000
_cell_angle_gamma   119.99999500
_symmetry_Int_Tables_number   1
_chemical_formula_structural   LiSmGe
_chemical_formula_sum   'Li3 Sm3 Ge3'
_cell_volume   195.84150884
_cell_formula_units_Z   3
loop_
 _symmetry_equiv_pos_site_id
 _symmetry_equiv_pos_as_xyz
  1  'x, y, z'
loop_
 _atom_site_type_symbol
 _atom_site_label
 _atom_site_symmetry_multiplicity
 _atom_site_fract_x
 _atom_site_fract_y
 _atom_site_fract_z
 _atom_site_occupancy
  Li  Li0  1  0.23294100  0.00000000  0.50000000  1
  Li  Li1  1  0.76705900  0.76705900  0.50000000  1
  Li  Li2  1  0.00000000  0.23294100  0.50000000  1
  Sm  Sm3  1  0.00000000  0.57949400  0.00000000  1
  Sm  Sm4  1  0.57949400  0.00000000  0.00000000  1
  Sm  Sm5  1  0.42050600  0.42050600  0.00000000  1
  Ge  Ge6  1  0.33333300  0.66666700  0.50000000  1
  Ge  Ge7  1  0.66666700  0.33333300  0.50000000  1
  Ge  Ge8  1  0.00000000  0.00000000  0.00000000  1
