# generated using pymatgen
data_Ba2U(AsO5)2
_symmetry_space_group_name_H-M   'P 1'
_cell_length_a   8.91421300
_cell_length_b   11.38750300
_cell_length_c   21.73833345
_cell_angle_alpha   74.46553640
_cell_angle_beta   90.00000000
_cell_angle_gamma   90.00000000
_symmetry_Int_Tables_number   1
_chemical_formula_structural   Ba2U(AsO5)2
_chemical_formula_sum   'Ba16 U8 As16 O80'
_cell_volume   2126.06111311
_cell_formula_units_Z   8
loop_
 _symmetry_equiv_pos_site_id
 _symmetry_equiv_pos_as_xyz
  1  'x, y, z'
loop_
 _atom_site_type_symbol
 _atom_site_label
 _atom_site_symmetry_multiplicity
 _atom_site_fract_x
 _atom_site_fract_y
 _atom_site_fract_z
 _atom_site_occupancy
  Ba  Ba0  1  0.01525100  0.44521000  0.78074200  1
  Ba  Ba1  1  0.48474900  0.44521000  0.28074200  1
  Ba  Ba2  1  0.98474900  0.55479000  0.21925800  1
  Ba  Ba3  1  0.51525100  0.55479000  0.71925800  1
  Ba  Ba4  1  0.29557800  0.48539000  0.05580500  1
  Ba  Ba5  1  0.20442200  0.48539000  0.55580500  1
  Ba  Ba6  1  0.70442200  0.51461000  0.94419500  1
  Ba  Ba7  1  0.79557800  0.51461000  0.44419500  1
  Ba  Ba8  1  0.99797300  0.04244900  0.71864200  1
  Ba  Ba9  1  0.50202700  0.04244900  0.21864200  1
  Ba  Ba10  1  0.00202700  0.95755100  0.28135800  1
  Ba  Ba11  1  0.49797300  0.95755100  0.78135800  1
  Ba  Ba12  1  0.29834500  0.96200300  0.56291300  1
  Ba  Ba13  1  0.20165500  0.96200300  0.06291300  1
  Ba  Ba14  1  0.70165500  0.03799700  0.43708700  1
  Ba  Ba15  1  0.79834500  0.03799700  0.93708700  1
  U  U16  1  0.09571400  0.75128300  0.89340400  1
  U  U17  1  0.40428600  0.75128300  0.39340400  1
  U  U18  1  0.90428600  0.24871700  0.10659600  1
  U  U19  1  0.59571400  0.24871700  0.60659600  1
  U  U20  1  0.90601800  0.74935800  0.62688500  1
  U  U21  1  0.59398200  0.74935800  0.12688500  1
  U  U22  1  0.09398200  0.25064200  0.37311500  1
  U  U23  1  0.40601800  0.25064200  0.87311500  1
  As  As24  1  0.22179900  0.27596800  0.20949300  1
  As  As25  1  0.27820100  0.27596800  0.70949300  1
  As  As26  1  0.77820100  0.72403200  0.79050700  1
  As  As27  1  0.72179900  0.72403200  0.29050700  1
  As  As28  1  0.73647900  0.23210200  0.77113500  1
  As  As29  1  0.76352100  0.23210200  0.27113500  1
  As  As30  1  0.26352100  0.76789800  0.22886500  1
  As  As31  1  0.23647900  0.76789800  0.72886500  1
  As  As32  1  0.03599100  0.79832200  0.46467100  1
  As  As33  1  0.46400900  0.79832200  0.96467100  1
  As  As34  1  0.96400900  0.20167800  0.53532900  1
  As  As35  1  0.53599100  0.20167800  0.03532900  1
  As  As36  1  0.95560300  0.71305900  0.04862300  1
  As  As37  1  0.54439700  0.71305900  0.54862300  1
  As  As38  1  0.04439700  0.28694100  0.95137700  1
  As  As39  1  0.45560300  0.28694100  0.45137700  1
  O  O40  1  0.08114700  0.34131200  0.15445300  1
  O  O41  1  0.41885300  0.34131200  0.65445300  1
  O  O42  1  0.91885300  0.65868800  0.84554700  1
  O  O43  1  0.58114700  0.65868800  0.34554700  1
  O  O44  1  0.70109800  0.16804600  0.70751800  1
  O  O45  1  0.79890200  0.16804600  0.20751800  1
  O  O46  1  0.29890200  0.83195400  0.29248200  1
  O  O47  1  0.20109800  0.83195400  0.79248200  1
  O  O48  1  0.59604000  0.16559300  0.82581200  1
  O  O49  1  0.90396000  0.16559300  0.32581200  1
  O  O50  1  0.40396000  0.83440700  0.17418800  1
  O  O51  1  0.09604000  0.83440700  0.67418800  1
  O  O52  1  0.21652100  0.12171700  0.23262600  1
  O  O53  1  0.28347900  0.12171700  0.73262600  1
  O  O54  1  0.78347900  0.87828300  0.76737400  1
  O  O55  1  0.71652100  0.87828300  0.26737400  1
  O  O56  1  0.90352300  0.17532200  0.80416400  1
  O  O57  1  0.59647700  0.17532200  0.30416400  1
  O  O58  1  0.09647700  0.82467800  0.19583600  1
  O  O59  1  0.40352300  0.82467800  0.69583600  1
  O  O60  1  0.17901800  0.34170400  0.27180500  1
  O  O61  1  0.32098200  0.34170400  0.77180500  1
  O  O62  1  0.82098200  0.65829600  0.72819500  1
  O  O63  1  0.67901800  0.65829600  0.22819500  1
  O  O64  1  0.73037200  0.38627600  0.74893900  1
  O  O65  1  0.76962800  0.38627600  0.24893900  1
  O  O66  1  0.26962800  0.61372400  0.25106100  1
  O  O67  1  0.23037200  0.61372400  0.75106100  1
  O  O68  1  0.01585700  0.60849600  0.63431100  1
  O  O69  1  0.48414300  0.60849600  0.13431100  1
  O  O70  1  0.98414300  0.39150400  0.36568900  1
  O  O71  1  0.51585700  0.39150400  0.86568900  1
  O  O72  1  0.98793900  0.89448200  0.87712600  1
  O  O73  1  0.51206100  0.89448200  0.37712600  1
  O  O74  1  0.01206100  0.10551800  0.12287400  1
  O  O75  1  0.48793900  0.10551800  0.62287400  1
  O  O76  1  0.79875500  0.66247100  0.09564900  1
  O  O77  1  0.70124500  0.66247100  0.59564900  1
  O  O78  1  0.20124500  0.33752900  0.90435100  1
  O  O79  1  0.29875500  0.33752900  0.40435100  1
  O  O80  1  0.95650300  0.86806100  0.02241800  1
  O  O81  1  0.54349700  0.86806100  0.52241800  1
  O  O82  1  0.04349700  0.13193900  0.97758200  1
  O  O83  1  0.45650300  0.13193900  0.47758200  1
  O  O84  1  0.01756500  0.85021300  0.53310900  1
  O  O85  1  0.48243500  0.85021300  0.03310900  1
  O  O86  1  0.98243500  0.14978700  0.46689100  1
  O  O87  1  0.51756500  0.14978700  0.96689100  1
  O  O88  1  0.38944800  0.33548800  0.17934400  1
  O  O89  1  0.11055200  0.33548800  0.67934400  1
  O  O90  1  0.61055200  0.66451200  0.82065600  1
  O  O91  1  0.88944800  0.66451200  0.32065600  1
  O  O92  1  0.80355700  0.88843800  0.62407300  1
  O  O93  1  0.69644300  0.88843800  0.12407300  1
  O  O94  1  0.19644300  0.11156200  0.37592700  1
  O  O95  1  0.30355700  0.11156200  0.87592700  1
  O  O96  1  0.00165700  0.64553600  0.48599500  1
  O  O97  1  0.49834300  0.64553600  0.98599500  1
  O  O98  1  0.99834300  0.35446400  0.51400500  1
  O  O99  1  0.50165700  0.35446400  0.01400500  1
  O  O100  1  0.94800300  0.65746600  0.98120900  1
  O  O101  1  0.55199700  0.65746600  0.48120900  1
  O  O102  1  0.05199700  0.34253400  0.01879100  1
  O  O103  1  0.44800300  0.34253400  0.51879100  1
  O  O104  1  0.20391300  0.61021900  0.91088600  1
  O  O105  1  0.29608700  0.61021900  0.41088600  1
  O  O106  1  0.79608700  0.38978100  0.08911400  1
  O  O107  1  0.70391300  0.38978100  0.58911400  1
  O  O108  1  0.91943900  0.88155600  0.40760000  1
  O  O109  1  0.58056100  0.88155600  0.90760000  1
  O  O110  1  0.08056100  0.11844400  0.59240000  1
  O  O111  1  0.41943900  0.11844400  0.09240000  1
  O  O112  1  0.11014900  0.65433900  0.09282200  1
  O  O113  1  0.38985100  0.65433900  0.59282200  1
  O  O114  1  0.88985100  0.34566100  0.90717800  1
  O  O115  1  0.61014900  0.34566100  0.40717800  1
  O  O116  1  0.22412500  0.82857800  0.44365500  1
  O  O117  1  0.27587500  0.82857800  0.94365500  1
  O  O118  1  0.77587500  0.17142200  0.55634500  1
  O  O119  1  0.72412500  0.17142200  0.05634500  1
