# generated using pymatgen
data_EuMgTl
_symmetry_space_group_name_H-M   'P 1'
_cell_length_a   4.95961000
_cell_length_b   8.17292800
_cell_length_c   8.83048000
_cell_angle_alpha   90.00000000
_cell_angle_beta   90.00000000
_cell_angle_gamma   90.00000000
_symmetry_Int_Tables_number   1
_chemical_formula_structural   EuMgTl
_chemical_formula_sum   'Eu4 Mg4 Tl4'
_cell_volume   357.93940450
_cell_formula_units_Z   4
loop_
 _symmetry_equiv_pos_site_id
 _symmetry_equiv_pos_as_xyz
  1  'x, y, z'
loop_
 _atom_site_type_symbol
 _atom_site_label
 _atom_site_symmetry_multiplicity
 _atom_site_fract_x
 _atom_site_fract_y
 _atom_site_fract_z
 _atom_site_occupancy
  Eu  Eu0  1  0.75000000  0.99127100  0.30924700  1
  Eu  Eu1  1  0.25000000  0.00872900  0.69075300  1
  Eu  Eu2  1  0.25000000  0.50872900  0.80924700  1
  Eu  Eu3  1  0.75000000  0.49127100  0.19075300  1
  Mg  Mg4  1  0.75000000  0.83930600  0.93110100  1
  Mg  Mg5  1  0.25000000  0.16069400  0.06889900  1
  Mg  Mg6  1  0.25000000  0.66069400  0.43110100  1
  Mg  Mg7  1  0.75000000  0.33930600  0.56889900  1
  Tl  Tl8  1  0.75000000  0.71665900  0.60753800  1
  Tl  Tl9  1  0.25000000  0.28334100  0.39246200  1
  Tl  Tl10  1  0.25000000  0.78334100  0.10753800  1
  Tl  Tl11  1  0.75000000  0.21665900  0.89246200  1
