# generated using pymatgen
data_CsMnGa2P3(H2O7)2
_symmetry_space_group_name_H-M   'P 1'
_cell_length_a   8.65001282
_cell_length_b   8.65001282
_cell_length_c   8.99723165
_cell_angle_alpha   75.13811944
_cell_angle_beta   75.13811944
_cell_angle_gamma   74.65854193
_symmetry_Int_Tables_number   1
_chemical_formula_structural   CsMnGa2P3(H2O7)2
_chemical_formula_sum   'Cs2 Mn2 Ga4 P6 H8 O28'
_cell_volume   614.50746459
_cell_formula_units_Z   2
loop_
 _symmetry_equiv_pos_site_id
 _symmetry_equiv_pos_as_xyz
  1  'x, y, z'
loop_
 _atom_site_type_symbol
 _atom_site_label
 _atom_site_symmetry_multiplicity
 _atom_site_fract_x
 _atom_site_fract_y
 _atom_site_fract_z
 _atom_site_occupancy
  Cs  Cs0  1  0.63976300  0.36023700  0.75000000  1
  Cs  Cs1  1  0.36023700  0.63976300  0.25000000  1
  Mn  Mn2  1  0.72035300  0.27964700  0.25000000  1
  Mn  Mn3  1  0.27964700  0.72035300  0.75000000  1
  Ga  Ga4  1  0.09722900  0.24635600  0.42636900  1
  Ga  Ga5  1  0.75364400  0.90277100  0.07363100  1
  Ga  Ga6  1  0.90277100  0.75364400  0.57363100  1
  Ga  Ga7  1  0.24635600  0.09722900  0.92636900  1
  P  P8  1  0.42038500  0.16252600  0.17254500  1
  P  P9  1  0.83747400  0.57961500  0.32745500  1
  P  P10  1  0.57961500  0.83747400  0.82745500  1
  P  P11  1  0.16252600  0.42038500  0.67254500  1
  P  P12  1  0.00352800  0.99647200  0.75000000  1
  P  P13  1  0.99647200  0.00352800  0.25000000  1
  H  H14  1  0.46175300  0.21744800  0.50263700  1
  H  H15  1  0.78255200  0.53824700  0.99736300  1
  H  H16  1  0.53824700  0.78255200  0.49736300  1
  H  H17  1  0.21744800  0.46175300  0.00263700  1
  H  H18  1  0.61018400  0.07298200  0.55082900  1
  H  H19  1  0.92701800  0.38981600  0.94917100  1
  H  H20  1  0.38981600  0.92701800  0.44917100  1
  H  H21  1  0.07298200  0.61018400  0.05082900  1
  O  O22  1  0.22397000  0.32400300  0.53662300  1
  O  O23  1  0.67599700  0.77603000  0.96337700  1
  O  O24  1  0.77603000  0.67599700  0.46337700  1
  O  O25  1  0.32400300  0.22397000  0.03662300  1
  O  O26  1  0.29833400  0.12236300  0.33411200  1
  O  O27  1  0.87763700  0.70166600  0.16588800  1
  O  O28  1  0.70166600  0.87763700  0.66588800  1
  O  O29  1  0.12236300  0.29833400  0.83411200  1
  O  O30  1  0.00766200  0.46323700  0.33895300  1
  O  O31  1  0.53676300  0.99233800  0.16104700  1
  O  O32  1  0.99233800  0.53676300  0.66104700  1
  O  O33  1  0.46323700  0.00766200  0.83895300  1
  O  O34  1  0.97363900  0.14629200  0.61540500  1
  O  O35  1  0.85370800  0.02636100  0.88459500  1
  O  O36  1  0.02636100  0.85370800  0.38459500  1
  O  O37  1  0.14629200  0.97363900  0.11540500  1
  O  O38  1  0.97477300  0.16777900  0.30272100  1
  O  O39  1  0.83222100  0.02522700  0.19727900  1
  O  O40  1  0.02522700  0.83222100  0.69727900  1
  O  O41  1  0.16777900  0.97477300  0.80272100  1
  O  O42  1  0.70514700  0.49204900  0.32972200  1
  O  O43  1  0.50795100  0.29485300  0.17027800  1
  O  O44  1  0.29485300  0.50795100  0.67027800  1
  O  O45  1  0.49204900  0.70514700  0.82972200  1
  O  O46  1  0.58184900  0.18544200  0.48949300  1
  O  O47  1  0.81455800  0.41815100  0.01050700  1
  O  O48  1  0.41815100  0.81455800  0.51050700  1
  O  O49  1  0.18544200  0.58184900  0.98949300  1
