# generated using pymatgen
data_Ca2AlPd2
_symmetry_space_group_name_H-M   'P 1'
_cell_length_a   5.78790584
_cell_length_b   5.78790584
_cell_length_c   7.80425805
_cell_angle_alpha   78.99328844
_cell_angle_beta   78.99328844
_cell_angle_gamma   59.92957872
_symmetry_Int_Tables_number   1
_chemical_formula_structural   Ca2AlPd2
_chemical_formula_sum   'Ca4 Al2 Pd4'
_cell_volume   220.69138883
_cell_formula_units_Z   2
loop_
 _symmetry_equiv_pos_site_id
 _symmetry_equiv_pos_as_xyz
  1  'x, y, z'
loop_
 _atom_site_type_symbol
 _atom_site_label
 _atom_site_symmetry_multiplicity
 _atom_site_fract_x
 _atom_site_fract_y
 _atom_site_fract_z
 _atom_site_occupancy
  Ca  Ca0  1  0.78000900  0.52004100  0.35081600  1
  Ca  Ca1  1  0.47995900  0.21999100  0.14918400  1
  Ca  Ca2  1  0.21999100  0.47995900  0.64918400  1
  Ca  Ca3  1  0.52004100  0.78000900  0.85081600  1
  Al  Al4  1  0.12061400  0.87938600  0.25000000  1
  Al  Al5  1  0.87938600  0.12061400  0.75000000  1
  Pd  Pd6  1  0.00441600  0.74082900  0.00344200  1
  Pd  Pd7  1  0.25917100  0.99558400  0.49655800  1
  Pd  Pd8  1  0.99558400  0.25917100  0.99655800  1
  Pd  Pd9  1  0.74082900  0.00441600  0.50344200  1
