# generated using pymatgen
data_Sb28(Mo3Ru)3
_symmetry_space_group_name_H-M   'P 1'
_cell_length_a   8.32853780
_cell_length_b   8.32853780
_cell_length_c   13.61691566
_cell_angle_alpha   89.85112319
_cell_angle_beta   89.85112319
_cell_angle_gamma   70.18343635
_symmetry_Int_Tables_number   1
_chemical_formula_structural   Sb28(Mo3Ru)3
_chemical_formula_sum   'Sb28 Mo9 Ru3'
_cell_volume   888.59415259
_cell_formula_units_Z   1
loop_
 _symmetry_equiv_pos_site_id
 _symmetry_equiv_pos_as_xyz
  1  'x, y, z'
loop_
 _atom_site_type_symbol
 _atom_site_label
 _atom_site_symmetry_multiplicity
 _atom_site_fract_x
 _atom_site_fract_y
 _atom_site_fract_z
 _atom_site_occupancy
  Sb  Sb0  1  0.82731900  0.49941500  0.50042600  1
  Sb  Sb1  1  0.32627900  0.00047000  0.99988600  1
  Sb  Sb2  1  0.00018800  0.67506000  0.00012800  1
  Sb  Sb3  1  0.50064000  0.17511300  0.50022600  1
  Sb  Sb4  1  0.33775200  0.66313100  0.33752300  1
  Sb  Sb5  1  0.83794100  0.16265100  0.83822700  1
  Sb  Sb6  1  0.83785500  0.16353600  0.16195700  1
  Sb  Sb7  1  0.33806100  0.66226400  0.66264900  1
  Sb  Sb8  1  0.17511300  0.50064000  0.50022600  1
  Sb  Sb9  1  0.67506000  0.00018800  0.00012800  1
  Sb  Sb10  1  0.00047000  0.32627900  0.99988600  1
  Sb  Sb11  1  0.49941500  0.82731900  0.50042600  1
  Sb  Sb12  1  0.16353600  0.83785500  0.16195700  1
  Sb  Sb13  1  0.66226400  0.33806100  0.66264900  1
  Sb  Sb14  1  0.66313100  0.33775200  0.33752300  1
  Sb  Sb15  1  0.16265100  0.83794100  0.83822700  1
  Sb  Sb16  1  0.62669300  0.62669300  0.12474700  1
  Sb  Sb17  1  0.12358800  0.12358800  0.62442600  1
  Sb  Sb18  1  0.37401200  0.37401200  0.12796300  1
  Sb  Sb19  1  0.87500200  0.87500200  0.62688600  1
  Sb  Sb20  1  0.00189000  0.50129900  0.24974400  1
  Sb  Sb21  1  0.50105000  0.00059000  0.75101500  1
  Sb  Sb22  1  0.12585900  0.12585900  0.37558000  1
  Sb  Sb23  1  0.62688200  0.62688200  0.87450500  1
  Sb  Sb24  1  0.87477700  0.87477700  0.37239000  1
  Sb  Sb25  1  0.37290100  0.37290100  0.87384200  1
  Sb  Sb26  1  0.50129900  0.00189000  0.24974400  1
  Sb  Sb27  1  0.00059000  0.50105000  0.75101500  1
  Mo  Mo28  1  0.17061800  0.17061800  0.82888000  1
  Mo  Mo29  1  0.84061500  0.15795000  0.49945600  1
  Mo  Mo30  1  0.34250400  0.65775000  0.00037800  1
  Mo  Mo31  1  0.32706600  0.32706600  0.32819500  1
  Mo  Mo32  1  0.82694900  0.82694900  0.82749900  1
  Mo  Mo33  1  0.82782600  0.82782600  0.17201900  1
  Mo  Mo34  1  0.32827200  0.32827200  0.67021000  1
  Mo  Mo35  1  0.65775000  0.34250400  0.00037800  1
  Mo  Mo36  1  0.15795000  0.84061500  0.49945600  1
  Ru  Ru37  1  0.16939600  0.16939600  0.17025000  1
  Ru  Ru38  1  0.66972000  0.66972000  0.66843800  1
  Ru  Ru39  1  0.66911900  0.66911900  0.33094300  1
