# generated using pymatgen
data_EuZnSn
_symmetry_space_group_name_H-M   'P 1'
_cell_length_a   4.80035000
_cell_length_b   7.81925700
_cell_length_c   8.11515600
_cell_angle_alpha   90.00000000
_cell_angle_beta   90.00000000
_cell_angle_gamma   90.00000000
_symmetry_Int_Tables_number   1
_chemical_formula_structural   EuZnSn
_chemical_formula_sum   'Eu4 Zn4 Sn4'
_cell_volume   304.60376280
_cell_formula_units_Z   4
loop_
 _symmetry_equiv_pos_site_id
 _symmetry_equiv_pos_as_xyz
  1  'x, y, z'
loop_
 _atom_site_type_symbol
 _atom_site_label
 _atom_site_symmetry_multiplicity
 _atom_site_fract_x
 _atom_site_fract_y
 _atom_site_fract_z
 _atom_site_occupancy
  Eu  Eu0  1  0.25000000  0.49661000  0.21128200  1
  Eu  Eu1  1  0.75000000  0.50339000  0.78871800  1
  Eu  Eu2  1  0.25000000  0.99661000  0.28871800  1
  Eu  Eu3  1  0.75000000  0.00339000  0.71128200  1
  Zn  Zn4  1  0.75000000  0.32075600  0.41687700  1
  Zn  Zn5  1  0.25000000  0.17924400  0.91687700  1
  Zn  Zn6  1  0.75000000  0.82075600  0.08312300  1
  Zn  Zn7  1  0.25000000  0.67924400  0.58312300  1
  Sn  Sn8  1  0.25000000  0.29186200  0.59082200  1
  Sn  Sn9  1  0.75000000  0.20813800  0.09082200  1
  Sn  Sn10  1  0.25000000  0.79186200  0.90917800  1
  Sn  Sn11  1  0.75000000  0.70813800  0.40917800  1
