# generated using pymatgen
data_Sr2V3HO9
_symmetry_space_group_name_H-M   'P 1'
_cell_length_a   6.23016600
_cell_length_b   7.71827491
_cell_length_c   8.88997106
_cell_angle_alpha   111.61748134
_cell_angle_beta   90.00000000
_cell_angle_gamma   90.00000000
_symmetry_Int_Tables_number   1
_chemical_formula_structural   Sr2V3HO9
_chemical_formula_sum   'Sr4 V6 H2 O18'
_cell_volume   397.41685409
_cell_formula_units_Z   2
loop_
 _symmetry_equiv_pos_site_id
 _symmetry_equiv_pos_as_xyz
  1  'x, y, z'
loop_
 _atom_site_type_symbol
 _atom_site_label
 _atom_site_symmetry_multiplicity
 _atom_site_fract_x
 _atom_site_fract_y
 _atom_site_fract_z
 _atom_site_occupancy
  Sr  Sr0  1  0.75000000  0.32674500  0.40878500  1
  Sr  Sr1  1  0.25000000  0.67325500  0.59121500  1
  Sr  Sr2  1  0.75000000  0.73552500  0.24862000  1
  Sr  Sr3  1  0.25000000  0.26447500  0.75138000  1
  V  V4  1  0.50000000  0.00000000  0.00000000  1
  V  V5  1  0.00000000  0.00000000  0.00000000  1
  V  V6  1  0.25000000  0.03822800  0.34054800  1
  V  V7  1  0.75000000  0.96177200  0.65945200  1
  V  V8  1  0.75000000  0.55776900  0.82241200  1
  V  V9  1  0.25000000  0.44223100  0.17758800  1
  H  H10  1  0.75000000  0.28203000  0.03429400  1
  H  H11  1  0.25000000  0.71797000  0.96570600  1
  O  O12  1  0.49003300  0.98477600  0.22101400  1
  O  O13  1  0.99003300  0.01522400  0.77898600  1
  O  O14  1  0.50996700  0.01522400  0.77898600  1
  O  O15  1  0.00996700  0.98477600  0.22101400  1
  O  O16  1  0.52592300  0.49027100  0.69880900  1
  O  O17  1  0.02592300  0.50972900  0.30119100  1
  O  O18  1  0.47407700  0.50972900  0.30119100  1
  O  O19  1  0.97407700  0.49027100  0.69880900  1
  O  O20  1  0.75000000  0.80666000  0.94174400  1
  O  O21  1  0.25000000  0.19334000  0.05825600  1
  O  O22  1  0.25000000  0.26960100  0.45747400  1
  O  O23  1  0.75000000  0.73039900  0.54252600  1
  O  O24  1  0.75000000  0.18058800  0.08010600  1
  O  O25  1  0.25000000  0.81941200  0.91989400  1
  O  O26  1  0.25000000  0.92033500  0.46902300  1
  O  O27  1  0.75000000  0.07966500  0.53097700  1
  O  O28  1  0.75000000  0.45429700  0.96291900  1
  O  O29  1  0.25000000  0.54570300  0.03708100  1
