# generated using pymatgen
data_Rb5Sb4
_symmetry_space_group_name_H-M   'P 1'
_cell_length_a   7.16049668
_cell_length_b   7.16049668
_cell_length_c   11.75142399
_cell_angle_alpha   69.36141189
_cell_angle_beta   69.36141189
_cell_angle_gamma   47.65575315
_symmetry_Int_Tables_number   1
_chemical_formula_structural   Rb5Sb4
_chemical_formula_sum   'Rb5 Sb4'
_cell_volume   410.94822971
_cell_formula_units_Z   1
loop_
 _symmetry_equiv_pos_site_id
 _symmetry_equiv_pos_as_xyz
  1  'x, y, z'
loop_
 _atom_site_type_symbol
 _atom_site_label
 _atom_site_symmetry_multiplicity
 _atom_site_fract_x
 _atom_site_fract_y
 _atom_site_fract_z
 _atom_site_occupancy
  Rb  Rb0  1  0.75022800  0.75022800  0.66594200  1
  Rb  Rb1  1  0.26005600  0.26005600  0.33211300  1
  Rb  Rb2  1  0.39515900  0.39515900  0.89553300  1
  Rb  Rb3  1  0.60472000  0.60472000  0.10039000  1
  Rb  Rb4  1  0.52807900  0.52807900  0.48354600  1
  Sb  Sb5  1  0.04206200  0.04206200  0.68291000  1
  Sb  Sb6  1  0.95590100  0.95590100  0.31871300  1
  Sb  Sb7  1  0.10031400  0.10031400  0.89042400  1
  Sb  Sb8  1  0.89878000  0.89878000  0.10932900  1
