# generated using pymatgen
data_Ca2P3Pb3ClO12
_symmetry_space_group_name_H-M   'P 1'
_cell_length_a   9.95782712
_cell_length_b   9.95782712
_cell_length_c   7.16791600
_cell_angle_alpha   90.00000000
_cell_angle_beta   90.00000000
_cell_angle_gamma   119.99999416
_symmetry_Int_Tables_number   1
_chemical_formula_structural   Ca2P3Pb3ClO12
_chemical_formula_sum   'Ca4 P6 Pb6 Cl2 O24'
_cell_volume   615.53496657
_cell_formula_units_Z   2
loop_
 _symmetry_equiv_pos_site_id
 _symmetry_equiv_pos_as_xyz
  1  'x, y, z'
loop_
 _atom_site_type_symbol
 _atom_site_label
 _atom_site_symmetry_multiplicity
 _atom_site_fract_x
 _atom_site_fract_y
 _atom_site_fract_z
 _atom_site_occupancy
  Ca  Ca0  1  0.33333300  0.66666700  0.49535500  1
  Ca  Ca1  1  0.66666700  0.33333300  0.50464500  1
  Ca  Ca2  1  0.66666700  0.33333300  0.99535500  1
  Ca  Ca3  1  0.33333300  0.66666700  0.00464500  1
  P  P4  1  0.03335100  0.41997100  0.75000000  1
  P  P5  1  0.96664900  0.58002900  0.25000000  1
  P  P6  1  0.58002900  0.61338100  0.75000000  1
  P  P7  1  0.41997100  0.38661900  0.25000000  1
  P  P8  1  0.38661900  0.96664900  0.75000000  1
  P  P9  1  0.61338100  0.03335100  0.25000000  1
  Pb  Pb10  1  0.24679200  0.25707400  0.75000000  1
  Pb  Pb11  1  0.75320800  0.74292600  0.25000000  1
  Pb  Pb12  1  0.74292600  0.98971800  0.75000000  1
  Pb  Pb13  1  0.25707400  0.01028200  0.25000000  1
  Pb  Pb14  1  0.01028200  0.75320800  0.75000000  1
  Pb  Pb15  1  0.98971800  0.24679200  0.25000000  1
  Cl  Cl16  1  0.00000000  0.00000000  0.50000000  1
  Cl  Cl17  1  0.00000000  0.00000000  0.00000000  1
  O  O18  1  0.13673700  0.60261500  0.75000000  1
  O  O19  1  0.86326300  0.39738500  0.25000000  1
  O  O20  1  0.39738500  0.53412300  0.75000000  1
  O  O21  1  0.60261500  0.46587700  0.25000000  1
  O  O22  1  0.46587700  0.86326300  0.75000000  1
  O  O23  1  0.53412300  0.13673700  0.25000000  1
  O  O24  1  0.50989400  0.14177700  0.75000000  1
  O  O25  1  0.49010600  0.85822300  0.25000000  1
  O  O26  1  0.85822300  0.36811700  0.75000000  1
  O  O27  1  0.14177700  0.63188300  0.25000000  1
  O  O28  1  0.63188300  0.49010600  0.75000000  1
  O  O29  1  0.36811700  0.50989400  0.25000000  1
  O  O30  1  0.08409900  0.36401600  0.57497000  1
  O  O31  1  0.91590100  0.63598400  0.42503000  1
  O  O32  1  0.63598400  0.72008300  0.57497000  1
  O  O33  1  0.91590100  0.63598400  0.07497000  1
  O  O34  1  0.36401600  0.27991700  0.42503000  1
  O  O35  1  0.08409900  0.36401600  0.92503000  1
  O  O36  1  0.27991700  0.91590100  0.57497000  1
  O  O37  1  0.36401600  0.27991700  0.07497000  1
  O  O38  1  0.72008300  0.08409900  0.42503000  1
  O  O39  1  0.63598400  0.72008300  0.92503000  1
  O  O40  1  0.72008300  0.08409900  0.07497000  1
  O  O41  1  0.27991700  0.91590100  0.92503000  1
