# generated using pymatgen
data_TbNiSn2
_symmetry_space_group_name_H-M   'P 1'
_cell_length_a   4.46406900
_cell_length_b   14.71101300
_cell_length_c   16.17929000
_cell_angle_alpha   90.00000000
_cell_angle_beta   90.00000000
_cell_angle_gamma   90.00000000
_symmetry_Int_Tables_number   1
_chemical_formula_structural   TbNiSn2
_chemical_formula_sum   'Tb12 Ni12 Sn24'
_cell_volume   1062.50978295
_cell_formula_units_Z   12
loop_
 _symmetry_equiv_pos_site_id
 _symmetry_equiv_pos_as_xyz
  1  'x, y, z'
loop_
 _atom_site_type_symbol
 _atom_site_label
 _atom_site_symmetry_multiplicity
 _atom_site_fract_x
 _atom_site_fract_y
 _atom_site_fract_z
 _atom_site_occupancy
  Tb  Tb0  1  0.25000000  0.97268900  0.34949000  1
  Tb  Tb1  1  0.25000000  0.52731100  0.84949000  1
  Tb  Tb2  1  0.75000000  0.02731100  0.65051000  1
  Tb  Tb3  1  0.75000000  0.47268900  0.15051000  1
  Tb  Tb4  1  0.25000000  0.27344100  0.87352300  1
  Tb  Tb5  1  0.25000000  0.22655900  0.37352300  1
  Tb  Tb6  1  0.75000000  0.72655900  0.12647700  1
  Tb  Tb7  1  0.75000000  0.77344100  0.62647700  1
  Tb  Tb8  1  0.25000000  0.39729700  0.64558500  1
  Tb  Tb9  1  0.25000000  0.10270300  0.14558500  1
  Tb  Tb10  1  0.75000000  0.60270300  0.35441500  1
  Tb  Tb11  1  0.75000000  0.89729700  0.85441500  1
  Ni  Ni12  1  0.25000000  0.60626800  0.05194500  1
  Ni  Ni13  1  0.25000000  0.89373200  0.55194500  1
  Ni  Ni14  1  0.75000000  0.39373200  0.94805500  1
  Ni  Ni15  1  0.75000000  0.10626800  0.44805500  1
  Ni  Ni16  1  0.25000000  0.74570400  0.30687200  1
  Ni  Ni17  1  0.25000000  0.75429600  0.80687200  1
  Ni  Ni18  1  0.75000000  0.25429600  0.69312800  1
  Ni  Ni19  1  0.75000000  0.24570400  0.19312800  1
  Ni  Ni20  1  0.25000000  0.04739300  0.79951100  1
  Ni  Ni21  1  0.25000000  0.45260700  0.29951100  1
  Ni  Ni22  1  0.75000000  0.95260700  0.20048900  1
  Ni  Ni23  1  0.75000000  0.54739300  0.70048900  1
  Sn  Sn24  1  0.25000000  0.17706900  0.68329100  1
  Sn  Sn25  1  0.25000000  0.32293100  0.18329100  1
  Sn  Sn26  1  0.75000000  0.82293100  0.31670900  1
  Sn  Sn27  1  0.75000000  0.67706900  0.81670900  1
  Sn  Sn28  1  0.25000000  0.05220700  0.95597300  1
  Sn  Sn29  1  0.25000000  0.44779300  0.45597300  1
  Sn  Sn30  1  0.75000000  0.94779300  0.04402700  1
  Sn  Sn31  1  0.75000000  0.55220700  0.54402700  1
  Sn  Sn32  1  0.25000000  0.07770800  0.51945800  1
  Sn  Sn33  1  0.25000000  0.42229200  0.01945800  1
  Sn  Sn34  1  0.75000000  0.92229200  0.48054200  1
  Sn  Sn35  1  0.75000000  0.57770800  0.98054200  1
  Sn  Sn36  1  0.25000000  0.60443000  0.21497800  1
  Sn  Sn37  1  0.25000000  0.89557000  0.71497800  1
  Sn  Sn38  1  0.75000000  0.39557000  0.78502200  1
  Sn  Sn39  1  0.75000000  0.10443000  0.28502200  1
  Sn  Sn40  1  0.25000000  0.73599500  0.46824100  1
  Sn  Sn41  1  0.25000000  0.76400500  0.96824100  1
  Sn  Sn42  1  0.75000000  0.26400500  0.53175900  1
  Sn  Sn43  1  0.75000000  0.23599500  0.03175900  1
  Sn  Sn44  1  0.25000000  0.86902300  0.17556900  1
  Sn  Sn45  1  0.25000000  0.63097700  0.67556900  1
  Sn  Sn46  1  0.75000000  0.13097700  0.82443100  1
  Sn  Sn47  1  0.75000000  0.36902300  0.32443100  1
