# generated using pymatgen
data_K4Zr3Te17
_symmetry_space_group_name_H-M   'P 1'
_cell_length_a   10.41000500
_cell_length_b   11.95038593
_cell_length_c   30.95807513
_cell_angle_alpha   90.00000000
_cell_angle_beta   90.00000000
_cell_angle_gamma   115.75476866
_symmetry_Int_Tables_number   1
_chemical_formula_structural   K4Zr3Te17
_chemical_formula_sum   'K16 Zr12 Te68'
_cell_volume   3468.71561949
_cell_formula_units_Z   4
loop_
 _symmetry_equiv_pos_site_id
 _symmetry_equiv_pos_as_xyz
  1  'x, y, z'
loop_
 _atom_site_type_symbol
 _atom_site_label
 _atom_site_symmetry_multiplicity
 _atom_site_fract_x
 _atom_site_fract_y
 _atom_site_fract_z
 _atom_site_occupancy
  K  K0  1  0.72826743  0.97814756  0.43060664  1
  K  K1  1  0.27173257  0.02185244  0.56939336  1
  K  K2  1  0.27173257  0.52185244  0.93060664  1
  K  K3  1  0.72826743  0.47814756  0.06939336  1
  K  K4  1  0.19675623  0.93547211  0.72092517  1
  K  K5  1  0.80324377  0.06452789  0.27907483  1
  K  K6  1  0.80324377  0.56452789  0.22092517  1
  K  K7  1  0.19675623  0.43547211  0.77907483  1
  K  K8  1  0.76691820  0.96144310  0.98102297  1
  K  K9  1  0.23308180  0.03855690  0.01897703  1
  K  K10  1  0.23308180  0.53855690  0.48102297  1
  K  K11  1  0.76691820  0.46144310  0.51897703  1
  K  K12  1  0.74287260  0.96598365  0.79557526  1
  K  K13  1  0.25712740  0.03401635  0.20442474  1
  K  K14  1  0.25712740  0.53401635  0.29557526  1
  K  K15  1  0.74287260  0.46598365  0.70442474  1
  Zr  Zr16  1  0.61813142  0.82434629  0.61840076  1
  Zr  Zr17  1  0.38186858  0.17565371  0.38159924  1
  Zr  Zr18  1  0.38186858  0.67565371  0.11840076  1
  Zr  Zr19  1  0.61813142  0.32434629  0.88159924  1
  Zr  Zr20  1  0.94831873  0.66413656  0.88297531  1
  Zr  Zr21  1  0.05168127  0.33586344  0.11702469  1
  Zr  Zr22  1  0.05168127  0.83586344  0.38297531  1
  Zr  Zr23  1  0.94831873  0.16413656  0.61702469  1
  Zr  Zr24  1  0.28595529  0.99352600  0.88090785  1
  Zr  Zr25  1  0.71404471  0.00647400  0.11909215  1
  Zr  Zr26  1  0.71404471  0.50647400  0.38090785  1
  Zr  Zr27  1  0.28595529  0.49352600  0.61909215  1
  Te  Te28  1  0.29913741  0.74040378  0.59921539  1
  Te  Te29  1  0.70086259  0.25959622  0.40078461  1
  Te  Te30  1  0.70086259  0.75959622  0.09921539  1
  Te  Te31  1  0.29913741  0.24040378  0.90078461  1
  Te  Te32  1  0.49965532  0.83992314  0.52853786  1
  Te  Te33  1  0.50034468  0.16007686  0.47146214  1
  Te  Te34  1  0.50034468  0.66007686  0.02853786  1
  Te  Te35  1  0.49965532  0.33992314  0.97146214  1
  Te  Te36  1  0.89641490  0.70602427  0.79219576  1
  Te  Te37  1  0.10358510  0.29397573  0.20780424  1
  Te  Te38  1  0.10358510  0.79397573  0.29219576  1
  Te  Te39  1  0.89641490  0.20602427  0.70780424  1
  Te  Te40  1  0.87329254  0.91084113  0.17669320  1
  Te  Te41  1  0.12670746  0.08915887  0.82330680  1
  Te  Te42  1  0.12670746  0.58915887  0.67669320  1
  Te  Te43  1  0.87329254  0.41084113  0.32330680  1
  Te  Te44  1  0.97612961  0.92546049  0.89321390  1
  Te  Te45  1  0.02387039  0.07453951  0.10678610  1
  Te  Te46  1  0.02387039  0.57453951  0.39321390  1
  Te  Te47  1  0.97612961  0.42546049  0.60678610  1
  Te  Te48  1  0.87677124  0.95125393  0.67646999  1
  Te  Te49  1  0.12322876  0.04874607  0.32353001  1
  Te  Te50  1  0.12322876  0.54874607  0.17646999  1
  Te  Te51  1  0.87677124  0.45125393  0.82353001  1
  Te  Te52  1  0.49326973  0.84631549  0.70589551  1
  Te  Te53  1  0.50673027  0.15368451  0.29410449  1
  Te  Te54  1  0.50673027  0.65368451  0.20589551  1
  Te  Te55  1  0.49326973  0.34631549  0.79410449  1
  Te  Te56  1  0.88331014  0.94960647  0.55961276  1
  Te  Te57  1  0.11668986  0.05039353  0.44038724  1
  Te  Te58  1  0.11668986  0.55039353  0.05961276  1
  Te  Te59  1  0.88331014  0.44960647  0.94038724  1
  Te  Te60  1  0.51369501  0.62048389  0.68419884  1
  Te  Te61  1  0.48630499  0.37951611  0.31580116  1
  Te  Te62  1  0.48630499  0.87951611  0.18419884  1
  Te  Te63  1  0.51369501  0.12048389  0.81580116  1
  Te  Te64  1  0.62964475  0.58562707  0.88748352  1
  Te  Te65  1  0.37035525  0.41437293  0.11251648  1
  Te  Te66  1  0.37035525  0.91437293  0.38748352  1
  Te  Te67  1  0.62964475  0.08562707  0.61251648  1
  Te  Te68  1  0.81184744  0.73183220  0.32119999  1
  Te  Te69  1  0.18815256  0.26816780  0.67880001  1
  Te  Te70  1  0.18815256  0.76816780  0.82119999  1
  Te  Te71  1  0.81184744  0.23183220  0.17880001  1
  Te  Te72  1  0.87724154  0.75946681  0.61697619  1
  Te  Te73  1  0.12275846  0.24053319  0.38302381  1
  Te  Te74  1  0.12275846  0.74053319  0.11697619  1
  Te  Te75  1  0.87724154  0.25946681  0.88302381  1
  Te  Te76  1  0.48522328  0.87794657  0.89424562  1
  Te  Te77  1  0.51477672  0.12205343  0.10575438  1
  Te  Te78  1  0.51477672  0.62205343  0.39424562  1
  Te  Te79  1  0.48522328  0.37794657  0.60575438  1
  Te  Te80  1  0.52296508  0.60570462  0.55618654  1
  Te  Te81  1  0.47703492  0.39429538  0.44381346  1
  Te  Te82  1  0.47703492  0.89429538  0.05618654  1
  Te  Te83  1  0.52296508  0.10570462  0.94381346  1
  Te  Te84  1  0.90738501  0.71590250  0.97524507  1
  Te  Te85  1  0.09261499  0.28409750  0.02475493  1
  Te  Te86  1  0.09261499  0.78409750  0.47524507  1
  Te  Te87  1  0.90738501  0.21590250  0.52475493  1
  Te  Te88  1  0.56092604  0.63508023  0.80394735  1
  Te  Te89  1  0.43907396  0.36491977  0.19605265  1
  Te  Te90  1  0.43907396  0.86491977  0.30394735  1
  Te  Te91  1  0.56092604  0.13508023  0.69605265  1
  Te  Te92  1  0.80131235  0.71605255  0.44542575  1
  Te  Te93  1  0.19868765  0.28394745  0.55457425  1
  Te  Te94  1  0.19868765  0.78394745  0.94542575  1
  Te  Te95  1  0.80131235  0.21605255  0.05457425  1
