# generated using pymatgen
data_SrLaCuS3
_symmetry_space_group_name_H-M   'P 1'
_cell_length_a   4.13698300
_cell_length_b   11.23063500
_cell_length_c   11.65317700
_cell_angle_alpha   90.00000000
_cell_angle_beta   90.00000000
_cell_angle_gamma   90.00000000
_symmetry_Int_Tables_number   1
_chemical_formula_structural   SrLaCuS3
_chemical_formula_sum   'Sr4 La4 Cu4 S12'
_cell_volume   541.41762819
_cell_formula_units_Z   4
loop_
 _symmetry_equiv_pos_site_id
 _symmetry_equiv_pos_as_xyz
  1  'x, y, z'
loop_
 _atom_site_type_symbol
 _atom_site_label
 _atom_site_symmetry_multiplicity
 _atom_site_fract_x
 _atom_site_fract_y
 _atom_site_fract_z
 _atom_site_occupancy
  Sr  Sr0  1  0.25000000  0.31866500  0.00767000  1
  Sr  Sr1  1  0.25000000  0.81866500  0.49233000  1
  Sr  Sr2  1  0.75000000  0.68133500  0.99233000  1
  Sr  Sr3  1  0.75000000  0.18133500  0.50767000  1
  La  La4  1  0.25000000  0.48973500  0.68313900  1
  La  La5  1  0.25000000  0.98973500  0.81686100  1
  La  La6  1  0.75000000  0.51026500  0.31686100  1
  La  La7  1  0.75000000  0.01026500  0.18313900  1
  Cu  Cu8  1  0.25000000  0.24475300  0.28835300  1
  Cu  Cu9  1  0.25000000  0.74475300  0.21164700  1
  Cu  Cu10  1  0.75000000  0.75524700  0.71164700  1
  Cu  Cu11  1  0.75000000  0.25524700  0.78835300  1
  S  S12  1  0.25000000  0.22356000  0.69569300  1
  S  S13  1  0.25000000  0.72356000  0.80430700  1
  S  S14  1  0.75000000  0.77644000  0.30430700  1
  S  S15  1  0.75000000  0.27644000  0.19569300  1
  S  S16  1  0.25000000  0.05082500  0.35879900  1
  S  S17  1  0.25000000  0.55082500  0.14120100  1
  S  S18  1  0.75000000  0.94917500  0.64120100  1
  S  S19  1  0.75000000  0.44917500  0.85879900  1
  S  S20  1  0.25000000  0.38376000  0.44132600  1
  S  S21  1  0.25000000  0.88376000  0.05867400  1
  S  S22  1  0.75000000  0.61624000  0.55867400  1
  S  S23  1  0.75000000  0.11624000  0.94132600  1
