# generated using pymatgen
data_Ba3InIr2O9
_symmetry_space_group_name_H-M   'P 1'
_cell_length_a   5.90307756
_cell_length_b   5.90307756
_cell_length_c   14.79761200
_cell_angle_alpha   90.00000000
_cell_angle_beta   90.00000000
_cell_angle_gamma   119.99999506
_symmetry_Int_Tables_number   1
_chemical_formula_structural   Ba3InIr2O9
_chemical_formula_sum   'Ba6 In2 Ir4 O18'
_cell_volume   446.55943309
_cell_formula_units_Z   2
loop_
 _symmetry_equiv_pos_site_id
 _symmetry_equiv_pos_as_xyz
  1  'x, y, z'
loop_
 _atom_site_type_symbol
 _atom_site_label
 _atom_site_symmetry_multiplicity
 _atom_site_fract_x
 _atom_site_fract_y
 _atom_site_fract_z
 _atom_site_occupancy
  Ba  Ba0  1  0.33333300  0.66666700  0.08754600  1
  Ba  Ba1  1  0.66666700  0.33333300  0.91245400  1
  Ba  Ba2  1  0.66666700  0.33333300  0.58754600  1
  Ba  Ba3  1  0.33333300  0.66666700  0.41245400  1
  Ba  Ba4  1  0.00000000  0.00000000  0.25000000  1
  Ba  Ba5  1  0.00000000  0.00000000  0.75000000  1
  In  In6  1  0.00000000  0.00000000  0.00000000  1
  In  In7  1  0.00000000  0.00000000  0.50000000  1
  Ir  Ir8  1  0.33333300  0.66666700  0.65950100  1
  Ir  Ir9  1  0.66666700  0.33333300  0.34049900  1
  Ir  Ir10  1  0.66666700  0.33333300  0.15950100  1
  Ir  Ir11  1  0.33333300  0.66666700  0.84049900  1
  O  O12  1  0.51624700  0.03249400  0.25000000  1
  O  O13  1  0.48375300  0.96750600  0.75000000  1
  O  O14  1  0.96750600  0.48375300  0.25000000  1
  O  O15  1  0.03249400  0.51624700  0.75000000  1
  O  O16  1  0.51624700  0.48375300  0.25000000  1
  O  O17  1  0.48375300  0.51624700  0.75000000  1
  O  O18  1  0.17129400  0.34258800  0.58401600  1
  O  O19  1  0.82870600  0.65741200  0.41598400  1
  O  O20  1  0.65741200  0.82870600  0.58401600  1
  O  O21  1  0.82870600  0.65741200  0.08401600  1
  O  O22  1  0.34258800  0.17129400  0.41598400  1
  O  O23  1  0.17129400  0.34258800  0.91598400  1
  O  O24  1  0.17129400  0.82870600  0.58401600  1
  O  O25  1  0.34258800  0.17129400  0.08401600  1
  O  O26  1  0.82870600  0.17129400  0.41598400  1
  O  O27  1  0.65741200  0.82870600  0.91598400  1
  O  O28  1  0.82870600  0.17129400  0.08401600  1
  O  O29  1  0.17129400  0.82870600  0.91598400  1
