# generated using pymatgen
data_Sc5(Si5Ir2)2
_symmetry_space_group_name_H-M   'P 1'
_cell_length_a   12.40556700
_cell_length_b   12.40556700
_cell_length_c   4.10051700
_cell_angle_alpha   90.00000000
_cell_angle_beta   90.00000000
_cell_angle_gamma   90.00000000
_symmetry_Int_Tables_number   1
_chemical_formula_structural   Sc5(Si5Ir2)2
_chemical_formula_sum   'Sc10 Si20 Ir8'
_cell_volume   631.06174494
_cell_formula_units_Z   2
loop_
 _symmetry_equiv_pos_site_id
 _symmetry_equiv_pos_as_xyz
  1  'x, y, z'
loop_
 _atom_site_type_symbol
 _atom_site_label
 _atom_site_symmetry_multiplicity
 _atom_site_fract_x
 _atom_site_fract_y
 _atom_site_fract_z
 _atom_site_occupancy
  Sc  Sc0  1  0.11395100  0.61395100  0.50000000  1
  Sc  Sc1  1  0.88604900  0.38604900  0.50000000  1
  Sc  Sc2  1  0.61395100  0.88604900  0.50000000  1
  Sc  Sc3  1  0.38604900  0.11395100  0.50000000  1
  Sc  Sc4  1  0.67524400  0.17524400  0.50000000  1
  Sc  Sc5  1  0.32475600  0.82475600  0.50000000  1
  Sc  Sc6  1  0.17524400  0.32475600  0.50000000  1
  Sc  Sc7  1  0.82475600  0.67524400  0.50000000  1
  Sc  Sc8  1  0.00000000  0.00000000  0.00000000  1
  Sc  Sc9  1  0.50000000  0.50000000  0.00000000  1
  Si  Si10  1  0.56608500  0.06608500  0.00000000  1
  Si  Si11  1  0.43391500  0.93391500  0.00000000  1
  Si  Si12  1  0.06608500  0.43391500  0.00000000  1
  Si  Si13  1  0.93391500  0.56608500  0.00000000  1
  Si  Si14  1  0.20162900  0.16443300  0.00000000  1
  Si  Si15  1  0.79837100  0.83556700  0.00000000  1
  Si  Si16  1  0.16443300  0.79837100  0.00000000  1
  Si  Si17  1  0.70162900  0.33556700  0.00000000  1
  Si  Si18  1  0.83556700  0.20162900  0.00000000  1
  Si  Si19  1  0.29837100  0.66443300  0.00000000  1
  Si  Si20  1  0.66443300  0.70162900  0.00000000  1
  Si  Si21  1  0.33556700  0.29837100  0.00000000  1
  Si  Si22  1  0.00364800  0.15183400  0.50000000  1
  Si  Si23  1  0.99635200  0.84816600  0.50000000  1
  Si  Si24  1  0.15183400  0.99635200  0.50000000  1
  Si  Si25  1  0.50364800  0.34816600  0.50000000  1
  Si  Si26  1  0.84816600  0.00364800  0.50000000  1
  Si  Si27  1  0.49635200  0.65183400  0.50000000  1
  Si  Si28  1  0.65183400  0.50364800  0.50000000  1
  Si  Si29  1  0.34816600  0.49635200  0.50000000  1
  Ir  Ir30  1  0.02092000  0.24604600  0.00000000  1
  Ir  Ir31  1  0.97908000  0.75395400  0.00000000  1
  Ir  Ir32  1  0.24604600  0.97908000  0.00000000  1
  Ir  Ir33  1  0.52092000  0.25395400  0.00000000  1
  Ir  Ir34  1  0.75395400  0.02092000  0.00000000  1
  Ir  Ir35  1  0.47908000  0.74604600  0.00000000  1
  Ir  Ir36  1  0.74604600  0.52092000  0.00000000  1
  Ir  Ir37  1  0.25395400  0.47908000  0.00000000  1
