# generated using pymatgen
data_BaMn8O16
_symmetry_space_group_name_H-M   'P 1'
_cell_length_a   5.94427900
_cell_length_b   9.96753500
_cell_length_c   14.02129618
_cell_angle_alpha   45.36989627
_cell_angle_beta   90.00000000
_cell_angle_gamma   90.00000000
_symmetry_Int_Tables_number   1
_chemical_formula_structural   BaMn8O16
_chemical_formula_sum   'Ba2 Mn16 O32'
_cell_volume   591.21556846
_cell_formula_units_Z   2
loop_
 _symmetry_equiv_pos_site_id
 _symmetry_equiv_pos_as_xyz
  1  'x, y, z'
loop_
 _atom_site_type_symbol
 _atom_site_label
 _atom_site_symmetry_multiplicity
 _atom_site_fract_x
 _atom_site_fract_y
 _atom_site_fract_z
 _atom_site_occupancy
  Ba  Ba0  1  0.87149400  0.50000000  0.75000000  1
  Ba  Ba1  1  0.12850600  0.50000000  0.25000000  1
  Mn  Mn2  1  0.37422600  0.31613900  0.08387700  1
  Mn  Mn3  1  0.62577400  0.68386100  0.91612300  1
  Mn  Mn4  1  0.37422600  0.68386100  0.41612300  1
  Mn  Mn5  1  0.62577400  0.31613900  0.58387700  1
  Mn  Mn6  1  0.12402900  0.01346800  0.40201300  1
  Mn  Mn7  1  0.87597100  0.98653200  0.59798700  1
  Mn  Mn8  1  0.12402900  0.98653200  0.09798700  1
  Mn  Mn9  1  0.87597100  0.01346800  0.90201300  1
  Mn  Mn10  1  0.62472700  0.02109600  0.39798700  1
  Mn  Mn11  1  0.37527300  0.97890400  0.60201300  1
  Mn  Mn12  1  0.62472700  0.97890400  0.10201300  1
  Mn  Mn13  1  0.37527300  0.02109600  0.89798700  1
  Mn  Mn14  1  0.87445300  0.31592300  0.08697800  1
  Mn  Mn15  1  0.12554700  0.68407700  0.91302200  1
  Mn  Mn16  1  0.87445300  0.68407700  0.41302200  1
  Mn  Mn17  1  0.12554700  0.31592300  0.58697800  1
  O  O18  1  0.12513500  0.21928200  0.20775600  1
  O  O19  1  0.87486500  0.78071800  0.79224400  1
  O  O20  1  0.12513500  0.78071800  0.29224400  1
  O  O21  1  0.87486500  0.21928200  0.70775600  1
  O  O22  1  0.12057400  0.44700500  0.95420400  1
  O  O23  1  0.87942600  0.55299500  0.04579600  1
  O  O24  1  0.12057400  0.55299500  0.54579600  1
  O  O25  1  0.87942600  0.44700500  0.45420400  1
  O  O26  1  0.37071200  0.55566000  0.04424800  1
  O  O27  1  0.62928800  0.44434000  0.95575200  1
  O  O28  1  0.37071200  0.44434000  0.45575200  1
  O  O29  1  0.62928800  0.55566000  0.54424800  1
  O  O30  1  0.87590300  0.11961000  0.08945900  1
  O  O31  1  0.12409700  0.88039000  0.91054100  1
  O  O32  1  0.87590300  0.88039000  0.41054100  1
  O  O33  1  0.12409700  0.11961000  0.58945900  1
  O  O34  1  0.88477900  0.14760100  0.40613900  1
  O  O35  1  0.11522100  0.85239900  0.59386100  1
  O  O36  1  0.88477900  0.85239900  0.09386100  1
  O  O37  1  0.11522100  0.14760100  0.90613900  1
  O  O38  1  0.37255100  0.88390500  0.40823700  1
  O  O39  1  0.62744900  0.11609500  0.59176300  1
  O  O40  1  0.37255100  0.11609500  0.09176300  1
  O  O41  1  0.62744900  0.88390500  0.90823700  1
  O  O42  1  0.63167600  0.85951400  0.59094500  1
  O  O43  1  0.36832400  0.14048600  0.40905500  1
  O  O44  1  0.63167600  0.14048600  0.90905500  1
  O  O45  1  0.36832400  0.85951400  0.09094500  1
  O  O46  1  0.62448200  0.21559900  0.20652200  1
  O  O47  1  0.37551800  0.78440100  0.79347800  1
  O  O48  1  0.62448200  0.78440100  0.29347800  1
  O  O49  1  0.37551800  0.21559900  0.70652200  1
