# generated using pymatgen
data_BaErCuSe3
_symmetry_space_group_name_H-M   'P 1'
_cell_length_a   7.33970433
_cell_length_b   7.33970433
_cell_length_c   10.57862400
_cell_angle_alpha   90.00000000
_cell_angle_beta   90.00000000
_cell_angle_gamma   147.12245649
_symmetry_Int_Tables_number   1
_chemical_formula_structural   BaErCuSe3
_chemical_formula_sum   'Ba2 Er2 Cu2 Se6'
_cell_volume   309.35875804
_cell_formula_units_Z   2
loop_
 _symmetry_equiv_pos_site_id
 _symmetry_equiv_pos_as_xyz
  1  'x, y, z'
loop_
 _atom_site_type_symbol
 _atom_site_label
 _atom_site_symmetry_multiplicity
 _atom_site_fract_x
 _atom_site_fract_y
 _atom_site_fract_z
 _atom_site_occupancy
  Ba  Ba0  1  0.25257400  0.74742600  0.25000000  1
  Ba  Ba1  1  0.74742600  0.25257400  0.75000000  1
  Er  Er2  1  0.00000000  0.00000000  0.50000000  1
  Er  Er3  1  0.00000000  0.00000000  0.00000000  1
  Cu  Cu4  1  0.53330600  0.46669400  0.25000000  1
  Cu  Cu5  1  0.46669400  0.53330600  0.75000000  1
  Se  Se6  1  0.63353300  0.36646700  0.44104700  1
  Se  Se7  1  0.36646700  0.63353300  0.55895300  1
  Se  Se8  1  0.63353300  0.36646700  0.05895300  1
  Se  Se9  1  0.36646700  0.63353300  0.94104700  1
  Se  Se10  1  0.93170400  0.06829600  0.25000000  1
  Se  Se11  1  0.06829600  0.93170400  0.75000000  1
