# generated using pymatgen
data_CeSi2Ni
_symmetry_space_group_name_H-M   'P 1'
_cell_length_a   8.39465356
_cell_length_b   8.39465356
_cell_length_c   4.05536600
_cell_angle_alpha   90.00000000
_cell_angle_beta   90.00000000
_cell_angle_gamma   151.70660033
_symmetry_Int_Tables_number   1
_chemical_formula_structural   CeSi2Ni
_chemical_formula_sum   'Ce2 Si4 Ni2'
_cell_volume   135.45712003
_cell_formula_units_Z   2
loop_
 _symmetry_equiv_pos_site_id
 _symmetry_equiv_pos_as_xyz
  1  'x, y, z'
loop_
 _atom_site_type_symbol
 _atom_site_label
 _atom_site_symmetry_multiplicity
 _atom_site_fract_x
 _atom_site_fract_y
 _atom_site_fract_z
 _atom_site_occupancy
  Ce  Ce0  1  0.10603700  0.89396300  0.25000000  1
  Ce  Ce1  1  0.89396300  0.10603700  0.75000000  1
  Si  Si2  1  0.75070300  0.24929700  0.25000000  1
  Si  Si3  1  0.24929700  0.75070300  0.75000000  1
  Si  Si4  1  0.53966400  0.46033600  0.75000000  1
  Si  Si5  1  0.46033600  0.53966400  0.25000000  1
  Ni  Ni6  1  0.68059800  0.31940200  0.75000000  1
  Ni  Ni7  1  0.31940200  0.68059800  0.25000000  1
