# generated using pymatgen
data_K4GeO4
_symmetry_space_group_name_H-M   'P 1'
_cell_length_a   6.65846400
_cell_length_b   10.60092900
_cell_length_c   10.66955962
_cell_angle_alpha   68.56734329
_cell_angle_beta   90.00000000
_cell_angle_gamma   90.00000000
_symmetry_Int_Tables_number   1
_chemical_formula_structural   K4GeO4
_chemical_formula_sum   'K16 Ge4 O16'
_cell_volume   701.04049439
_cell_formula_units_Z   4
loop_
 _symmetry_equiv_pos_site_id
 _symmetry_equiv_pos_as_xyz
  1  'x, y, z'
loop_
 _atom_site_type_symbol
 _atom_site_label
 _atom_site_symmetry_multiplicity
 _atom_site_fract_x
 _atom_site_fract_y
 _atom_site_fract_z
 _atom_site_occupancy
  K  K0  1  0.19385400  0.92942300  0.20182700  1
  K  K1  1  0.30614600  0.92942300  0.70182700  1
  K  K2  1  0.60528600  0.66134100  0.91164500  1
  K  K3  1  0.90922200  0.44376400  0.19192800  1
  K  K4  1  0.40922200  0.55623600  0.30807200  1
  K  K5  1  0.09077800  0.55623600  0.80807200  1
  K  K6  1  0.59077800  0.44376400  0.69192800  1
  K  K7  1  0.16427100  0.13442900  0.38932500  1
  K  K8  1  0.66427100  0.86557100  0.11067500  1
  K  K9  1  0.83572900  0.86557100  0.61067500  1
  K  K10  1  0.33572900  0.13442900  0.88932500  1
  K  K11  1  0.89471400  0.66134100  0.41164500  1
  K  K12  1  0.39471400  0.33865900  0.08835500  1
  K  K13  1  0.10528600  0.33865900  0.58835500  1
  K  K14  1  0.69385400  0.07057700  0.29817300  1
  K  K15  1  0.80614600  0.07057700  0.79817300  1
  Ge  Ge16  1  0.63374300  0.25697100  0.49237600  1
  Ge  Ge17  1  0.36625700  0.74302900  0.50762400  1
  Ge  Ge18  1  0.86625700  0.25697100  0.99237600  1
  Ge  Ge19  1  0.13374300  0.74302900  0.00762400  1
  O  O20  1  0.00271000  0.27423200  0.84182300  1
  O  O21  1  0.25613900  0.58077000  0.53339500  1
  O  O22  1  0.75613900  0.41923000  0.96660500  1
  O  O23  1  0.02945100  0.20032500  0.13797600  1
  O  O24  1  0.52945100  0.79967500  0.36202400  1
  O  O25  1  0.97054900  0.79967500  0.86202400  1
  O  O26  1  0.47054900  0.20032500  0.63797600  1
  O  O27  1  0.66696300  0.13414300  0.02163900  1
  O  O28  1  0.16696300  0.86585700  0.47836100  1
  O  O29  1  0.33303700  0.86585700  0.97836100  1
  O  O30  1  0.83303700  0.13414300  0.52163900  1
  O  O31  1  0.49729000  0.27423200  0.34182300  1
  O  O32  1  0.74386100  0.41923000  0.46660500  1
  O  O33  1  0.99729000  0.72576800  0.15817700  1
  O  O34  1  0.50271000  0.72576800  0.65817700  1
  O  O35  1  0.24386100  0.58077000  0.03339500  1
