# generated using pymatgen
data_NaHoCl4
_symmetry_space_group_name_H-M   'P 1'
_cell_length_a   6.65549000
_cell_length_b   6.74533073
_cell_length_c   7.04204563
_cell_angle_alpha   89.27903977
_cell_angle_beta   87.74604610
_cell_angle_gamma   78.36107275
_symmetry_Int_Tables_number   1
_chemical_formula_structural   NaHoCl4
_chemical_formula_sum   'Na2 Ho2 Cl8'
_cell_volume   309.39850988
_cell_formula_units_Z   2
loop_
 _symmetry_equiv_pos_site_id
 _symmetry_equiv_pos_as_xyz
  1  'x, y, z'
loop_
 _atom_site_type_symbol
 _atom_site_label
 _atom_site_symmetry_multiplicity
 _atom_site_fract_x
 _atom_site_fract_y
 _atom_site_fract_z
 _atom_site_occupancy
  Na  Na0  1  0.23145300  0.19776900  0.53538100  1
  Na  Na1  1  0.76854700  0.80223100  0.46461900  1
  Ho  Ho2  1  0.78908700  0.29994100  0.05492100  1
  Ho  Ho3  1  0.21091300  0.70005900  0.94507900  1
  Cl  Cl4  1  0.61241300  0.20753300  0.36441100  1
  Cl  Cl5  1  0.38758700  0.79246700  0.63558900  1
  Cl  Cl6  1  0.09649100  0.00169200  0.20464000  1
  Cl  Cl7  1  0.90350900  0.99830800  0.79536000  1
  Cl  Cl8  1  0.04658700  0.50296900  0.24000300  1
  Cl  Cl9  1  0.95341300  0.49703100  0.75999700  1
  Cl  Cl10  1  0.56507500  0.68580600  0.11800300  1
  Cl  Cl11  1  0.43492500  0.31419400  0.88199700  1
