# generated using pymatgen
data_Sr2H6Pt
_symmetry_space_group_name_H-M   'P 1'
_cell_length_a   7.43617137
_cell_length_b   7.43617137
_cell_length_c   5.64518200
_cell_angle_alpha   90.00000000
_cell_angle_beta   90.00000000
_cell_angle_gamma   135.41019361
_symmetry_Int_Tables_number   1
_chemical_formula_structural   Sr2H6Pt
_chemical_formula_sum   'Sr4 H12 Pt2'
_cell_volume   219.14428515
_cell_formula_units_Z   2
loop_
 _symmetry_equiv_pos_site_id
 _symmetry_equiv_pos_as_xyz
  1  'x, y, z'
loop_
 _atom_site_type_symbol
 _atom_site_label
 _atom_site_symmetry_multiplicity
 _atom_site_fract_x
 _atom_site_fract_y
 _atom_site_fract_z
 _atom_site_occupancy
  Sr  Sr0  1  0.64605400  0.35394600  0.00000000  1
  Sr  Sr1  1  0.35394600  0.64605400  0.00000000  1
  Sr  Sr2  1  0.85394600  0.14605400  0.50000000  1
  Sr  Sr3  1  0.14605400  0.85394600  0.50000000  1
  H  H4  1  0.87881700  0.12118300  0.00000000  1
  H  H5  1  0.12118300  0.87881700  0.00000000  1
  H  H6  1  0.62118300  0.37881700  0.50000000  1
  H  H7  1  0.37881700  0.62118300  0.50000000  1
  H  H8  1  0.00125700  0.50125700  0.25000000  1
  H  H9  1  0.99874300  0.49874300  0.75000000  1
  H  H10  1  0.49874300  0.99874300  0.75000000  1
  H  H11  1  0.50125700  0.00125700  0.25000000  1
  H  H12  1  0.20697000  0.20697000  0.22019600  1
  H  H13  1  0.79303000  0.79303000  0.77980400  1
  H  H14  1  0.29303000  0.29303000  0.72019600  1
  H  H15  1  0.70697000  0.70697000  0.27980400  1
  Pt  Pt16  1  0.00000000  0.00000000  0.00000000  1
  Pt  Pt17  1  0.50000000  0.50000000  0.50000000  1
