# generated using pymatgen
data_KNa2Si12(BO10)3
_symmetry_space_group_name_H-M   'P 1'
_cell_length_a   10.37433691
_cell_length_b   10.37433691
_cell_length_c   13.68720000
_cell_angle_alpha   90.00000000
_cell_angle_beta   90.00000000
_cell_angle_gamma   119.99999307
_symmetry_Int_Tables_number   1
_chemical_formula_structural   KNa2Si12(BO10)3
_chemical_formula_sum   'K2 Na4 Si24 B6 O60'
_cell_volume   1275.75115752
_cell_formula_units_Z   2
loop_
 _symmetry_equiv_pos_site_id
 _symmetry_equiv_pos_as_xyz
  1  'x, y, z'
loop_
 _atom_site_type_symbol
 _atom_site_label
 _atom_site_symmetry_multiplicity
 _atom_site_fract_x
 _atom_site_fract_y
 _atom_site_fract_z
 _atom_site_occupancy
  K  K0  1  0.00000000  0.00000000  0.75000000  1
  K  K1  1  0.00000000  0.00000000  0.25000000  1
  Na  Na2  1  0.66666700  0.33333300  0.25000000  1
  Na  Na3  1  0.66666700  0.33333300  0.75000000  1
  Na  Na4  1  0.33333300  0.66666700  0.75000000  1
  Na  Na5  1  0.33333300  0.66666700  0.25000000  1
  Si  Si6  1  0.26920900  0.33781200  0.38703900  1
  Si  Si7  1  0.06860300  0.73079100  0.61296100  1
  Si  Si8  1  0.26920900  0.33781200  0.61296100  1
  Si  Si9  1  0.73079100  0.06860300  0.88703900  1
  Si  Si10  1  0.33781200  0.26920900  0.88703900  1
  Si  Si11  1  0.66218800  0.73079100  0.88703900  1
  Si  Si12  1  0.26920900  0.93139700  0.88703900  1
  Si  Si13  1  0.93139700  0.66218800  0.88703900  1
  Si  Si14  1  0.06860300  0.73079100  0.38703900  1
  Si  Si15  1  0.06860300  0.33781200  0.88703900  1
  Si  Si16  1  0.66218800  0.93139700  0.38703900  1
  Si  Si17  1  0.66218800  0.93139700  0.61296100  1
  Si  Si18  1  0.93139700  0.66218800  0.11296100  1
  Si  Si19  1  0.93139700  0.26920900  0.38703900  1
  Si  Si20  1  0.73079100  0.66218800  0.38703900  1
  Si  Si21  1  0.26920900  0.93139700  0.11296100  1
  Si  Si22  1  0.66218800  0.73079100  0.11296100  1
  Si  Si23  1  0.33781200  0.26920900  0.11296100  1
  Si  Si24  1  0.73079100  0.06860300  0.11296100  1
  Si  Si25  1  0.06860300  0.33781200  0.11296100  1
  Si  Si26  1  0.33781200  0.06860300  0.61296100  1
  Si  Si27  1  0.73079100  0.66218800  0.61296100  1
  Si  Si28  1  0.93139700  0.26920900  0.61296100  1
  Si  Si29  1  0.33781200  0.06860300  0.38703900  1
  B  B30  1  0.00000000  0.50000000  0.25000000  1
  B  B31  1  0.50000000  0.50000000  0.75000000  1
  B  B32  1  0.50000000  0.00000000  0.75000000  1
  B  B33  1  0.00000000  0.50000000  0.75000000  1
  B  B34  1  0.50000000  0.50000000  0.25000000  1
  B  B35  1  0.50000000  0.00000000  0.25000000  1
  O  O36  1  0.18903200  0.28222500  0.13207200  1
  O  O37  1  0.09977300  0.62896300  0.68781700  1
  O  O38  1  0.09977300  0.47081100  0.81218300  1
  O  O39  1  0.52918900  0.90022700  0.68781700  1
  O  O40  1  0.47081100  0.09977300  0.68781700  1
  O  O41  1  0.62896300  0.52918900  0.68781700  1
  O  O42  1  0.37103700  0.47081100  0.68781700  1
  O  O43  1  0.62896300  0.09977300  0.81218300  1
  O  O44  1  0.47081100  0.37103700  0.81218300  1
  O  O45  1  0.52918900  0.62896300  0.81218300  1
  O  O46  1  0.37103700  0.90022700  0.81218300  1
  O  O47  1  0.90022700  0.52918900  0.81218300  1
  O  O48  1  0.09977300  0.62896300  0.31218300  1
  O  O49  1  0.37103700  0.47081100  0.31218300  1
  O  O50  1  0.52918900  0.90022700  0.31218300  1
  O  O51  1  0.47081100  0.09977300  0.31218300  1
  O  O52  1  0.90022700  0.52918900  0.18781700  1
  O  O53  1  0.90022700  0.37103700  0.31218300  1
  O  O54  1  0.62896300  0.52918900  0.31218300  1
  O  O55  1  0.37103700  0.90022700  0.18781700  1
  O  O56  1  0.52918900  0.62896300  0.18781700  1
  O  O57  1  0.47081100  0.37103700  0.18781700  1
  O  O58  1  0.62896300  0.09977300  0.18781700  1
  O  O59  1  0.09319300  0.28222500  0.63207200  1
  O  O60  1  0.81096800  0.09319300  0.63207200  1
  O  O61  1  0.90680700  0.71777500  0.63207200  1
  O  O62  1  0.28222500  0.18903200  0.63207200  1
  O  O63  1  0.71777500  0.81096800  0.63207200  1
  O  O64  1  0.18903200  0.28222500  0.86792800  1
  O  O65  1  0.18903200  0.90680700  0.63207200  1
  O  O66  1  0.08226300  0.39419800  0.00000000  1
  O  O67  1  0.68806500  0.08226300  0.00000000  1
  O  O68  1  0.39419800  0.31193500  0.00000000  1
  O  O69  1  0.60580200  0.68806500  0.00000000  1
  O  O70  1  0.31193500  0.91773700  0.00000000  1
  O  O71  1  0.68806500  0.60580200  0.50000000  1
  O  O72  1  0.91773700  0.31193500  0.50000000  1
  O  O73  1  0.91773700  0.60580200  0.00000000  1
  O  O74  1  0.39419800  0.08226300  0.50000000  1
  O  O75  1  0.60580200  0.91773700  0.50000000  1
  O  O76  1  0.31193500  0.39419800  0.50000000  1
  O  O77  1  0.08226300  0.68806500  0.50000000  1
  O  O78  1  0.90022700  0.37103700  0.68781700  1
  O  O79  1  0.90680700  0.18903200  0.13207200  1
  O  O80  1  0.28222500  0.09319300  0.13207200  1
  O  O81  1  0.71777500  0.90680700  0.13207200  1
  O  O82  1  0.09319300  0.81096800  0.13207200  1
  O  O83  1  0.90680700  0.71777500  0.36792800  1
  O  O84  1  0.81096800  0.09319300  0.36792800  1
  O  O85  1  0.81096800  0.71777500  0.13207200  1
  O  O86  1  0.28222500  0.18903200  0.36792800  1
  O  O87  1  0.71777500  0.81096800  0.36792800  1
  O  O88  1  0.09319300  0.28222500  0.36792800  1
  O  O89  1  0.18903200  0.90680700  0.36792800  1
  O  O90  1  0.81096800  0.71777500  0.86792800  1
  O  O91  1  0.09319300  0.81096800  0.86792800  1
  O  O92  1  0.71777500  0.90680700  0.86792800  1
  O  O93  1  0.28222500  0.09319300  0.86792800  1
  O  O94  1  0.90680700  0.18903200  0.86792800  1
  O  O95  1  0.09977300  0.47081100  0.18781700  1
