# generated using pymatgen
data_AsSe(BrF2)3
_symmetry_space_group_name_H-M   'P 1'
_cell_length_a   10.04823800
_cell_length_b   8.05951500
_cell_length_c   12.45337314
_cell_angle_alpha   80.61473687
_cell_angle_beta   90.00000000
_cell_angle_gamma   90.00000000
_symmetry_Int_Tables_number   1
_chemical_formula_structural   AsSe(BrF2)3
_chemical_formula_sum   'As4 Se4 Br12 F24'
_cell_volume   995.02308430
_cell_formula_units_Z   4
loop_
 _symmetry_equiv_pos_site_id
 _symmetry_equiv_pos_as_xyz
  1  'x, y, z'
loop_
 _atom_site_type_symbol
 _atom_site_label
 _atom_site_symmetry_multiplicity
 _atom_site_fract_x
 _atom_site_fract_y
 _atom_site_fract_z
 _atom_site_occupancy
  As  As0  1  0.73269000  0.83692700  0.07770600  1
  As  As1  1  0.26731000  0.16307300  0.92229400  1
  As  As2  1  0.23269000  0.16307300  0.42229400  1
  As  As3  1  0.76731000  0.83692700  0.57770600  1
  Se  Se4  1  0.32860700  0.79326900  0.19734700  1
  Se  Se5  1  0.67139300  0.20673100  0.80265300  1
  Se  Se6  1  0.82860700  0.20673100  0.30265300  1
  Se  Se7  1  0.17139300  0.79326900  0.69734700  1
  Br  Br8  1  0.60845000  0.23445500  0.24876100  1
  Br  Br9  1  0.39155000  0.76554500  0.75123900  1
  Br  Br10  1  0.10845000  0.76554500  0.25123900  1
  Br  Br11  1  0.89155000  0.23445500  0.74876100  1
  Br  Br12  1  0.94694000  0.30300600  0.14542600  1
  Br  Br13  1  0.05306000  0.69699400  0.85457400  1
  Br  Br14  1  0.44694000  0.69699400  0.35457400  1
  Br  Br15  1  0.55306000  0.30300600  0.64542600  1
  Br  Br16  1  0.84785500  0.42760600  0.40100400  1
  Br  Br17  1  0.15214500  0.57239400  0.59899600  1
  Br  Br18  1  0.34785500  0.57239400  0.09899600  1
  Br  Br19  1  0.65214500  0.42760600  0.90100400  1
  F  F20  1  0.27085600  0.95749200  0.49232400  1
  F  F21  1  0.72914400  0.04250800  0.50767600  1
  F  F22  1  0.77085600  0.04250800  0.00767600  1
  F  F23  1  0.22914400  0.95749200  0.99232400  1
  F  F24  1  0.69200000  0.63399200  0.14736500  1
  F  F25  1  0.30800000  0.36600800  0.85263500  1
  F  F26  1  0.19200000  0.36600800  0.35263500  1
  F  F27  1  0.80800000  0.63399200  0.64736500  1
  F  F28  1  0.79633400  0.89481400  0.19983400  1
  F  F29  1  0.20366600  0.10518600  0.80016600  1
  F  F30  1  0.29633400  0.10518600  0.30016600  1
  F  F31  1  0.70366600  0.89481400  0.69983400  1
  F  F32  1  0.57100200  0.90912400  0.10931200  1
  F  F33  1  0.42899800  0.09087600  0.89068800  1
  F  F34  1  0.07100200  0.09087600  0.39068800  1
  F  F35  1  0.92899800  0.90912400  0.60931200  1
  F  F36  1  0.89330700  0.76543500  0.04742400  1
  F  F37  1  0.10669300  0.23456500  0.95257600  1
  F  F38  1  0.39330700  0.23456500  0.45257600  1
  F  F39  1  0.60669300  0.76543500  0.54742400  1
  F  F40  1  0.83079400  0.78418400  0.45467800  1
  F  F41  1  0.16920600  0.21581600  0.54532200  1
  F  F42  1  0.33079400  0.21581600  0.04532200  1
  F  F43  1  0.66920600  0.78418400  0.95467800  1
