# generated using pymatgen
data_KBiS2
_symmetry_space_group_name_H-M   'P 1'
_cell_length_a   7.85109817
_cell_length_b   7.85109817
_cell_length_c   7.85109845
_cell_angle_alpha   30.76132061
_cell_angle_beta   30.76132061
_cell_angle_gamma   30.76131898
_symmetry_Int_Tables_number   1
_chemical_formula_structural   KBiS2
_chemical_formula_sum   'K1 Bi1 S2'
_cell_volume   112.26444993
_cell_formula_units_Z   1
loop_
 _symmetry_equiv_pos_site_id
 _symmetry_equiv_pos_as_xyz
  1  'x, y, z'
loop_
 _atom_site_type_symbol
 _atom_site_label
 _atom_site_symmetry_multiplicity
 _atom_site_fract_x
 _atom_site_fract_y
 _atom_site_fract_z
 _atom_site_occupancy
  K  K0  1  0.50000000  0.50000000  0.50000000  1
  Bi  Bi1  1  0.00000000  0.00000000  0.00000000  1
  S  S2  1  0.26344300  0.26344300  0.26344300  1
  S  S3  1  0.73655700  0.73655700  0.73655700  1
