# generated using pymatgen
data_Rb2V2Si8O21
_symmetry_space_group_name_H-M   'P 1'
_cell_length_a   8.86337500
_cell_length_b   10.43768600
_cell_length_c   11.25094300
_cell_angle_alpha   90.00000000
_cell_angle_beta   90.00000000
_cell_angle_gamma   90.00000000
_symmetry_Int_Tables_number   1
_chemical_formula_structural   Rb2V2Si8O21
_chemical_formula_sum   'Rb4 V4 Si16 O42'
_cell_volume   1040.85989782
_cell_formula_units_Z   2
loop_
 _symmetry_equiv_pos_site_id
 _symmetry_equiv_pos_as_xyz
  1  'x, y, z'
loop_
 _atom_site_type_symbol
 _atom_site_label
 _atom_site_symmetry_multiplicity
 _atom_site_fract_x
 _atom_site_fract_y
 _atom_site_fract_z
 _atom_site_occupancy
  Rb  Rb0  1  0.33792300  0.39480400  0.50000000  1
  Rb  Rb1  1  0.83792300  0.60519600  0.50000000  1
  Rb  Rb2  1  0.06165200  0.88981900  0.00000000  1
  Rb  Rb3  1  0.56165200  0.11018100  0.00000000  1
  V  V4  1  0.04594400  0.54015600  0.00000000  1
  V  V5  1  0.54594400  0.45984400  0.00000000  1
  V  V6  1  0.12449000  0.24111000  0.00000000  1
  V  V7  1  0.62449000  0.75889000  0.00000000  1
  Si  Si8  1  0.17363700  0.63851500  0.26105800  1
  Si  Si9  1  0.17363700  0.63851500  0.73894200  1
  Si  Si10  1  0.67363700  0.36148500  0.73894200  1
  Si  Si11  1  0.67363700  0.36148500  0.26105800  1
  Si  Si12  1  0.21016800  0.13341500  0.25788700  1
  Si  Si13  1  0.21016800  0.13341500  0.74211300  1
  Si  Si14  1  0.71016800  0.86658500  0.74211300  1
  Si  Si15  1  0.71016800  0.86658500  0.25788700  1
  Si  Si16  1  0.03770300  0.89851400  0.36332300  1
  Si  Si17  1  0.03770300  0.89851400  0.63667700  1
  Si  Si18  1  0.53770300  0.10148600  0.63667700  1
  Si  Si19  1  0.53770300  0.10148600  0.36332300  1
  Si  Si20  1  0.03206600  0.37954300  0.25583000  1
  Si  Si21  1  0.03206600  0.37954300  0.74417000  1
  Si  Si22  1  0.53206600  0.62045700  0.74417000  1
  Si  Si23  1  0.53206600  0.62045700  0.25583000  1
  O  O24  1  0.96980000  0.15479200  0.00000000  1
  O  O25  1  0.46980000  0.84520800  0.00000000  1
  O  O26  1  0.35425500  0.62715400  0.29008400  1
  O  O27  1  0.35425500  0.62715400  0.70991600  1
  O  O28  1  0.85425500  0.37284600  0.70991600  1
  O  O29  1  0.85425500  0.37284600  0.29008400  1
  O  O30  1  0.25195600  0.15795100  0.12136400  1
  O  O31  1  0.25195600  0.15795100  0.87863600  1
  O  O32  1  0.75195600  0.84204900  0.87863600  1
  O  O33  1  0.75195600  0.84204900  0.12136400  1
  O  O34  1  0.10723400  0.00297100  0.27186000  1
  O  O35  1  0.10723400  0.00297100  0.72814000  1
  O  O36  1  0.60723400  0.99702900  0.72814000  1
  O  O37  1  0.60723400  0.99702900  0.27186000  1
  O  O38  1  0.11133600  0.75737600  0.34256600  1
  O  O39  1  0.11133600  0.75737600  0.65743400  1
  O  O40  1  0.61133600  0.24262400  0.65743400  1
  O  O41  1  0.61133600  0.24262400  0.34256600  1
  O  O42  1  0.06655600  0.38776400  0.11399400  1
  O  O43  1  0.06655600  0.38776400  0.88600600  1
  O  O44  1  0.56655600  0.61223600  0.88600600  1
  O  O45  1  0.56655600  0.61223600  0.11399400  1
  O  O46  1  0.06960300  0.94221000  0.50000000  1
  O  O47  1  0.56960300  0.05779000  0.50000000  1
  O  O48  1  0.11738500  0.25633700  0.31577800  1
  O  O49  1  0.11738500  0.25633700  0.68422200  1
  O  O50  1  0.61738500  0.74366300  0.68422200  1
  O  O51  1  0.61738500  0.74366300  0.31577800  1
  O  O52  1  0.13211000  0.65171000  0.12366200  1
  O  O53  1  0.13211000  0.65171000  0.87633800  1
  O  O54  1  0.63211000  0.34829000  0.87633800  1
  O  O55  1  0.63211000  0.34829000  0.12366200  1
  O  O56  1  0.86434600  0.57468100  0.00000000  1
  O  O57  1  0.36434600  0.42531900  0.00000000  1
  O  O58  1  0.09746500  0.50870500  0.32351400  1
  O  O59  1  0.09746500  0.50870500  0.67648600  1
  O  O60  1  0.59746500  0.49129500  0.67648600  1
  O  O61  1  0.59746500  0.49129500  0.32351400  1
  O  O62  1  0.35677600  0.11450200  0.34477500  1
  O  O63  1  0.35677600  0.11450200  0.65522500  1
  O  O64  1  0.85677600  0.88549800  0.65522500  1
  O  O65  1  0.85677600  0.88549800  0.34477500  1
