# generated using pymatgen
data_K2Cd3S4
_symmetry_space_group_name_H-M   'P 1'
_cell_length_a   6.75171000
_cell_length_b   10.41801300
_cell_length_c   14.07856400
_cell_angle_alpha   90.00000000
_cell_angle_beta   90.00000000
_cell_angle_gamma   90.00000000
_symmetry_Int_Tables_number   1
_chemical_formula_structural   K2Cd3S4
_chemical_formula_sum   'K8 Cd12 S16'
_cell_volume   990.27778055
_cell_formula_units_Z   4
loop_
 _symmetry_equiv_pos_site_id
 _symmetry_equiv_pos_as_xyz
  1  'x, y, z'
loop_
 _atom_site_type_symbol
 _atom_site_label
 _atom_site_symmetry_multiplicity
 _atom_site_fract_x
 _atom_site_fract_y
 _atom_site_fract_z
 _atom_site_occupancy
  K  K0  1  0.01526600  0.25000000  0.53054000  1
  K  K1  1  0.51526600  0.75000000  0.96946000  1
  K  K2  1  0.98473400  0.75000000  0.46946000  1
  K  K3  1  0.48473400  0.25000000  0.03054000  1
  K  K4  1  0.00000000  0.00000000  0.00000000  1
  K  K5  1  0.50000000  0.50000000  0.50000000  1
  K  K6  1  0.00000000  0.50000000  0.00000000  1
  K  K7  1  0.50000000  0.00000000  0.50000000  1
  Cd  Cd8  1  0.34530400  0.09300100  0.74851700  1
  Cd  Cd9  1  0.84530400  0.90699900  0.75148300  1
  Cd  Cd10  1  0.65469600  0.59300100  0.25148300  1
  Cd  Cd11  1  0.15469600  0.40699900  0.24851700  1
  Cd  Cd12  1  0.65469600  0.90699900  0.25148300  1
  Cd  Cd13  1  0.15469600  0.09300100  0.24851700  1
  Cd  Cd14  1  0.34530400  0.40699900  0.74851700  1
  Cd  Cd15  1  0.84530400  0.59300100  0.75148300  1
  Cd  Cd16  1  0.71508400  0.25000000  0.29600100  1
  Cd  Cd17  1  0.21508400  0.75000000  0.20399900  1
  Cd  Cd18  1  0.28491600  0.75000000  0.70399900  1
  Cd  Cd19  1  0.78491600  0.25000000  0.79600100  1
  S  S20  1  0.62670500  0.03297800  0.86389500  1
  S  S21  1  0.12670500  0.96702200  0.63610500  1
  S  S22  1  0.37329500  0.53297800  0.13610500  1
  S  S23  1  0.87329500  0.46702200  0.36389500  1
  S  S24  1  0.37329500  0.96702200  0.13610500  1
  S  S25  1  0.87329500  0.03297800  0.36389500  1
  S  S26  1  0.62670500  0.46702200  0.86389500  1
  S  S27  1  0.12670500  0.53297800  0.63610500  1
  S  S28  1  0.92606600  0.25000000  0.14286200  1
  S  S29  1  0.42606600  0.75000000  0.35713800  1
  S  S30  1  0.07393400  0.75000000  0.85713800  1
  S  S31  1  0.57393400  0.25000000  0.64286200  1
  S  S32  1  0.86143700  0.75000000  0.14615800  1
  S  S33  1  0.63856300  0.75000000  0.64615800  1
  S  S34  1  0.13856300  0.25000000  0.85384200  1
  S  S35  1  0.36143700  0.25000000  0.35384200  1
