# generated using pymatgen
data_BaSi12Pt5
_symmetry_space_group_name_H-M   'P 1'
_cell_length_a   16.67783741
_cell_length_b   16.67783741
_cell_length_c   6.16574653
_cell_angle_alpha   89.98338385
_cell_angle_beta   89.98338385
_cell_angle_gamma   158.60956998
_symmetry_Int_Tables_number   1
_chemical_formula_structural   BaSi12Pt5
_chemical_formula_sum   'Ba2 Si24 Pt10'
_cell_volume   625.49766967
_cell_formula_units_Z   2
loop_
 _symmetry_equiv_pos_site_id
 _symmetry_equiv_pos_as_xyz
  1  'x, y, z'
loop_
 _atom_site_type_symbol
 _atom_site_label
 _atom_site_symmetry_multiplicity
 _atom_site_fract_x
 _atom_site_fract_y
 _atom_site_fract_z
 _atom_site_occupancy
  Ba  Ba0  1  0.87551100  0.12448900  0.00000000  1
  Ba  Ba1  1  0.12448900  0.87551100  0.00000000  1
  Si  Si2  1  0.70878300  0.78872300  0.25075300  1
  Si  Si3  1  0.29121700  0.21127700  0.74924700  1
  Si  Si4  1  0.21127700  0.29121700  0.74924700  1
  Si  Si5  1  0.78872300  0.70878300  0.25075300  1
  Si  Si6  1  0.64294600  0.91889000  0.50062200  1
  Si  Si7  1  0.35705400  0.08111000  0.49937800  1
  Si  Si8  1  0.08111000  0.35705400  0.49937800  1
  Si  Si9  1  0.91889000  0.64294600  0.50062200  1
  Si  Si10  1  0.63637200  0.35941900  0.21872200  1
  Si  Si11  1  0.36362800  0.64058100  0.78127800  1
  Si  Si12  1  0.64058100  0.36362800  0.78127800  1
  Si  Si13  1  0.35941900  0.63637200  0.21872200  1
  Si  Si14  1  0.35774400  0.91651700  0.13425800  1
  Si  Si15  1  0.64225600  0.08348300  0.86574200  1
  Si  Si16  1  0.08348300  0.64225600  0.86574200  1
  Si  Si17  1  0.91651700  0.35774400  0.13425800  1
  Si  Si18  1  0.42104800  0.85548700  0.36910200  1
  Si  Si19  1  0.57895200  0.14451300  0.63089800  1
  Si  Si20  1  0.14451300  0.57895200  0.63089800  1
  Si  Si21  1  0.85548700  0.42104800  0.36910200  1
  Si  Si22  1  0.29162900  0.21160400  0.25108200  1
  Si  Si23  1  0.70837100  0.78839600  0.74891800  1
  Si  Si24  1  0.78839600  0.70837100  0.74891800  1
  Si  Si25  1  0.21160400  0.29162900  0.25108200  1
  Pt  Pt26  1  0.57566700  0.42433300  0.00000000  1
  Pt  Pt27  1  0.42433300  0.57566700  0.00000000  1
  Pt  Pt28  1  0.00000000  0.00000000  0.00000000  1
  Pt  Pt29  1  0.92466800  0.07533200  0.50000000  1
  Pt  Pt30  1  0.07533200  0.92466800  0.50000000  1
  Pt  Pt31  1  0.70368300  0.29631700  0.00000000  1
  Pt  Pt32  1  0.29631700  0.70368300  0.00000000  1
  Pt  Pt33  1  0.79769800  0.20230200  0.50000000  1
  Pt  Pt34  1  0.20230200  0.79769800  0.50000000  1
  Pt  Pt35  1  0.50000000  0.50000000  0.50000000  1
