# generated using pymatgen
data_SmH18(BrO6)3
_symmetry_space_group_name_H-M   'P 1'
_cell_length_a   11.95660330
_cell_length_b   11.95660330
_cell_length_c   6.80943200
_cell_angle_alpha   90.00000000
_cell_angle_beta   90.00000000
_cell_angle_gamma   119.99999613
_symmetry_Int_Tables_number   1
_chemical_formula_structural   SmH18(BrO6)3
_chemical_formula_sum   'Sm2 H36 Br6 O36'
_cell_volume   843.05746184
_cell_formula_units_Z   2
loop_
 _symmetry_equiv_pos_site_id
 _symmetry_equiv_pos_as_xyz
  1  'x, y, z'
loop_
 _atom_site_type_symbol
 _atom_site_label
 _atom_site_symmetry_multiplicity
 _atom_site_fract_x
 _atom_site_fract_y
 _atom_site_fract_z
 _atom_site_occupancy
  Sm  Sm0  1  0.66666700  0.33333300  0.75002100  1
  Sm  Sm1  1  0.33333300  0.66666700  0.25002100  1
  H  H2  1  0.74864100  0.11644100  0.75199600  1
  H  H3  1  0.36779900  0.25135900  0.75199600  1
  H  H4  1  0.88355900  0.63220100  0.75199600  1
  H  H5  1  0.36779900  0.11644100  0.75199600  1
  H  H6  1  0.88355900  0.25135900  0.75199600  1
  H  H7  1  0.74864100  0.63220100  0.75199600  1
  H  H8  1  0.25135900  0.88355900  0.25199600  1
  H  H9  1  0.63220100  0.74864100  0.25199600  1
  H  H10  1  0.11644100  0.36779900  0.25199600  1
  H  H11  1  0.63220100  0.88355900  0.25199600  1
  H  H12  1  0.11644100  0.74864100  0.25199600  1
  H  H13  1  0.25135900  0.36779900  0.25199600  1
  H  H14  1  0.63038800  0.50201000  0.06662100  1
  H  H15  1  0.87162200  0.36961200  0.06662100  1
  H  H16  1  0.49799000  0.12837800  0.06662100  1
  H  H17  1  0.87162200  0.50201000  0.06662100  1
  H  H18  1  0.49799000  0.36961200  0.06662100  1
  H  H19  1  0.63038800  0.12837800  0.06662100  1
  H  H20  1  0.36983000  0.49807800  0.93336200  1
  H  H21  1  0.12824800  0.63017000  0.93336200  1
  H  H22  1  0.50192200  0.87175200  0.93336200  1
  H  H23  1  0.12824800  0.49807800  0.93336200  1
  H  H24  1  0.50192200  0.63017000  0.93336200  1
  H  H25  1  0.36983000  0.87175200  0.93336200  1
  H  H26  1  0.36961200  0.49799000  0.56662100  1
  H  H27  1  0.12837800  0.63038800  0.56662100  1
  H  H28  1  0.50201000  0.87162200  0.56662100  1
  H  H29  1  0.12837800  0.49799000  0.56662100  1
  H  H30  1  0.50201000  0.63038800  0.56662100  1
  H  H31  1  0.36961200  0.87162200  0.56662100  1
  H  H32  1  0.63017000  0.50192200  0.43336200  1
  H  H33  1  0.87175200  0.36983000  0.43336200  1
  H  H34  1  0.49807800  0.12824800  0.43336200  1
  H  H35  1  0.87175200  0.50192200  0.43336200  1
  H  H36  1  0.49807800  0.36983000  0.43336200  1
  H  H37  1  0.63017000  0.12824800  0.43336200  1
  Br  Br38  1  0.86898500  0.73797000  0.25782400  1
  Br  Br39  1  0.86898500  0.13101500  0.25782400  1
  Br  Br40  1  0.26203000  0.13101500  0.25782400  1
  Br  Br41  1  0.13101500  0.26203000  0.75782400  1
  Br  Br42  1  0.13101500  0.86898500  0.75782400  1
  Br  Br43  1  0.73797000  0.86898500  0.75782400  1
  O  O44  1  0.57922800  0.15845700  0.99350800  1
  O  O45  1  0.57922800  0.42077200  0.99350800  1
  O  O46  1  0.84154300  0.42077200  0.99350800  1
  O  O47  1  0.42076100  0.84152200  0.00632500  1
  O  O48  1  0.42076100  0.57923900  0.00632500  1
  O  O49  1  0.15847800  0.57923900  0.00632500  1
  O  O50  1  0.42077200  0.84154300  0.49350800  1
  O  O51  1  0.42077200  0.57922800  0.49350800  1
  O  O52  1  0.15845700  0.57922800  0.49350800  1
  O  O53  1  0.57923900  0.15847800  0.50632500  1
  O  O54  1  0.57923900  0.42076100  0.50632500  1
  O  O55  1  0.84152200  0.42076100  0.50632500  1
  O  O56  1  0.78873000  0.57746000  0.74602100  1
  O  O57  1  0.78873000  0.21127000  0.74602100  1
  O  O58  1  0.42254000  0.21127000  0.74602100  1
  O  O59  1  0.21127000  0.42254000  0.24602100  1
  O  O60  1  0.21127000  0.78873000  0.24602100  1
  O  O61  1  0.57746000  0.78873000  0.24602100  1
  O  O62  1  0.93193800  0.63675400  0.24986400  1
  O  O63  1  0.70481500  0.06806200  0.24986400  1
  O  O64  1  0.36324600  0.29518500  0.24986400  1
  O  O65  1  0.70481500  0.63675400  0.24986400  1
  O  O66  1  0.36324600  0.06806200  0.24986400  1
  O  O67  1  0.93193800  0.29518500  0.24986400  1
  O  O68  1  0.06806200  0.36324600  0.74986400  1
  O  O69  1  0.29518500  0.93193800  0.74986400  1
  O  O70  1  0.63675400  0.70481500  0.74986400  1
  O  O71  1  0.29518500  0.36324600  0.74986400  1
  O  O72  1  0.63675400  0.93193800  0.74986400  1
  O  O73  1  0.06806200  0.70481500  0.74986400  1
  O  O74  1  0.90707000  0.81414000  0.04412900  1
  O  O75  1  0.90707000  0.09293000  0.04412900  1
  O  O76  1  0.18586000  0.09293000  0.04412900  1
  O  O77  1  0.09293000  0.18586000  0.54412900  1
  O  O78  1  0.09293000  0.90707000  0.54412900  1
  O  O79  1  0.81414000  0.90707000  0.54412900  1
