# generated using pymatgen
data_ScZnPt
_symmetry_space_group_name_H-M   'P 1'
_cell_length_a   5.10362122
_cell_length_b   5.10362122
_cell_length_c   5.30207800
_cell_angle_alpha   90.00000000
_cell_angle_beta   90.00000000
_cell_angle_gamma   130.25057496
_symmetry_Int_Tables_number   1
_chemical_formula_structural   ScZnPt
_chemical_formula_sum   'Sc2 Zn2 Pt2'
_cell_volume   105.40376627
_cell_formula_units_Z   2
loop_
 _symmetry_equiv_pos_site_id
 _symmetry_equiv_pos_as_xyz
  1  'x, y, z'
loop_
 _atom_site_type_symbol
 _atom_site_label
 _atom_site_symmetry_multiplicity
 _atom_site_fract_x
 _atom_site_fract_y
 _atom_site_fract_z
 _atom_site_occupancy
  Sc  Sc0  1  0.70946800  0.29053200  0.25000000  1
  Sc  Sc1  1  0.29053200  0.70946800  0.75000000  1
  Zn  Zn2  1  0.00000000  0.00000000  0.50000000  1
  Zn  Zn3  1  0.00000000  0.00000000  0.00000000  1
  Pt  Pt4  1  0.40061300  0.59938700  0.25000000  1
  Pt  Pt5  1  0.59938700  0.40061300  0.75000000  1
