# generated using pymatgen
data_Ba2InCuO4
_symmetry_space_group_name_H-M   'P 1'
_cell_length_a   4.22177900
_cell_length_b   4.22177900
_cell_length_c   8.26516100
_cell_angle_alpha   90.00000000
_cell_angle_beta   90.00000000
_cell_angle_gamma   90.00000000
_symmetry_Int_Tables_number   1
_chemical_formula_structural   Ba2InCuO4
_chemical_formula_sum   'Ba2 In1 Cu1 O4'
_cell_volume   147.31341872
_cell_formula_units_Z   1
loop_
 _symmetry_equiv_pos_site_id
 _symmetry_equiv_pos_as_xyz
  1  'x, y, z'
loop_
 _atom_site_type_symbol
 _atom_site_label
 _atom_site_symmetry_multiplicity
 _atom_site_fract_x
 _atom_site_fract_y
 _atom_site_fract_z
 _atom_site_occupancy
  Ba  Ba0  1  0.50000000  0.50000000  0.76865100  1
  Ba  Ba1  1  0.50000000  0.50000000  0.23134900  1
  In  In2  1  0.00000000  0.00000000  0.00000000  1
  Cu  Cu3  1  0.00000000  0.00000000  0.50000000  1
  O  O4  1  0.00000000  0.50000000  0.00000000  1
  O  O5  1  0.50000000  0.00000000  0.00000000  1
  O  O6  1  0.00000000  0.00000000  0.71898600  1
  O  O7  1  0.00000000  0.00000000  0.28101400  1
