# generated using pymatgen
data_Nb3Ga2
_symmetry_space_group_name_H-M   'P 1'
_cell_length_a   6.95252000
_cell_length_b   6.95252000
_cell_length_c   3.53096300
_cell_angle_alpha   90.00000000
_cell_angle_beta   90.00000000
_cell_angle_gamma   90.00000000
_symmetry_Int_Tables_number   1
_chemical_formula_structural   Nb3Ga2
_chemical_formula_sum   'Nb6 Ga4'
_cell_volume   170.67804530
_cell_formula_units_Z   2
loop_
 _symmetry_equiv_pos_site_id
 _symmetry_equiv_pos_as_xyz
  1  'x, y, z'
loop_
 _atom_site_type_symbol
 _atom_site_label
 _atom_site_symmetry_multiplicity
 _atom_site_fract_x
 _atom_site_fract_y
 _atom_site_fract_z
 _atom_site_occupancy
  Nb  Nb0  1  0.00000000  0.00000000  0.00000000  1
  Nb  Nb1  1  0.50000000  0.50000000  0.00000000  1
  Nb  Nb2  1  0.67546500  0.17546500  0.50000000  1
  Nb  Nb3  1  0.17546500  0.32453500  0.50000000  1
  Nb  Nb4  1  0.82453500  0.67546500  0.50000000  1
  Nb  Nb5  1  0.32453500  0.82453500  0.50000000  1
  Ga  Ga6  1  0.87395000  0.37395000  0.00000000  1
  Ga  Ga7  1  0.37395000  0.12605000  0.00000000  1
  Ga  Ga8  1  0.62605000  0.87395000  0.00000000  1
  Ga  Ga9  1  0.12605000  0.62605000  0.00000000  1
