# generated using pymatgen
data_Gd4BClO7
_symmetry_space_group_name_H-M   'P 1'
_cell_length_a   8.19083476
_cell_length_b   8.80598554
_cell_length_c   10.99018062
_cell_angle_alpha   102.14717660
_cell_angle_beta   90.00000000
_cell_angle_gamma   90.00000000
_symmetry_Int_Tables_number   1
_chemical_formula_structural   Gd4BClO7
_chemical_formula_sum   'Gd16 B4 Cl4 O28'
_cell_volume   774.95544626
_cell_formula_units_Z   4
loop_
 _symmetry_equiv_pos_site_id
 _symmetry_equiv_pos_as_xyz
  1  'x, y, z'
loop_
 _atom_site_type_symbol
 _atom_site_label
 _atom_site_symmetry_multiplicity
 _atom_site_fract_x
 _atom_site_fract_y
 _atom_site_fract_z
 _atom_site_occupancy
  Gd  Gd0  1  0.37217155  0.97999510  0.78027722  1
  Gd  Gd1  1  0.12782845  0.47999510  0.28027722  1
  Gd  Gd2  1  0.62782845  0.02000490  0.21972278  1
  Gd  Gd3  1  0.87217155  0.52000490  0.71972278  1
  Gd  Gd4  1  0.38220900  0.66868593  0.08700891  1
  Gd  Gd5  1  0.11779100  0.16868593  0.58700891  1
  Gd  Gd6  1  0.61779100  0.33131407  0.91299109  1
  Gd  Gd7  1  0.88220900  0.83131407  0.41299109  1
  Gd  Gd8  1  0.36430989  0.84559460  0.42027140  1
  Gd  Gd9  1  0.13569011  0.34559460  0.92027140  1
  Gd  Gd10  1  0.63569011  0.15440540  0.57972860  1
  Gd  Gd11  1  0.86430989  0.65440540  0.07972860  1
  Gd  Gd12  1  0.38430645  0.53711406  0.72018942  1
  Gd  Gd13  1  0.11569355  0.03711406  0.22018942  1
  Gd  Gd14  1  0.61569355  0.46288594  0.27981058  1
  Gd  Gd15  1  0.88430645  0.96288594  0.77981058  1
  B  B16  1  0.12785799  0.71729686  0.58597999  1
  B  B17  1  0.37214201  0.21729686  0.08597999  1
  B  B18  1  0.87214201  0.28270314  0.41402001  1
  B  B19  1  0.62785799  0.78270314  0.91402001  1
  Cl  Cl20  1  0.13855260  0.84938740  0.96731027  1
  Cl  Cl21  1  0.36144740  0.34938740  0.46731027  1
  Cl  Cl22  1  0.86144740  0.15061260  0.03268973  1
  Cl  Cl23  1  0.63855260  0.65061260  0.53268973  1
  O  O24  1  0.37734497  0.05503491  0.59587245  1
  O  O25  1  0.12265503  0.55503491  0.09587245  1
  O  O26  1  0.62265503  0.94496509  0.40412755  1
  O  O27  1  0.87734497  0.44496509  0.90412755  1
  O  O28  1  0.36440100  0.91705944  0.22417933  1
  O  O29  1  0.13559900  0.41705944  0.72417933  1
  O  O30  1  0.63559900  0.08294056  0.77582067  1
  O  O31  1  0.86440100  0.58294056  0.27582067  1
  O  O32  1  0.38352349  0.60340688  0.27973430  1
  O  O33  1  0.11647651  0.10340688  0.77973430  1
  O  O34  1  0.61647651  0.39659312  0.72026570  1
  O  O35  1  0.88352349  0.89659312  0.22026570  1
  O  O36  1  0.37592492  0.47379784  0.90760761  1
  O  O37  1  0.12407508  0.97379784  0.40760761  1
  O  O38  1  0.62407508  0.52620216  0.09239239  1
  O  O39  1  0.87592492  0.02620216  0.59239239  1
  O  O40  1  0.11212606  0.67747628  0.45775708  1
  O  O41  1  0.38787394  0.17747628  0.95775708  1
  O  O42  1  0.88787394  0.32252372  0.54224292  1
  O  O43  1  0.61212606  0.82252372  0.04224292  1
  O  O44  1  0.99081634  0.73352979  0.66027107  1
  O  O45  1  0.50918366  0.23352979  0.16027107  1
  O  O46  1  0.00918366  0.26647021  0.33972893  1
  O  O47  1  0.49081634  0.76647021  0.83972893  1
  O  O48  1  0.28229320  0.74797187  0.63536442  1
  O  O49  1  0.21770680  0.24797187  0.13536442  1
  O  O50  1  0.71770680  0.25202813  0.36463558  1
  O  O51  1  0.78229320  0.75202813  0.86463558  1
