# generated using pymatgen
data_HoNiB4
_symmetry_space_group_name_H-M   'P 1'
_cell_length_a   6.80182360
_cell_length_b   6.80182360
_cell_length_c   6.80182360
_cell_angle_alpha   112.96245862
_cell_angle_beta   112.96245862
_cell_angle_gamma   102.69400781
_symmetry_Int_Tables_number   1
_chemical_formula_structural   HoNiB4
_chemical_formula_sum   'Ho4 Ni4 B16'
_cell_volume   239.74433807
_cell_formula_units_Z   4
loop_
 _symmetry_equiv_pos_site_id
 _symmetry_equiv_pos_as_xyz
  1  'x, y, z'
loop_
 _atom_site_type_symbol
 _atom_site_label
 _atom_site_symmetry_multiplicity
 _atom_site_fract_x
 _atom_site_fract_y
 _atom_site_fract_z
 _atom_site_occupancy
  Ho  Ho0  1  0.79740700  0.79740700  0.00000000  1
  Ho  Ho1  1  0.20259300  0.20259300  0.00000000  1
  Ho  Ho2  1  0.75000000  0.25000000  0.50000000  1
  Ho  Ho3  1  0.25000000  0.75000000  0.50000000  1
  Ni  Ni4  1  0.27142300  0.50000000  0.77142300  1
  Ni  Ni5  1  0.72857700  0.50000000  0.22857700  1
  Ni  Ni6  1  0.50000000  0.72857700  0.22857700  1
  Ni  Ni7  1  0.50000000  0.27142300  0.77142300  1
  B  B8  1  0.27521300  0.11156100  0.38677400  1
  B  B9  1  0.72478700  0.88843900  0.61322600  1
  B  B10  1  0.27521300  0.88843900  0.16365200  1
  B  B11  1  0.72478700  0.11156100  0.83634800  1
  B  B12  1  0.11156100  0.72478700  0.83634800  1
  B  B13  1  0.88843900  0.27521300  0.16365200  1
  B  B14  1  0.11156100  0.27521300  0.38677400  1
  B  B15  1  0.88843900  0.72478700  0.61322600  1
  B  B16  1  0.11387900  0.11387900  0.53334200  1
  B  B17  1  0.58053700  0.58053700  0.46665800  1
  B  B18  1  0.11387900  0.58053700  0.00000000  1
  B  B19  1  0.58053700  0.11387900  0.00000000  1
  B  B20  1  0.88612100  0.88612100  0.46665800  1
  B  B21  1  0.41946300  0.41946300  0.53334200  1
  B  B22  1  0.88612100  0.41946300  0.00000000  1
  B  B23  1  0.41946300  0.88612100  0.00000000  1
