# generated using pymatgen
data_Sr2B5BrO9
_symmetry_space_group_name_H-M   'P 1'
_cell_length_a   6.53190700
_cell_length_b   11.61048400
_cell_length_c   11.70426300
_cell_angle_alpha   90.00000000
_cell_angle_beta   90.00000000
_cell_angle_gamma   90.00000000
_symmetry_Int_Tables_number   1
_chemical_formula_structural   Sr2B5BrO9
_chemical_formula_sum   'Sr8 B20 Br4 O36'
_cell_volume   887.63494000
_cell_formula_units_Z   4
loop_
 _symmetry_equiv_pos_site_id
 _symmetry_equiv_pos_as_xyz
  1  'x, y, z'
loop_
 _atom_site_type_symbol
 _atom_site_label
 _atom_site_symmetry_multiplicity
 _atom_site_fract_x
 _atom_site_fract_y
 _atom_site_fract_z
 _atom_site_occupancy
  Sr  Sr0  1  0.14970800  0.03916900  0.74955200  1
  Sr  Sr1  1  0.14970800  0.96083100  0.25044800  1
  Sr  Sr2  1  0.64970800  0.53916900  0.75044800  1
  Sr  Sr3  1  0.64970800  0.46083100  0.24955200  1
  Sr  Sr4  1  0.31432000  0.25793200  0.46795300  1
  Sr  Sr5  1  0.31432000  0.74206800  0.53204700  1
  Sr  Sr6  1  0.81432000  0.75793200  0.03204700  1
  Sr  Sr7  1  0.81432000  0.24206800  0.96795300  1
  B  B8  1  0.31498600  0.71786600  0.19475200  1
  B  B9  1  0.31498600  0.28213400  0.80524800  1
  B  B10  1  0.81498600  0.21786600  0.30524800  1
  B  B11  1  0.81498600  0.78213400  0.69475200  1
  B  B12  1  0.35177500  0.24991000  0.02776600  1
  B  B13  1  0.35177500  0.75009000  0.97223400  1
  B  B14  1  0.85177500  0.74991000  0.47223400  1
  B  B15  1  0.85177500  0.25009000  0.52776600  1
  B  B16  1  0.18804300  0.51480500  0.23492600  1
  B  B17  1  0.18804300  0.48519500  0.76507400  1
  B  B18  1  0.68804300  0.01480500  0.26507400  1
  B  B19  1  0.68804300  0.98519500  0.73492600  1
  B  B20  1  0.45995900  0.18079400  0.22381400  1
  B  B21  1  0.45995900  0.81920600  0.77618600  1
  B  B22  1  0.95995900  0.68079400  0.27618600  1
  B  B23  1  0.95995900  0.31920600  0.72381400  1
  B  B24  1  0.13316200  0.29055800  0.19512600  1
  B  B25  1  0.13316200  0.70944200  0.80487400  1
  B  B26  1  0.63316200  0.79055800  0.30487400  1
  B  B27  1  0.63316200  0.20944200  0.69512600  1
  Br  Br28  1  0.00015800  0.00000000  0.00000000  1
  Br  Br29  1  0.50015800  0.50000000  0.50000000  1
  Br  Br30  1  0.23582900  0.00000000  0.50000000  1
  Br  Br31  1  0.73582900  0.50000000  0.00000000  1
  O  O32  1  0.50507800  0.21706200  0.10383200  1
  O  O33  1  0.50507800  0.78293800  0.89616800  1
  O  O34  1  0.00507800  0.71706200  0.39616800  1
  O  O35  1  0.00507800  0.28293800  0.60383200  1
  O  O36  1  0.41058100  0.75325800  0.08459100  1
  O  O37  1  0.41058100  0.24674200  0.91540900  1
  O  O38  1  0.91058100  0.25325800  0.41540900  1
  O  O39  1  0.91058100  0.74674200  0.58459100  1
  O  O40  1  0.34484700  0.59148300  0.21189400  1
  O  O41  1  0.34484700  0.40851700  0.78810600  1
  O  O42  1  0.84484700  0.09148300  0.28810600  1
  O  O43  1  0.84484700  0.90851700  0.71189400  1
  O  O44  1  0.59245800  0.24483100  0.30517600  1
  O  O45  1  0.59245800  0.75516900  0.69482400  1
  O  O46  1  0.09245800  0.74483100  0.19482400  1
  O  O47  1  0.09245800  0.25516900  0.80517600  1
  O  O48  1  0.41291600  0.21293200  0.71411700  1
  O  O49  1  0.41291600  0.78706800  0.28588300  1
  O  O50  1  0.91291600  0.71293200  0.78588300  1
  O  O51  1  0.91291600  0.28706800  0.21411700  1
  O  O52  1  0.49725900  0.05379800  0.23459900  1
  O  O53  1  0.49725900  0.94620200  0.76540100  1
  O  O54  1  0.99725900  0.55379800  0.26540100  1
  O  O55  1  0.99725900  0.44620200  0.73459900  1
  O  O56  1  0.24396300  0.19610900  0.25234800  1
  O  O57  1  0.24396300  0.80389100  0.74765200  1
  O  O58  1  0.74396300  0.69610900  0.24765200  1
  O  O59  1  0.74396300  0.30389100  0.75234800  1
  O  O60  1  0.16191100  0.28265500  0.06679100  1
  O  O61  1  0.16191100  0.71734500  0.93320900  1
  O  O62  1  0.66191100  0.78265500  0.43320900  1
  O  O63  1  0.66191100  0.21734500  0.56679100  1
  O  O64  1  0.23979100  0.39996100  0.23386500  1
  O  O65  1  0.23979100  0.60003900  0.76613500  1
  O  O66  1  0.73979100  0.89996100  0.26613500  1
  O  O67  1  0.73979100  0.10003900  0.73386500  1
