# generated using pymatgen
data_Dy3(In2Co)2
_symmetry_space_group_name_H-M   'P 1'
_cell_length_a   7.87980895
_cell_length_b   7.87980895
_cell_length_c   3.58864200
_cell_angle_alpha   90.00000000
_cell_angle_beta   90.00000000
_cell_angle_gamma   120.00000796
_symmetry_Int_Tables_number   1
_chemical_formula_structural   Dy3(In2Co)2
_chemical_formula_sum   'Dy3 In4 Co2'
_cell_volume   192.97102698
_cell_formula_units_Z   1
loop_
 _symmetry_equiv_pos_site_id
 _symmetry_equiv_pos_as_xyz
  1  'x, y, z'
loop_
 _atom_site_type_symbol
 _atom_site_label
 _atom_site_symmetry_multiplicity
 _atom_site_fract_x
 _atom_site_fract_y
 _atom_site_fract_z
 _atom_site_occupancy
  Dy  Dy0  1  0.04293900  0.29255100  0.50000000  1
  Dy  Dy1  1  0.70744900  0.75038700  0.50000000  1
  Dy  Dy2  1  0.24961300  0.95706100  0.50000000  1
  In  In3  1  0.66403800  0.07852000  0.00000000  1
  In  In4  1  0.92148000  0.58551900  0.00000000  1
  In  In5  1  0.41448100  0.33596200  0.00000000  1
  In  In6  1  0.33333300  0.66666700  0.00000000  1
  Co  Co7  1  0.66666700  0.33333300  0.50000000  1
  Co  Co8  1  0.00000000  0.00000000  0.00000000  1
