# generated using pymatgen
data_KTh2V3O12
_symmetry_space_group_name_H-M   'P 1'
_cell_length_a   10.04963846
_cell_length_b   10.04963846
_cell_length_c   8.25308799
_cell_angle_alpha   79.78052567
_cell_angle_beta   79.78052567
_cell_angle_gamma   42.04009656
_symmetry_Int_Tables_number   1
_chemical_formula_structural   KTh2V3O12
_chemical_formula_sum   'K2 Th4 V6 O24'
_cell_volume   547.99397435
_cell_formula_units_Z   2
loop_
 _symmetry_equiv_pos_site_id
 _symmetry_equiv_pos_as_xyz
  1  'x, y, z'
loop_
 _atom_site_type_symbol
 _atom_site_label
 _atom_site_symmetry_multiplicity
 _atom_site_fract_x
 _atom_site_fract_y
 _atom_site_fract_z
 _atom_site_occupancy
  K  K0  1  0.61541500  0.38458500  0.25000000  1
  K  K1  1  0.38458500  0.61541500  0.75000000  1
  Th  Th2  1  0.05863700  0.24938600  0.46318700  1
  Th  Th3  1  0.75061400  0.94136300  0.03681300  1
  Th  Th4  1  0.94136300  0.75061400  0.53681300  1
  Th  Th5  1  0.24938600  0.05863700  0.96318700  1
  V  V6  1  0.10613100  0.89386900  0.25000000  1
  V  V7  1  0.89386900  0.10613100  0.75000000  1
  V  V8  1  0.60518100  0.77570600  0.31687800  1
  V  V9  1  0.22429400  0.39481900  0.18312200  1
  V  V10  1  0.39481900  0.22429400  0.68312200  1
  V  V11  1  0.77570600  0.60518100  0.81687800  1
  O  O12  1  0.26865800  0.79945900  0.07547400  1
  O  O13  1  0.20054100  0.73134200  0.42452600  1
  O  O14  1  0.73134200  0.20054100  0.92452600  1
  O  O15  1  0.79945900  0.26865800  0.57547400  1
  O  O16  1  0.04397800  0.10745000  0.25970900  1
  O  O17  1  0.89255000  0.95602200  0.24029100  1
  O  O18  1  0.95602200  0.89255000  0.74029100  1
  O  O19  1  0.10745000  0.04397800  0.75970900  1
  O  O20  1  0.75488200  0.52428600  0.33698100  1
  O  O21  1  0.47571400  0.24511800  0.16301900  1
  O  O22  1  0.24511800  0.47571400  0.66301900  1
  O  O23  1  0.52428600  0.75488200  0.83698100  1
  O  O24  1  0.91982700  0.38186100  0.93625100  1
  O  O25  1  0.61813900  0.08017300  0.56374900  1
  O  O26  1  0.08017300  0.61813900  0.06374900  1
  O  O27  1  0.38186100  0.91982700  0.43625100  1
  O  O28  1  0.82160000  0.74234400  0.82420900  1
  O  O29  1  0.25765600  0.17840000  0.67579100  1
  O  O30  1  0.17840000  0.25765600  0.17579100  1
  O  O31  1  0.74234400  0.82160000  0.32420900  1
  O  O32  1  0.85658500  0.55417800  0.60929900  1
  O  O33  1  0.44582200  0.14341500  0.89070100  1
  O  O34  1  0.14341500  0.44582200  0.39070100  1
  O  O35  1  0.55417800  0.85658500  0.10929900  1
