# generated using pymatgen
data_Sm2C
_symmetry_space_group_name_H-M   'P 1'
_cell_length_a   6.78812012
_cell_length_b   6.78812012
_cell_length_c   6.78812056
_cell_angle_alpha   31.21971564
_cell_angle_beta   31.21971564
_cell_angle_gamma   31.21971738
_symmetry_Int_Tables_number   1
_chemical_formula_structural   Sm2C
_chemical_formula_sum   'Sm2 C1'
_cell_volume   74.57164582
_cell_formula_units_Z   1
loop_
 _symmetry_equiv_pos_site_id
 _symmetry_equiv_pos_as_xyz
  1  'x, y, z'
loop_
 _atom_site_type_symbol
 _atom_site_label
 _atom_site_symmetry_multiplicity
 _atom_site_fract_x
 _atom_site_fract_y
 _atom_site_fract_z
 _atom_site_occupancy
  Sm  Sm0  1  0.23873700  0.23873700  0.23873700  1
  Sm  Sm1  1  0.76126300  0.76126300  0.76126300  1
  C  C2  1  0.50000000  0.50000000  0.50000000  1
