# generated using pymatgen
data_Cd4BiB3O10
_symmetry_space_group_name_H-M   'P 1'
_cell_length_a   3.56694001
_cell_length_b   8.12875732
_cell_length_c   8.99139254
_cell_angle_alpha   63.12600224
_cell_angle_beta   85.36945028
_cell_angle_gamma   79.71205378
_symmetry_Int_Tables_number   1
_chemical_formula_structural   Cd4BiB3O10
_chemical_formula_sum   'Cd4 Bi1 B3 O10'
_cell_volume   228.80951027
_cell_formula_units_Z   1
loop_
 _symmetry_equiv_pos_site_id
 _symmetry_equiv_pos_as_xyz
  1  'x, y, z'
loop_
 _atom_site_type_symbol
 _atom_site_label
 _atom_site_symmetry_multiplicity
 _atom_site_fract_x
 _atom_site_fract_y
 _atom_site_fract_z
 _atom_site_occupancy
  Cd  Cd0  1  0.16745400  0.96823600  0.23023400  1
  Cd  Cd1  1  0.16745400  0.19847100  0.76976600  1
  Cd  Cd2  1  0.84981200  0.52818500  0.35672800  1
  Cd  Cd3  1  0.84981200  0.88491300  0.64327200  1
  Bi  Bi4  1  0.50015600  0.43952500  0.00000000  1
  B  B5  1  0.41777800  0.58673300  0.60125500  1
  B  B6  1  0.41777800  0.18798800  0.39874500  1
  B  B7  1  0.78781000  0.82087500  0.00000000  1
  O  O8  1  0.41512500  0.37943600  0.29423500  1
  O  O9  1  0.41512500  0.67367100  0.70576500  1
  O  O10  1  0.21542100  0.67612800  0.45417600  1
  O  O11  1  0.21542100  0.13030300  0.54582400  1
  O  O12  1  0.61399500  0.05593100  0.35192200  1
  O  O13  1  0.61399500  0.40785300  0.64807800  1
  O  O14  1  0.73476100  0.82942400  0.15092500  1
  O  O15  1  0.73476100  0.98034900  0.84907500  1
  O  O16  1  0.89789500  0.64838300  0.00000000  1
  O  O17  1  0.07854600  0.25480300  0.00000000  1
