# generated using pymatgen
data_CeAl2Pd5
_symmetry_space_group_name_H-M   'P 1'
_cell_length_a   8.03190164
_cell_length_b   8.03190164
_cell_length_c   8.03190164
_cell_angle_alpha   149.65271284
_cell_angle_beta   149.65271284
_cell_angle_gamma   43.45142249
_symmetry_Int_Tables_number   1
_chemical_formula_structural   CeAl2Pd5
_chemical_formula_sum   'Ce1 Al2 Pd5'
_cell_volume   131.90850253
_cell_formula_units_Z   1
loop_
 _symmetry_equiv_pos_site_id
 _symmetry_equiv_pos_as_xyz
  1  'x, y, z'
loop_
 _atom_site_type_symbol
 _atom_site_label
 _atom_site_symmetry_multiplicity
 _atom_site_fract_x
 _atom_site_fract_y
 _atom_site_fract_z
 _atom_site_occupancy
  Ce  Ce0  1  0.50000000  0.50000000  0.00000000  1
  Al  Al1  1  0.24684500  0.24684500  0.00000000  1
  Al  Al2  1  0.75315500  0.75315500  0.00000000  1
  Pd  Pd3  1  0.64512000  0.14512000  0.50000000  1
  Pd  Pd4  1  0.35488000  0.85488000  0.50000000  1
  Pd  Pd5  1  0.14512000  0.64512000  0.50000000  1
  Pd  Pd6  1  0.85488000  0.35488000  0.50000000  1
  Pd  Pd7  1  0.00000000  0.00000000  0.00000000  1
