# generated using pymatgen
data_LuSn2
_symmetry_space_group_name_H-M   'P 1'
_cell_length_a   8.35626130
_cell_length_b   8.35626130
_cell_length_c   4.33630900
_cell_angle_alpha   90.00000000
_cell_angle_beta   90.00000000
_cell_angle_gamma   149.59179038
_symmetry_Int_Tables_number   1
_chemical_formula_structural   LuSn2
_chemical_formula_sum   'Lu2 Sn4'
_cell_volume   153.26034118
_cell_formula_units_Z   2
loop_
 _symmetry_equiv_pos_site_id
 _symmetry_equiv_pos_as_xyz
  1  'x, y, z'
loop_
 _atom_site_type_symbol
 _atom_site_label
 _atom_site_symmetry_multiplicity
 _atom_site_fract_x
 _atom_site_fract_y
 _atom_site_fract_z
 _atom_site_occupancy
  Lu  Lu0  1  0.90132500  0.09867500  0.75000000  1
  Lu  Lu1  1  0.09867500  0.90132500  0.25000000  1
  Sn  Sn2  1  0.56509300  0.43490700  0.75000000  1
  Sn  Sn3  1  0.43490700  0.56509300  0.25000000  1
  Sn  Sn4  1  0.25049100  0.74950900  0.75000000  1
  Sn  Sn5  1  0.74950900  0.25049100  0.25000000  1
