# generated using pymatgen
data_Yb7MgPt4
_symmetry_space_group_name_H-M   'P 1'
_cell_length_a   4.33864900
_cell_length_b   7.50022700
_cell_length_c   8.83753273
_cell_angle_alpha   89.66871146
_cell_angle_beta   90.00000000
_cell_angle_gamma   90.00000000
_symmetry_Int_Tables_number   1
_chemical_formula_structural   Yb7MgPt4
_chemical_formula_sum   'Yb7 Mg1 Pt4'
_cell_volume   287.57604065
_cell_formula_units_Z   1
loop_
 _symmetry_equiv_pos_site_id
 _symmetry_equiv_pos_as_xyz
  1  'x, y, z'
loop_
 _atom_site_type_symbol
 _atom_site_label
 _atom_site_symmetry_multiplicity
 _atom_site_fract_x
 _atom_site_fract_y
 _atom_site_fract_z
 _atom_site_occupancy
  Yb  Yb0  1  0.50000000  0.52869900  0.82698500  1
  Yb  Yb1  1  0.50000000  0.02192700  0.66422600  1
  Yb  Yb2  1  0.00000000  0.47911100  0.17783800  1
  Yb  Yb3  1  0.00000000  0.96288300  0.33410200  1
  Yb  Yb4  1  0.50000000  0.14627600  0.06884000  1
  Yb  Yb5  1  0.00000000  0.36165000  0.56334600  1
  Yb  Yb6  1  0.00000000  0.85230000  0.93249100  1
  Mg  Mg7  1  0.50000000  0.64531600  0.43421100  1
  Pt  Pt8  1  0.50000000  0.75543100  0.13128900  1
  Pt  Pt9  1  0.50000000  0.26780400  0.37561600  1
  Pt  Pt10  1  0.00000000  0.24106300  0.87435000  1
  Pt  Pt11  1  0.00000000  0.73753900  0.61670700  1
