# generated using pymatgen
data_ErCoGe
_symmetry_space_group_name_H-M   'P 1'
_cell_length_a   4.20531600
_cell_length_b   6.80868100
_cell_length_c   7.20871300
_cell_angle_alpha   90.00000000
_cell_angle_beta   90.00000000
_cell_angle_gamma   90.00000000
_symmetry_Int_Tables_number   1
_chemical_formula_structural   ErCoGe
_chemical_formula_sum   'Er4 Co4 Ge4'
_cell_volume   206.40459339
_cell_formula_units_Z   4
loop_
 _symmetry_equiv_pos_site_id
 _symmetry_equiv_pos_as_xyz
  1  'x, y, z'
loop_
 _atom_site_type_symbol
 _atom_site_label
 _atom_site_symmetry_multiplicity
 _atom_site_fract_x
 _atom_site_fract_y
 _atom_site_fract_z
 _atom_site_occupancy
  Er  Er0  1  0.25000000  0.00762300  0.80175900  1
  Er  Er1  1  0.25000000  0.50762300  0.69824100  1
  Er  Er2  1  0.75000000  0.99237700  0.19824100  1
  Er  Er3  1  0.75000000  0.49237700  0.30175900  1
  Co  Co4  1  0.25000000  0.83257400  0.42653900  1
  Co  Co5  1  0.25000000  0.33257400  0.07346100  1
  Co  Co6  1  0.75000000  0.16742600  0.57346100  1
  Co  Co7  1  0.75000000  0.66742600  0.92653900  1
  Ge  Ge8  1  0.25000000  0.19964400  0.40147600  1
  Ge  Ge9  1  0.25000000  0.69964400  0.09852400  1
  Ge  Ge10  1  0.75000000  0.80035600  0.59852400  1
  Ge  Ge11  1  0.75000000  0.30035600  0.90147600  1
