# generated using pymatgen
data_Sr6Ga5N
_symmetry_space_group_name_H-M   'P 1'
_cell_length_a   14.24369970
_cell_length_b   14.24369970
_cell_length_c   14.24369959
_cell_angle_alpha   30.97008575
_cell_angle_beta   30.97008575
_cell_angle_gamma   30.97008617
_symmetry_Int_Tables_number   1
_chemical_formula_structural   Sr6Ga5N
_chemical_formula_sum   'Sr12 Ga10 N2'
_cell_volume   678.81703006
_cell_formula_units_Z   2
loop_
 _symmetry_equiv_pos_site_id
 _symmetry_equiv_pos_as_xyz
  1  'x, y, z'
loop_
 _atom_site_type_symbol
 _atom_site_label
 _atom_site_symmetry_multiplicity
 _atom_site_fract_x
 _atom_site_fract_y
 _atom_site_fract_z
 _atom_site_occupancy
  Sr  Sr0  1  0.78467700  0.24195000  0.36535500  1
  Sr  Sr1  1  0.24195000  0.36535500  0.78467700  1
  Sr  Sr2  1  0.36535500  0.78467700  0.24195000  1
  Sr  Sr3  1  0.71532300  0.13464500  0.25805000  1
  Sr  Sr4  1  0.13464500  0.25805000  0.71532300  1
  Sr  Sr5  1  0.25805000  0.71532300  0.13464500  1
  Sr  Sr6  1  0.21532300  0.75805000  0.63464500  1
  Sr  Sr7  1  0.75805000  0.63464500  0.21532300  1
  Sr  Sr8  1  0.63464500  0.21532300  0.75805000  1
  Sr  Sr9  1  0.28467700  0.86535500  0.74195000  1
  Sr  Sr10  1  0.86535500  0.74195000  0.28467700  1
  Sr  Sr11  1  0.74195000  0.28467700  0.86535500  1
  Ga  Ga12  1  0.25000000  0.45872100  0.04127900  1
  Ga  Ga13  1  0.19434900  0.19434900  0.19434900  1
  Ga  Ga14  1  0.69434900  0.69434900  0.69434900  1
  Ga  Ga15  1  0.30565100  0.30565100  0.30565100  1
  Ga  Ga16  1  0.80565100  0.80565100  0.80565100  1
  Ga  Ga17  1  0.45872100  0.04127900  0.25000000  1
  Ga  Ga18  1  0.04127900  0.25000000  0.45872100  1
  Ga  Ga19  1  0.75000000  0.54127900  0.95872100  1
  Ga  Ga20  1  0.54127900  0.95872100  0.75000000  1
  Ga  Ga21  1  0.95872100  0.75000000  0.54127900  1
  N  N22  1  0.50000000  0.50000000  0.50000000  1
  N  N23  1  0.00000000  0.00000000  0.00000000  1
