# generated using pymatgen
data_Ho5IrBr9
_symmetry_space_group_name_H-M   'P 1'
_cell_length_a   12.93946676
_cell_length_b   12.93946676
_cell_length_c   24.74700771
_cell_angle_alpha   105.15522666
_cell_angle_beta   105.15522666
_cell_angle_gamma   90.00000000
_symmetry_Int_Tables_number   1
_chemical_formula_structural   Ho5IrBr9
_chemical_formula_sum   'Ho40 Ir8 Br72'
_cell_volume   3849.79141612
_cell_formula_units_Z   8
loop_
 _symmetry_equiv_pos_site_id
 _symmetry_equiv_pos_as_xyz
  1  'x, y, z'
loop_
 _atom_site_type_symbol
 _atom_site_label
 _atom_site_symmetry_multiplicity
 _atom_site_fract_x
 _atom_site_fract_y
 _atom_site_fract_z
 _atom_site_occupancy
  Ho  Ho0  1  0.10747901  0.24507479  0.31819687  1
  Ho  Ho1  1  0.21071786  0.57312208  0.31819687  1
  Ho  Ho2  1  0.74507479  0.71071786  0.81819687  1
  Ho  Ho3  1  0.07312208  0.60747901  0.81819687  1
  Ho  Ho4  1  0.89252099  0.75492521  0.68180313  1
  Ho  Ho5  1  0.78928214  0.42687792  0.68180313  1
  Ho  Ho6  1  0.25492521  0.28928214  0.18180313  1
  Ho  Ho7  1  0.92687792  0.39252099  0.18180313  1
  Ho  Ho8  1  0.83483904  0.35973835  0.31031318  1
  Ho  Ho9  1  0.47547414  0.45057483  0.31031318  1
  Ho  Ho10  1  0.85973835  0.97547414  0.81031318  1
  Ho  Ho11  1  0.95057483  0.33483904  0.81031318  1
  Ho  Ho12  1  0.16516096  0.64026165  0.68968682  1
  Ho  Ho13  1  0.52452586  0.54942517  0.68968682  1
  Ho  Ho14  1  0.14026165  0.02452586  0.18968682  1
  Ho  Ho15  1  0.04942517  0.66516096  0.18968682  1
  Ho  Ho16  1  0.91849636  0.62752004  0.30748476  1
  Ho  Ho17  1  0.38898840  0.17996472  0.30748476  1
  Ho  Ho18  1  0.12752004  0.88898840  0.80748476  1
  Ho  Ho19  1  0.67996472  0.41849636  0.80748476  1
  Ho  Ho20  1  0.08150364  0.37247996  0.69251524  1
  Ho  Ho21  1  0.61101160  0.82003528  0.69251524  1
  Ho  Ho22  1  0.87247996  0.11101160  0.19251524  1
  Ho  Ho23  1  0.32003528  0.58150364  0.19251524  1
  Ho  Ho24  1  0.86825038  0.91714097  0.43287804  1
  Ho  Ho25  1  0.56462766  0.01573708  0.43287804  1
  Ho  Ho26  1  0.41714097  0.06462766  0.93287804  1
  Ho  Ho27  1  0.51573708  0.36825038  0.93287804  1
  Ho  Ho28  1  0.13174962  0.08285903  0.56712196  1
  Ho  Ho29  1  0.43537234  0.98426292  0.56712196  1
  Ho  Ho30  1  0.58285903  0.93537234  0.06712196  1
  Ho  Ho31  1  0.48426292  0.63174962  0.06712196  1
  Ho  Ho32  1  0.06934618  0.50558825  0.42087740  1
  Ho  Ho33  1  0.35153122  0.41528915  0.42087740  1
  Ho  Ho34  1  0.00558825  0.85153122  0.92087740  1
  Ho  Ho35  1  0.91528915  0.56934618  0.92087740  1
  Ho  Ho36  1  0.93065382  0.49441175  0.57912260  1
  Ho  Ho37  1  0.64846878  0.58471085  0.57912260  1
  Ho  Ho38  1  0.99441175  0.14846878  0.07912260  1
  Ho  Ho39  1  0.08471085  0.43065382  0.07912260  1
  Ir  Ir40  1  0.02392707  0.44177033  0.30294258  1
  Ir  Ir41  1  0.27901552  0.36117225  0.30294258  1
  Ir  Ir42  1  0.94177033  0.77901552  0.80294258  1
  Ir  Ir43  1  0.86117225  0.52392707  0.80294258  1
  Ir  Ir44  1  0.97607293  0.55822967  0.69705742  1
  Ir  Ir45  1  0.72098448  0.63882775  0.69705742  1
  Ir  Ir46  1  0.05822967  0.22098448  0.19705742  1
  Ir  Ir47  1  0.13882775  0.47607293  0.19705742  1
  Br  Br48  1  0.97103318  0.71588716  0.43368663  1
  Br  Br49  1  0.46265345  0.21779947  0.43368663  1
  Br  Br50  1  0.21588716  0.96265345  0.93368663  1
  Br  Br51  1  0.71779947  0.47103318  0.93368663  1
  Br  Br52  1  0.02896682  0.28411284  0.56631337  1
  Br  Br53  1  0.53734655  0.78220053  0.56631337  1
  Br  Br54  1  0.78411284  0.03734655  0.06631337  1
  Br  Br55  1  0.28220053  0.52896682  0.06631337  1
  Br  Br56  1  0.81079676  0.83633866  0.31551924  1
  Br  Br57  1  0.50472249  0.97918058  0.31551924  1
  Br  Br58  1  0.33633866  0.00472249  0.81551924  1
  Br  Br59  1  0.47918058  0.31079676  0.81551924  1
  Br  Br60  1  0.18920324  0.16366134  0.68448076  1
  Br  Br61  1  0.49527751  0.02081942  0.68448076  1
  Br  Br62  1  0.66366134  0.99527751  0.18448076  1
  Br  Br63  1  0.52081942  0.68920324  0.18448076  1
  Br  Br64  1  0.17887888  0.32501499  0.45166565  1
  Br  Br65  1  0.27278677  0.62665066  0.45166565  1
  Br  Br66  1  0.82501499  0.77278677  0.95166565  1
  Br  Br67  1  0.12665066  0.67887888  0.95166565  1
  Br  Br68  1  0.82112112  0.67498501  0.54833435  1
  Br  Br69  1  0.72721323  0.37334934  0.54833435  1
  Br  Br70  1  0.17498501  0.22721323  0.04833435  1
  Br  Br71  1  0.87334934  0.32112112  0.04833435  1
  Br  Br72  1  0.89040816  0.14464644  0.31476688  1
  Br  Br73  1  0.42435871  0.67012044  0.31476688  1
  Br  Br74  1  0.64464644  0.92435871  0.81476688  1
  Br  Br75  1  0.17012044  0.39040816  0.81476688  1
  Br  Br76  1  0.10959184  0.85535356  0.68523312  1
  Br  Br77  1  0.57564129  0.32987956  0.68523312  1
  Br  Br78  1  0.35535356  0.07564129  0.18523312  1
  Br  Br79  1  0.82987956  0.60959184  0.18523312  1
  Br  Br80  1  0.71404137  0.54420317  0.31496948  1
  Br  Br81  1  0.60092810  0.27076630  0.31496948  1
  Br  Br82  1  0.04420317  0.10092810  0.81496948  1
  Br  Br83  1  0.77076630  0.21404137  0.81496948  1
  Br  Br84  1  0.28595863  0.45579683  0.68503052  1
  Br  Br85  1  0.39907190  0.72923370  0.68503052  1
  Br  Br86  1  0.95579683  0.89907190  0.18503052  1
  Br  Br87  1  0.22923370  0.78595863  0.18503052  1
  Br  Br88  1  0.88319657  0.41504385  0.43729328  1
  Br  Br89  1  0.55409671  0.52224944  0.43729328  1
  Br  Br90  1  0.91504385  0.05409671  0.93729328  1
  Br  Br91  1  0.02224944  0.38319657  0.93729328  1
  Br  Br92  1  0.11680343  0.58495615  0.56270672  1
  Br  Br93  1  0.44590329  0.47775056  0.56270672  1
  Br  Br94  1  0.08495615  0.94590329  0.06270672  1
  Br  Br95  1  0.97775056  0.61680343  0.06270672  1
  Br  Br96  1  0.21849120  0.03931185  0.31278548  1
  Br  Br97  1  0.09429428  0.77347363  0.31278548  1
  Br  Br98  1  0.53931185  0.59429428  0.81278548  1
  Br  Br99  1  0.27347363  0.71849120  0.81278548  1
  Br  Br100  1  0.78150880  0.96068815  0.68721452  1
  Br  Br101  1  0.90570572  0.22652637  0.68721452  1
  Br  Br102  1  0.46068815  0.40570572  0.18721452  1
  Br  Br103  1  0.72652637  0.28150880  0.18721452  1
  Br  Br104  1  0.76528695  0.10738886  0.43848719  1
  Br  Br105  1  0.67320024  0.83109833  0.43848719  1
  Br  Br106  1  0.60738886  0.17320024  0.93848719  1
  Br  Br107  1  0.33109833  0.26528695  0.93848719  1
  Br  Br108  1  0.23471305  0.89261114  0.56151281  1
  Br  Br109  1  0.32679976  0.16890167  0.56151281  1
  Br  Br110  1  0.39261114  0.82679976  0.06151281  1
  Br  Br111  1  0.66890167  0.73471305  0.06151281  1
  Br  Br112  1  0.06096080  0.02756371  0.44343572  1
  Br  Br113  1  0.38247492  0.91587201  0.44343572  1
  Br  Br114  1  0.52756371  0.88247492  0.94343572  1
  Br  Br115  1  0.41587201  0.56096080  0.94343572  1
  Br  Br116  1  0.93903920  0.97243629  0.55656428  1
  Br  Br117  1  0.61752508  0.08412799  0.55656428  1
  Br  Br118  1  0.47243629  0.11752508  0.05656428  1
  Br  Br119  1  0.58412799  0.43903920  0.05656428  1
