# generated using pymatgen
data_Ho(NO3)3
_symmetry_space_group_name_H-M   'P 1'
_cell_length_a   6.15617900
_cell_length_b   9.70788600
_cell_length_c   11.08248132
_cell_angle_alpha   86.82276119
_cell_angle_beta   90.00000000
_cell_angle_gamma   90.00000000
_symmetry_Int_Tables_number   1
_chemical_formula_structural   Ho(NO3)3
_chemical_formula_sum   'Ho4 N12 O36'
_cell_volume   661.30960417
_cell_formula_units_Z   4
loop_
 _symmetry_equiv_pos_site_id
 _symmetry_equiv_pos_as_xyz
  1  'x, y, z'
loop_
 _atom_site_type_symbol
 _atom_site_label
 _atom_site_symmetry_multiplicity
 _atom_site_fract_x
 _atom_site_fract_y
 _atom_site_fract_z
 _atom_site_occupancy
  Ho  Ho0  1  0.67342500  0.27883100  0.73617100  1
  Ho  Ho1  1  0.17342500  0.22116900  0.26382900  1
  Ho  Ho2  1  0.32657500  0.72116900  0.26382900  1
  Ho  Ho3  1  0.82657500  0.77883100  0.73617100  1
  N  N4  1  0.37682700  0.16663900  0.49202800  1
  N  N5  1  0.87682700  0.33336100  0.50797200  1
  N  N6  1  0.62317300  0.83336100  0.50797200  1
  N  N7  1  0.12317300  0.66663900  0.49202800  1
  N  N8  1  0.72557100  0.20940600  0.20977300  1
  N  N9  1  0.22557100  0.29059400  0.79022700  1
  N  N10  1  0.27442900  0.79059400  0.79022700  1
  N  N11  1  0.77442900  0.70940600  0.20977300  1
  N  N12  1  0.71883900  0.51967000  0.88101000  1
  N  N13  1  0.21883900  0.98033000  0.11899000  1
  N  N14  1  0.28116100  0.48033000  0.11899000  1
  N  N15  1  0.78116100  0.01967000  0.88101000  1
  O  O16  1  0.42402100  0.27230800  0.42302000  1
  O  O17  1  0.92402100  0.22769200  0.57698000  1
  O  O18  1  0.57597900  0.72769200  0.57698000  1
  O  O19  1  0.07597900  0.77230800  0.42302000  1
  O  O20  1  0.24293000  0.08123300  0.45218300  1
  O  O21  1  0.74293000  0.41876700  0.54781700  1
  O  O22  1  0.75707000  0.91876700  0.54781700  1
  O  O23  1  0.25707000  0.58123300  0.45218300  1
  O  O24  1  0.45885500  0.14827400  0.59535000  1
  O  O25  1  0.95885500  0.35172600  0.40465000  1
  O  O26  1  0.54114500  0.85172600  0.40465000  1
  O  O27  1  0.04114500  0.64827400  0.59535000  1
  O  O28  1  0.82009600  0.11240200  0.27154600  1
  O  O29  1  0.32009600  0.38759800  0.72845400  1
  O  O30  1  0.17990400  0.88759800  0.72845400  1
  O  O31  1  0.67990400  0.61240200  0.27154600  1
  O  O32  1  0.52620000  0.20364500  0.18663000  1
  O  O33  1  0.02620000  0.29635500  0.81337000  1
  O  O34  1  0.47380000  0.79635500  0.81337000  1
  O  O35  1  0.97380000  0.70364500  0.18663000  1
  O  O36  1  0.83908400  0.31101900  0.17079600  1
  O  O37  1  0.33908400  0.18898100  0.82920400  1
  O  O38  1  0.16091600  0.68898100  0.82920400  1
  O  O39  1  0.66091600  0.81101900  0.17079600  1
  O  O40  1  0.72864600  0.53306400  0.76275700  1
  O  O41  1  0.22864600  0.96693600  0.23724300  1
  O  O42  1  0.27135400  0.46693600  0.23724300  1
  O  O43  1  0.77135400  0.03306400  0.76275700  1
  O  O44  1  0.66061700  0.40423100  0.92601000  1
  O  O45  1  0.16061700  0.09576900  0.07399000  1
  O  O46  1  0.33938300  0.59576900  0.07399000  1
  O  O47  1  0.83938300  0.90423100  0.92601000  1
  O  O48  1  0.76890800  0.62056300  0.93931200  1
  O  O49  1  0.26890800  0.87943700  0.06068800  1
  O  O50  1  0.23109200  0.37943700  0.06068800  1
  O  O51  1  0.73109200  0.12056300  0.93931200  1
