# generated using pymatgen
data_Ba2MnWO6
_symmetry_space_group_name_H-M   'P 1'
_cell_length_a   5.90095802
_cell_length_b   10.22075880
_cell_length_c   5.90095754
_cell_angle_alpha   106.77865115
_cell_angle_beta   59.99999774
_cell_angle_gamma   106.77865539
_symmetry_Int_Tables_number   1
_chemical_formula_structural   Ba2MnWO6
_chemical_formula_sum   'Ba4 Mn2 W2 O12'
_cell_volume   290.59124141
_cell_formula_units_Z   2
loop_
 _symmetry_equiv_pos_site_id
 _symmetry_equiv_pos_as_xyz
  1  'x, y, z'
loop_
 _atom_site_type_symbol
 _atom_site_label
 _atom_site_symmetry_multiplicity
 _atom_site_fract_x
 _atom_site_fract_y
 _atom_site_fract_z
 _atom_site_occupancy
  Ba  Ba0  1  0.37500000  0.12500000  0.37500000  1
  Ba  Ba1  1  0.87500000  0.62500000  0.87500000  1
  Ba  Ba2  1  0.12499900  0.37500000  0.12500000  1
  Ba  Ba3  1  0.62499900  0.87500000  0.62500000  1
  Mn  Mn4  1  0.50000000  0.50000000  0.50000000  1
  Mn  Mn5  1  0.00000000  0.00000000  0.00000000  1
  W  W6  1  0.74999900  0.25000000  0.75000000  1
  W  W7  1  0.24999900  0.75000000  0.25000000  1
  O  O8  1  0.10281900  0.36760600  0.63239400  1
  O  O9  1  0.60281900  0.86760600  0.13239400  1
  O  O10  1  0.86760700  0.13239400  0.39718100  1
  O  O11  1  0.36760700  0.63239400  0.89718100  1
  O  O12  1  0.63239400  0.36760600  0.10281800  1
  O  O13  1  0.13239400  0.86760600  0.60281800  1
  O  O14  1  0.63239400  0.36760600  0.63239300  1
  O  O15  1  0.13239400  0.86760600  0.13239300  1
  O  O16  1  0.39718200  0.13239400  0.86760600  1
  O  O17  1  0.89718200  0.63239400  0.36760600  1
  O  O18  1  0.86760600  0.13239300  0.86760500  1
  O  O19  1  0.36760600  0.63239300  0.36760500  1
