# generated using pymatgen
data_Ca(CoO2)2
_symmetry_space_group_name_H-M   'P 1'
_cell_length_a   2.92971200
_cell_length_b   8.80112900
_cell_length_c   10.32013100
_cell_angle_alpha   90.00000000
_cell_angle_beta   90.00000000
_cell_angle_gamma   90.00000000
_symmetry_Int_Tables_number   1
_chemical_formula_structural   Ca(CoO2)2
_chemical_formula_sum   'Ca4 Co8 O16'
_cell_volume   266.10223769
_cell_formula_units_Z   4
loop_
 _symmetry_equiv_pos_site_id
 _symmetry_equiv_pos_as_xyz
  1  'x, y, z'
loop_
 _atom_site_type_symbol
 _atom_site_label
 _atom_site_symmetry_multiplicity
 _atom_site_fract_x
 _atom_site_fract_y
 _atom_site_fract_z
 _atom_site_occupancy
  Ca  Ca0  1  0.75000000  0.76084100  0.66352600  1
  Ca  Ca1  1  0.25000000  0.23915900  0.33647400  1
  Ca  Ca2  1  0.75000000  0.26084100  0.83647400  1
  Ca  Ca3  1  0.25000000  0.73915900  0.16352600  1
  Co  Co4  1  0.75000000  0.94287400  0.88835600  1
  Co  Co5  1  0.25000000  0.05712600  0.11164400  1
  Co  Co6  1  0.75000000  0.44287400  0.61164400  1
  Co  Co7  1  0.25000000  0.55712600  0.38835600  1
  Co  Co8  1  0.75000000  0.91584400  0.40241800  1
  Co  Co9  1  0.25000000  0.08415600  0.59758200  1
  Co  Co10  1  0.75000000  0.41584400  0.09758200  1
  Co  Co11  1  0.25000000  0.58415600  0.90241800  1
  O  O12  1  0.75000000  0.69816200  0.34394400  1
  O  O13  1  0.25000000  0.30183800  0.65605600  1
  O  O14  1  0.75000000  0.19816200  0.15605600  1
  O  O15  1  0.25000000  0.80183800  0.84394400  1
  O  O16  1  0.75000000  0.61455700  0.02317800  1
  O  O17  1  0.25000000  0.38544300  0.97682200  1
  O  O18  1  0.75000000  0.11455700  0.47682200  1
  O  O19  1  0.25000000  0.88544300  0.52317800  1
  O  O20  1  0.75000000  0.53193500  0.78819100  1
  O  O21  1  0.25000000  0.46806500  0.21180900  1
  O  O22  1  0.75000000  0.03193500  0.71180900  1
  O  O23  1  0.25000000  0.96806500  0.28819100  1
  O  O24  1  0.75000000  0.92083200  0.07228800  1
  O  O25  1  0.25000000  0.07916800  0.92771200  1
  O  O26  1  0.75000000  0.42083200  0.42771200  1
  O  O27  1  0.25000000  0.57916800  0.57228800  1
