# generated using pymatgen
data_Ho3Si3O10F
_symmetry_space_group_name_H-M   'P 1'
_cell_length_a   11.22648100
_cell_length_b   7.36589100
_cell_length_c   11.98641516
_cell_angle_alpha   59.74073109
_cell_angle_beta   90.00000000
_cell_angle_gamma   90.00000000
_symmetry_Int_Tables_number   1
_chemical_formula_structural   Ho3Si3O10F
_chemical_formula_sum   'Ho12 Si12 O40 F4'
_cell_volume   856.14696069
_cell_formula_units_Z   4
loop_
 _symmetry_equiv_pos_site_id
 _symmetry_equiv_pos_as_xyz
  1  'x, y, z'
loop_
 _atom_site_type_symbol
 _atom_site_label
 _atom_site_symmetry_multiplicity
 _atom_site_fract_x
 _atom_site_fract_y
 _atom_site_fract_z
 _atom_site_occupancy
  Ho  Ho0  1  0.46923200  0.74409000  0.01827400  1
  Ho  Ho1  1  0.96923200  0.25591000  0.48172600  1
  Ho  Ho2  1  0.53076800  0.25591000  0.98172600  1
  Ho  Ho3  1  0.03076800  0.74409000  0.51827400  1
  Ho  Ho4  1  0.22916100  0.59602700  0.31087300  1
  Ho  Ho5  1  0.72916100  0.40397300  0.18912700  1
  Ho  Ho6  1  0.77083900  0.40397300  0.68912700  1
  Ho  Ho7  1  0.27083900  0.59602700  0.81087300  1
  Ho  Ho8  1  0.09847100  0.80559400  0.99681500  1
  Ho  Ho9  1  0.59847100  0.19440600  0.50318500  1
  Ho  Ho10  1  0.90152900  0.19440600  0.00318500  1
  Ho  Ho11  1  0.40152900  0.80559400  0.49681500  1
  Si  Si12  1  0.46343200  0.28631500  0.70843500  1
  Si  Si13  1  0.75575700  0.87602200  0.89011800  1
  Si  Si14  1  0.74424300  0.87602200  0.39011800  1
  Si  Si15  1  0.24424300  0.12397800  0.10988200  1
  Si  Si16  1  0.41381900  0.28515100  0.24059200  1
  Si  Si17  1  0.91381900  0.71484900  0.25940800  1
  Si  Si18  1  0.58618100  0.71484900  0.75940800  1
  Si  Si19  1  0.08618100  0.28515100  0.74059200  1
  Si  Si20  1  0.03656800  0.28631500  0.20843500  1
  Si  Si21  1  0.53656800  0.71368500  0.29156500  1
  Si  Si22  1  0.25575700  0.12397800  0.60988200  1
  Si  Si23  1  0.96343200  0.71368500  0.79156500  1
  O  O24  1  0.09062600  0.65782900  0.86998200  1
  O  O25  1  0.59062600  0.34217100  0.63001800  1
  O  O26  1  0.90937400  0.34217100  0.13001800  1
  O  O27  1  0.40937400  0.65782900  0.36998200  1
  O  O28  1  0.47823200  0.10390900  0.86209900  1
  O  O29  1  0.97823200  0.89609100  0.63790100  1
  O  O30  1  0.52176800  0.89609100  0.13790100  1
  O  O31  1  0.02176800  0.10390900  0.36209900  1
  O  O32  1  0.10391700  0.49595700  0.19136800  1
  O  O33  1  0.60391700  0.50404300  0.30863200  1
  O  O34  1  0.89608300  0.50404300  0.80863200  1
  O  O35  1  0.39608300  0.49595700  0.69136800  1
  O  O36  1  0.39212000  0.19914300  0.62148000  1
  O  O37  1  0.89212000  0.80085700  0.87852000  1
  O  O38  1  0.60788000  0.80085700  0.37852000  1
  O  O39  1  0.10788000  0.19914300  0.12148000  1
  O  O40  1  0.35677200  0.51433100  0.19734500  1
  O  O41  1  0.27440600  0.89632200  0.62065200  1
  O  O42  1  0.72559400  0.10367800  0.37934800  1
  O  O43  1  0.22559400  0.89632200  0.12065200  1
  O  O44  1  0.18102500  0.28751100  0.48144700  1
  O  O45  1  0.68102500  0.71248900  0.01855300  1
  O  O46  1  0.81897500  0.71248900  0.51855300  1
  O  O47  1  0.31897500  0.28751100  0.98144700  1
  O  O48  1  0.17839000  0.11569300  0.73068400  1
  O  O49  1  0.67839000  0.88430700  0.76931600  1
  O  O50  1  0.82161000  0.88430700  0.26931600  1
  O  O51  1  0.32161000  0.11569300  0.23068400  1
  O  O52  1  0.02451000  0.64889300  0.36349400  1
  O  O53  1  0.52451000  0.35110700  0.13650600  1
  O  O54  1  0.97549000  0.35110700  0.63650600  1
  O  O55  1  0.47549000  0.64889300  0.86349400  1
  O  O56  1  0.04974900  0.14827000  0.89221800  1
  O  O57  1  0.54974900  0.85173000  0.60778200  1
  O  O58  1  0.95025100  0.85173000  0.10778200  1
  O  O59  1  0.45025100  0.14827000  0.39221800  1
  O  O60  1  0.14322800  0.51433100  0.69734500  1
  O  O61  1  0.64322800  0.48566900  0.80265500  1
  O  O62  1  0.85677200  0.48566900  0.30265500  1
  O  O63  1  0.77440600  0.10367800  0.87934800  1
  F  F64  1  0.71436500  0.24353300  0.05936600  1
  F  F65  1  0.21436500  0.75646700  0.44063400  1
  F  F66  1  0.78563500  0.24353300  0.55936600  1
  F  F67  1  0.28563500  0.75646700  0.94063400  1
