# generated using pymatgen
data_Na2FePCO7
_symmetry_space_group_name_H-M   'P 1'
_cell_length_a   6.57679800
_cell_length_b   5.26414300
_cell_length_c   9.05256442
_cell_angle_alpha   88.67941543
_cell_angle_beta   90.00000000
_cell_angle_gamma   90.00000000
_symmetry_Int_Tables_number   1
_chemical_formula_structural   Na2FePCO7
_chemical_formula_sum   'Na4 Fe2 P2 C2 O14'
_cell_volume   313.32744604
_cell_formula_units_Z   2
loop_
 _symmetry_equiv_pos_site_id
 _symmetry_equiv_pos_as_xyz
  1  'x, y, z'
loop_
 _atom_site_type_symbol
 _atom_site_label
 _atom_site_symmetry_multiplicity
 _atom_site_fract_x
 _atom_site_fract_y
 _atom_site_fract_z
 _atom_site_occupancy
  Na  Na0  1  0.50400700  0.76257300  0.77366800  1
  Na  Na1  1  0.99599300  0.76257300  0.77366800  1
  Na  Na2  1  0.49599300  0.23742700  0.22633200  1
  Na  Na3  1  0.00400700  0.23742700  0.22633200  1
  Fe  Fe4  1  0.25000000  0.21433400  0.64275700  1
  Fe  Fe5  1  0.75000000  0.78566600  0.35724300  1
  P  P6  1  0.75000000  0.28279800  0.57258600  1
  P  P7  1  0.25000000  0.71720200  0.42741400  1
  C  C8  1  0.25000000  0.27324100  0.91858100  1
  C  C9  1  0.75000000  0.72675900  0.08141900  1
  O  O10  1  0.75000000  0.68991900  0.94508400  1
  O  O11  1  0.25000000  0.04839100  0.85902700  1
  O  O12  1  0.25000000  0.46111400  0.81850200  1
  O  O13  1  0.94094600  0.20365000  0.66154700  1
  O  O14  1  0.55905400  0.20365000  0.66154700  1
  O  O15  1  0.25000000  0.84747100  0.58039900  1
  O  O16  1  0.75000000  0.57884900  0.54550900  1
  O  O17  1  0.25000000  0.42115100  0.45449100  1
  O  O18  1  0.75000000  0.15252900  0.41960100  1
  O  O19  1  0.44094600  0.79635000  0.33845300  1
  O  O20  1  0.05905400  0.79635000  0.33845300  1
  O  O21  1  0.75000000  0.53888600  0.18149800  1
  O  O22  1  0.75000000  0.95160900  0.14097300  1
  O  O23  1  0.25000000  0.31008100  0.05491600  1
