# generated using pymatgen
data_Tm5BiPd2
_symmetry_space_group_name_H-M   'P 1'
_cell_length_a   8.79328466
_cell_length_b   8.79328466
_cell_length_c   8.79328466
_cell_angle_alpha   128.24656275
_cell_angle_beta   128.24656275
_cell_angle_gamma   76.22594540
_symmetry_Int_Tables_number   1
_chemical_formula_structural   Tm5BiPd2
_chemical_formula_sum   'Tm10 Bi2 Pd4'
_cell_volume   407.58363021
_cell_formula_units_Z   2
loop_
 _symmetry_equiv_pos_site_id
 _symmetry_equiv_pos_as_xyz
  1  'x, y, z'
loop_
 _atom_site_type_symbol
 _atom_site_label
 _atom_site_symmetry_multiplicity
 _atom_site_fract_x
 _atom_site_fract_y
 _atom_site_fract_z
 _atom_site_occupancy
  Tm  Tm0  1  0.00000000  0.00000000  0.00000000  1
  Tm  Tm1  1  0.50000000  0.50000000  0.00000000  1
  Tm  Tm2  1  0.79429500  0.29429500  0.80999200  1
  Tm  Tm3  1  0.20570500  0.70570500  0.19000800  1
  Tm  Tm4  1  0.48430300  0.98430300  0.19000800  1
  Tm  Tm5  1  0.29429500  0.48430300  0.50000000  1
  Tm  Tm6  1  0.01569700  0.20570500  0.50000000  1
  Tm  Tm7  1  0.51569700  0.01569700  0.80999200  1
  Tm  Tm8  1  0.70570500  0.51569700  0.50000000  1
  Tm  Tm9  1  0.98430300  0.79429500  0.50000000  1
  Bi  Bi10  1  0.25000000  0.25000000  0.00000000  1
  Bi  Bi11  1  0.75000000  0.75000000  0.00000000  1
  Pd  Pd12  1  0.13907900  0.63907900  0.77815900  1
  Pd  Pd13  1  0.86092100  0.36092100  0.22184100  1
  Pd  Pd14  1  0.63907900  0.86092100  0.50000000  1
  Pd  Pd15  1  0.36092100  0.13907900  0.50000000  1
