# generated using pymatgen
data_Li3GaGeO5
_symmetry_space_group_name_H-M   'P 1'
_cell_length_a   5.01458600
_cell_length_b   5.52817800
_cell_length_c   16.05410300
_cell_angle_alpha   90.00000000
_cell_angle_beta   90.00000000
_cell_angle_gamma   90.00000000
_symmetry_Int_Tables_number   1
_chemical_formula_structural   Li3GaGeO5
_chemical_formula_sum   'Li12 Ga4 Ge4 O20'
_cell_volume   445.04420168
_cell_formula_units_Z   4
loop_
 _symmetry_equiv_pos_site_id
 _symmetry_equiv_pos_as_xyz
  1  'x, y, z'
loop_
 _atom_site_type_symbol
 _atom_site_label
 _atom_site_symmetry_multiplicity
 _atom_site_fract_x
 _atom_site_fract_y
 _atom_site_fract_z
 _atom_site_occupancy
  Li  Li0  1  0.49269000  0.32587300  0.40332000  1
  Li  Li1  1  0.99269000  0.67412700  0.59668000  1
  Li  Li2  1  0.99269000  0.17412700  0.90332000  1
  Li  Li3  1  0.49269000  0.82587300  0.09668000  1
  Li  Li4  1  0.49499700  0.83761200  0.50411700  1
  Li  Li5  1  0.99499700  0.16238800  0.49588300  1
  Li  Li6  1  0.99499700  0.66238800  0.00411700  1
  Li  Li7  1  0.49499700  0.33761200  0.99588300  1
  Li  Li8  1  0.49329000  0.82930700  0.69732200  1
  Li  Li9  1  0.99329000  0.17069300  0.30267800  1
  Li  Li10  1  0.99329000  0.67069300  0.19732200  1
  Li  Li11  1  0.49329000  0.32930700  0.80267800  1
  Ga  Ga12  1  0.49279900  0.32926900  0.20085200  1
  Ga  Ga13  1  0.99279900  0.67073100  0.79914800  1
  Ga  Ga14  1  0.99279900  0.17073100  0.70085200  1
  Ga  Ga15  1  0.49279900  0.82926900  0.29914800  1
  Ge  Ge16  1  0.99884000  0.16184200  0.09676200  1
  Ge  Ge17  1  0.49884000  0.83815800  0.90323800  1
  Ge  Ge18  1  0.49884000  0.33815800  0.59676200  1
  Ge  Ge19  1  0.99884000  0.66184200  0.40323800  1
  O  O20  1  0.59413700  0.15200300  0.29449800  1
  O  O21  1  0.13655100  0.81926600  0.89413300  1
  O  O22  1  0.13655100  0.31926600  0.60586700  1
  O  O23  1  0.63655100  0.18073400  0.10586700  1
  O  O24  1  0.10085400  0.32023400  0.00873400  1
  O  O25  1  0.60085400  0.67976600  0.99126600  1
  O  O26  1  0.60085400  0.17976600  0.50873400  1
  O  O27  1  0.10085400  0.82023400  0.49126600  1
  O  O28  1  0.09913100  0.86020300  0.10209900  1
  O  O29  1  0.59913100  0.13979700  0.89790100  1
  O  O30  1  0.59913100  0.63979700  0.60209900  1
  O  O31  1  0.09913100  0.36020300  0.39790100  1
  O  O32  1  0.11671000  0.31751800  0.19109800  1
  O  O33  1  0.61671000  0.68248200  0.80890200  1
  O  O34  1  0.61671000  0.18248200  0.69109800  1
  O  O35  1  0.11671000  0.81751800  0.30890200  1
  O  O36  1  0.09413700  0.34799700  0.79449800  1
  O  O37  1  0.59413700  0.65200300  0.20550200  1
  O  O38  1  0.63655100  0.68073400  0.39413300  1
  O  O39  1  0.09413700  0.84799700  0.70550200  1
