# generated using pymatgen
data_K3TaS4
_symmetry_space_group_name_H-M   'P 1'
_cell_length_a   9.37747800
_cell_length_b   9.61136400
_cell_length_c   10.91137000
_cell_angle_alpha   90.00000000
_cell_angle_beta   90.00000000
_cell_angle_gamma   90.00000000
_symmetry_Int_Tables_number   1
_chemical_formula_structural   K3TaS4
_chemical_formula_sum   'K12 Ta4 S16'
_cell_volume   983.44564574
_cell_formula_units_Z   4
loop_
 _symmetry_equiv_pos_site_id
 _symmetry_equiv_pos_as_xyz
  1  'x, y, z'
loop_
 _atom_site_type_symbol
 _atom_site_label
 _atom_site_symmetry_multiplicity
 _atom_site_fract_x
 _atom_site_fract_y
 _atom_site_fract_z
 _atom_site_occupancy
  K  K0  1  0.56098900  0.28701700  0.04525800  1
  K  K1  1  0.13272700  0.42565300  0.75000000  1
  K  K2  1  0.86727300  0.57434700  0.25000000  1
  K  K3  1  0.36727300  0.92565300  0.25000000  1
  K  K4  1  0.43901100  0.71298300  0.95474200  1
  K  K5  1  0.93901100  0.78701700  0.54525800  1
  K  K6  1  0.06098900  0.21298300  0.04525800  1
  K  K7  1  0.56098900  0.28701700  0.45474200  1
  K  K8  1  0.43901100  0.71298300  0.54525800  1
  K  K9  1  0.06098900  0.21298300  0.45474200  1
  K  K10  1  0.93901100  0.78701700  0.95474200  1
  K  K11  1  0.63272700  0.07434700  0.75000000  1
  Ta  Ta12  1  0.71301900  0.51193500  0.75000000  1
  Ta  Ta13  1  0.21301900  0.98806500  0.75000000  1
  Ta  Ta14  1  0.78698100  0.01193500  0.25000000  1
  Ta  Ta15  1  0.28698100  0.48806500  0.25000000  1
  S  S16  1  0.16609100  0.55120100  0.07704300  1
  S  S17  1  0.66609100  0.94879900  0.42295700  1
  S  S18  1  0.33390900  0.05120100  0.92295700  1
  S  S19  1  0.83390900  0.44879900  0.57704300  1
  S  S20  1  0.83390900  0.44879900  0.92295700  1
  S  S21  1  0.33390900  0.05120100  0.57704300  1
  S  S22  1  0.66609100  0.94879900  0.07704300  1
  S  S23  1  0.16609100  0.55120100  0.42295700  1
  S  S24  1  0.68783500  0.74897900  0.75000000  1
  S  S25  1  0.18783500  0.75102100  0.75000000  1
  S  S26  1  0.81216500  0.24897900  0.25000000  1
  S  S27  1  0.31216500  0.25102100  0.25000000  1
  S  S28  1  0.49184300  0.41123600  0.75000000  1
  S  S29  1  0.50815700  0.58876400  0.25000000  1
  S  S30  1  0.00815700  0.91123600  0.25000000  1
  S  S31  1  0.99184300  0.08876400  0.75000000  1
