# generated using pymatgen
data_U8NiS17
_symmetry_space_group_name_H-M   'P 1'
_cell_length_a   7.76792566
_cell_length_b   7.76792566
_cell_length_c   10.24711772
_cell_angle_alpha   79.98181727
_cell_angle_beta   79.98181727
_cell_angle_gamma   64.07007307
_symmetry_Int_Tables_number   1
_chemical_formula_structural   U8NiS17
_chemical_formula_sum   'U8 Ni1 S17'
_cell_volume   544.23733057
_cell_formula_units_Z   1
loop_
 _symmetry_equiv_pos_site_id
 _symmetry_equiv_pos_as_xyz
  1  'x, y, z'
loop_
 _atom_site_type_symbol
 _atom_site_label
 _atom_site_symmetry_multiplicity
 _atom_site_fract_x
 _atom_site_fract_y
 _atom_site_fract_z
 _atom_site_occupancy
  U  U0  1  0.18186700  0.69951000  0.70418100  1
  U  U1  1  0.69951000  0.18186700  0.70418100  1
  U  U2  1  0.81813300  0.30049000  0.29581900  1
  U  U3  1  0.30049000  0.81813300  0.29581900  1
  U  U4  1  0.79807900  0.79807900  0.45377100  1
  U  U5  1  0.20192100  0.20192100  0.54622900  1
  U  U6  1  0.31656600  0.31656600  0.01641900  1
  U  U7  1  0.68343400  0.68343400  0.98358100  1
  Ni  Ni8  1  0.00000000  0.00000000  0.00000000  1
  S  S9  1  0.17986000  0.56653900  0.46571800  1
  S  S10  1  0.56653900  0.17986000  0.46571800  1
  S  S11  1  0.82014000  0.43346100  0.53428200  1
  S  S12  1  0.43346100  0.82014000  0.53428200  1
  S  S13  1  0.05543700  0.67539700  0.97131900  1
  S  S14  1  0.67539700  0.05543700  0.97131900  1
  S  S15  1  0.94456300  0.32460300  0.02868100  1
  S  S16  1  0.32460300  0.94456300  0.02868100  1
  S  S17  1  0.78804700  0.78804700  0.72131900  1
  S  S18  1  0.21195300  0.21195300  0.27868100  1
  S  S19  1  0.94427200  0.94427200  0.22326400  1
  S  S20  1  0.05572800  0.05572800  0.77673600  1
  S  S21  1  0.69874500  0.69874500  0.24418800  1
  S  S22  1  0.30125500  0.30125500  0.75581200  1
  S  S23  1  0.47840300  0.47840300  0.16923700  1
  S  S24  1  0.52159700  0.52159700  0.83076300  1
  S  S25  1  0.00000000  0.00000000  0.50000000  1
