# generated using pymatgen
data_Na3Sc(BO3)2
_symmetry_space_group_name_H-M   'P 1'
_cell_length_a   9.08394500
_cell_length_b   5.12386700
_cell_length_c   7.08312947
_cell_angle_alpha   56.40543825
_cell_angle_beta   90.00000000
_cell_angle_gamma   90.00000000
_symmetry_Int_Tables_number   1
_chemical_formula_structural   Na3Sc(BO3)2
_chemical_formula_sum   'Na6 Sc2 B4 O12'
_cell_volume   274.61790273
_cell_formula_units_Z   2
loop_
 _symmetry_equiv_pos_site_id
 _symmetry_equiv_pos_as_xyz
  1  'x, y, z'
loop_
 _atom_site_type_symbol
 _atom_site_label
 _atom_site_symmetry_multiplicity
 _atom_site_fract_x
 _atom_site_fract_y
 _atom_site_fract_z
 _atom_site_occupancy
  Na  Na0  1  0.50000000  0.00000000  0.00000000  1
  Na  Na1  1  0.00000000  0.00000000  0.50000000  1
  Na  Na2  1  0.83230900  0.26256100  0.73598500  1
  Na  Na3  1  0.33230900  0.73743900  0.76401500  1
  Na  Na4  1  0.16769100  0.73743900  0.26401500  1
  Na  Na5  1  0.66769100  0.26256100  0.23598500  1
  Sc  Sc6  1  0.50000000  0.50000000  0.50000000  1
  Sc  Sc7  1  0.00000000  0.50000000  0.00000000  1
  B  B8  1  0.66848400  0.77329900  0.73862500  1
  B  B9  1  0.16848400  0.22670100  0.76137500  1
  B  B10  1  0.33151600  0.22670100  0.26137500  1
  B  B11  1  0.83151600  0.77329900  0.23862500  1
  O  O12  1  0.58395900  0.52403100  0.77424000  1
  O  O13  1  0.08395900  0.47596900  0.72576000  1
  O  O14  1  0.41604100  0.47596900  0.22576000  1
  O  O15  1  0.91604100  0.52403100  0.27424000  1
  O  O16  1  0.60647900  0.06443400  0.65517100  1
  O  O17  1  0.10647900  0.93556600  0.84482900  1
  O  O18  1  0.39352100  0.93556600  0.34482900  1
  O  O19  1  0.89352100  0.06443400  0.15517100  1
  O  O20  1  0.81755800  0.73317000  0.79052000  1
  O  O21  1  0.31755800  0.26683000  0.70948000  1
  O  O22  1  0.18244200  0.26683000  0.20948000  1
  O  O23  1  0.68244200  0.73317000  0.29052000  1
