# generated using pymatgen
data_LiSm2IrO6
_symmetry_space_group_name_H-M   'P 1'
_cell_length_a   5.82053300
_cell_length_b   5.39348300
_cell_length_c   9.35714379
_cell_angle_alpha   55.51113381
_cell_angle_beta   90.00000000
_cell_angle_gamma   90.00000000
_symmetry_Int_Tables_number   1
_chemical_formula_structural   LiSm2IrO6
_chemical_formula_sum   'Li2 Sm4 Ir2 O12'
_cell_volume   242.11800020
_cell_formula_units_Z   2
loop_
 _symmetry_equiv_pos_site_id
 _symmetry_equiv_pos_as_xyz
  1  'x, y, z'
loop_
 _atom_site_type_symbol
 _atom_site_label
 _atom_site_symmetry_multiplicity
 _atom_site_fract_x
 _atom_site_fract_y
 _atom_site_fract_z
 _atom_site_occupancy
  Li  Li0  1  0.00000000  0.00000000  0.00000000  1
  Li  Li1  1  0.50000000  0.00000000  0.50000000  1
  Sm  Sm2  1  0.07779000  0.77279400  0.74787800  1
  Sm  Sm3  1  0.57779000  0.22720600  0.75212200  1
  Sm  Sm4  1  0.42221000  0.77279400  0.24787800  1
  Sm  Sm5  1  0.92221000  0.22720600  0.25212200  1
  Ir  Ir6  1  0.50000000  0.50000000  0.00000000  1
  Ir  Ir7  1  0.00000000  0.50000000  0.50000000  1
  O  O8  1  0.29131500  0.26762400  0.55679900  1
  O  O9  1  0.79131500  0.73237600  0.94320100  1
  O  O10  1  0.70868500  0.73237600  0.44320100  1
  O  O11  1  0.20868500  0.26762400  0.05679900  1
  O  O12  1  0.03462900  0.63871300  0.25378800  1
  O  O13  1  0.53462900  0.36128700  0.24621200  1
  O  O14  1  0.31468300  0.85571000  0.94833800  1
  O  O15  1  0.81468300  0.14429000  0.55166200  1
  O  O16  1  0.68531700  0.14429000  0.05166200  1
  O  O17  1  0.18531700  0.85571000  0.44833800  1
  O  O18  1  0.46537100  0.63871300  0.75378800  1
  O  O19  1  0.96537100  0.36128700  0.74621200  1
