# generated using pymatgen
data_CsCaTa6Cl18
_symmetry_space_group_name_H-M   'P 1'
_cell_length_a   9.42961513
_cell_length_b   9.42961513
_cell_length_c   17.58142800
_cell_angle_alpha   90.00000000
_cell_angle_beta   90.00000000
_cell_angle_gamma   119.99999390
_symmetry_Int_Tables_number   1
_chemical_formula_structural   CsCaTa6Cl18
_chemical_formula_sum   'Cs2 Ca2 Ta12 Cl36'
_cell_volume   1353.85682805
_cell_formula_units_Z   2
loop_
 _symmetry_equiv_pos_site_id
 _symmetry_equiv_pos_as_xyz
  1  'x, y, z'
loop_
 _atom_site_type_symbol
 _atom_site_label
 _atom_site_symmetry_multiplicity
 _atom_site_fract_x
 _atom_site_fract_y
 _atom_site_fract_z
 _atom_site_occupancy
  Cs  Cs0  1  0.33333300  0.66666700  0.75000000  1
  Cs  Cs1  1  0.66666700  0.33333300  0.25000000  1
  Ca  Ca2  1  0.66666700  0.33333300  0.75000000  1
  Ca  Ca3  1  0.33333300  0.66666700  0.25000000  1
  Ta  Ta4  1  0.84196800  0.03786100  0.56834700  1
  Ta  Ta5  1  0.15803200  0.96213900  0.43165300  1
  Ta  Ta6  1  0.96213900  0.80410600  0.56834700  1
  Ta  Ta7  1  0.84196800  0.80410600  0.93165300  1
  Ta  Ta8  1  0.03786100  0.19589400  0.43165300  1
  Ta  Ta9  1  0.15803200  0.19589400  0.06834700  1
  Ta  Ta10  1  0.19589400  0.15803200  0.56834700  1
  Ta  Ta11  1  0.96213900  0.15803200  0.93165300  1
  Ta  Ta12  1  0.80410600  0.84196800  0.43165300  1
  Ta  Ta13  1  0.03786100  0.84196800  0.06834700  1
  Ta  Ta14  1  0.19589400  0.03786100  0.93165300  1
  Ta  Ta15  1  0.80410600  0.96213900  0.06834700  1
  Cl  Cl16  1  0.64114400  0.07820000  0.65671500  1
  Cl  Cl17  1  0.35885600  0.92180000  0.34328500  1
  Cl  Cl18  1  0.92180000  0.56294400  0.65671500  1
  Cl  Cl19  1  0.64114400  0.56294400  0.84328500  1
  Cl  Cl20  1  0.07820000  0.43705600  0.34328500  1
  Cl  Cl21  1  0.35885600  0.43705600  0.15671500  1
  Cl  Cl22  1  0.43705600  0.35885600  0.65671500  1
  Cl  Cl23  1  0.92180000  0.35885600  0.84328500  1
  Cl  Cl24  1  0.56294400  0.64114400  0.34328500  1
  Cl  Cl25  1  0.07820000  0.64114400  0.15671500  1
  Cl  Cl26  1  0.43705600  0.07820000  0.84328500  1
  Cl  Cl27  1  0.56294400  0.92180000  0.15671500  1
  Cl  Cl28  1  0.04370500  0.22959800  0.65900900  1
  Cl  Cl29  1  0.95629500  0.77040200  0.34099100  1
  Cl  Cl30  1  0.77040200  0.81410700  0.65900900  1
  Cl  Cl31  1  0.04370500  0.81410700  0.84099100  1
  Cl  Cl32  1  0.22959800  0.18589300  0.34099100  1
  Cl  Cl33  1  0.95629500  0.18589300  0.15900900  1
  Cl  Cl34  1  0.18589300  0.95629500  0.65900900  1
  Cl  Cl35  1  0.77040200  0.95629500  0.84099100  1
  Cl  Cl36  1  0.81410700  0.04370500  0.34099100  1
  Cl  Cl37  1  0.22959800  0.04370500  0.15900900  1
  Cl  Cl38  1  0.18589300  0.22959800  0.84099100  1
  Cl  Cl39  1  0.81410700  0.77040200  0.15900900  1
  Cl  Cl40  1  0.27320000  0.41335500  0.50001000  1
  Cl  Cl41  1  0.72680000  0.58664500  0.49999000  1
  Cl  Cl42  1  0.58664500  0.85984600  0.50001000  1
  Cl  Cl43  1  0.27320000  0.85984600  0.99999000  1
  Cl  Cl44  1  0.41335500  0.14015400  0.49999000  1
  Cl  Cl45  1  0.72680000  0.14015400  0.00001000  1
  Cl  Cl46  1  0.14015400  0.72680000  0.50001000  1
  Cl  Cl47  1  0.58664500  0.72680000  0.99999000  1
  Cl  Cl48  1  0.85984600  0.27320000  0.49999000  1
  Cl  Cl49  1  0.41335500  0.27320000  0.00001000  1
  Cl  Cl50  1  0.14015400  0.41335500  0.99999000  1
  Cl  Cl51  1  0.85984600  0.58664500  0.00001000  1
