# generated using pymatgen
data_ZrSe3
_symmetry_space_group_name_H-M   'P 1'
_cell_length_a   3.78810200
_cell_length_b   5.48496700
_cell_length_c   10.15612659
_cell_angle_alpha   82.69718036
_cell_angle_beta   90.00000000
_cell_angle_gamma   90.00000000
_symmetry_Int_Tables_number   1
_chemical_formula_structural   ZrSe3
_chemical_formula_sum   'Zr2 Se6'
_cell_volume   209.30832747
_cell_formula_units_Z   2
loop_
 _symmetry_equiv_pos_site_id
 _symmetry_equiv_pos_as_xyz
  1  'x, y, z'
loop_
 _atom_site_type_symbol
 _atom_site_label
 _atom_site_symmetry_multiplicity
 _atom_site_fract_x
 _atom_site_fract_y
 _atom_site_fract_z
 _atom_site_occupancy
  Zr  Zr0  1  0.75000000  0.71504400  0.64797400  1
  Zr  Zr1  1  0.25000000  0.28495600  0.35202600  1
  Se  Se2  1  0.25000000  0.89290600  0.81095100  1
  Se  Se3  1  0.75000000  0.10709400  0.18904900  1
  Se  Se4  1  0.25000000  0.45949200  0.81033500  1
  Se  Se5  1  0.75000000  0.54050800  0.18966500  1
  Se  Se6  1  0.25000000  0.76218800  0.44883900  1
  Se  Se7  1  0.75000000  0.23781200  0.55116100  1
