# generated using pymatgen
data_Nd2CoSn4
_symmetry_space_group_name_H-M   'P 1'
_cell_length_a   4.56588200
_cell_length_b   4.55941300
_cell_length_c   8.81104249
_cell_angle_alpha   75.00511368
_cell_angle_beta   90.00000000
_cell_angle_gamma   90.00000000
_symmetry_Int_Tables_number   1
_chemical_formula_structural   Nd2CoSn4
_chemical_formula_sum   'Nd2 Co1 Sn4'
_cell_volume   177.18015391
_cell_formula_units_Z   1
loop_
 _symmetry_equiv_pos_site_id
 _symmetry_equiv_pos_as_xyz
  1  'x, y, z'
loop_
 _atom_site_type_symbol
 _atom_site_label
 _atom_site_symmetry_multiplicity
 _atom_site_fract_x
 _atom_site_fract_y
 _atom_site_fract_z
 _atom_site_occupancy
  Nd  Nd0  1  0.25000000  0.90677300  0.18645500  1
  Nd  Nd1  1  0.75000000  0.11242900  0.77514200  1
  Co  Co2  1  0.25000000  0.70473500  0.59052900  1
  Sn  Sn3  1  0.25000000  0.26765400  0.46469100  1
  Sn  Sn4  1  0.75000000  0.76618100  0.46763900  1
  Sn  Sn5  1  0.25000000  0.55906200  0.88187700  1
  Sn  Sn6  1  0.75000000  0.44316600  0.11366800  1
