# generated using pymatgen
data_CsLu7Se11
_symmetry_space_group_name_H-M   'P 1'
_cell_length_a   10.62198788
_cell_length_b   10.62198788
_cell_length_c   19.65316400
_cell_angle_alpha   90.00000000
_cell_angle_beta   90.00000000
_cell_angle_gamma   97.75569672
_symmetry_Int_Tables_number   1
_chemical_formula_structural   CsLu7Se11
_chemical_formula_sum   'Cs4 Lu28 Se44'
_cell_volume   2197.11649089
_cell_formula_units_Z   4
loop_
 _symmetry_equiv_pos_site_id
 _symmetry_equiv_pos_as_xyz
  1  'x, y, z'
loop_
 _atom_site_type_symbol
 _atom_site_label
 _atom_site_symmetry_multiplicity
 _atom_site_fract_x
 _atom_site_fract_y
 _atom_site_fract_z
 _atom_site_occupancy
  Cs  Cs0  1  0.08698400  0.08698400  0.59325700  1
  Cs  Cs1  1  0.91301600  0.91301600  0.40674300  1
  Cs  Cs2  1  0.41301600  0.41301600  0.09325700  1
  Cs  Cs3  1  0.58698400  0.58698400  0.90674300  1
  Lu  Lu4  1  0.40493500  0.40493500  0.67537100  1
  Lu  Lu5  1  0.59506500  0.59506500  0.32462900  1
  Lu  Lu6  1  0.09506500  0.09506500  0.17537100  1
  Lu  Lu7  1  0.90493500  0.90493500  0.82462900  1
  Lu  Lu8  1  0.30104300  0.04762900  0.82807900  1
  Lu  Lu9  1  0.95237100  0.69895700  0.17192100  1
  Lu  Lu10  1  0.45237100  0.19895700  0.32807900  1
  Lu  Lu11  1  0.80104300  0.54762900  0.67192100  1
  Lu  Lu12  1  0.69895700  0.95237100  0.17192100  1
  Lu  Lu13  1  0.04762900  0.30104300  0.82807900  1
  Lu  Lu14  1  0.54762900  0.80104300  0.67192100  1
  Lu  Lu15  1  0.19895700  0.45237100  0.32807900  1
  Lu  Lu16  1  0.62496800  0.37503200  0.50000000  1
  Lu  Lu17  1  0.12496800  0.87503200  0.00000000  1
  Lu  Lu18  1  0.37503200  0.62496800  0.50000000  1
  Lu  Lu19  1  0.87503200  0.12496800  0.00000000  1
  Lu  Lu20  1  0.67250200  0.16418200  0.65947400  1
  Lu  Lu21  1  0.83581800  0.32749800  0.34052600  1
  Lu  Lu22  1  0.33581800  0.82749800  0.15947400  1
  Lu  Lu23  1  0.17250200  0.66418200  0.84052600  1
  Lu  Lu24  1  0.32749800  0.83581800  0.34052600  1
  Lu  Lu25  1  0.16418200  0.67250200  0.65947400  1
  Lu  Lu26  1  0.66418200  0.17250200  0.84052600  1
  Lu  Lu27  1  0.82749800  0.33581800  0.15947400  1
  Lu  Lu28  1  0.50000000  0.00000000  0.50000000  1
  Lu  Lu29  1  0.00000000  0.50000000  0.50000000  1
  Lu  Lu30  1  0.50000000  0.00000000  0.00000000  1
  Lu  Lu31  1  0.00000000  0.50000000  0.00000000  1
  Se  Se32  1  0.46219900  0.21250900  0.58186200  1
  Se  Se33  1  0.78749100  0.53780100  0.41813800  1
  Se  Se34  1  0.28749100  0.03780100  0.08186200  1
  Se  Se35  1  0.96219900  0.71250900  0.91813800  1
  Se  Se36  1  0.53780100  0.78749100  0.41813800  1
  Se  Se37  1  0.21250900  0.46219900  0.58186200  1
  Se  Se38  1  0.71250900  0.96219900  0.91813800  1
  Se  Se39  1  0.03780100  0.28749100  0.08186200  1
  Se  Se40  1  0.62727300  0.36921400  0.74621600  1
  Se  Se41  1  0.63078600  0.37272700  0.25378400  1
  Se  Se42  1  0.13078600  0.87272700  0.24621600  1
  Se  Se43  1  0.12727300  0.86921400  0.75378400  1
  Se  Se44  1  0.37272700  0.63078600  0.25378400  1
  Se  Se45  1  0.36921400  0.62727300  0.74621600  1
  Se  Se46  1  0.86921400  0.12727300  0.75378400  1
  Se  Se47  1  0.87272700  0.13078600  0.24621600  1
  Se  Se48  1  0.34003700  0.83188500  0.58292400  1
  Se  Se49  1  0.16811500  0.65996300  0.41707600  1
  Se  Se50  1  0.66811500  0.15996300  0.08292400  1
  Se  Se51  1  0.84003700  0.33188500  0.91707600  1
  Se  Se52  1  0.65996300  0.16811500  0.41707600  1
  Se  Se53  1  0.83188500  0.34003700  0.58292400  1
  Se  Se54  1  0.33188500  0.84003700  0.91707600  1
  Se  Se55  1  0.15996300  0.66811500  0.08292400  1
  Se  Se56  1  0.70160000  0.95644100  0.58292900  1
  Se  Se57  1  0.04355900  0.29840000  0.41707100  1
  Se  Se58  1  0.54355900  0.79840000  0.08292900  1
  Se  Se59  1  0.20160000  0.45644100  0.91707100  1
  Se  Se60  1  0.29840000  0.04355900  0.41707100  1
  Se  Se61  1  0.95644100  0.70160000  0.58292900  1
  Se  Se62  1  0.45644100  0.20160000  0.91707100  1
  Se  Se63  1  0.79840000  0.54355900  0.08292900  1
  Se  Se64  1  0.23717900  0.23717900  0.74618300  1
  Se  Se65  1  0.76282100  0.76282100  0.25381700  1
  Se  Se66  1  0.26282100  0.26282100  0.24618300  1
  Se  Se67  1  0.73717900  0.73717900  0.75381700  1
  Se  Se68  1  0.07508100  0.07508100  0.91030200  1
  Se  Se69  1  0.92491900  0.92491900  0.08969800  1
  Se  Se70  1  0.42491900  0.42491900  0.41030200  1
  Se  Se71  1  0.57508100  0.57508100  0.58969800  1
  Se  Se72  1  0.51081700  0.01081700  0.75000000  1
  Se  Se73  1  0.98918300  0.48918300  0.25000000  1
  Se  Se74  1  0.48918300  0.98918300  0.25000000  1
  Se  Se75  1  0.01081700  0.51081700  0.75000000  1
