# generated using pymatgen
data_CsTmSiS4
_symmetry_space_group_name_H-M   'P 1'
_cell_length_a   6.36107700
_cell_length_b   6.71532800
_cell_length_c   18.00699800
_cell_angle_alpha   90.00000000
_cell_angle_beta   90.00000000
_cell_angle_gamma   90.00000000
_symmetry_Int_Tables_number   1
_chemical_formula_structural   CsTmSiS4
_chemical_formula_sum   'Cs4 Tm4 Si4 S16'
_cell_volume   769.19986438
_cell_formula_units_Z   4
loop_
 _symmetry_equiv_pos_site_id
 _symmetry_equiv_pos_as_xyz
  1  'x, y, z'
loop_
 _atom_site_type_symbol
 _atom_site_label
 _atom_site_symmetry_multiplicity
 _atom_site_fract_x
 _atom_site_fract_y
 _atom_site_fract_z
 _atom_site_occupancy
  Cs  Cs0  1  0.50242900  0.49349300  0.96748600  1
  Cs  Cs1  1  0.99757100  0.50650600  0.46748600  1
  Cs  Cs2  1  0.00242900  0.00650700  0.03251400  1
  Cs  Cs3  1  0.49757100  0.99349400  0.53251400  1
  Tm  Tm4  1  0.29215100  0.47875000  0.22872600  1
  Tm  Tm5  1  0.20784900  0.52125000  0.72872600  1
  Tm  Tm6  1  0.79215100  0.02125000  0.77127400  1
  Tm  Tm7  1  0.70784900  0.97875000  0.27127400  1
  Si  Si8  1  0.79159700  0.51791600  0.17065900  1
  Si  Si9  1  0.70840300  0.48208400  0.67065900  1
  Si  Si10  1  0.29159700  0.98208400  0.82934100  1
  Si  Si11  1  0.20840300  0.01791600  0.32934100  1
  S  S12  1  0.05622500  0.51107400  0.09964900  1
  S  S13  1  0.44377500  0.48892600  0.59964900  1
  S  S14  1  0.55622500  0.98892600  0.90035100  1
  S  S15  1  0.94377500  0.01107400  0.40035100  1
  S  S16  1  0.60044400  0.41907600  0.77998400  1
  S  S17  1  0.89955600  0.58092400  0.27998400  1
  S  S18  1  0.10044400  0.08092400  0.22001600  1
  S  S19  1  0.39955600  0.91907600  0.72001600  1
  S  S20  1  0.56646900  0.74847700  0.15015500  1
  S  S21  1  0.93353100  0.25152300  0.65015500  1
  S  S22  1  0.06646900  0.75152300  0.84984500  1
  S  S23  1  0.43353100  0.24847700  0.34984500  1
  S  S24  1  0.60245400  0.25429100  0.16020700  1
  S  S25  1  0.89754600  0.74570900  0.66020700  1
  S  S26  1  0.10245400  0.24570900  0.83979300  1
  S  S27  1  0.39754600  0.75429100  0.33979300  1
