# generated using pymatgen
data_Tm5(Ge5Ir2)2
_symmetry_space_group_name_H-M   'P 1'
_cell_length_a   12.99328800
_cell_length_b   12.99328800
_cell_length_c   4.29287900
_cell_angle_alpha   90.00000000
_cell_angle_beta   90.00000000
_cell_angle_gamma   90.00000000
_symmetry_Int_Tables_number   1
_chemical_formula_structural   Tm5(Ge5Ir2)2
_chemical_formula_sum   'Tm10 Ge20 Ir8'
_cell_volume   724.74758550
_cell_formula_units_Z   2
loop_
 _symmetry_equiv_pos_site_id
 _symmetry_equiv_pos_as_xyz
  1  'x, y, z'
loop_
 _atom_site_type_symbol
 _atom_site_label
 _atom_site_symmetry_multiplicity
 _atom_site_fract_x
 _atom_site_fract_y
 _atom_site_fract_z
 _atom_site_occupancy
  Tm  Tm0  1  0.50000000  0.50000000  0.00000000  1
  Tm  Tm1  1  0.00000000  0.00000000  0.00000000  1
  Tm  Tm2  1  0.67464600  0.17464600  0.50000000  1
  Tm  Tm3  1  0.32535400  0.82535400  0.50000000  1
  Tm  Tm4  1  0.17464600  0.32535400  0.50000000  1
  Tm  Tm5  1  0.82535400  0.67464600  0.50000000  1
  Tm  Tm6  1  0.88275900  0.38275900  0.50000000  1
  Tm  Tm7  1  0.11724100  0.61724100  0.50000000  1
  Tm  Tm8  1  0.38275900  0.11724100  0.50000000  1
  Tm  Tm9  1  0.61724100  0.88275900  0.50000000  1
  Ge  Ge10  1  0.56642300  0.06642300  0.00000000  1
  Ge  Ge11  1  0.43357700  0.93357700  0.00000000  1
  Ge  Ge12  1  0.06642300  0.43357700  0.00000000  1
  Ge  Ge13  1  0.93357700  0.56642300  0.00000000  1
  Ge  Ge14  1  0.66310300  0.70026900  0.00000000  1
  Ge  Ge15  1  0.33689700  0.29973100  0.00000000  1
  Ge  Ge16  1  0.16310300  0.79973100  0.00000000  1
  Ge  Ge17  1  0.83689700  0.20026900  0.00000000  1
  Ge  Ge18  1  0.29973100  0.66310300  0.00000000  1
  Ge  Ge19  1  0.70026900  0.33689700  0.00000000  1
  Ge  Ge20  1  0.20026900  0.16310300  0.00000000  1
  Ge  Ge21  1  0.79973100  0.83689700  0.00000000  1
  Ge  Ge22  1  0.65393800  0.50798300  0.50000000  1
  Ge  Ge23  1  0.34606200  0.49201700  0.50000000  1
  Ge  Ge24  1  0.15393800  0.99201700  0.50000000  1
  Ge  Ge25  1  0.84606200  0.00798300  0.50000000  1
  Ge  Ge26  1  0.49201700  0.65393800  0.50000000  1
  Ge  Ge27  1  0.50798300  0.34606200  0.50000000  1
  Ge  Ge28  1  0.00798300  0.15393800  0.50000000  1
  Ge  Ge29  1  0.99201700  0.84606200  0.50000000  1
  Ir  Ir30  1  0.74695100  0.52131700  0.00000000  1
  Ir  Ir31  1  0.25304900  0.47868300  0.00000000  1
  Ir  Ir32  1  0.24695100  0.97868300  0.00000000  1
  Ir  Ir33  1  0.75304900  0.02131700  0.00000000  1
  Ir  Ir34  1  0.47868300  0.74695100  0.00000000  1
  Ir  Ir35  1  0.52131700  0.25304900  0.00000000  1
  Ir  Ir36  1  0.02131700  0.24695100  0.00000000  1
  Ir  Ir37  1  0.97868300  0.75304900  0.00000000  1
