# generated using pymatgen
data_Cs2ZrMn(MoO4)4
_symmetry_space_group_name_H-M   'P 1'
_cell_length_a   5.95707936
_cell_length_b   10.25989865
_cell_length_c   17.82816399
_cell_angle_alpha   90.55673582
_cell_angle_beta   80.36656786
_cell_angle_gamma   73.11468375
_symmetry_Int_Tables_number   1
_chemical_formula_structural   Cs2ZrMn(MoO4)4
_chemical_formula_sum   'Cs4 Zr2 Mn2 Mo8 O32'
_cell_volume   1025.99421310
_cell_formula_units_Z   2
loop_
 _symmetry_equiv_pos_site_id
 _symmetry_equiv_pos_as_xyz
  1  'x, y, z'
loop_
 _atom_site_type_symbol
 _atom_site_label
 _atom_site_symmetry_multiplicity
 _atom_site_fract_x
 _atom_site_fract_y
 _atom_site_fract_z
 _atom_site_occupancy
  Cs  Cs0  1  0.75722200  0.35888000  0.12678600  1
  Cs  Cs1  1  0.75721200  0.85884800  0.62678700  1
  Cs  Cs2  1  0.24281500  0.14114700  0.37322200  1
  Cs  Cs3  1  0.24286500  0.64114500  0.87320900  1
  Zr  Zr4  1  0.49997100  0.75003300  0.25000500  1
  Zr  Zr5  1  0.50000800  0.24998200  0.74998700  1
  Mn  Mn6  1  0.99947400  0.49982100  0.50011000  1
  Mn  Mn7  1  0.00041800  0.00013500  0.00005900  1
  Mo  Mo8  1  0.88871900  0.83350500  0.38872700  1
  Mo  Mo9  1  0.88868300  0.33348800  0.88868300  1
  Mo  Mo10  1  0.11126200  0.66656100  0.11132500  1
  Mo  Mo11  1  0.11132200  0.16645700  0.61130500  1
  Mo  Mo12  1  0.39079800  0.08076800  0.13775000  1
  Mo  Mo13  1  0.39042400  0.58077200  0.63775600  1
  Mo  Mo14  1  0.60917900  0.41925700  0.36224300  1
  Mo  Mo15  1  0.60960400  0.91921500  0.86222000  1
  O  O16  1  0.78409500  0.99108500  0.44063800  1
  O  O17  1  0.78415700  0.49108100  0.94059600  1
  O  O18  1  0.21586900  0.50894500  0.05940800  1
  O  O19  1  0.21588900  0.00884800  0.55939600  1
  O  O20  1  0.28526200  0.23811700  0.19140700  1
  O  O21  1  0.28484700  0.73810900  0.69143400  1
  O  O22  1  0.71468000  0.26191200  0.30854500  1
  O  O23  1  0.71514400  0.76187100  0.80852000  1
  O  O24  1  0.92024400  0.70423500  0.45472100  1
  O  O25  1  0.92031400  0.20423700  0.95469500  1
  O  O26  1  0.07967400  0.79578500  0.04529800  1
  O  O27  1  0.07968100  0.29568200  0.54526800  1
  O  O28  1  0.42666900  0.94166200  0.20492200  1
  O  O29  1  0.42653400  0.44162200  0.70491000  1
  O  O30  1  0.57329100  0.55841600  0.29508600  1
  O  O31  1  0.57353100  0.05838000  0.79506100  1
  O  O32  1  0.67116900  0.82223400  0.32905500  1
  O  O33  1  0.67117900  0.32223000  0.82901900  1
  O  O34  1  0.17720900  0.82207200  0.32897400  1
  O  O35  1  0.17722300  0.32201100  0.82894300  1
  O  O36  1  0.32874200  0.67788100  0.17098200  1
  O  O37  1  0.32883800  0.17775800  0.67095000  1
  O  O38  1  0.82273200  0.67800600  0.17104400  1
  O  O39  1  0.82280600  0.17794100  0.67102800  1
  O  O40  1  0.17511600  0.07414000  0.08025000  1
  O  O41  1  0.17480200  0.57404100  0.58026600  1
  O  O42  1  0.67082000  0.07401000  0.08028800  1
  O  O43  1  0.67043200  0.57405600  0.58028000  1
  O  O44  1  0.82495000  0.42581000  0.41973800  1
  O  O45  1  0.82530700  0.92586200  0.91971300  1
  O  O46  1  0.32919000  0.42601600  0.41969700  1
  O  O47  1  0.32962800  0.92593300  0.91969300  1
