# generated using pymatgen
data_Ce(NiSb)2
_symmetry_space_group_name_H-M   'P 1'
_cell_length_a   4.49352400
_cell_length_b   4.49352400
_cell_length_c   9.82404600
_cell_angle_alpha   90.00000000
_cell_angle_beta   90.00000000
_cell_angle_gamma   90.00000000
_symmetry_Int_Tables_number   1
_chemical_formula_structural   Ce(NiSb)2
_chemical_formula_sum   'Ce2 Ni4 Sb4'
_cell_volume   198.36475881
_cell_formula_units_Z   2
loop_
 _symmetry_equiv_pos_site_id
 _symmetry_equiv_pos_as_xyz
  1  'x, y, z'
loop_
 _atom_site_type_symbol
 _atom_site_label
 _atom_site_symmetry_multiplicity
 _atom_site_fract_x
 _atom_site_fract_y
 _atom_site_fract_z
 _atom_site_occupancy
  Ce  Ce0  1  0.00000000  0.50000000  0.23944700  1
  Ce  Ce1  1  0.50000000  0.00000000  0.76055300  1
  Ni  Ni2  1  0.00000000  0.00000000  0.00000000  1
  Ni  Ni3  1  0.50000000  0.50000000  0.00000000  1
  Ni  Ni4  1  0.00000000  0.50000000  0.61938600  1
  Ni  Ni5  1  0.50000000  0.00000000  0.38061400  1
  Sb  Sb6  1  0.00000000  0.00000000  0.50000000  1
  Sb  Sb7  1  0.50000000  0.50000000  0.50000000  1
  Sb  Sb8  1  0.00000000  0.50000000  0.87318900  1
  Sb  Sb9  1  0.50000000  0.00000000  0.12681100  1
