# generated using pymatgen
data_Nd2US5
_symmetry_space_group_name_H-M   'P 1'
_cell_length_a   7.50673500
_cell_length_b   8.09706700
_cell_length_c   11.95469400
_cell_angle_alpha   90.00000000
_cell_angle_beta   90.00000000
_cell_angle_gamma   90.00000000
_symmetry_Int_Tables_number   1
_chemical_formula_structural   Nd2US5
_chemical_formula_sum   'Nd8 U4 S20'
_cell_volume   726.63662137
_cell_formula_units_Z   4
loop_
 _symmetry_equiv_pos_site_id
 _symmetry_equiv_pos_as_xyz
  1  'x, y, z'
loop_
 _atom_site_type_symbol
 _atom_site_label
 _atom_site_symmetry_multiplicity
 _atom_site_fract_x
 _atom_site_fract_y
 _atom_site_fract_z
 _atom_site_occupancy
  Nd  Nd0  1  0.52351200  0.49952900  0.32265200  1
  Nd  Nd1  1  0.97648800  0.00047100  0.82265200  1
  Nd  Nd2  1  0.47648800  0.99952900  0.67734800  1
  Nd  Nd3  1  0.02351200  0.50047100  0.17734800  1
  Nd  Nd4  1  0.47648800  0.50047100  0.67734800  1
  Nd  Nd5  1  0.02351200  0.99952900  0.17734800  1
  Nd  Nd6  1  0.52351200  0.00047100  0.32265200  1
  Nd  Nd7  1  0.97648800  0.49952900  0.82265200  1
  U  U8  1  0.07219500  0.75000000  0.49131600  1
  U  U9  1  0.42780500  0.75000000  0.99131600  1
  U  U10  1  0.92780500  0.25000000  0.50868400  1
  U  U11  1  0.57219500  0.25000000  0.00868400  1
  S  S12  1  0.83991600  0.95732800  0.59484300  1
  S  S13  1  0.66008400  0.54267200  0.09484300  1
  S  S14  1  0.16008400  0.45732800  0.40515700  1
  S  S15  1  0.33991600  0.04267200  0.90515700  1
  S  S16  1  0.16008400  0.04267200  0.40515700  1
  S  S17  1  0.33991600  0.45732800  0.90515700  1
  S  S18  1  0.83991600  0.54267200  0.59484300  1
  S  S19  1  0.66008400  0.95732800  0.09484300  1
  S  S20  1  0.83013100  0.75000000  0.31415000  1
  S  S21  1  0.66986900  0.75000000  0.81415000  1
  S  S22  1  0.16986900  0.25000000  0.68585000  1
  S  S23  1  0.33013100  0.25000000  0.18585000  1
  S  S24  1  0.45415700  0.75000000  0.49935500  1
  S  S25  1  0.04584300  0.75000000  0.99935500  1
  S  S26  1  0.54584300  0.25000000  0.50064500  1
  S  S27  1  0.95415700  0.25000000  0.00064500  1
  S  S28  1  0.19633600  0.75000000  0.71371700  1
  S  S29  1  0.30366400  0.75000000  0.21371700  1
  S  S30  1  0.80366400  0.25000000  0.28628300  1
  S  S31  1  0.69633600  0.25000000  0.78628300  1
