# generated using pymatgen
data_CsBe4(BO3)3
_symmetry_space_group_name_H-M   'P 1'
_cell_length_a   6.52948900
_cell_length_b   8.45744900
_cell_length_c   13.47130700
_cell_angle_alpha   90.00000000
_cell_angle_beta   90.00000000
_cell_angle_gamma   90.00000000
_symmetry_Int_Tables_number   1
_chemical_formula_structural   CsBe4(BO3)3
_chemical_formula_sum   'Cs4 Be16 B12 O36'
_cell_volume   743.92356450
_cell_formula_units_Z   4
loop_
 _symmetry_equiv_pos_site_id
 _symmetry_equiv_pos_as_xyz
  1  'x, y, z'
loop_
 _atom_site_type_symbol
 _atom_site_label
 _atom_site_symmetry_multiplicity
 _atom_site_fract_x
 _atom_site_fract_y
 _atom_site_fract_z
 _atom_site_occupancy
  Cs  Cs0  1  0.34035400  0.91698000  0.75000000  1
  Cs  Cs1  1  0.15964600  0.41698000  0.75000000  1
  Cs  Cs2  1  0.65964600  0.08302000  0.25000000  1
  Cs  Cs3  1  0.84035400  0.58302000  0.25000000  1
  Be  Be4  1  0.91184800  0.06229800  0.55843100  1
  Be  Be5  1  0.58815200  0.56229800  0.94156900  1
  Be  Be6  1  0.08815200  0.93770200  0.05843100  1
  Be  Be7  1  0.41184800  0.43770200  0.44156900  1
  Be  Be8  1  0.08815200  0.93770200  0.44156900  1
  Be  Be9  1  0.41184800  0.43770200  0.05843100  1
  Be  Be10  1  0.91184800  0.06229800  0.94156900  1
  Be  Be11  1  0.58815200  0.56229800  0.55843100  1
  Be  Be12  1  0.64274400  0.27421900  0.64210700  1
  Be  Be13  1  0.85725600  0.77421900  0.85789300  1
  Be  Be14  1  0.35725600  0.72578100  0.14210700  1
  Be  Be15  1  0.14274400  0.22578100  0.35789300  1
  Be  Be16  1  0.35725600  0.72578100  0.35789300  1
  Be  Be17  1  0.14274400  0.22578100  0.14210700  1
  Be  Be18  1  0.64274400  0.27421900  0.85789300  1
  Be  Be19  1  0.85725600  0.77421900  0.64210700  1
  B  B20  1  0.81427700  0.04671000  0.75000000  1
  B  B21  1  0.68572300  0.54671000  0.75000000  1
  B  B22  1  0.18572300  0.95329000  0.25000000  1
  B  B23  1  0.31427700  0.45329000  0.25000000  1
  B  B24  1  0.30803200  0.17395100  0.53127700  1
  B  B25  1  0.19196800  0.67395100  0.96872300  1
  B  B26  1  0.69196800  0.82604900  0.03127700  1
  B  B27  1  0.80803200  0.32604900  0.46872300  1
  B  B28  1  0.69196800  0.82604900  0.46872300  1
  B  B29  1  0.80803200  0.32604900  0.03127700  1
  B  B30  1  0.30803200  0.17395100  0.96872300  1
  B  B31  1  0.19196800  0.67395100  0.53127700  1
  O  O32  1  0.85844600  0.97111300  0.66197700  1
  O  O33  1  0.64155400  0.47111300  0.83802300  1
  O  O34  1  0.14155400  0.02888700  0.16197700  1
  O  O35  1  0.35844600  0.52888700  0.33802300  1
  O  O36  1  0.14155400  0.02888700  0.33802300  1
  O  O37  1  0.35844600  0.52888700  0.16197700  1
  O  O38  1  0.85844600  0.97111300  0.83802300  1
  O  O39  1  0.64155400  0.47111300  0.66197700  1
  O  O40  1  0.81979000  0.23880000  0.55742500  1
  O  O41  1  0.68021000  0.73880000  0.94257500  1
  O  O42  1  0.18021000  0.76120000  0.05742500  1
  O  O43  1  0.31979000  0.26120000  0.44257500  1
  O  O44  1  0.18021000  0.76120000  0.44257500  1
  O  O45  1  0.31979000  0.26120000  0.05742500  1
  O  O46  1  0.81979000  0.23880000  0.94257500  1
  O  O47  1  0.68021000  0.73880000  0.55742500  1
  O  O48  1  0.15927600  0.05417600  0.53355200  1
  O  O49  1  0.34072400  0.55417600  0.96644800  1
  O  O50  1  0.84072400  0.94582400  0.03355200  1
  O  O51  1  0.65927600  0.44582400  0.46644800  1
  O  O52  1  0.84072400  0.94582400  0.46644800  1
  O  O53  1  0.65927600  0.44582400  0.03355200  1
  O  O54  1  0.15927600  0.05417600  0.96644800  1
  O  O55  1  0.34072400  0.55417600  0.53355200  1
  O  O56  1  0.42706500  0.20229300  0.61113300  1
  O  O57  1  0.07293500  0.70229300  0.88886700  1
  O  O58  1  0.57293500  0.79770700  0.11113300  1
  O  O59  1  0.92706500  0.29770700  0.38886700  1
  O  O60  1  0.57293500  0.79770700  0.38886700  1
  O  O61  1  0.92706500  0.29770700  0.11113300  1
  O  O62  1  0.42706500  0.20229300  0.88886700  1
  O  O63  1  0.07293500  0.70229300  0.61113300  1
  O  O64  1  0.72658700  0.19565000  0.75000000  1
  O  O65  1  0.77341300  0.69565000  0.75000000  1
  O  O66  1  0.27341300  0.80435000  0.25000000  1
  O  O67  1  0.22658700  0.30435000  0.25000000  1
