# generated using pymatgen
data_Pr3Si2BO10
_symmetry_space_group_name_H-M   'P 1'
_cell_length_a   7.22211500
_cell_length_b   9.94071800
_cell_length_c   23.36359100
_cell_angle_alpha   90.00000000
_cell_angle_beta   90.00000000
_cell_angle_gamma   90.00000000
_symmetry_Int_Tables_number   1
_chemical_formula_structural   Pr3Si2BO10
_chemical_formula_sum   'Pr24 Si16 B8 O80'
_cell_volume   1677.34248909
_cell_formula_units_Z   8
loop_
 _symmetry_equiv_pos_site_id
 _symmetry_equiv_pos_as_xyz
  1  'x, y, z'
loop_
 _atom_site_type_symbol
 _atom_site_label
 _atom_site_symmetry_multiplicity
 _atom_site_fract_x
 _atom_site_fract_y
 _atom_site_fract_z
 _atom_site_occupancy
  Pr  Pr0  1  0.63993200  0.00818000  0.07151100  1
  Pr  Pr1  1  0.86006800  0.50818000  0.92848900  1
  Pr  Pr2  1  0.13993200  0.99182000  0.42848900  1
  Pr  Pr3  1  0.36006800  0.49182000  0.57151100  1
  Pr  Pr4  1  0.36006800  0.99182000  0.92848900  1
  Pr  Pr5  1  0.13993200  0.49182000  0.07151100  1
  Pr  Pr6  1  0.86006800  0.00818000  0.57151100  1
  Pr  Pr7  1  0.63993200  0.50818000  0.42848900  1
  Pr  Pr8  1  0.67453600  0.36559700  0.16303600  1
  Pr  Pr9  1  0.82546400  0.86559700  0.83696400  1
  Pr  Pr10  1  0.17453600  0.63440300  0.33696400  1
  Pr  Pr11  1  0.32546400  0.13440300  0.66303600  1
  Pr  Pr12  1  0.32546400  0.63440300  0.83696400  1
  Pr  Pr13  1  0.17453600  0.13440300  0.16303600  1
  Pr  Pr14  1  0.82546400  0.36559700  0.66303600  1
  Pr  Pr15  1  0.67453600  0.86559700  0.33696400  1
  Pr  Pr16  1  0.90502900  0.23227000  0.31786400  1
  Pr  Pr17  1  0.59497100  0.73227000  0.68213600  1
  Pr  Pr18  1  0.40502900  0.76773000  0.18213600  1
  Pr  Pr19  1  0.09497100  0.26773000  0.81786400  1
  Pr  Pr20  1  0.09497100  0.76773000  0.68213600  1
  Pr  Pr21  1  0.40502900  0.26773000  0.31786400  1
  Pr  Pr22  1  0.59497100  0.23227000  0.81786400  1
  Pr  Pr23  1  0.90502900  0.73227000  0.18213600  1
  Si  Si24  1  0.64209200  0.12289700  0.42141500  1
  Si  Si25  1  0.85790800  0.62289700  0.57858500  1
  Si  Si26  1  0.14209200  0.87710300  0.07858500  1
  Si  Si27  1  0.35790800  0.37710300  0.92141500  1
  Si  Si28  1  0.35790800  0.87710300  0.57858500  1
  Si  Si29  1  0.14209200  0.37710300  0.42141500  1
  Si  Si30  1  0.85790800  0.12289700  0.92141500  1
  Si  Si31  1  0.64209200  0.62289700  0.07858500  1
  Si  Si32  1  0.68261900  0.06205500  0.22067600  1
  Si  Si33  1  0.81738100  0.56205500  0.77932400  1
  Si  Si34  1  0.18261900  0.93794500  0.27932400  1
  Si  Si35  1  0.31738100  0.43794500  0.72067600  1
  Si  Si36  1  0.31738100  0.93794500  0.77932400  1
  Si  Si37  1  0.18261900  0.43794500  0.22067600  1
  Si  Si38  1  0.81738100  0.06205500  0.72067600  1
  Si  Si39  1  0.68261900  0.56205500  0.27932400  1
  B  B40  1  0.64927500  0.25342300  0.52780300  1
  B  B41  1  0.85072500  0.75342300  0.47219700  1
  B  B42  1  0.14927500  0.74657700  0.97219700  1
  B  B43  1  0.35072500  0.24657700  0.02780300  1
  B  B44  1  0.35072500  0.74657700  0.47219700  1
  B  B45  1  0.14927500  0.24657700  0.52780300  1
  B  B46  1  0.85072500  0.25342300  0.02780300  1
  B  B47  1  0.64927500  0.75342300  0.97219700  1
  O  O48  1  0.72975100  0.23690600  0.58061500  1
  O  O49  1  0.77024900  0.73690600  0.41938500  1
  O  O50  1  0.22975100  0.76309400  0.91938500  1
  O  O51  1  0.27024900  0.26309400  0.08061500  1
  O  O52  1  0.27024900  0.76309400  0.41938500  1
  O  O53  1  0.22975100  0.26309400  0.58061500  1
  O  O54  1  0.77024900  0.23690600  0.08061500  1
  O  O55  1  0.72975100  0.73690600  0.91938500  1
  O  O56  1  0.57215400  0.36883500  0.50847700  1
  O  O57  1  0.92784600  0.86883500  0.49152300  1
  O  O58  1  0.07215400  0.63116500  0.99152300  1
  O  O59  1  0.42784600  0.13116500  0.00847700  1
  O  O60  1  0.42784600  0.63116500  0.49152300  1
  O  O61  1  0.07215400  0.13116500  0.50847700  1
  O  O62  1  0.92784600  0.36883500  0.00847700  1
  O  O63  1  0.57215400  0.86883500  0.99152300  1
  O  O64  1  0.65334000  0.13552800  0.49228400  1
  O  O65  1  0.84666000  0.63552800  0.50771600  1
  O  O66  1  0.15334000  0.86447200  0.00771600  1
  O  O67  1  0.34666000  0.36447200  0.99228400  1
  O  O68  1  0.34666000  0.86447200  0.50771600  1
  O  O69  1  0.15334000  0.36447200  0.49228400  1
  O  O70  1  0.84666000  0.13552800  0.99228400  1
  O  O71  1  0.65334000  0.63552800  0.00771600  1
  O  O72  1  0.82545400  0.04803900  0.39466000  1
  O  O73  1  0.67454600  0.54803900  0.60534000  1
  O  O74  1  0.32545400  0.95196100  0.10534000  1
  O  O75  1  0.17454600  0.45196100  0.89466000  1
  O  O76  1  0.17454600  0.95196100  0.60534000  1
  O  O77  1  0.32545400  0.45196100  0.39466000  1
  O  O78  1  0.67454600  0.04803900  0.89466000  1
  O  O79  1  0.82545400  0.54803900  0.10534000  1
  O  O80  1  0.64731300  0.27331300  0.39098400  1
  O  O81  1  0.85268700  0.77331300  0.60901600  1
  O  O82  1  0.14731300  0.72668700  0.10901600  1
  O  O83  1  0.35268700  0.22668700  0.89098400  1
  O  O84  1  0.35268700  0.72668700  0.60901600  1
  O  O85  1  0.14731300  0.22668700  0.39098400  1
  O  O86  1  0.85268700  0.27331300  0.89098400  1
  O  O87  1  0.64731300  0.77331300  0.10901600  1
  O  O88  1  0.46413600  0.03763500  0.39810900  1
  O  O89  1  0.03586400  0.53763500  0.60189100  1
  O  O90  1  0.96413600  0.96236500  0.10189100  1
  O  O91  1  0.53586400  0.46236500  0.89810900  1
  O  O92  1  0.53586400  0.96236500  0.60189100  1
  O  O93  1  0.96413600  0.46236500  0.39810900  1
  O  O94  1  0.03586400  0.03763500  0.89810900  1
  O  O95  1  0.46413600  0.53763500  0.10189100  1
  O  O96  1  0.70109300  0.89668500  0.22107000  1
  O  O97  1  0.79890700  0.39668500  0.77893000  1
  O  O98  1  0.20109300  0.10331500  0.27893000  1
  O  O99  1  0.29890700  0.60331500  0.72107000  1
  O  O100  1  0.29890700  0.10331500  0.77893000  1
  O  O101  1  0.20109300  0.60331500  0.22107000  1
  O  O102  1  0.79890700  0.89668500  0.72107000  1
  O  O103  1  0.70109300  0.39668500  0.27893000  1
  O  O104  1  0.62937200  0.09862900  0.28785000  1
  O  O105  1  0.87062800  0.59862900  0.71215000  1
  O  O106  1  0.12937200  0.90137100  0.21215000  1
  O  O107  1  0.37062800  0.40137100  0.78785000  1
  O  O108  1  0.37062800  0.90137100  0.71215000  1
  O  O109  1  0.12937200  0.40137100  0.28785000  1
  O  O110  1  0.87062800  0.09862900  0.78785000  1
  O  O111  1  0.62937200  0.59862900  0.21215000  1
  O  O112  1  0.53402100  0.10818700  0.17162900  1
  O  O113  1  0.96597900  0.60818700  0.82837100  1
  O  O114  1  0.03402100  0.89181300  0.32837100  1
  O  O115  1  0.46597900  0.39181300  0.67162900  1
  O  O116  1  0.46597900  0.89181300  0.82837100  1
  O  O117  1  0.03402100  0.39181300  0.17162900  1
  O  O118  1  0.96597900  0.10818700  0.67162900  1
  O  O119  1  0.53402100  0.60818700  0.32837100  1
  O  O120  1  0.86902800  0.15509500  0.21089500  1
  O  O121  1  0.63097200  0.65509500  0.78910500  1
  O  O122  1  0.36902800  0.84490500  0.28910500  1
  O  O123  1  0.13097200  0.34490500  0.71089500  1
  O  O124  1  0.13097200  0.84490500  0.78910500  1
  O  O125  1  0.36902800  0.34490500  0.21089500  1
  O  O126  1  0.63097200  0.15509500  0.71089500  1
  O  O127  1  0.86902800  0.65509500  0.28910500  1
