# generated using pymatgen
data_HgH12C2(I2N3)2
_symmetry_space_group_name_H-M   'P 1'
_cell_length_a   9.43867515
_cell_length_b   9.33794846
_cell_length_c   13.18619775
_cell_angle_alpha   106.87533542
_cell_angle_beta   94.95597574
_cell_angle_gamma   119.67166517
_symmetry_Int_Tables_number   1
_chemical_formula_structural   HgH12C2(I2N3)2
_chemical_formula_sum   'Hg2 H24 C4 I8 N12'
_cell_volume   928.58921588
_cell_formula_units_Z   2
loop_
 _symmetry_equiv_pos_site_id
 _symmetry_equiv_pos_as_xyz
  1  'x, y, z'
loop_
 _atom_site_type_symbol
 _atom_site_label
 _atom_site_symmetry_multiplicity
 _atom_site_fract_x
 _atom_site_fract_y
 _atom_site_fract_z
 _atom_site_occupancy
  Hg  Hg0  1  0.34651800  0.11463800  0.23410900  1
  Hg  Hg1  1  0.65348200  0.88536200  0.76589100  1
  H  H2  1  0.34324900  0.68661200  0.45630100  1
  H  H3  1  0.65675100  0.31338800  0.54369900  1
  H  H4  1  0.55664000  0.36483100  0.04785700  1
  H  H5  1  0.44336000  0.63516900  0.95214300  1
  H  H6  1  0.06897500  0.23188400  0.92118100  1
  H  H7  1  0.93102500  0.76811600  0.07881900  1
  H  H8  1  0.46301800  0.75001000  0.08729400  1
  H  H9  1  0.53698200  0.24999000  0.91270600  1
  H  H10  1  0.02632200  0.30871800  0.61838300  1
  H  H11  1  0.97367800  0.69128200  0.38161700  1
  H  H12  1  0.16775900  0.61982600  0.69137300  1
  H  H13  1  0.83224100  0.38017400  0.30862700  1
  H  H14  1  0.26384000  0.60659600  0.17560800  1
  H  H15  1  0.73616000  0.39340400  0.82439200  1
  H  H16  1  0.05446300  0.72090500  0.68470700  1
  H  H17  1  0.94553700  0.27909500  0.31529300  1
  H  H18  1  0.19189600  0.82330900  0.44216700  1
  H  H19  1  0.80810400  0.17669100  0.55783300  1
  H  H20  1  0.23705200  0.45388600  0.39920100  1
  H  H21  1  0.76294800  0.54611400  0.60079900  1
  H  H22  1  0.08796300  0.38607800  0.10093500  1
  H  H23  1  0.91203700  0.61392200  0.89906500  1
  H  H24  1  0.22246500  0.33741300  0.85782600  1
  H  H25  1  0.77753500  0.66258700  0.14217400  1
  C  C26  1  0.08832900  0.55294700  0.38220500  1
  C  C27  1  0.91167100  0.44705300  0.61779500  1
  C  C28  1  0.26055800  0.49051800  0.01730300  1
  C  C29  1  0.73944200  0.50948200  0.98269700  1
  I  I30  1  0.08791700  0.08379800  0.34069900  1
  I  I31  1  0.91208300  0.91620200  0.65930100  1
  I  I32  1  0.48641800  0.03455300  0.68610000  1
  I  I33  1  0.51358200  0.96544700  0.31390000  1
  I  I34  1  0.78717600  0.05775700  0.99902000  1
  I  I35  1  0.21282400  0.94224300  0.00098000  1
  I  I36  1  0.60146300  0.48651200  0.28915500  1
  I  I37  1  0.39853700  0.51348800  0.71084500  1
  N  N38  1  0.05428100  0.60801500  0.67305600  1
  N  N39  1  0.94571900  0.39198500  0.32694400  1
  N  N40  1  0.40975500  0.63081000  0.02304400  1
  N  N41  1  0.59024500  0.36919000  0.97695600  1
  N  N42  1  0.17608400  0.34382300  0.92435600  1
  N  N43  1  0.82391600  0.65617700  0.07564400  1
  N  N44  1  0.08400100  0.69985000  0.40584100  1
  N  N45  1  0.91599900  0.30015000  0.59415900  1
  N  N46  1  0.23534700  0.56615800  0.41169500  1
  N  N47  1  0.76465300  0.43384200  0.58830500  1
  N  N48  1  0.19773100  0.49597800  0.10431100  1
  N  N49  1  0.80226900  0.50402200  0.89568900  1
