# generated using pymatgen
data_CeSi3Ir
_symmetry_space_group_name_H-M   'P 1'
_cell_length_a   5.74890503
_cell_length_b   5.74890503
_cell_length_c   5.74890503
_cell_angle_alpha   136.78387999
_cell_angle_beta   136.78387999
_cell_angle_gamma   62.77074460
_symmetry_Int_Tables_number   1
_chemical_formula_structural   CeSi3Ir
_chemical_formula_sum   'Ce1 Si3 Ir1'
_cell_volume   87.98538571
_cell_formula_units_Z   1
loop_
 _symmetry_equiv_pos_site_id
 _symmetry_equiv_pos_as_xyz
  1  'x, y, z'
loop_
 _atom_site_type_symbol
 _atom_site_label
 _atom_site_symmetry_multiplicity
 _atom_site_fract_x
 _atom_site_fract_y
 _atom_site_fract_z
 _atom_site_occupancy
  Ce  Ce0  1  0.99892700  0.99892700  0.00000000  1
  Si  Si1  1  0.41627300  0.41627300  0.00000000  1
  Si  Si2  1  0.26811200  0.76811200  0.50000000  1
  Si  Si3  1  0.76811200  0.26811200  0.50000000  1
  Ir  Ir4  1  0.65757600  0.65757600  0.00000000  1
