# generated using pymatgen
data_Ba2CoO4
_symmetry_space_group_name_H-M   'P 1'
_cell_length_a   7.69918600
_cell_length_b   6.10972100
_cell_length_c   11.88064736
_cell_angle_alpha   62.31024737
_cell_angle_beta   90.00000000
_cell_angle_gamma   90.00000000
_symmetry_Int_Tables_number   1
_chemical_formula_structural   Ba2CoO4
_chemical_formula_sum   'Ba8 Co4 O16'
_cell_volume   494.86126111
_cell_formula_units_Z   4
loop_
 _symmetry_equiv_pos_site_id
 _symmetry_equiv_pos_as_xyz
  1  'x, y, z'
loop_
 _atom_site_type_symbol
 _atom_site_label
 _atom_site_symmetry_multiplicity
 _atom_site_fract_x
 _atom_site_fract_y
 _atom_site_fract_z
 _atom_site_occupancy
  Ba  Ba0  1  0.00017700  0.96522100  0.30814700  1
  Ba  Ba1  1  0.50017700  0.03477900  0.19185300  1
  Ba  Ba2  1  0.99982300  0.03477900  0.69185300  1
  Ba  Ba3  1  0.49982300  0.96522100  0.80814700  1
  Ba  Ba4  1  0.65231400  0.31585700  0.42175700  1
  Ba  Ba5  1  0.15231400  0.68414300  0.07824300  1
  Ba  Ba6  1  0.34768600  0.68414300  0.57824300  1
  Ba  Ba7  1  0.84768600  0.31585700  0.92175700  1
  Co  Co8  1  0.22273600  0.33906500  0.41752200  1
  Co  Co9  1  0.72273600  0.66093500  0.08247800  1
  Co  Co10  1  0.77726400  0.66093500  0.58247800  1
  Co  Co11  1  0.27726400  0.33906500  0.91752200  1
  O  O12  1  0.31863400  0.24764400  0.57355400  1
  O  O13  1  0.81863400  0.75235600  0.92644600  1
  O  O14  1  0.68136600  0.75235600  0.42644600  1
  O  O15  1  0.18136600  0.24764400  0.07355400  1
  O  O16  1  0.32759700  0.13984700  0.36280400  1
  O  O17  1  0.82759700  0.86015300  0.13719600  1
  O  O18  1  0.67240300  0.86015300  0.63719600  1
  O  O19  1  0.17240300  0.13984700  0.86280400  1
  O  O20  1  0.26960600  0.66035400  0.31581200  1
  O  O21  1  0.76960600  0.33964600  0.18418800  1
  O  O22  1  0.73039400  0.33964600  0.68418800  1
  O  O23  1  0.23039400  0.66035400  0.81581200  1
  O  O24  1  0.50581400  0.28692600  0.92833700  1
  O  O25  1  0.00581400  0.71307400  0.57166300  1
  O  O26  1  0.49418600  0.71307400  0.07166300  1
  O  O27  1  0.99418600  0.28692600  0.42833700  1
