# generated using pymatgen
data_EuS2
_symmetry_space_group_name_H-M   'P 1'
_cell_length_a   4.03296500
_cell_length_b   7.94598300
_cell_length_c   8.31724353
_cell_angle_alpha   89.96528047
_cell_angle_beta   90.00000000
_cell_angle_gamma   90.00000000
_symmetry_Int_Tables_number   1
_chemical_formula_structural   EuS2
_chemical_formula_sum   'Eu4 S8'
_cell_volume   266.53326695
_cell_formula_units_Z   4
loop_
 _symmetry_equiv_pos_site_id
 _symmetry_equiv_pos_as_xyz
  1  'x, y, z'
loop_
 _atom_site_type_symbol
 _atom_site_label
 _atom_site_symmetry_multiplicity
 _atom_site_fract_x
 _atom_site_fract_y
 _atom_site_fract_z
 _atom_site_occupancy
  Eu  Eu0  1  0.27114000  0.86981300  0.29037500  1
  Eu  Eu1  1  0.77114000  0.63018700  0.70962500  1
  Eu  Eu2  1  0.72886000  0.13018700  0.70962500  1
  Eu  Eu3  1  0.22886000  0.36981300  0.29037500  1
  S  S4  1  0.83531500  0.89927000  0.00189700  1
  S  S5  1  0.33531500  0.60073000  0.99810300  1
  S  S6  1  0.16468500  0.10073000  0.99810300  1
  S  S7  1  0.66468500  0.39927000  0.00189700  1
  S  S8  1  0.25940900  0.87532300  0.63700100  1
  S  S9  1  0.75940900  0.62467700  0.36299900  1
  S  S10  1  0.74059100  0.12467700  0.36299900  1
  S  S11  1  0.24059100  0.37532300  0.63700100  1
