# generated using pymatgen
data_Ti10(GaSb)3
_symmetry_space_group_name_H-M   'P 1'
_cell_length_a   7.86020594
_cell_length_b   7.86020594
_cell_length_c   5.32605200
_cell_angle_alpha   90.00000000
_cell_angle_beta   90.00000000
_cell_angle_gamma   119.99999945
_symmetry_Int_Tables_number   1
_chemical_formula_structural   Ti10(GaSb)3
_chemical_formula_sum   'Ti10 Ga3 Sb3'
_cell_volume   284.97311230
_cell_formula_units_Z   1
loop_
 _symmetry_equiv_pos_site_id
 _symmetry_equiv_pos_as_xyz
  1  'x, y, z'
loop_
 _atom_site_type_symbol
 _atom_site_label
 _atom_site_symmetry_multiplicity
 _atom_site_fract_x
 _atom_site_fract_y
 _atom_site_fract_z
 _atom_site_occupancy
  Ti  Ti0  1  0.66666700  0.33333300  0.74053300  1
  Ti  Ti1  1  0.33333300  0.66666700  0.74053300  1
  Ti  Ti2  1  0.33333300  0.66666700  0.25946700  1
  Ti  Ti3  1  0.66666700  0.33333300  0.25946700  1
  Ti  Ti4  1  0.75165700  0.75165700  0.50000000  1
  Ti  Ti5  1  0.24834300  0.00000000  0.50000000  1
  Ti  Ti6  1  0.00000000  0.24834300  0.50000000  1
  Ti  Ti7  1  0.24323700  0.24323700  0.00000000  1
  Ti  Ti8  1  0.75676300  0.00000000  0.00000000  1
  Ti  Ti9  1  0.00000000  0.75676300  0.00000000  1
  Ga  Ga10  1  0.38677900  0.38677900  0.50000000  1
  Ga  Ga11  1  0.61322100  0.00000000  0.50000000  1
  Ga  Ga12  1  0.00000000  0.61322100  0.50000000  1
  Sb  Sb13  1  0.60545100  0.60545100  0.00000000  1
  Sb  Sb14  1  0.39454900  0.00000000  0.00000000  1
  Sb  Sb15  1  0.00000000  0.39454900  0.00000000  1
