# generated using pymatgen
data_Na4Eu(SiSe3)2
_symmetry_space_group_name_H-M   'P 1'
_cell_length_a   7.13244855
_cell_length_b   7.13244855
_cell_length_c   8.01079317
_cell_angle_alpha   81.37338686
_cell_angle_beta   81.37338686
_cell_angle_gamma   119.81066896
_symmetry_Int_Tables_number   1
_chemical_formula_structural   Na4Eu(SiSe3)2
_chemical_formula_sum   'Na4 Eu1 Si2 Se6'
_cell_volume   337.40644991
_cell_formula_units_Z   1
loop_
 _symmetry_equiv_pos_site_id
 _symmetry_equiv_pos_as_xyz
  1  'x, y, z'
loop_
 _atom_site_type_symbol
 _atom_site_label
 _atom_site_symmetry_multiplicity
 _atom_site_fract_x
 _atom_site_fract_y
 _atom_site_fract_z
 _atom_site_occupancy
  Na  Na0  1  0.82691400  0.17308600  0.00000000  1
  Na  Na1  1  0.17301200  0.82698800  0.00000000  1
  Na  Na2  1  0.50008700  0.49991300  0.00000000  1
  Na  Na3  1  0.66591400  0.33408600  0.50000000  1
  Eu  Eu4  1  0.33403500  0.66596500  0.50000000  1
  Si  Si5  1  0.04977900  0.04988100  0.34602700  1
  Si  Si6  1  0.95011900  0.95022100  0.65397300  1
  Se  Se7  1  0.77361200  0.77448000  0.25488800  1
  Se  Se8  1  0.22552000  0.22638800  0.74511200  1
  Se  Se9  1  0.08205800  0.38986000  0.25421100  1
  Se  Se10  1  0.38880200  0.07999200  0.25378100  1
  Se  Se11  1  0.92000800  0.61119800  0.74621900  1
  Se  Se12  1  0.61014000  0.91794200  0.74578900  1
