# generated using pymatgen
data_NaSm(PO3)4
_symmetry_space_group_name_H-M   'P 1'
_cell_length_a   13.24947900
_cell_length_b   7.28379400
_cell_length_c   12.30819661
_cell_angle_alpha   54.17226812
_cell_angle_beta   90.00000000
_cell_angle_gamma   90.00000000
_symmetry_Int_Tables_number   1
_chemical_formula_structural   NaSm(PO3)4
_chemical_formula_sum   'Na4 Sm4 P16 O48'
_cell_volume   963.06195754
_cell_formula_units_Z   4
loop_
 _symmetry_equiv_pos_site_id
 _symmetry_equiv_pos_as_xyz
  1  'x, y, z'
loop_
 _atom_site_type_symbol
 _atom_site_label
 _atom_site_symmetry_multiplicity
 _atom_site_fract_x
 _atom_site_fract_y
 _atom_site_fract_z
 _atom_site_occupancy
  Na  Na0  1  0.22179900  0.56494400  0.93545100  1
  Na  Na1  1  0.27820100  0.56494400  0.43545100  1
  Na  Na2  1  0.77820100  0.43505600  0.06454900  1
  Na  Na3  1  0.72179900  0.43505600  0.56454900  1
  Sm  Sm4  1  0.21841800  0.96410200  0.02302400  1
  Sm  Sm5  1  0.28158200  0.96410200  0.52302400  1
  Sm  Sm6  1  0.78158200  0.03589800  0.97697600  1
  Sm  Sm7  1  0.71841800  0.03589800  0.47697600  1
  P  P8  1  0.10095400  0.49383200  0.75649200  1
  P  P9  1  0.39904600  0.49383200  0.25649200  1
  P  P10  1  0.89904600  0.50616800  0.24350800  1
  P  P11  1  0.60095400  0.50616800  0.74350800  1
  P  P12  1  0.11489500  0.38569400  0.23621800  1
  P  P13  1  0.38510500  0.38569400  0.73621800  1
  P  P14  1  0.88510500  0.61430600  0.76378200  1
  P  P15  1  0.61489500  0.61430600  0.26378200  1
  P  P16  1  0.09057800  0.92970800  0.30164200  1
  P  P17  1  0.40942200  0.92970800  0.80164200  1
  P  P18  1  0.90942200  0.07029200  0.69835800  1
  P  P19  1  0.59057800  0.07029200  0.19835800  1
  P  P20  1  0.12776800  0.15806800  0.69595600  1
  P  P21  1  0.37223200  0.15806800  0.19595600  1
  P  P22  1  0.87223200  0.84193200  0.30404400  1
  P  P23  1  0.62776800  0.84193200  0.80404400  1
  O  O24  1  0.16105300  0.84468900  0.41756900  1
  O  O25  1  0.33894700  0.84468900  0.91756900  1
  O  O26  1  0.83894700  0.15531100  0.58243100  1
  O  O27  1  0.66105300  0.15531100  0.08243100  1
  O  O28  1  0.20930600  0.17688900  0.60471900  1
  O  O29  1  0.29069400  0.17688900  0.10471900  1
  O  O30  1  0.79069400  0.82311100  0.39528100  1
  O  O31  1  0.70930600  0.82311100  0.89528100  1
  O  O32  1  0.97839900  0.85151500  0.36484200  1
  O  O33  1  0.52160100  0.85151500  0.86484200  1
  O  O34  1  0.02160100  0.14848500  0.63515800  1
  O  O35  1  0.47839900  0.14848500  0.13515800  1
  O  O36  1  0.14581300  0.59460100  0.10255100  1
  O  O37  1  0.35418700  0.59460100  0.60255100  1
  O  O38  1  0.85418700  0.40539900  0.89744900  1
  O  O39  1  0.64581300  0.40539900  0.39744900  1
  O  O40  1  0.16522800  0.70143600  0.70363900  1
  O  O41  1  0.33477200  0.70143600  0.20363900  1
  O  O42  1  0.83477200  0.29856400  0.29636100  1
  O  O43  1  0.66522800  0.29856400  0.79636100  1
  O  O44  1  0.08035300  0.20246600  0.20993100  1
  O  O45  1  0.41964700  0.20246600  0.70993100  1
  O  O46  1  0.91964700  0.79753400  0.79006900  1
  O  O47  1  0.58035300  0.79753400  0.29006900  1
  O  O48  1  0.98651600  0.57443900  0.70997200  1
  O  O49  1  0.51348400  0.57443900  0.20997200  1
  O  O50  1  0.01348400  0.42556100  0.29002800  1
  O  O51  1  0.48651600  0.42556100  0.79002800  1
  O  O52  1  0.13361500  0.97757600  0.84381400  1
  O  O53  1  0.36638500  0.97757600  0.34381400  1
  O  O54  1  0.86638500  0.02242400  0.15618600  1
  O  O55  1  0.63361500  0.02242400  0.65618600  1
  O  O56  1  0.18909100  0.28295400  0.34929400  1
  O  O57  1  0.31090900  0.28295400  0.84929400  1
  O  O58  1  0.81090900  0.71704600  0.65070600  1
  O  O59  1  0.68909100  0.71704600  0.15070600  1
  O  O60  1  0.10838100  0.30858700  0.90439200  1
  O  O61  1  0.39161900  0.30858700  0.40439200  1
  O  O62  1  0.89161900  0.69141300  0.09560800  1
  O  O63  1  0.60838100  0.69141300  0.59560800  1
  O  O64  1  0.12369500  0.40504900  0.66635200  1
  O  O65  1  0.37630500  0.40504900  0.16635200  1
  O  O66  1  0.87630500  0.59495100  0.33364800  1
  O  O67  1  0.62369500  0.59495100  0.83364800  1
  O  O68  1  0.11126500  0.86355200  0.20877900  1
  O  O69  1  0.38873500  0.86355200  0.70877900  1
  O  O70  1  0.88873500  0.13644800  0.79122100  1
  O  O71  1  0.61126500  0.13644800  0.29122100  1
