# generated using pymatgen
data_K9In9GeSb22
_symmetry_space_group_name_H-M   'P 1'
_cell_length_a   11.54743500
_cell_length_b   11.86476213
_cell_length_c   13.63405675
_cell_angle_alpha   113.25634252
_cell_angle_beta   114.15666240
_cell_angle_gamma   90.80983321
_symmetry_Int_Tables_number   1
_chemical_formula_structural   K9In9GeSb22
_chemical_formula_sum   'K9 In9 Ge1 Sb22'
_cell_volume   1531.11707938
_cell_formula_units_Z   1
loop_
 _symmetry_equiv_pos_site_id
 _symmetry_equiv_pos_as_xyz
  1  'x, y, z'
loop_
 _atom_site_type_symbol
 _atom_site_label
 _atom_site_symmetry_multiplicity
 _atom_site_fract_x
 _atom_site_fract_y
 _atom_site_fract_z
 _atom_site_occupancy
  K  K0  1  0.12910900  0.14776500  0.61123500  1
  K  K1  1  0.87020000  0.85353300  0.38987000  1
  K  K2  1  0.45249000  0.49562300  0.64283000  1
  K  K3  1  0.54729300  0.50602300  0.35801300  1
  K  K4  1  0.49951800  0.49986900  0.99929900  1
  K  K5  1  0.87310500  0.82957800  0.73873400  1
  K  K6  1  0.12591600  0.17094400  0.26095600  1
  K  K7  1  0.12199200  0.18604500  0.94031100  1
  K  K8  1  0.87774700  0.81409400  0.05887900  1
  In  In9  1  0.23941800  0.74239100  0.83241400  1
  In  In10  1  0.76034100  0.25762900  0.16739700  1
  In  In11  1  0.25035500  0.74638700  0.47205900  1
  In  In12  1  0.75048500  0.25434800  0.52963300  1
  In  In13  1  0.75600900  0.21484400  0.82655500  1
  In  In14  1  0.24423600  0.78588800  0.17247600  1
  In  In15  1  0.57404600  0.92964100  0.83658000  1
  In  In16  1  0.42534400  0.06900700  0.16409700  1
  In  In17  1  0.58785500  0.92338100  0.50330000  1
  Ge  Ge18  1  0.41680000  0.07362800  0.49784100  1
  Sb  Sb19  1  0.51733100  0.75707200  0.92309300  1
  Sb  Sb20  1  0.48287400  0.24403400  0.07710800  1
  Sb  Sb21  1  0.38345700  0.08419000  0.82342200  1
  Sb  Sb22  1  0.61627600  0.91472800  0.17434700  1
  Sb  Sb23  1  0.12311400  0.80417500  0.62753500  1
  Sb  Sb24  1  0.87548900  0.19660700  0.37224800  1
  Sb  Sb25  1  0.51399000  0.76133500  0.25286100  1
  Sb  Sb26  1  0.48096500  0.23086600  0.73333100  1
  Sb  Sb27  1  0.08133200  0.41706900  0.52283900  1
  Sb  Sb28  1  0.91794900  0.58295700  0.47704300  1
  Sb  Sb29  1  0.12313600  0.48358700  0.76304200  1
  Sb  Sb30  1  0.87614000  0.51653800  0.23704900  1
  Sb  Sb31  1  0.52533100  0.76141100  0.59480100  1
  Sb  Sb32  1  0.47008200  0.22867500  0.40996800  1
  Sb  Sb33  1  0.83681600  0.08757300  0.64280300  1
  Sb  Sb34  1  0.17749100  0.92419100  0.36634100  1
  Sb  Sb35  1  0.86706200  0.50951500  0.72862700  1
  Sb  Sb36  1  0.13254600  0.49257800  0.27194600  1
  Sb  Sb37  1  0.82627300  0.09290500  0.98377000  1
  Sb  Sb38  1  0.17224100  0.90761000  0.01538000  1
  Sb  Sb39  1  0.86225800  0.48334900  0.92966500  1
  Sb  Sb40  1  0.13558900  0.51841600  0.07030100  1
