# generated using pymatgen
data_Al(Ag3Se2)3
_symmetry_space_group_name_H-M   'P 1'
_cell_length_a   11.32014700
_cell_length_b   11.32014700
_cell_length_c   11.32014700
_cell_angle_alpha   90.00000000
_cell_angle_beta   90.00000000
_cell_angle_gamma   90.00000000
_symmetry_Int_Tables_number   1
_chemical_formula_structural   Al(Ag3Se2)3
_chemical_formula_sum   'Al4 Ag36 Se24'
_cell_volume   1450.62847953
_cell_formula_units_Z   4
loop_
 _symmetry_equiv_pos_site_id
 _symmetry_equiv_pos_as_xyz
  1  'x, y, z'
loop_
 _atom_site_type_symbol
 _atom_site_label
 _atom_site_symmetry_multiplicity
 _atom_site_fract_x
 _atom_site_fract_y
 _atom_site_fract_z
 _atom_site_occupancy
  Al  Al0  1  0.50810300  0.50810300  0.50810300  1
  Al  Al1  1  0.99189700  0.49189700  0.00810300  1
  Al  Al2  1  0.49189700  0.00810300  0.99189700  1
  Al  Al3  1  0.00810300  0.99189700  0.49189700  1
  Ag  Ag4  1  0.14601900  0.33071100  0.46516100  1
  Ag  Ag5  1  0.35398100  0.66928900  0.96516100  1
  Ag  Ag6  1  0.85398100  0.83071100  0.03483900  1
  Ag  Ag7  1  0.46516100  0.14601900  0.33071100  1
  Ag  Ag8  1  0.64601900  0.16928900  0.53483900  1
  Ag  Ag9  1  0.96516100  0.35398100  0.66928900  1
  Ag  Ag10  1  0.03483900  0.85398100  0.83071100  1
  Ag  Ag11  1  0.53483900  0.64601900  0.16928900  1
  Ag  Ag12  1  0.33071100  0.46516100  0.14601900  1
  Ag  Ag13  1  0.83071100  0.03483900  0.85398100  1
  Ag  Ag14  1  0.16928900  0.53483900  0.64601900  1
  Ag  Ag15  1  0.66928900  0.96516100  0.35398100  1
  Ag  Ag16  1  0.17282800  0.56972700  0.36237600  1
  Ag  Ag17  1  0.32717200  0.43027300  0.86237600  1
  Ag  Ag18  1  0.82717200  0.06972700  0.13762400  1
  Ag  Ag19  1  0.36237600  0.17282800  0.56972700  1
  Ag  Ag20  1  0.67282800  0.93027300  0.63762400  1
  Ag  Ag21  1  0.86237600  0.32717200  0.43027300  1
  Ag  Ag22  1  0.13762400  0.82717200  0.06972700  1
  Ag  Ag23  1  0.63762400  0.67282800  0.93027300  1
  Ag  Ag24  1  0.56972700  0.36237600  0.17282800  1
  Ag  Ag25  1  0.06972700  0.13762400  0.82717200  1
  Ag  Ag26  1  0.93027300  0.63762400  0.67282800  1
  Ag  Ag27  1  0.43027300  0.86237600  0.32717200  1
  Ag  Ag28  1  0.03098400  0.22734000  0.23100900  1
  Ag  Ag29  1  0.46901600  0.77266000  0.73100900  1
  Ag  Ag30  1  0.96901600  0.72734000  0.26899100  1
  Ag  Ag31  1  0.23100900  0.03098400  0.22734000  1
  Ag  Ag32  1  0.53098400  0.27266000  0.76899100  1
  Ag  Ag33  1  0.73100900  0.46901600  0.77266000  1
  Ag  Ag34  1  0.26899100  0.96901600  0.72734000  1
  Ag  Ag35  1  0.76899100  0.53098400  0.27266000  1
  Ag  Ag36  1  0.22734000  0.23100900  0.03098400  1
  Ag  Ag37  1  0.72734000  0.26899100  0.96901600  1
  Ag  Ag38  1  0.27266000  0.76899100  0.53098400  1
  Ag  Ag39  1  0.77266000  0.73100900  0.46901600  1
  Se  Se40  1  0.62966200  0.62966200  0.62966200  1
  Se  Se41  1  0.87033800  0.37033800  0.12966200  1
  Se  Se42  1  0.37033800  0.12966200  0.87033800  1
  Se  Se43  1  0.12966200  0.87033800  0.37033800  1
  Se  Se44  1  0.26226700  0.26226700  0.26226700  1
  Se  Se45  1  0.23773300  0.73773300  0.76226700  1
  Se  Se46  1  0.73773300  0.76226700  0.23773300  1
  Se  Se47  1  0.76226700  0.23773300  0.73773300  1
  Se  Se48  1  0.01869800  0.01869800  0.01869800  1
  Se  Se49  1  0.48130200  0.98130200  0.51869800  1
  Se  Se50  1  0.98130200  0.51869800  0.48130200  1
  Se  Se51  1  0.51869800  0.48130200  0.98130200  1
  Se  Se52  1  0.12360800  0.13236000  0.60239900  1
  Se  Se53  1  0.37639200  0.86764000  0.10239900  1
  Se  Se54  1  0.87639200  0.63236000  0.89760100  1
  Se  Se55  1  0.60239900  0.12360800  0.13236000  1
  Se  Se56  1  0.62360800  0.36764000  0.39760100  1
  Se  Se57  1  0.10239900  0.37639200  0.86764000  1
  Se  Se58  1  0.89760100  0.87639200  0.63236000  1
  Se  Se59  1  0.39760100  0.62360800  0.36764000  1
  Se  Se60  1  0.13236000  0.60239900  0.12360800  1
  Se  Se61  1  0.63236000  0.89760100  0.87639200  1
  Se  Se62  1  0.36764000  0.39760100  0.62360800  1
  Se  Se63  1  0.86764000  0.10239900  0.37639200  1
