# generated using pymatgen
data_Tl(V3S4)4
_symmetry_space_group_name_H-M   'P 1'
_cell_length_a   6.50792300
_cell_length_b   9.15697306
_cell_length_c   9.70498502
_cell_angle_alpha   118.05224686
_cell_angle_beta   109.56751297
_cell_angle_gamma   90.00679517
_symmetry_Int_Tables_number   1
_chemical_formula_structural   Tl(V3S4)4
_chemical_formula_sum   'Tl1 V12 S16'
_cell_volume   472.20720907
_cell_formula_units_Z   1
loop_
 _symmetry_equiv_pos_site_id
 _symmetry_equiv_pos_as_xyz
  1  'x, y, z'
loop_
 _atom_site_type_symbol
 _atom_site_label
 _atom_site_symmetry_multiplicity
 _atom_site_fract_x
 _atom_site_fract_y
 _atom_site_fract_z
 _atom_site_occupancy
  Tl  Tl0  1  0.19749700  0.99999100  0.99994000  1
  V  V1  1  0.18352300  0.62950000  0.11943000  1
  V  V2  1  0.68434800  0.62893500  0.11904000  1
  V  V3  1  0.38055700  0.88078800  0.51142700  1
  V  V4  1  0.87868700  0.88179400  0.50897700  1
  V  V5  1  0.31027900  0.49106100  0.37275200  1
  V  V6  1  0.80992100  0.48854500  0.36980300  1
  V  V7  1  0.81418600  0.37146600  0.88084300  1
  V  V8  1  0.31613500  0.37138900  0.88085500  1
  V  V9  1  0.62120100  0.11829400  0.49092100  1
  V  V10  1  0.11839700  0.11880600  0.48998300  1
  V  V11  1  0.68773800  0.51010400  0.62854700  1
  V  V12  1  0.18948000  0.50918800  0.62741300  1
  S  S13  1  0.95793000  0.33365300  0.66694200  1
  S  S14  1  0.45755200  0.33296600  0.66620100  1
  S  S15  1  0.04168900  0.66688100  0.33362300  1
  S  S16  1  0.54189900  0.66656400  0.33328300  1
  S  S17  1  0.77191500  0.94927600  0.29520800  1
  S  S18  1  0.27251900  0.94824900  0.29805300  1
  S  S19  1  0.94890900  0.70235900  0.65053700  1
  S  S20  1  0.45115600  0.70498900  0.65382400  1
  S  S21  1  0.65029200  0.34713900  0.05149000  1
  S  S22  1  0.14914000  0.34942500  0.05168300  1
  S  S23  1  0.22756100  0.05123600  0.70403000  1
  S  S24  1  0.72727800  0.05075000  0.70496500  1
  S  S25  1  0.04775700  0.29480200  0.34596200  1
  S  S26  1  0.54892000  0.29575100  0.34693600  1
  S  S27  1  0.35033900  0.65273800  0.94874600  1
  S  S28  1  0.84854400  0.65336100  0.94858600  1
