# generated using pymatgen
data_Yb2Mn3Sb3O14
_symmetry_space_group_name_H-M   'P 1'
_cell_length_a   7.19161486
_cell_length_b   7.19161486
_cell_length_c   7.10341229
_cell_angle_alpha   60.81001876
_cell_angle_beta   60.81001876
_cell_angle_gamma   61.13207643
_symmetry_Int_Tables_number   1
_chemical_formula_structural   Yb2Mn3Sb3O14
_chemical_formula_sum   'Yb2 Mn3 Sb3 O14'
_cell_volume   265.14504156
_cell_formula_units_Z   1
loop_
 _symmetry_equiv_pos_site_id
 _symmetry_equiv_pos_as_xyz
  1  'x, y, z'
loop_
 _atom_site_type_symbol
 _atom_site_label
 _atom_site_symmetry_multiplicity
 _atom_site_fract_x
 _atom_site_fract_y
 _atom_site_fract_z
 _atom_site_occupancy
  Yb  Yb0  1  0.50000000  0.00000000  0.00000000  1
  Yb  Yb1  1  0.00000000  0.50000000  0.00000000  1
  Mn  Mn2  1  0.50000000  0.50000000  0.50000000  1
  Mn  Mn3  1  0.00000000  0.00000000  0.00000000  1
  Mn  Mn4  1  0.00000000  0.00000000  0.50000000  1
  Sb  Sb5  1  0.50000000  0.50000000  0.00000000  1
  Sb  Sb6  1  0.00000000  0.50000000  0.50000000  1
  Sb  Sb7  1  0.50000000  0.00000000  0.50000000  1
  O  O8  1  0.89832900  0.89832900  0.83405100  1
  O  O9  1  0.10167100  0.10167100  0.16594900  1
  O  O10  1  0.57791400  0.57791400  0.17699900  1
  O  O11  1  0.16994400  0.16994400  0.57196300  1
  O  O12  1  0.18047100  0.57522400  0.57581800  1
  O  O13  1  0.57851800  0.16774700  0.16637000  1
  O  O14  1  0.16774700  0.57851800  0.16637000  1
  O  O15  1  0.57522400  0.18047100  0.57581800  1
  O  O16  1  0.42208600  0.42208600  0.82300100  1
  O  O17  1  0.83005600  0.83005600  0.42803700  1
  O  O18  1  0.81952900  0.42477600  0.42418200  1
  O  O19  1  0.42148200  0.83225300  0.83363000  1
  O  O20  1  0.83225300  0.42148200  0.83363000  1
  O  O21  1  0.42477600  0.81952900  0.42418200  1
