# generated using pymatgen
data_B11H10SI
_symmetry_space_group_name_H-M   'P 1'
_cell_length_a   7.81118100
_cell_length_b   14.32763800
_cell_length_c   14.54632220
_cell_angle_alpha   90.00000000
_cell_angle_beta   121.95542559
_cell_angle_gamma   90.00000000
_symmetry_Int_Tables_number   1
_chemical_formula_structural   B11H10SI
_chemical_formula_sum   'B44 H40 S4 I4'
_cell_volume   1381.26156945
_cell_formula_units_Z   4
loop_
 _symmetry_equiv_pos_site_id
 _symmetry_equiv_pos_as_xyz
  1  'x, y, z'
loop_
 _atom_site_type_symbol
 _atom_site_label
 _atom_site_symmetry_multiplicity
 _atom_site_fract_x
 _atom_site_fract_y
 _atom_site_fract_z
 _atom_site_occupancy
  B  B0  1  0.37807200  0.23023600  0.40125100  1
  B  B1  1  0.37807200  0.26976400  0.90125100  1
  B  B2  1  0.62192800  0.76976400  0.59874900  1
  B  B3  1  0.62192800  0.73023600  0.09874900  1
  B  B4  1  0.16348600  0.18735600  0.26790900  1
  B  B5  1  0.16348600  0.31264400  0.76790900  1
  B  B6  1  0.83651400  0.81264400  0.73209100  1
  B  B7  1  0.83651400  0.68735600  0.23209100  1
  B  B8  1  0.93454900  0.25906100  0.23085300  1
  B  B9  1  0.93454900  0.24093900  0.73085300  1
  B  B10  1  0.06545100  0.74093900  0.76914700  1
  B  B11  1  0.06545100  0.75906100  0.26914700  1
  B  B12  1  0.00756100  0.34617500  0.34187200  1
  B  B13  1  0.00756100  0.15382500  0.84187200  1
  B  B14  1  0.99243900  0.65382500  0.65812800  1
  B  B15  1  0.99243900  0.84617500  0.15812800  1
  B  B16  1  0.28218100  0.32800200  0.44713400  1
  B  B17  1  0.28218100  0.17199800  0.94713400  1
  B  B18  1  0.71781900  0.67199800  0.55286600  1
  B  B19  1  0.71781900  0.82800200  0.05286600  1
  B  B20  1  0.34698500  0.26490900  0.27709500  1
  B  B21  1  0.34698500  0.23509100  0.77709500  1
  B  B22  1  0.65301500  0.73509100  0.72290500  1
  B  B23  1  0.65301500  0.76490900  0.22290500  1
  B  B24  1  0.08568300  0.28205800  0.17693500  1
  B  B25  1  0.08568300  0.21794200  0.67693500  1
  B  B26  1  0.91431700  0.71794200  0.82306500  1
  B  B27  1  0.91431700  0.78205800  0.32306500  1
  B  B28  1  0.99400500  0.37584400  0.22064700  1
  B  B29  1  0.99400500  0.12415600  0.72064700  1
  B  B30  1  0.00599500  0.62415600  0.77935300  1
  B  B31  1  0.00599500  0.87584400  0.27935300  1
  B  B32  1  0.19904000  0.41634600  0.34855800  1
  B  B33  1  0.19904000  0.08365400  0.84855800  1
  B  B34  1  0.80096000  0.58365400  0.65144200  1
  B  B35  1  0.80096000  0.91634600  0.15144200  1
  B  B36  1  0.41726800  0.34812400  0.38313900  1
  B  B37  1  0.41726800  0.15187600  0.88313900  1
  B  B38  1  0.58273200  0.65187600  0.61686100  1
  B  B39  1  0.58273200  0.84812400  0.11686100  1
  B  B40  1  0.24340000  0.37973100  0.24582300  1
  B  B41  1  0.24340000  0.12026900  0.74582300  1
  B  B42  1  0.75660000  0.62026900  0.75417700  1
  B  B43  1  0.75660000  0.87973100  0.25417700  1
  H  H44  1  0.49519600  0.17625600  0.46613100  1
  H  H45  1  0.49519600  0.32374400  0.96613100  1
  H  H46  1  0.50480400  0.82374400  0.53386900  1
  H  H47  1  0.50480400  0.67625600  0.03386900  1
  H  H48  1  0.14698900  0.10630400  0.24851300  1
  H  H49  1  0.14698900  0.39369600  0.74851300  1
  H  H50  1  0.85301100  0.89369600  0.75148700  1
  H  H51  1  0.85301100  0.60630400  0.25148700  1
  H  H52  1  0.77390200  0.22218400  0.18724200  1
  H  H53  1  0.77390200  0.27781600  0.68724200  1
  H  H54  1  0.22609800  0.77781600  0.81275800  1
  H  H55  1  0.22609800  0.72218400  0.31275800  1
  H  H56  1  0.89159000  0.36505700  0.36855200  1
  H  H57  1  0.89159000  0.13494300  0.86855200  1
  H  H58  1  0.10841000  0.63494300  0.63144800  1
  H  H59  1  0.10841000  0.86505700  0.13144800  1
  H  H60  1  0.34247000  0.33569200  0.54083400  1
  H  H61  1  0.34247000  0.16430800  0.04083400  1
  H  H62  1  0.65753000  0.66430800  0.45916600  1
  H  H63  1  0.65753000  0.83569200  0.95916600  1
  H  H64  1  0.46141000  0.23530000  0.25373100  1
  H  H65  1  0.46141000  0.26470000  0.75373100  1
  H  H66  1  0.53859000  0.76470000  0.74626900  1
  H  H67  1  0.53859000  0.73530000  0.24626900  1
  H  H68  1  0.01692200  0.26521800  0.08361300  1
  H  H69  1  0.01692200  0.23478200  0.58361300  1
  H  H70  1  0.98307800  0.73478200  0.91638700  1
  H  H71  1  0.98307800  0.76521800  0.41638700  1
  H  H72  1  0.86102400  0.42588700  0.15795000  1
  H  H73  1  0.86102400  0.07411300  0.65795000  1
  H  H74  1  0.13897600  0.57411300  0.84205000  1
  H  H75  1  0.13897600  0.92588700  0.34205000  1
  H  H76  1  0.21329300  0.49486800  0.37878900  1
  H  H77  1  0.21329300  0.00513200  0.87878900  1
  H  H78  1  0.78670700  0.50513200  0.62121100  1
  H  H79  1  0.78670700  0.99486800  0.12121100  1
  H  H80  1  0.58361900  0.37905900  0.43673800  1
  H  H81  1  0.58361900  0.12094100  0.93673800  1
  H  H82  1  0.41638100  0.62094100  0.56326200  1
  H  H83  1  0.41638100  0.87905900  0.06326200  1
  S  S84  1  0.10726000  0.21474100  0.38440500  1
  S  S85  1  0.10726000  0.28525900  0.88440500  1
  S  S86  1  0.89274000  0.78525900  0.61559500  1
  S  S87  1  0.89274000  0.71474100  0.11559500  1
  I  I88  1  0.32691100  0.47903500  0.16197300  1
  I  I89  1  0.32691100  0.02096500  0.66197300  1
  I  I90  1  0.67308900  0.52096500  0.83802700  1
  I  I91  1  0.67308900  0.97903500  0.33802700  1
