# generated using pymatgen
data_BaNpO4
_symmetry_space_group_name_H-M   'P 1'
_cell_length_a   5.84782000
_cell_length_b   8.19070700
_cell_length_c   8.25852600
_cell_angle_alpha   90.00000000
_cell_angle_beta   90.00000000
_cell_angle_gamma   90.00000000
_symmetry_Int_Tables_number   1
_chemical_formula_structural   BaNpO4
_chemical_formula_sum   'Ba4 Np4 O16'
_cell_volume   395.56506320
_cell_formula_units_Z   4
loop_
 _symmetry_equiv_pos_site_id
 _symmetry_equiv_pos_as_xyz
  1  'x, y, z'
loop_
 _atom_site_type_symbol
 _atom_site_label
 _atom_site_symmetry_multiplicity
 _atom_site_fract_x
 _atom_site_fract_y
 _atom_site_fract_z
 _atom_site_occupancy
  Ba  Ba0  1  0.47731600  0.19733000  0.25000000  1
  Ba  Ba1  1  0.52268400  0.80267000  0.75000000  1
  Ba  Ba2  1  0.52268400  0.69733000  0.25000000  1
  Ba  Ba3  1  0.47731600  0.30267000  0.75000000  1
  Np  Np4  1  0.00000000  0.00000000  0.00000000  1
  Np  Np5  1  0.00000000  0.00000000  0.50000000  1
  Np  Np6  1  0.00000000  0.50000000  0.50000000  1
  Np  Np7  1  0.00000000  0.50000000  0.00000000  1
  O  O8  1  0.11701600  0.52454900  0.25000000  1
  O  O9  1  0.88298400  0.47545100  0.75000000  1
  O  O10  1  0.88298400  0.02454900  0.25000000  1
  O  O11  1  0.11701600  0.97545100  0.75000000  1
  O  O12  1  0.70687500  0.42532500  0.06907600  1
  O  O13  1  0.29312500  0.57467500  0.93092400  1
  O  O14  1  0.29312500  0.57467500  0.56907600  1
  O  O15  1  0.29312500  0.92532500  0.43092400  1
  O  O16  1  0.70687500  0.42532500  0.43092400  1
  O  O17  1  0.70687500  0.07467500  0.56907600  1
  O  O18  1  0.70687500  0.07467500  0.93092400  1
  O  O19  1  0.29312500  0.92532500  0.06907600  1
  O  O20  1  0.14349100  0.25000000  0.00000000  1
  O  O21  1  0.85650900  0.75000000  0.00000000  1
  O  O22  1  0.85650900  0.75000000  0.50000000  1
  O  O23  1  0.14349100  0.25000000  0.50000000  1
