# generated using pymatgen
data_YCo5As3
_symmetry_space_group_name_H-M   'P 1'
_cell_length_a   3.78297900
_cell_length_b   12.21088800
_cell_length_c   10.73364600
_cell_angle_alpha   90.00000000
_cell_angle_beta   90.00000000
_cell_angle_gamma   90.00000000
_symmetry_Int_Tables_number   1
_chemical_formula_structural   YCo5As3
_chemical_formula_sum   'Y4 Co20 As12'
_cell_volume   495.82502937
_cell_formula_units_Z   4
loop_
 _symmetry_equiv_pos_site_id
 _symmetry_equiv_pos_as_xyz
  1  'x, y, z'
loop_
 _atom_site_type_symbol
 _atom_site_label
 _atom_site_symmetry_multiplicity
 _atom_site_fract_x
 _atom_site_fract_y
 _atom_site_fract_z
 _atom_site_occupancy
  Y  Y0  1  0.75000000  0.70255200  0.08140100  1
  Y  Y1  1  0.25000000  0.29744800  0.91859900  1
  Y  Y2  1  0.25000000  0.79744800  0.58140100  1
  Y  Y3  1  0.75000000  0.20255200  0.41859900  1
  Co  Co4  1  0.75000000  0.69695900  0.38263600  1
  Co  Co5  1  0.25000000  0.30304100  0.61736400  1
  Co  Co6  1  0.25000000  0.80304100  0.88263600  1
  Co  Co7  1  0.75000000  0.19695900  0.11736400  1
  Co  Co8  1  0.75000000  0.99095200  0.21251300  1
  Co  Co9  1  0.25000000  0.00904800  0.78748700  1
  Co  Co10  1  0.25000000  0.50904800  0.71251300  1
  Co  Co11  1  0.75000000  0.49095200  0.28748700  1
  Co  Co12  1  0.75000000  0.67665600  0.78321100  1
  Co  Co13  1  0.25000000  0.32334400  0.21678900  1
  Co  Co14  1  0.25000000  0.82334400  0.28321100  1
  Co  Co15  1  0.75000000  0.17665600  0.71678900  1
  Co  Co16  1  0.75000000  0.93135400  0.96876700  1
  Co  Co17  1  0.25000000  0.06864600  0.03123300  1
  Co  Co18  1  0.25000000  0.56864600  0.46876700  1
  Co  Co19  1  0.75000000  0.43135400  0.53123300  1
  Co  Co20  1  0.75000000  0.98757600  0.59304100  1
  Co  Co21  1  0.25000000  0.01242400  0.40695900  1
  Co  Co22  1  0.25000000  0.51242400  0.09304100  1
  Co  Co23  1  0.75000000  0.48757500  0.90695900  1
  As  As24  1  0.75000000  0.61319600  0.58436200  1
  As  As25  1  0.25000000  0.38680400  0.41563800  1
  As  As26  1  0.25000000  0.88680400  0.08436200  1
  As  As27  1  0.75000000  0.11319600  0.91563800  1
  As  As28  1  0.75000000  0.89070400  0.39889000  1
  As  As29  1  0.25000000  0.10929600  0.60111000  1
  As  As30  1  0.25000000  0.60929600  0.89889000  1
  As  As31  1  0.75000000  0.39070400  0.10111000  1
  As  As32  1  0.75000000  0.87064000  0.76880200  1
  As  As33  1  0.25000000  0.12936000  0.23119800  1
  As  As34  1  0.25000000  0.62936000  0.26880200  1
  As  As35  1  0.75000000  0.37064000  0.73119800  1
