# generated using pymatgen
data_K5Ta(TlAs2)2
_symmetry_space_group_name_H-M   'P 1'
_cell_length_a   7.80470600
_cell_length_b   10.79265600
_cell_length_c   18.94030000
_cell_angle_alpha   90.00000000
_cell_angle_beta   90.00000000
_cell_angle_gamma   90.00000000
_symmetry_Int_Tables_number   1
_chemical_formula_structural   K5Ta(TlAs2)2
_chemical_formula_sum   'K20 Ta4 Tl8 As16'
_cell_volume   1595.40789337
_cell_formula_units_Z   4
loop_
 _symmetry_equiv_pos_site_id
 _symmetry_equiv_pos_as_xyz
  1  'x, y, z'
loop_
 _atom_site_type_symbol
 _atom_site_label
 _atom_site_symmetry_multiplicity
 _atom_site_fract_x
 _atom_site_fract_y
 _atom_site_fract_z
 _atom_site_occupancy
  K  K0  1  0.39441000  0.75000000  0.97876400  1
  K  K1  1  0.60559000  0.25000000  0.02123600  1
  K  K2  1  0.89441000  0.25000000  0.52123600  1
  K  K3  1  0.10559000  0.75000000  0.47876400  1
  K  K4  1  0.80656600  0.52480600  0.92187300  1
  K  K5  1  0.19343400  0.47519400  0.07812700  1
  K  K6  1  0.30656600  0.47519400  0.57812700  1
  K  K7  1  0.19343400  0.02480600  0.07812700  1
  K  K8  1  0.69343400  0.52480600  0.42187300  1
  K  K9  1  0.80656600  0.97519400  0.92187300  1
  K  K10  1  0.69343400  0.97519400  0.42187300  1
  K  K11  1  0.30656600  0.02480600  0.57812700  1
  K  K12  1  0.52172500  0.55480300  0.74809000  1
  K  K13  1  0.47827500  0.44519700  0.25191000  1
  K  K14  1  0.02172500  0.44519700  0.75191000  1
  K  K15  1  0.47827500  0.05480300  0.25191000  1
  K  K16  1  0.97827500  0.55480300  0.24809000  1
  K  K17  1  0.52172500  0.94519700  0.74809000  1
  K  K18  1  0.97827500  0.94519700  0.24809000  1
  K  K19  1  0.02172500  0.05480300  0.75191000  1
  Ta  Ta20  1  0.91621400  0.75000000  0.66308300  1
  Ta  Ta21  1  0.08378600  0.25000000  0.33691700  1
  Ta  Ta22  1  0.41621400  0.25000000  0.83691700  1
  Ta  Ta23  1  0.58378600  0.75000000  0.16308300  1
  Tl  Tl24  1  0.18106800  0.75000000  0.81768000  1
  Tl  Tl25  1  0.81893200  0.25000000  0.18232000  1
  Tl  Tl26  1  0.68106800  0.25000000  0.68232000  1
  Tl  Tl27  1  0.31893200  0.75000000  0.31768000  1
  Tl  Tl28  1  0.57420800  0.75000000  0.55123300  1
  Tl  Tl29  1  0.42579200  0.25000000  0.44876700  1
  Tl  Tl30  1  0.07420800  0.25000000  0.94876700  1
  Tl  Tl31  1  0.92579200  0.75000000  0.05123300  1
  As  As32  1  0.23651500  0.75000000  0.66301500  1
  As  As33  1  0.76348500  0.25000000  0.33698500  1
  As  As34  1  0.73651500  0.25000000  0.83698500  1
  As  As35  1  0.26348500  0.75000000  0.16301500  1
  As  As36  1  0.82869000  0.75000000  0.79191100  1
  As  As37  1  0.17131000  0.25000000  0.20808900  1
  As  As38  1  0.32869000  0.25000000  0.70808900  1
  As  As39  1  0.67131000  0.75000000  0.29191100  1
  As  As40  1  0.80290100  0.56148300  0.60136500  1
  As  As41  1  0.19709900  0.43851700  0.39863500  1
  As  As42  1  0.30290100  0.43851700  0.89863500  1
  As  As43  1  0.19709900  0.06148300  0.39863500  1
  As  As44  1  0.69709900  0.56148300  0.10136500  1
  As  As45  1  0.80290100  0.93851700  0.60136500  1
  As  As46  1  0.69709900  0.93851700  0.10136500  1
  As  As47  1  0.30290100  0.06148300  0.89863500  1
