# generated using pymatgen
data_LiLaBi2
_symmetry_space_group_name_H-M   'P 1'
_cell_length_a   4.55804200
_cell_length_b   4.55804200
_cell_length_c   11.08196600
_cell_angle_alpha   90.00000000
_cell_angle_beta   90.00000000
_cell_angle_gamma   90.00000000
_symmetry_Int_Tables_number   1
_chemical_formula_structural   LiLaBi2
_chemical_formula_sum   'Li2 La2 Bi4'
_cell_volume   230.23612048
_cell_formula_units_Z   2
loop_
 _symmetry_equiv_pos_site_id
 _symmetry_equiv_pos_as_xyz
  1  'x, y, z'
loop_
 _atom_site_type_symbol
 _atom_site_label
 _atom_site_symmetry_multiplicity
 _atom_site_fract_x
 _atom_site_fract_y
 _atom_site_fract_z
 _atom_site_occupancy
  Li  Li0  1  0.00000000  0.00000000  0.00000000  1
  Li  Li1  1  0.50000000  0.50000000  0.00000000  1
  La  La2  1  0.00000000  0.50000000  0.25915600  1
  La  La3  1  0.50000000  0.00000000  0.74084400  1
  Bi  Bi4  1  0.00000000  0.50000000  0.83780500  1
  Bi  Bi5  1  0.50000000  0.00000000  0.16219500  1
  Bi  Bi6  1  0.00000000  0.00000000  0.50000000  1
  Bi  Bi7  1  0.50000000  0.50000000  0.50000000  1
