# generated using pymatgen
data_Na4Sr2SiP4
_symmetry_space_group_name_H-M   'P 1'
_cell_length_a   9.31759581
_cell_length_b   9.31759581
_cell_length_c   7.31343860
_cell_angle_alpha   89.72466312
_cell_angle_beta   89.72466312
_cell_angle_gamma   119.78486500
_symmetry_Int_Tables_number   1
_chemical_formula_structural   Na4Sr2SiP4
_chemical_formula_sum   'Na8 Sr4 Si2 P8'
_cell_volume   551.03281491
_cell_formula_units_Z   2
loop_
 _symmetry_equiv_pos_site_id
 _symmetry_equiv_pos_as_xyz
  1  'x, y, z'
loop_
 _atom_site_type_symbol
 _atom_site_label
 _atom_site_symmetry_multiplicity
 _atom_site_fract_x
 _atom_site_fract_y
 _atom_site_fract_z
 _atom_site_occupancy
  Na  Na0  1  0.05320500  0.52644600  0.61271500  1
  Na  Na1  1  0.52644600  0.05320500  0.11271500  1
  Na  Na2  1  0.27975100  0.13650600  0.80394900  1
  Na  Na3  1  0.86629400  0.71363800  0.78225000  1
  Na  Na4  1  0.86197700  0.15112000  0.78793500  1
  Na  Na5  1  0.71363800  0.86629400  0.28225000  1
  Na  Na6  1  0.13650600  0.27975100  0.30394900  1
  Na  Na7  1  0.15112000  0.86197700  0.28793500  1
  Sr  Sr8  1  0.46973000  0.94882700  0.61407700  1
  Sr  Sr9  1  0.46596800  0.52116300  0.61375400  1
  Sr  Sr10  1  0.94882700  0.46973000  0.11407700  1
  Sr  Sr11  1  0.52116300  0.46596800  0.11375400  1
  Si  Si12  1  0.67334700  0.33765800  0.49911000  1
  Si  Si13  1  0.33765800  0.67334700  0.99911000  1
  P  P14  1  0.66172500  0.33673300  0.81575200  1
  P  P15  1  0.33673300  0.66172500  0.31575200  1
  P  P16  1  0.60813800  0.80222400  0.89590000  1
  P  P17  1  0.19645600  0.39494500  0.90762100  1
  P  P18  1  0.19419700  0.79978000  0.90295400  1
  P  P19  1  0.39494500  0.19645600  0.40762100  1
  P  P20  1  0.80222400  0.60813800  0.39590000  1
  P  P21  1  0.79978000  0.19419700  0.40295400  1
