# generated using pymatgen
data_KCdGeAs2
_symmetry_space_group_name_H-M   'P 1'
_cell_length_a   8.24437096
_cell_length_b   8.61204634
_cell_length_c   8.86914991
_cell_angle_alpha   70.76196841
_cell_angle_beta   75.33114546
_cell_angle_gamma   73.34946101
_symmetry_Int_Tables_number   1
_chemical_formula_structural   KCdGeAs2
_chemical_formula_sum   'K4 Cd4 Ge4 As8'
_cell_volume   560.77475668
_cell_formula_units_Z   4
loop_
 _symmetry_equiv_pos_site_id
 _symmetry_equiv_pos_as_xyz
  1  'x, y, z'
loop_
 _atom_site_type_symbol
 _atom_site_label
 _atom_site_symmetry_multiplicity
 _atom_site_fract_x
 _atom_site_fract_y
 _atom_site_fract_z
 _atom_site_occupancy
  K  K0  1  0.45791200  0.76484300  0.32258900  1
  K  K1  1  0.54208800  0.23515700  0.67741100  1
  K  K2  1  0.44164600  0.80241500  0.81018000  1
  K  K3  1  0.55835400  0.19758500  0.18982000  1
  Cd  Cd4  1  0.99386900  0.89752700  0.68641900  1
  Cd  Cd5  1  0.00613100  0.10247300  0.31358100  1
  Cd  Cd6  1  0.97225600  0.82345000  0.16730700  1
  Cd  Cd7  1  0.02774400  0.17655000  0.83269300  1
  Ge  Ge8  1  0.95643400  0.58587600  0.59859300  1
  Ge  Ge9  1  0.04356600  0.41412400  0.40140700  1
  Ge  Ge10  1  0.15686200  0.44885200  0.97440200  1
  Ge  Ge11  1  0.84313800  0.55114800  0.02559800  1
  As  As12  1  0.79933700  0.87198100  0.46330800  1
  As  As13  1  0.20066300  0.12801900  0.53669200  1
  As  As14  1  0.77538700  0.40701000  0.31936600  1
  As  As15  1  0.22461300  0.59299000  0.68063400  1
  As  As16  1  0.76085900  0.86667100  0.96416400  1
  As  As17  1  0.23914100  0.13332900  0.03583600  1
  As  As18  1  0.75584800  0.44719400  0.83265400  1
  As  As19  1  0.24415200  0.55280600  0.16734600  1
