# generated using pymatgen
data_MnBi4S7
_symmetry_space_group_name_H-M   'P 1'
_cell_length_a   6.79028491
_cell_length_b   6.79028491
_cell_length_c   12.01622402
_cell_angle_alpha   75.77516475
_cell_angle_beta   75.77516475
_cell_angle_gamma   34.20728182
_symmetry_Int_Tables_number   1
_chemical_formula_structural   MnBi4S7
_chemical_formula_sum   'Mn1 Bi4 S7'
_cell_volume   301.00679703
_cell_formula_units_Z   1
loop_
 _symmetry_equiv_pos_site_id
 _symmetry_equiv_pos_as_xyz
  1  'x, y, z'
loop_
 _atom_site_type_symbol
 _atom_site_label
 _atom_site_symmetry_multiplicity
 _atom_site_fract_x
 _atom_site_fract_y
 _atom_site_fract_z
 _atom_site_occupancy
  Mn  Mn0  1  0.00000000  0.00000000  0.50000000  1
  Bi  Bi1  1  0.11969300  0.11969300  0.07566300  1
  Bi  Bi2  1  0.88030700  0.88030700  0.92433700  1
  Bi  Bi3  1  0.31755900  0.31755900  0.34003700  1
  Bi  Bi4  1  0.68244100  0.68244100  0.65996300  1
  S  S5  1  0.96812000  0.96812000  0.30661100  1
  S  S6  1  0.03188000  0.03188000  0.69338900  1
  S  S7  1  0.25716700  0.25716700  0.85791400  1
  S  S8  1  0.74283300  0.74283300  0.14208600  1
  S  S9  1  0.35257600  0.35257600  0.54798600  1
  S  S10  1  0.64742400  0.64742400  0.45201400  1
  S  S11  1  0.50000000  0.50000000  0.00000000  1
