# generated using pymatgen
data_Ho
_symmetry_space_group_name_H-M   'P 1'
_cell_length_a   8.79805432
_cell_length_b   8.79805432
_cell_length_c   8.79805372
_cell_angle_alpha   23.24551338
_cell_angle_beta   23.24551338
_cell_angle_gamma   23.24550854
_symmetry_Int_Tables_number   1
_chemical_formula_structural   Ho
_chemical_formula_sum   Ho3
_cell_volume   93.12719381
_cell_formula_units_Z   3
loop_
 _symmetry_equiv_pos_site_id
 _symmetry_equiv_pos_as_xyz
  1  'x, y, z'
loop_
 _atom_site_type_symbol
 _atom_site_label
 _atom_site_symmetry_multiplicity
 _atom_site_fract_x
 _atom_site_fract_y
 _atom_site_fract_z
 _atom_site_occupancy
  Ho  Ho0  1  0.00000000  0.00000000  0.00000000  1
  Ho  Ho1  1  0.77794100  0.77794100  0.77794100  1
  Ho  Ho2  1  0.22205900  0.22205900  0.22205900  1
