# generated using pymatgen
data_Sr10Sb16H6Se7O30
_symmetry_space_group_name_H-M   'P 1'
_cell_length_a   11.52648900
_cell_length_b   18.93023600
_cell_length_c   14.61857543
_cell_angle_alpha   90.00000000
_cell_angle_beta   120.17675226
_cell_angle_gamma   90.00000000
_symmetry_Int_Tables_number   1
_chemical_formula_structural   Sr10Sb16H6Se7O30
_chemical_formula_sum   'Sr20 Sb32 H12 Se14 O60'
_cell_volume   2757.48071870
_cell_formula_units_Z   2
loop_
 _symmetry_equiv_pos_site_id
 _symmetry_equiv_pos_as_xyz
  1  'x, y, z'
loop_
 _atom_site_type_symbol
 _atom_site_label
 _atom_site_symmetry_multiplicity
 _atom_site_fract_x
 _atom_site_fract_y
 _atom_site_fract_z
 _atom_site_occupancy
  Sr  Sr0  1  0.18489600  0.26620200  0.34039100  1
  Sr  Sr1  1  0.18489600  0.23379800  0.84039100  1
  Sr  Sr2  1  0.81510400  0.73379800  0.65960900  1
  Sr  Sr3  1  0.81510400  0.76620200  0.15960900  1
  Sr  Sr4  1  0.54857100  0.15719100  0.45255100  1
  Sr  Sr5  1  0.54857100  0.34280900  0.95255100  1
  Sr  Sr6  1  0.45142900  0.84280900  0.54744900  1
  Sr  Sr7  1  0.45142900  0.65719100  0.04744900  1
  Sr  Sr8  1  0.73996400  0.27507300  0.72345300  1
  Sr  Sr9  1  0.73996400  0.22492700  0.22345300  1
  Sr  Sr10  1  0.26003600  0.72492700  0.27654700  1
  Sr  Sr11  1  0.26003600  0.77507300  0.77654700  1
  Sr  Sr12  1  0.35012300  0.25577500  0.17039500  1
  Sr  Sr13  1  0.35012300  0.24422500  0.67039500  1
  Sr  Sr14  1  0.64987700  0.74422500  0.82960500  1
  Sr  Sr15  1  0.64987700  0.75577500  0.32960500  1
  Sr  Sr16  1  0.90678000  0.27315500  0.55348100  1
  Sr  Sr17  1  0.90678000  0.22684500  0.05348100  1
  Sr  Sr18  1  0.09322000  0.72684500  0.44651900  1
  Sr  Sr19  1  0.09322000  0.77315500  0.94651900  1
  Sb  Sb20  1  0.25187000  0.40857100  0.98300000  1
  Sb  Sb21  1  0.25187000  0.09142900  0.48300000  1
  Sb  Sb22  1  0.74813000  0.59142900  0.01700000  1
  Sb  Sb23  1  0.74813000  0.90857100  0.51700000  1
  Sb  Sb24  1  0.20851500  0.40020400  0.72004900  1
  Sb  Sb25  1  0.20851500  0.09979600  0.22004900  1
  Sb  Sb26  1  0.79148500  0.59979600  0.27995100  1
  Sb  Sb27  1  0.79148500  0.90020400  0.77995100  1
  Sb  Sb28  1  0.49835600  0.41070300  0.67882600  1
  Sb  Sb29  1  0.49835600  0.08929700  0.17882600  1
  Sb  Sb30  1  0.50164400  0.58929700  0.32117400  1
  Sb  Sb31  1  0.50164400  0.91070300  0.82117400  1
  Sb  Sb32  1  0.85940700  0.40329700  0.92979000  1
  Sb  Sb33  1  0.85940700  0.09670300  0.42979000  1
  Sb  Sb34  1  0.14059300  0.59670300  0.07021000  1
  Sb  Sb35  1  0.14059300  0.90329700  0.57021000  1
  Sb  Sb36  1  0.11138800  0.61217400  0.80825000  1
  Sb  Sb37  1  0.11138800  0.88782600  0.30825000  1
  Sb  Sb38  1  0.88861200  0.38782600  0.19175000  1
  Sb  Sb39  1  0.88861200  0.11217400  0.69175000  1
  Sb  Sb40  1  0.58401900  0.41008000  0.21355700  1
  Sb  Sb41  1  0.58401900  0.08992000  0.71355700  1
  Sb  Sb42  1  0.41598100  0.58992000  0.78644300  1
  Sb  Sb43  1  0.41598100  0.91008000  0.28644300  1
  Sb  Sb44  1  0.54445200  0.34230500  0.42676800  1
  Sb  Sb45  1  0.54445200  0.15769500  0.92676800  1
  Sb  Sb46  1  0.45554800  0.65769500  0.57323200  1
  Sb  Sb47  1  0.45554800  0.84230500  0.07323200  1
  Sb  Sb48  1  0.75537700  0.51302200  0.64657700  1
  Sb  Sb49  1  0.75537700  0.98697800  0.14657700  1
  Sb  Sb50  1  0.24462300  0.48697800  0.35342300  1
  Sb  Sb51  1  0.24462300  0.01302200  0.85342300  1
  H  H52  1  0.07365900  0.30865800  0.95973800  1
  H  H53  1  0.07365900  0.19134200  0.45973800  1
  H  H54  1  0.92634100  0.69134200  0.04026200  1
  H  H55  1  0.92634100  0.80865800  0.54026200  1
  H  H56  1  0.13484700  0.56307100  0.50691300  1
  H  H57  1  0.13484700  0.93692900  0.00691300  1
  H  H58  1  0.86515300  0.43692900  0.49308700  1
  H  H59  1  0.86515300  0.06307100  0.99308700  1
  H  H60  1  0.04177100  0.58987200  0.54877000  1
  H  H61  1  0.04177100  0.91012800  0.04877000  1
  H  H62  1  0.95822900  0.41012800  0.45123000  1
  H  H63  1  0.95822900  0.08987200  0.95123000  1
  Se  Se64  1  0.82749500  0.58633000  0.53215100  1
  Se  Se65  1  0.82749500  0.91367000  0.03215100  1
  Se  Se66  1  0.17250500  0.41367000  0.46784900  1
  Se  Se67  1  0.17250500  0.08633000  0.96784900  1
  Se  Se68  1  0.93030600  0.41218400  0.72967900  1
  Se  Se69  1  0.93030600  0.08781600  0.22967900  1
  Se  Se70  1  0.06969400  0.58781600  0.27032100  1
  Se  Se71  1  0.06969400  0.91218400  0.77032100  1
  Se  Se72  1  0.83743900  0.59610100  0.80962600  1
  Se  Se73  1  0.83743900  0.90389900  0.30962600  1
  Se  Se74  1  0.16256100  0.40389900  0.19037400  1
  Se  Se75  1  0.16256100  0.09610100  0.69037400  1
  Se  Se76  1  0.50000000  0.50000000  0.00000000  1
  Se  Se77  1  0.50000000  0.00000000  0.50000000  1
  O  O78  1  0.41972800  0.36155400  0.09677300  1
  O  O79  1  0.41972800  0.13844600  0.59677300  1
  O  O80  1  0.58027200  0.63844600  0.90322700  1
  O  O81  1  0.58027200  0.86155400  0.40322700  1
  O  O82  1  0.27946500  0.36486600  0.87115300  1
  O  O83  1  0.27946500  0.13513400  0.37115300  1
  O  O84  1  0.72053500  0.63513400  0.12884700  1
  O  O85  1  0.72053500  0.86486600  0.62884700  1
  O  O86  1  0.39836300  0.37477700  0.75043800  1
  O  O87  1  0.39836300  0.12522300  0.25043800  1
  O  O88  1  0.60163700  0.62522300  0.24956200  1
  O  O89  1  0.60163700  0.87477700  0.74956200  1
  O  O90  1  0.66882400  0.38175400  0.81539900  1
  O  O91  1  0.66882400  0.11824600  0.31539900  1
  O  O92  1  0.33117600  0.61824600  0.18460100  1
  O  O93  1  0.33117600  0.88175400  0.68460100  1
  O  O94  1  0.79933800  0.37268000  0.03423100  1
  O  O95  1  0.79933800  0.12732000  0.53423100  1
  O  O96  1  0.20066200  0.62732000  0.96576900  1
  O  O97  1  0.20066200  0.87268000  0.46576900  1
  O  O98  1  0.30114300  0.64384700  0.82724200  1
  O  O99  1  0.30114300  0.85615300  0.32724200  1
  O  O100  1  0.69885700  0.35615300  0.17275800  1
  O  O101  1  0.69885700  0.14384700  0.67275800  1
  O  O102  1  0.05916700  0.71134600  0.77713100  1
  O  O103  1  0.05916700  0.78865400  0.27713100  1
  O  O104  1  0.94083300  0.28865400  0.22286900  1
  O  O105  1  0.94083300  0.21134600  0.72286900  1
  O  O106  1  0.91159300  0.30574700  0.92130600  1
  O  O107  1  0.91159300  0.19425300  0.42130600  1
  O  O108  1  0.08840700  0.69425300  0.07869400  1
  O  O109  1  0.08840700  0.80574700  0.57869400  1
  O  O110  1  0.49782700  0.31835600  0.62196200  1
  O  O111  1  0.49782700  0.18164400  0.12196200  1
  O  O112  1  0.50217300  0.68164400  0.37803800  1
  O  O113  1  0.50217300  0.81835600  0.87803800  1
  O  O114  1  0.14701600  0.30422600  0.67055100  1
  O  O115  1  0.14701600  0.19577400  0.17055100  1
  O  O116  1  0.85298400  0.69577400  0.32944900  1
  O  O117  1  0.85298400  0.80422600  0.82944900  1
  O  O118  1  0.58561800  0.32757900  0.30422200  1
  O  O119  1  0.58561800  0.17242100  0.80422200  1
  O  O120  1  0.41438200  0.67242100  0.69577800  1
  O  O121  1  0.41438200  0.82757900  0.19577800  1
  O  O122  1  0.40912800  0.26845600  0.36228400  1
  O  O123  1  0.40912800  0.23154400  0.86228400  1
  O  O124  1  0.59087200  0.73154400  0.63771600  1
  O  O125  1  0.59087200  0.76845600  0.13771600  1
  O  O126  1  0.68040500  0.27695100  0.52550800  1
  O  O127  1  0.68040500  0.22304900  0.02550800  1
  O  O128  1  0.31959500  0.72304900  0.47449200  1
  O  O129  1  0.31959500  0.77695100  0.97449200  1
  O  O130  1  0.17386200  0.30838200  0.98444400  1
  O  O131  1  0.17386200  0.19161800  0.48444400  1
  O  O132  1  0.82613800  0.69161800  0.01555600  1
  O  O133  1  0.82613800  0.80838200  0.51555600  1
  O  O134  1  0.12390500  0.60223400  0.54560400  1
  O  O135  1  0.12390500  0.89776600  0.04560400  1
  O  O136  1  0.87609500  0.39776600  0.45439600  1
  O  O137  1  0.87609500  0.10223400  0.95439600  1
