# generated using pymatgen
data_CsMnO4
_symmetry_space_group_name_H-M   'P 1'
_cell_length_a   6.00301600
_cell_length_b   8.16278000
_cell_length_c   10.22816300
_cell_angle_alpha   90.00000000
_cell_angle_beta   90.00000000
_cell_angle_gamma   90.00000000
_symmetry_Int_Tables_number   1
_chemical_formula_structural   CsMnO4
_chemical_formula_sum   'Cs4 Mn4 O16'
_cell_volume   501.19327282
_cell_formula_units_Z   4
loop_
 _symmetry_equiv_pos_site_id
 _symmetry_equiv_pos_as_xyz
  1  'x, y, z'
loop_
 _atom_site_type_symbol
 _atom_site_label
 _atom_site_symmetry_multiplicity
 _atom_site_fract_x
 _atom_site_fract_y
 _atom_site_fract_z
 _atom_site_occupancy
  Cs  Cs0  1  0.25000000  0.84617900  0.81067500  1
  Cs  Cs1  1  0.75000000  0.15382100  0.18932500  1
  Cs  Cs2  1  0.75000000  0.34617900  0.68932500  1
  Cs  Cs3  1  0.25000000  0.65382100  0.31067500  1
  Mn  Mn4  1  0.25000000  0.29457900  0.94914000  1
  Mn  Mn5  1  0.75000000  0.70542100  0.05086000  1
  Mn  Mn6  1  0.75000000  0.79457900  0.55086000  1
  Mn  Mn7  1  0.25000000  0.20542100  0.44914000  1
  O  O8  1  0.52992700  0.81549500  0.07892600  1
  O  O9  1  0.02992700  0.18450500  0.92107400  1
  O  O10  1  0.47007300  0.31549500  0.42107400  1
  O  O11  1  0.97007300  0.68450500  0.57892600  1
  O  O12  1  0.47007300  0.18450500  0.92107400  1
  O  O13  1  0.97007300  0.81549500  0.07892600  1
  O  O14  1  0.52992700  0.68450500  0.57892600  1
  O  O15  1  0.02992700  0.31549500  0.42107400  1
  O  O16  1  0.25000000  0.04833200  0.35291300  1
  O  O17  1  0.75000000  0.95166800  0.64708700  1
  O  O18  1  0.75000000  0.54833200  0.14708700  1
  O  O19  1  0.25000000  0.45166800  0.85291300  1
  O  O20  1  0.25000000  0.14774300  0.60034500  1
  O  O21  1  0.75000000  0.85225700  0.39965500  1
  O  O22  1  0.75000000  0.64774300  0.89965500  1
  O  O23  1  0.25000000  0.35225700  0.10034500  1
