# generated using pymatgen
data_K2SmCl5
_symmetry_space_group_name_H-M   'P 1'
_cell_length_a   8.13926600
_cell_length_b   8.67824000
_cell_length_c   13.12513000
_cell_angle_alpha   90.00000000
_cell_angle_beta   90.00000000
_cell_angle_gamma   90.00000000
_symmetry_Int_Tables_number   1
_chemical_formula_structural   K2SmCl5
_chemical_formula_sum   'K8 Sm4 Cl20'
_cell_volume   927.08704449
_cell_formula_units_Z   4
loop_
 _symmetry_equiv_pos_site_id
 _symmetry_equiv_pos_as_xyz
  1  'x, y, z'
loop_
 _atom_site_type_symbol
 _atom_site_label
 _atom_site_symmetry_multiplicity
 _atom_site_fract_x
 _atom_site_fract_y
 _atom_site_fract_z
 _atom_site_occupancy
  K  K0  1  0.53337800  0.50015400  0.82564600  1
  K  K1  1  0.46662200  0.49984600  0.17435400  1
  K  K2  1  0.03337800  0.49984600  0.67435400  1
  K  K3  1  0.46662200  0.00015400  0.17435400  1
  K  K4  1  0.96662200  0.50015400  0.32564600  1
  K  K5  1  0.53337800  0.99984600  0.82564600  1
  K  K6  1  0.96662200  0.99984600  0.32564600  1
  K  K7  1  0.03337800  0.00015400  0.67435400  1
  Sm  Sm8  1  0.57552500  0.75000000  0.50339100  1
  Sm  Sm9  1  0.42447500  0.25000000  0.49660900  1
  Sm  Sm10  1  0.07552500  0.25000000  0.99660900  1
  Sm  Sm11  1  0.92447500  0.75000000  0.00339100  1
  Cl  Cl12  1  0.82836100  0.75000000  0.80176300  1
  Cl  Cl13  1  0.17163900  0.25000000  0.19823700  1
  Cl  Cl14  1  0.32836100  0.25000000  0.69823700  1
  Cl  Cl15  1  0.67163900  0.75000000  0.30176300  1
  Cl  Cl16  1  0.36270400  0.75000000  0.66672500  1
  Cl  Cl17  1  0.63729600  0.25000000  0.33327500  1
  Cl  Cl18  1  0.86270400  0.25000000  0.83327500  1
  Cl  Cl19  1  0.13729600  0.75000000  0.16672500  1
  Cl  Cl20  1  0.91461600  0.75000000  0.51145800  1
  Cl  Cl21  1  0.08538400  0.25000000  0.48854200  1
  Cl  Cl22  1  0.41461600  0.25000000  0.98854200  1
  Cl  Cl23  1  0.58538400  0.75000000  0.01145800  1
  Cl  Cl24  1  0.65391800  0.04033600  0.58216000  1
  Cl  Cl25  1  0.34608200  0.95966400  0.41784000  1
  Cl  Cl26  1  0.15391800  0.95966400  0.91784000  1
  Cl  Cl27  1  0.34608200  0.54033600  0.41784000  1
  Cl  Cl28  1  0.84608200  0.04033600  0.08216000  1
  Cl  Cl29  1  0.65391800  0.45966400  0.58216000  1
  Cl  Cl30  1  0.84608200  0.45966400  0.08216000  1
  Cl  Cl31  1  0.15391800  0.54033600  0.91784000  1
