# generated using pymatgen
data_EuGa3Ag
_symmetry_space_group_name_H-M   'P 1'
_cell_length_a   6.29277396
_cell_length_b   6.29277396
_cell_length_c   6.29277396
_cell_angle_alpha   139.17132415
_cell_angle_beta   139.17132415
_cell_angle_gamma   59.11371349
_symmetry_Int_Tables_number   1
_chemical_formula_structural   EuGa3Ag
_chemical_formula_sum   'Eu1 Ga3 Ag1'
_cell_volume   105.48929842
_cell_formula_units_Z   1
loop_
 _symmetry_equiv_pos_site_id
 _symmetry_equiv_pos_as_xyz
  1  'x, y, z'
loop_
 _atom_site_type_symbol
 _atom_site_label
 _atom_site_symmetry_multiplicity
 _atom_site_fract_x
 _atom_site_fract_y
 _atom_site_fract_z
 _atom_site_occupancy
  Eu  Eu0  1  0.00000000  0.00000000  0.00000000  1
  Ga  Ga1  1  0.61435600  0.61435600  0.00000000  1
  Ga  Ga2  1  0.38564400  0.38564400  0.00000000  1
  Ga  Ga3  1  0.75000000  0.25000000  0.50000000  1
  Ag  Ag4  1  0.25000000  0.75000000  0.50000000  1
