# generated using pymatgen
data_Tm2Mn12P7
_symmetry_space_group_name_H-M   'P 1'
_cell_length_a   9.25594791
_cell_length_b   9.25594791
_cell_length_c   3.58140800
_cell_angle_alpha   90.00000000
_cell_angle_beta   90.00000000
_cell_angle_gamma   119.99999936
_symmetry_Int_Tables_number   1
_chemical_formula_structural   Tm2Mn12P7
_chemical_formula_sum   'Tm2 Mn12 P7'
_cell_volume   265.72121991
_cell_formula_units_Z   1
loop_
 _symmetry_equiv_pos_site_id
 _symmetry_equiv_pos_as_xyz
  1  'x, y, z'
loop_
 _atom_site_type_symbol
 _atom_site_label
 _atom_site_symmetry_multiplicity
 _atom_site_fract_x
 _atom_site_fract_y
 _atom_site_fract_z
 _atom_site_occupancy
  Tm  Tm0  1  0.00000000  0.00000000  0.00000000  1
  Tm  Tm1  1  0.66666700  0.33333300  0.50000000  1
  Mn  Mn2  1  0.71024100  0.61775100  0.00000000  1
  Mn  Mn3  1  0.38224900  0.09249000  0.00000000  1
  Mn  Mn4  1  0.90751000  0.28975900  0.00000000  1
  Mn  Mn5  1  0.21371900  0.39005100  0.00000000  1
  Mn  Mn6  1  0.60994900  0.82366800  0.00000000  1
  Mn  Mn7  1  0.17633200  0.78628100  0.00000000  1
  Mn  Mn8  1  0.28889400  0.23000500  0.50000000  1
  Mn  Mn9  1  0.76999500  0.05888800  0.50000000  1
  Mn  Mn10  1  0.94111200  0.71110600  0.50000000  1
  Mn  Mn11  1  0.45848500  0.56376800  0.50000000  1
  Mn  Mn12  1  0.43623200  0.89471800  0.50000000  1
  Mn  Mn13  1  0.10528200  0.54151500  0.50000000  1
  P  P14  1  0.45496100  0.37621800  0.00000000  1
  P  P15  1  0.62378200  0.07874300  0.00000000  1
  P  P16  1  0.92125700  0.54503900  0.00000000  1
  P  P17  1  0.05214600  0.25733600  0.50000000  1
  P  P18  1  0.74266400  0.79481100  0.50000000  1
  P  P19  1  0.20518900  0.94785400  0.50000000  1
  P  P20  1  0.33333300  0.66666700  0.00000000  1
