# generated using pymatgen
data_NdZnGe
_symmetry_space_group_name_H-M   'P 1'
_cell_length_a   4.28751036
_cell_length_b   4.28751036
_cell_length_c   16.66188000
_cell_angle_alpha   90.00000000
_cell_angle_beta   90.00000000
_cell_angle_gamma   120.00000563
_symmetry_Int_Tables_number   1
_chemical_formula_structural   NdZnGe
_chemical_formula_sum   'Nd4 Zn4 Ge4'
_cell_volume   265.25585277
_cell_formula_units_Z   4
loop_
 _symmetry_equiv_pos_site_id
 _symmetry_equiv_pos_as_xyz
  1  'x, y, z'
loop_
 _atom_site_type_symbol
 _atom_site_label
 _atom_site_symmetry_multiplicity
 _atom_site_fract_x
 _atom_site_fract_y
 _atom_site_fract_z
 _atom_site_occupancy
  Nd  Nd0  1  0.00000000  0.00000000  0.25000000  1
  Nd  Nd1  1  0.00000000  0.00000000  0.75000000  1
  Nd  Nd2  1  0.00000000  0.00000000  0.00000000  1
  Nd  Nd3  1  0.00000000  0.00000000  0.50000000  1
  Zn  Zn4  1  0.33333300  0.66666700  0.13822700  1
  Zn  Zn5  1  0.66666700  0.33333300  0.86177300  1
  Zn  Zn6  1  0.66666700  0.33333300  0.63822700  1
  Zn  Zn7  1  0.33333300  0.66666700  0.36177300  1
  Ge  Ge8  1  0.33333300  0.66666700  0.61766900  1
  Ge  Ge9  1  0.66666700  0.33333300  0.38233100  1
  Ge  Ge10  1  0.66666700  0.33333300  0.11766900  1
  Ge  Ge11  1  0.33333300  0.66666700  0.88233100  1
