# generated using pymatgen
data_K2GaP2H3(O4F)2
_symmetry_space_group_name_H-M   'P 1'
_cell_length_a   8.39329100
_cell_length_b   4.79619100
_cell_length_c   11.00850263
_cell_angle_alpha   86.44144559
_cell_angle_beta   90.00000000
_cell_angle_gamma   90.00000000
_symmetry_Int_Tables_number   1
_chemical_formula_structural   K2GaP2H3(O4F)2
_chemical_formula_sum   'K4 Ga2 P4 H6 O16 F4'
_cell_volume   442.30191942
_cell_formula_units_Z   2
loop_
 _symmetry_equiv_pos_site_id
 _symmetry_equiv_pos_as_xyz
  1  'x, y, z'
loop_
 _atom_site_type_symbol
 _atom_site_label
 _atom_site_symmetry_multiplicity
 _atom_site_fract_x
 _atom_site_fract_y
 _atom_site_fract_z
 _atom_site_occupancy
  K  K0  1  0.59856500  0.49092000  0.57939100  1
  K  K1  1  0.09856500  0.50908000  0.42060900  1
  K  K2  1  0.39838600  0.50135200  0.91571200  1
  K  K3  1  0.89838600  0.49864800  0.08428800  1
  Ga  Ga4  1  0.00365900  0.49927800  0.74979000  1
  Ga  Ga5  1  0.50365900  0.50072200  0.25021000  1
  P  P6  1  0.76751400  0.98466900  0.83585200  1
  P  P7  1  0.26751400  0.01533100  0.16414800  1
  P  P8  1  0.24236400  0.01425100  0.66709600  1
  P  P9  1  0.74236400  0.98574900  0.33290400  1
  H  H10  1  0.66025900  0.95242200  0.02293300  1
  H  H11  1  0.16025900  0.04757800  0.97706700  1
  H  H12  1  0.34062800  0.04361500  0.47825500  1
  H  H13  1  0.84062800  0.95638500  0.52174500  1
  H  H14  1  0.51621100  0.97856300  0.75320000  1
  H  H15  1  0.01621100  0.02143700  0.24680000  1
  O  O16  1  0.81340800  0.24651800  0.75837100  1
  O  O17  1  0.31340800  0.75348200  0.24162900  1
  O  O18  1  0.19120600  0.75112800  0.74379700  1
  O  O19  1  0.69120600  0.24887200  0.25620300  1
  O  O20  1  0.71209900  0.09450700  0.96418600  1
  O  O21  1  0.21209900  0.90549300  0.03581400  1
  O  O22  1  0.28728500  0.90275500  0.53608100  1
  O  O23  1  0.78728500  0.09724500  0.46391900  1
  O  O24  1  0.89585300  0.76263000  0.85908200  1
  O  O25  1  0.39585300  0.23737000  0.14091800  1
  O  O26  1  0.11216300  0.23634000  0.64485500  1
  O  O27  1  0.61216300  0.76366000  0.35514500  1
  O  O28  1  0.61874900  0.84167100  0.77929600  1
  O  O29  1  0.11874900  0.15832900  0.22070400  1
  O  O30  1  0.39393800  0.14046900  0.72094500  1
  O  O31  1  0.89393800  0.85953100  0.27905500  1
  F  F32  1  0.90792200  0.67944900  0.60434900  1
  F  F33  1  0.40792200  0.32055100  0.39565100  1
  F  F34  1  0.09079200  0.31559400  0.89854200  1
  F  F35  1  0.59079200  0.68440600  0.10145800  1
