# generated using pymatgen
data_Cs5Th(PS4)3
_symmetry_space_group_name_H-M   'P 1'
_cell_length_a   10.49922900
_cell_length_b   13.89843900
_cell_length_c   19.06935197
_cell_angle_alpha   79.25502009
_cell_angle_beta   90.00000000
_cell_angle_gamma   90.00000000
_symmetry_Int_Tables_number   1
_chemical_formula_structural   Cs5Th(PS4)3
_chemical_formula_sum   'Cs20 Th4 P12 S48'
_cell_volume   2733.86599910
_cell_formula_units_Z   4
loop_
 _symmetry_equiv_pos_site_id
 _symmetry_equiv_pos_as_xyz
  1  'x, y, z'
loop_
 _atom_site_type_symbol
 _atom_site_label
 _atom_site_symmetry_multiplicity
 _atom_site_fract_x
 _atom_site_fract_y
 _atom_site_fract_z
 _atom_site_occupancy
  Cs  Cs0  1  0.39408500  0.48592700  0.87045200  1
  Cs  Cs1  1  0.89408500  0.51407300  0.62954800  1
  Cs  Cs2  1  0.60591500  0.51407300  0.12954800  1
  Cs  Cs3  1  0.10591500  0.48592700  0.37045200  1
  Cs  Cs4  1  0.60518400  0.84920100  0.81069200  1
  Cs  Cs5  1  0.10518400  0.15079900  0.68930800  1
  Cs  Cs6  1  0.39481600  0.15079900  0.18930800  1
  Cs  Cs7  1  0.89481600  0.84920100  0.31069200  1
  Cs  Cs8  1  0.15603900  0.79308600  0.77819100  1
  Cs  Cs9  1  0.65603900  0.20691400  0.72180900  1
  Cs  Cs10  1  0.84396100  0.20691400  0.22180900  1
  Cs  Cs11  1  0.34396100  0.79308600  0.27819100  1
  Cs  Cs12  1  0.17134600  0.46355400  0.11833500  1
  Cs  Cs13  1  0.67134600  0.53644600  0.38166500  1
  Cs  Cs14  1  0.82865400  0.53644600  0.88166500  1
  Cs  Cs15  1  0.32865400  0.46355400  0.61833500  1
  Cs  Cs16  1  0.63370900  0.86504100  0.05523800  1
  Cs  Cs17  1  0.13370900  0.13495900  0.44476200  1
  Cs  Cs18  1  0.36629100  0.13495900  0.94476200  1
  Cs  Cs19  1  0.86629100  0.86504100  0.55523800  1
  Th  Th20  1  0.09479100  0.81361600  0.03963800  1
  Th  Th21  1  0.59479100  0.18638400  0.46036200  1
  Th  Th22  1  0.90520900  0.18638400  0.96036200  1
  Th  Th23  1  0.40520900  0.81361600  0.53963800  1
  P  P24  1  0.35350600  0.71754100  0.98443600  1
  P  P25  1  0.85350600  0.28245900  0.51556400  1
  P  P26  1  0.64649400  0.28245900  0.01556400  1
  P  P27  1  0.14649400  0.71754100  0.48443600  1
  P  P28  1  0.91053200  0.97084800  0.87176900  1
  P  P29  1  0.41053200  0.02915200  0.62823100  1
  P  P30  1  0.08946800  0.02915200  0.12823100  1
  P  P31  1  0.58946800  0.97084800  0.37176900  1
  P  P32  1  0.10413500  0.35247000  0.82464100  1
  P  P33  1  0.60413500  0.64753000  0.67535900  1
  P  P34  1  0.89586500  0.64753000  0.17535900  1
  P  P35  1  0.39586500  0.35247000  0.32464100  1
  S  S36  1  0.24364700  0.95217700  0.09918900  1
  S  S37  1  0.74364700  0.04782300  0.40081100  1
  S  S38  1  0.75635300  0.04782300  0.90081100  1
  S  S39  1  0.25635300  0.95217700  0.59918900  1
  S  S40  1  0.93414200  0.96566100  0.08800500  1
  S  S41  1  0.43414200  0.03433900  0.41199500  1
  S  S42  1  0.06585800  0.03433900  0.91199500  1
  S  S43  1  0.56585800  0.96566100  0.58800500  1
  S  S44  1  0.90726900  0.82701300  0.92537900  1
  S  S45  1  0.40726900  0.17298700  0.57462100  1
  S  S46  1  0.09273100  0.17298700  0.07462100  1
  S  S47  1  0.59273100  0.82701300  0.42537900  1
  S  S48  1  0.89344400  0.66788100  0.06431700  1
  S  S49  1  0.39344400  0.33211900  0.43568300  1
  S  S50  1  0.10655600  0.33211900  0.93568300  1
  S  S51  1  0.60655600  0.66788100  0.56431700  1
  S  S52  1  0.06259300  0.72310500  0.18957400  1
  S  S53  1  0.56259300  0.27689500  0.31042600  1
  S  S54  1  0.93740700  0.27689500  0.81042600  1
  S  S55  1  0.43740700  0.72310500  0.68957400  1
  S  S56  1  0.33469600  0.71080500  0.09314300  1
  S  S57  1  0.83469600  0.28919500  0.40685700  1
  S  S58  1  0.66530400  0.28919500  0.90685700  1
  S  S59  1  0.16530400  0.71080500  0.59314300  1
  S  S60  1  0.19141900  0.64872900  0.95846700  1
  S  S61  1  0.69141900  0.35127100  0.54153300  1
  S  S62  1  0.80858100  0.35127100  0.04153300  1
  S  S63  1  0.30858100  0.64872900  0.45846700  1
  S  S64  1  0.32024200  0.86221400  0.93952300  1
  S  S65  1  0.82024200  0.13778600  0.56047700  1
  S  S66  1  0.67975800  0.13778600  0.06047700  1
  S  S67  1  0.17975800  0.86221400  0.43952300  1
  S  S68  1  0.47719300  0.33429000  0.04123000  1
  S  S69  1  0.97719300  0.66571000  0.45877000  1
  S  S70  1  0.52280700  0.66571000  0.95877000  1
  S  S71  1  0.02280700  0.33429000  0.54123000  1
  S  S72  1  0.90313100  0.97265100  0.76657100  1
  S  S73  1  0.40313100  0.02734900  0.73342900  1
  S  S74  1  0.09686900  0.02734900  0.23342900  1
  S  S75  1  0.59686900  0.97265100  0.26657100  1
  S  S76  1  0.26238500  0.29296500  0.78899100  1
  S  S77  1  0.76238500  0.70703500  0.71100900  1
  S  S78  1  0.73761500  0.70703500  0.21100900  1
  S  S79  1  0.23761500  0.29296500  0.28899100  1
  S  S80  1  0.09472500  0.49577800  0.77856200  1
  S  S81  1  0.59472500  0.50422200  0.72143800  1
  S  S82  1  0.90527500  0.50422200  0.22143800  1
  S  S83  1  0.40527500  0.49577800  0.27856200  1
