# generated using pymatgen
data_K2GeF6
_symmetry_space_group_name_H-M   'P 1'
_cell_length_a   5.85285738
_cell_length_b   5.85285738
_cell_length_c   9.55240000
_cell_angle_alpha   90.00000000
_cell_angle_beta   90.00000000
_cell_angle_gamma   119.99999302
_symmetry_Int_Tables_number   1
_chemical_formula_structural   K2GeF6
_chemical_formula_sum   'K4 Ge2 F12'
_cell_volume   283.38642706
_cell_formula_units_Z   2
loop_
 _symmetry_equiv_pos_site_id
 _symmetry_equiv_pos_as_xyz
  1  'x, y, z'
loop_
 _atom_site_type_symbol
 _atom_site_label
 _atom_site_symmetry_multiplicity
 _atom_site_fract_x
 _atom_site_fract_y
 _atom_site_fract_z
 _atom_site_occupancy
  K  K0  1  0.00000000  0.00000000  0.09433200  1
  K  K1  1  0.00000000  0.00000000  0.59433200  1
  K  K2  1  0.66666700  0.33333300  0.37118800  1
  K  K3  1  0.33333300  0.66666700  0.87118800  1
  Ge  Ge4  1  0.66666700  0.33333300  0.75771400  1
  Ge  Ge5  1  0.33333300  0.66666700  0.25771400  1
  F  F6  1  0.51976100  0.48023900  0.64497600  1
  F  F7  1  0.03952200  0.51976100  0.14497600  1
  F  F8  1  0.48023900  0.96047800  0.14497600  1
  F  F9  1  0.51976100  0.03952200  0.64497600  1
  F  F10  1  0.96047800  0.48023900  0.64497600  1
  F  F11  1  0.48023900  0.51976100  0.14497600  1
  F  F12  1  0.18264000  0.81736000  0.36394600  1
  F  F13  1  0.36527900  0.18264000  0.86394600  1
  F  F14  1  0.81736000  0.63472100  0.86394600  1
  F  F15  1  0.18264000  0.36527900  0.36394600  1
  F  F16  1  0.63472100  0.81736000  0.36394600  1
  F  F17  1  0.81736000  0.18264000  0.86394600  1
