# generated using pymatgen
data_Eu2(CuNi)5
_symmetry_space_group_name_H-M   'P 1'
_cell_length_a   4.00493800
_cell_length_b   5.06978400
_cell_length_c   8.79404200
_cell_angle_alpha   90.00000000
_cell_angle_beta   90.00000000
_cell_angle_gamma   90.00000000
_symmetry_Int_Tables_number   1
_chemical_formula_structural   Eu2(CuNi)5
_chemical_formula_sum   'Eu2 Cu5 Ni5'
_cell_volume   178.55572897
_cell_formula_units_Z   1
loop_
 _symmetry_equiv_pos_site_id
 _symmetry_equiv_pos_as_xyz
  1  'x, y, z'
loop_
 _atom_site_type_symbol
 _atom_site_label
 _atom_site_symmetry_multiplicity
 _atom_site_fract_x
 _atom_site_fract_y
 _atom_site_fract_z
 _atom_site_occupancy
  Eu  Eu0  1  0.00000000  0.50000000  0.00000000  1
  Eu  Eu1  1  0.00000000  0.00000000  0.50000000  1
  Cu  Cu2  1  0.00000000  0.50000000  0.33306700  1
  Cu  Cu3  1  0.00000000  0.00000000  0.83170500  1
  Cu  Cu4  1  0.00000000  0.00000000  0.16829500  1
  Cu  Cu5  1  0.00000000  0.50000000  0.66693300  1
  Cu  Cu6  1  0.50000000  0.00000000  0.00000000  1
  Ni  Ni7  1  0.50000000  0.50000000  0.50000000  1
  Ni  Ni8  1  0.50000000  0.75037300  0.25092400  1
  Ni  Ni9  1  0.50000000  0.24962700  0.74907600  1
  Ni  Ni10  1  0.50000000  0.24962700  0.25092400  1
  Ni  Ni11  1  0.50000000  0.75037300  0.74907600  1
