# generated using pymatgen
data_Zr3Tl2(CuS4)2
_symmetry_space_group_name_H-M   'P 1'
_cell_length_a   7.50520617
_cell_length_b   7.50520617
_cell_length_c   14.01233042
_cell_angle_alpha   66.13442496
_cell_angle_beta   66.13442496
_cell_angle_gamma   28.68202762
_symmetry_Int_Tables_number   1
_chemical_formula_structural   Zr3Tl2(CuS4)2
_chemical_formula_sum   'Zr3 Tl2 Cu2 S8'
_cell_volume   344.20444443
_cell_formula_units_Z   1
loop_
 _symmetry_equiv_pos_site_id
 _symmetry_equiv_pos_as_xyz
  1  'x, y, z'
loop_
 _atom_site_type_symbol
 _atom_site_label
 _atom_site_symmetry_multiplicity
 _atom_site_fract_x
 _atom_site_fract_y
 _atom_site_fract_z
 _atom_site_occupancy
  Zr  Zr0  1  0.00000000  0.00000000  0.00000000  1
  Zr  Zr1  1  0.84525500  0.84525500  0.38143000  1
  Zr  Zr2  1  0.15474500  0.15474500  0.61857000  1
  Tl  Tl3  1  0.82671300  0.82671300  0.80160600  1
  Tl  Tl4  1  0.17328700  0.17328700  0.19839400  1
  Cu  Cu5  1  0.45912400  0.45912400  0.19610000  1
  Cu  Cu6  1  0.54087600  0.54087600  0.80390000  1
  S  S7  1  0.86114400  0.86114400  0.19104800  1
  S  S8  1  0.13885600  0.13885600  0.80895200  1
  S  S9  1  0.79155600  0.79155600  0.58149600  1
  S  S10  1  0.20844400  0.20844400  0.41850400  1
  S  S11  1  0.47728100  0.47728100  0.35100200  1
  S  S12  1  0.52271900  0.52271900  0.64899800  1
  S  S13  1  0.60261700  0.60261700  0.04205200  1
  S  S14  1  0.39738300  0.39738300  0.95794800  1
