# generated using pymatgen
data_SmCrO4
_symmetry_space_group_name_H-M   'P 1'
_cell_length_a   6.10344298
_cell_length_b   6.10344298
_cell_length_c   6.10344298
_cell_angle_alpha   105.88586166
_cell_angle_beta   105.88586166
_cell_angle_gamma   116.90780696
_symmetry_Int_Tables_number   1
_chemical_formula_structural   SmCrO4
_chemical_formula_sum   'Sm2 Cr2 O8'
_cell_volume   172.78752720
_cell_formula_units_Z   2
loop_
 _symmetry_equiv_pos_site_id
 _symmetry_equiv_pos_as_xyz
  1  'x, y, z'
loop_
 _atom_site_type_symbol
 _atom_site_label
 _atom_site_symmetry_multiplicity
 _atom_site_fract_x
 _atom_site_fract_y
 _atom_site_fract_z
 _atom_site_occupancy
  Sm  Sm0  1  0.75000000  0.25000000  0.50000000  1
  Sm  Sm1  1  0.50000000  0.50000000  0.00000000  1
  Cr  Cr2  1  0.25000000  0.75000000  0.50000000  1
  Cr  Cr3  1  0.00000000  0.00000000  0.00000000  1
  O  O4  1  0.82909100  0.01074000  0.18164900  1
  O  O5  1  0.89744100  0.57909100  0.31835100  1
  O  O6  1  0.26074000  0.57909100  0.68164900  1
  O  O7  1  0.82909100  0.64744100  0.81835100  1
  O  O8  1  0.35255900  0.17090900  0.18164900  1
  O  O9  1  0.42090900  0.73926000  0.31835100  1
  O  O10  1  0.42090900  0.10255900  0.68164900  1
  O  O11  1  0.98926000  0.17090900  0.81835100  1
