# generated using pymatgen
data_CeAlSi
_symmetry_space_group_name_H-M   'P 1'
_cell_length_a   7.90749515
_cell_length_b   7.90749515
_cell_length_c   7.90749515
_cell_angle_alpha   149.16939101
_cell_angle_beta   149.16939101
_cell_angle_gamma   44.16203072
_symmetry_Int_Tables_number   1
_chemical_formula_structural   CeAlSi
_chemical_formula_sum   'Ce2 Al2 Si2'
_cell_volume   129.49366992
_cell_formula_units_Z   2
loop_
 _symmetry_equiv_pos_site_id
 _symmetry_equiv_pos_as_xyz
  1  'x, y, z'
loop_
 _atom_site_type_symbol
 _atom_site_label
 _atom_site_symmetry_multiplicity
 _atom_site_fract_x
 _atom_site_fract_y
 _atom_site_fract_z
 _atom_site_occupancy
  Ce  Ce0  1  0.58178300  0.58178300  0.00000000  1
  Ce  Ce1  1  0.33178300  0.83178300  0.50000000  1
  Al  Al2  1  0.16584200  0.16584200  0.00000000  1
  Al  Al3  1  0.91584200  0.41584200  0.50000000  1
  Si  Si4  1  0.99937500  0.99937500  0.00000000  1
  Si  Si5  1  0.74937500  0.24937500  0.50000000  1
