# generated using pymatgen
data_Si4P4Ru
_symmetry_space_group_name_H-M   'P 1'
_cell_length_a   4.97029000
_cell_length_b   5.66587667
_cell_length_c   6.20829283
_cell_angle_alpha   85.59443350
_cell_angle_beta   111.72993924
_cell_angle_gamma   109.24558127
_symmetry_Int_Tables_number   1
_chemical_formula_structural   Si4P4Ru
_chemical_formula_sum   'Si4 P4 Ru1'
_cell_volume   153.12812072
_cell_formula_units_Z   1
loop_
 _symmetry_equiv_pos_site_id
 _symmetry_equiv_pos_as_xyz
  1  'x, y, z'
loop_
 _atom_site_type_symbol
 _atom_site_label
 _atom_site_symmetry_multiplicity
 _atom_site_fract_x
 _atom_site_fract_y
 _atom_site_fract_z
 _atom_site_occupancy
  Si  Si0  1  0.67022000  0.22438400  0.77361900  1
  Si  Si1  1  0.23746300  0.65624700  0.56771200  1
  Si  Si2  1  0.35884000  0.40551700  0.11910300  1
  Si  Si3  1  0.84426200  0.02717400  0.31063900  1
  P  P4  1  0.15994200  0.98483100  0.68128600  1
  P  P5  1  0.62157300  0.58897800  0.87793900  1
  P  P6  1  0.76643500  0.35779700  0.43642400  1
  P  P7  1  0.34135500  0.77300100  0.24128800  1
  Ru  Ru8  1  0.99981000  0.00027100  0.00048900  1
