# generated using pymatgen
data_RbMo3Cl7
_symmetry_space_group_name_H-M   'P 1'
_cell_length_a   12.48731347
_cell_length_b   12.48731347
_cell_length_c   9.52034990
_cell_angle_alpha   69.77161819
_cell_angle_beta   69.77161819
_cell_angle_gamma   74.67141237
_symmetry_Int_Tables_number   1
_chemical_formula_structural   RbMo3Cl7
_chemical_formula_sum   'Rb4 Mo12 Cl28'
_cell_volume   1289.25910586
_cell_formula_units_Z   4
loop_
 _symmetry_equiv_pos_site_id
 _symmetry_equiv_pos_as_xyz
  1  'x, y, z'
loop_
 _atom_site_type_symbol
 _atom_site_label
 _atom_site_symmetry_multiplicity
 _atom_site_fract_x
 _atom_site_fract_y
 _atom_site_fract_z
 _atom_site_occupancy
  Rb  Rb0  1  0.93163200  0.06836800  0.75000000  1
  Rb  Rb1  1  0.06836800  0.93163200  0.25000000  1
  Rb  Rb2  1  0.50000000  0.50000000  0.50000000  1
  Rb  Rb3  1  0.50000000  0.50000000  0.00000000  1
  Mo  Mo4  1  0.56927800  0.01305800  0.63708000  1
  Mo  Mo5  1  0.43072200  0.98694200  0.36292000  1
  Mo  Mo6  1  0.98694200  0.43072200  0.86292000  1
  Mo  Mo7  1  0.01305800  0.56927800  0.13708000  1
  Mo  Mo8  1  0.36268100  0.98208700  0.65909100  1
  Mo  Mo9  1  0.63731900  0.01791300  0.34090900  1
  Mo  Mo10  1  0.01791300  0.63731900  0.84090900  1
  Mo  Mo11  1  0.98208600  0.36268100  0.15909100  1
  Mo  Mo12  1  0.54782300  0.84141000  0.55455000  1
  Mo  Mo13  1  0.45217700  0.15859000  0.44545000  1
  Mo  Mo14  1  0.15859000  0.45217700  0.94545000  1
  Mo  Mo15  1  0.84141000  0.54782300  0.05455000  1
  Cl  Cl16  1  0.39074500  0.14558900  0.72785600  1
  Cl  Cl17  1  0.60925500  0.85441100  0.27214400  1
  Cl  Cl18  1  0.85441100  0.60925500  0.77214400  1
  Cl  Cl19  1  0.14558900  0.39074500  0.22785600  1
  Cl  Cl20  1  0.61424100  0.62790300  0.63265400  1
  Cl  Cl21  1  0.38575900  0.37209700  0.36734600  1
  Cl  Cl22  1  0.37209700  0.38575900  0.86734600  1
  Cl  Cl23  1  0.62790300  0.61424100  0.13265400  1
  Cl  Cl24  1  0.47990500  0.84435200  0.83278300  1
  Cl  Cl25  1  0.52009500  0.15564800  0.16721700  1
  Cl  Cl26  1  0.15564800  0.52009500  0.66721700  1
  Cl  Cl27  1  0.84435200  0.47990500  0.33278300  1
  Cl  Cl28  1  0.35081200  0.81885400  0.57151500  1
  Cl  Cl29  1  0.64918800  0.18114600  0.42848500  1
  Cl  Cl30  1  0.18114600  0.64918800  0.92848500  1
  Cl  Cl31  1  0.81885400  0.35081200  0.07151500  1
  Cl  Cl32  1  0.74094800  0.87869800  0.53001900  1
  Cl  Cl33  1  0.25905200  0.12130200  0.46998100  1
  Cl  Cl34  1  0.12130200  0.25905200  0.96998100  1
  Cl  Cl35  1  0.87869800  0.74094800  0.03001900  1
  Cl  Cl36  1  0.66066000  0.03006500  0.81588900  1
  Cl  Cl37  1  0.33934000  0.96993500  0.18411100  1
  Cl  Cl38  1  0.96993500  0.33934000  0.68411100  1
  Cl  Cl39  1  0.03006500  0.66066000  0.31588900  1
  Cl  Cl40  1  0.82207300  0.03916900  0.13265000  1
  Cl  Cl41  1  0.17792700  0.96083100  0.86735000  1
  Cl  Cl42  1  0.96083100  0.17792700  0.36735000  1
  Cl  Cl43  1  0.03916900  0.82207300  0.63265000  1
