# generated using pymatgen
data_Rb2W3SeO12
_symmetry_space_group_name_H-M   'P 1'
_cell_length_a   7.37273765
_cell_length_b   7.37273765
_cell_length_c   12.51203100
_cell_angle_alpha   90.00000000
_cell_angle_beta   90.00000000
_cell_angle_gamma   119.99999686
_symmetry_Int_Tables_number   1
_chemical_formula_structural   Rb2W3SeO12
_chemical_formula_sum   'Rb4 W6 Se2 O24'
_cell_volume   589.00098068
_cell_formula_units_Z   2
loop_
 _symmetry_equiv_pos_site_id
 _symmetry_equiv_pos_as_xyz
  1  'x, y, z'
loop_
 _atom_site_type_symbol
 _atom_site_label
 _atom_site_symmetry_multiplicity
 _atom_site_fract_x
 _atom_site_fract_y
 _atom_site_fract_z
 _atom_site_occupancy
  Rb  Rb0  1  0.66666700  0.33333300  0.54696700  1
  Rb  Rb1  1  0.33333300  0.66666700  0.04696700  1
  Rb  Rb2  1  0.66666700  0.33333300  0.93245500  1
  Rb  Rb3  1  0.33333300  0.66666700  0.43245500  1
  W  W4  1  0.66129500  0.82737000  0.76386300  1
  W  W5  1  0.16607400  0.33870500  0.76386300  1
  W  W6  1  0.33870500  0.17263000  0.26386300  1
  W  W7  1  0.17263000  0.83392600  0.76386300  1
  W  W8  1  0.83392600  0.66129500  0.26386300  1
  W  W9  1  0.82737000  0.16607400  0.26386300  1
  Se  Se10  1  0.00000000  0.00000000  0.99154100  1
  Se  Se11  1  0.00000000  0.00000000  0.49154100  1
  O  O12  1  0.75192400  0.87262800  0.93283400  1
  O  O13  1  0.12070400  0.24807600  0.93283400  1
  O  O14  1  0.24807600  0.12737200  0.43283400  1
  O  O15  1  0.12737200  0.87929600  0.93283400  1
  O  O16  1  0.87929600  0.75192400  0.43283400  1
  O  O17  1  0.87262800  0.12070400  0.43283400  1
  O  O18  1  0.45426700  0.54222100  0.80849200  1
  O  O19  1  0.08795400  0.54573300  0.80849200  1
  O  O20  1  0.54573300  0.45777900  0.30849200  1
  O  O21  1  0.45777900  0.91204600  0.80849200  1
  O  O22  1  0.91204600  0.45426700  0.30849200  1
  O  O23  1  0.54222100  0.08795400  0.30849200  1
  O  O24  1  0.59844700  0.79187300  0.62637000  1
  O  O25  1  0.19342600  0.40155300  0.62637000  1
  O  O26  1  0.40155300  0.20812700  0.12637000  1
  O  O27  1  0.20812700  0.80657400  0.62637000  1
  O  O28  1  0.80657400  0.59844700  0.12637000  1
  O  O29  1  0.79187300  0.19342600  0.12637000  1
  O  O30  1  0.87262000  0.12309100  0.75275400  1
  O  O31  1  0.25047200  0.12738000  0.75275400  1
  O  O32  1  0.12738000  0.87690900  0.25275400  1
  O  O33  1  0.87690900  0.74952800  0.75275400  1
  O  O34  1  0.74952800  0.87262000  0.25275400  1
  O  O35  1  0.12309100  0.25047200  0.25275400  1
