# generated using pymatgen
data_Ba2Fe2O5
_symmetry_space_group_name_H-M   'P 1'
_cell_length_a   7.09392994
_cell_length_b   11.92667178
_cell_length_c   23.79988309
_cell_angle_alpha   90.00000000
_cell_angle_beta   98.20584674
_cell_angle_gamma   90.00000000
_symmetry_Int_Tables_number   1
_chemical_formula_structural   Ba2Fe2O5
_chemical_formula_sum   'Ba28 Fe28 O70'
_cell_volume   1993.01982263
_cell_formula_units_Z   14
loop_
 _symmetry_equiv_pos_site_id
 _symmetry_equiv_pos_as_xyz
  1  'x, y, z'
loop_
 _atom_site_type_symbol
 _atom_site_label
 _atom_site_symmetry_multiplicity
 _atom_site_fract_x
 _atom_site_fract_y
 _atom_site_fract_z
 _atom_site_occupancy
  Ba  Ba0  1  0.55773217  0.85076009  0.61364455  1
  Ba  Ba1  1  0.94226783  0.35076009  0.88635545  1
  Ba  Ba2  1  0.44226783  0.14923991  0.38635545  1
  Ba  Ba3  1  0.05773217  0.64923991  0.11364455  1
  Ba  Ba4  1  0.57931739  0.11289017  0.82883934  1
  Ba  Ba5  1  0.92068261  0.61289017  0.67116066  1
  Ba  Ba6  1  0.42068261  0.88710983  0.17116066  1
  Ba  Ba7  1  0.07931739  0.38710983  0.32883934  1
  Ba  Ba8  1  0.67811976  0.63219419  0.82206422  1
  Ba  Ba9  1  0.82188024  0.13219419  0.67793578  1
  Ba  Ba10  1  0.32188024  0.36780581  0.17793578  1
  Ba  Ba11  1  0.17811976  0.86780581  0.32206422  1
  Ba  Ba12  1  0.21362423  0.13198851  0.53871200  1
  Ba  Ba13  1  0.28637577  0.63198851  0.96128800  1
  Ba  Ba14  1  0.78637577  0.86801149  0.46128800  1
  Ba  Ba15  1  0.71362423  0.36801149  0.03871200  1
  Ba  Ba16  1  0.04386369  0.11628308  0.10049511  1
  Ba  Ba17  1  0.45613631  0.61628308  0.39950489  1
  Ba  Ba18  1  0.95613631  0.88371692  0.89950489  1
  Ba  Ba19  1  0.54386369  0.38371692  0.60049511  1
  Ba  Ba20  1  0.19650979  0.85246329  0.75796694  1
  Ba  Ba21  1  0.30349021  0.35246329  0.74203306  1
  Ba  Ba22  1  0.80349021  0.14753671  0.24203306  1
  Ba  Ba23  1  0.69650979  0.64753671  0.25796694  1
  Ba  Ba24  1  0.18322775  0.60991065  0.53531115  1
  Ba  Ba25  1  0.31677225  0.10991065  0.96468885  1
  Ba  Ba26  1  0.81677225  0.39008935  0.46468885  1
  Ba  Ba27  1  0.68322775  0.89008935  0.03531115  1
  Fe  Fe28  1  0.07850208  0.85118643  0.60249479  1
  Fe  Fe29  1  0.42149792  0.35118643  0.89750521  1
  Fe  Fe30  1  0.92149792  0.14881357  0.39750521  1
  Fe  Fe31  1  0.57850208  0.64881357  0.10249479  1
  Fe  Fe32  1  0.30141939  0.08374678  0.68536670  1
  Fe  Fe33  1  0.19858061  0.58374678  0.81463330  1
  Fe  Fe34  1  0.69858061  0.91625322  0.31463330  1
  Fe  Fe35  1  0.80141939  0.41625322  0.18536670  1
  Fe  Fe36  1  0.69673748  0.89935848  0.76008548  1
  Fe  Fe37  1  0.80326252  0.39935848  0.73991452  1
  Fe  Fe38  1  0.30326252  0.10064152  0.23991452  1
  Fe  Fe39  1  0.19673748  0.60064152  0.26008548  1
  Fe  Fe40  1  0.79750153  0.65247952  0.97163934  1
  Fe  Fe41  1  0.70249847  0.15247952  0.52836066  1
  Fe  Fe42  1  0.20249847  0.34752048  0.02836066  1
  Fe  Fe43  1  0.29750153  0.84752048  0.47163934  1
  Fe  Fe44  1  0.46385328  0.87920151  0.89930816  1
  Fe  Fe45  1  0.03614672  0.37920151  0.60069184  1
  Fe  Fe46  1  0.53614672  0.12079849  0.10069184  1
  Fe  Fe47  1  0.96385328  0.62079849  0.39930816  1
  Fe  Fe48  1  0.40139144  0.60257707  0.67401349  1
  Fe  Fe49  1  0.09860856  0.10257707  0.82598651  1
  Fe  Fe50  1  0.59860856  0.39742293  0.32598651  1
  Fe  Fe51  1  0.90139144  0.89742293  0.17401349  1
  Fe  Fe52  1  0.82156216  0.12269879  0.96482695  1
  Fe  Fe53  1  0.67843784  0.62269879  0.53517305  1
  Fe  Fe54  1  0.17843784  0.87730121  0.03517305  1
  Fe  Fe55  1  0.32156216  0.37730121  0.46482695  1
  O  O56  1  0.50000000  0.50000000  0.50000000  1
  O  O57  1  0.00000000  0.00000000  0.00000000  1
  O  O58  1  0.35459407  0.21354165  0.64804758  1
  O  O59  1  0.14540593  0.71354165  0.85195242  1
  O  O60  1  0.64540593  0.78645835  0.35195242  1
  O  O61  1  0.85459407  0.28645835  0.14804758  1
  O  O62  1  0.79152101  0.77700128  0.72626949  1
  O  O63  1  0.70847899  0.27700128  0.77373051  1
  O  O64  1  0.20847899  0.22299872  0.27373051  1
  O  O65  1  0.29152101  0.72299872  0.22626949  1
  O  O66  1  0.88716981  0.54592677  0.92672497  1
  O  O67  1  0.61283019  0.04592677  0.57327503  1
  O  O68  1  0.11283019  0.45407323  0.07327503  1
  O  O69  1  0.38716981  0.95407323  0.42672497  1
  O  O70  1  0.49738404  0.74770956  0.50237219  1
  O  O71  1  0.00261596  0.24770956  0.99762781  1
  O  O72  1  0.50261596  0.25229044  0.49762781  1
  O  O73  1  0.99738404  0.75229044  0.00237219  1
  O  O74  1  0.63246018  -0.00001278  0.93023433  1
  O  O75  1  0.86753982  0.49998722  0.56976567  1
  O  O76  1  0.36753982  0.00001278  0.06976567  1
  O  O77  1  0.13246018  0.50001278  0.43023433  1
  O  O78  1  0.86443155  0.76088167  0.57690983  1
  O  O79  1  0.63556845  0.26088167  0.92309017  1
  O  O80  1  0.13556845  0.23911833  0.42309017  1
  O  O81  1  0.36443155  0.73911833  0.07690983  1
  O  O82  1  0.55118077  0.62013611  0.61025480  1
  O  O83  1  0.94881923  0.12013611  0.88974520  1
  O  O84  1  0.44881923  0.37986389  0.38974520  1
  O  O85  1  0.05118077  0.87986389  0.11025480  1
  O  O86  1  0.23388685  0.48387869  0.64288282  1
  O  O87  1  0.26611315  0.98387869  0.85711718  1
  O  O88  1  0.76611315  0.51612131  0.35711718  1
  O  O89  1  0.73388685  0.01612131  0.14288282  1
  O  O90  1  0.24285088  0.74612721  0.64676441  1
  O  O91  1  0.25714912  0.24612721  0.85323559  1
  O  O92  1  0.75714912  0.25387279  0.35323559  1
  O  O93  1  0.74285088  0.75387279  0.14676441  1
  O  O94  1  0.60363771  0.50274256  0.71616107  1
  O  O95  1  0.89636229  0.00274256  0.78383893  1
  O  O96  1  0.39636229  0.49725744  0.28383893  1
  O  O97  1  0.10363771  0.99725744  0.21616107  1
  O  O98  1  0.30162721  0.63038586  0.74859814  1
  O  O99  1  0.19837279  0.13038586  0.75140186  1
  O  O100  1  0.69837279  0.36961414  0.25140186  1
  O  O101  1  0.80162721  0.86961414  0.24859814  1
  O  O102  1  0.51923768  0.98891722  0.70944613  1
  O  O103  1  0.98076232  0.48891722  0.79055387  1
  O  O104  1  0.48076232  0.01108278  0.29055387  1
  O  O105  1  0.01923768  0.51108278  0.20944613  1
  O  O106  1  0.09867789  0.98932755  0.64612546  1
  O  O107  1  0.40132211  0.48932755  0.85387454  1
  O  O108  1  0.90132211  0.01067245  0.35387454  1
  O  O109  1  0.59867789  0.51067245  0.14612546  1
  O  O110  1  0.61246629  0.74265484  0.92498930  1
  O  O111  1  0.88753371  0.24265484  0.57501070  1
  O  O112  1  0.38753371  0.25734516  0.07501070  1
  O  O113  1  0.11246629  0.75734516  0.42498930  1
  O  O114  1  0.17770809  0.89624678  0.53553308  1
  O  O115  1  0.32229191  0.39624678  0.96446692  1
  O  O116  1  0.82229191  0.10375322  0.46446692  1
  O  O117  1  0.67770809  0.60375322  0.03553308  1
  O  O118  1  0.57169305  0.85765659  0.82267800  1
  O  O119  1  0.92830695  0.35765659  0.67732200  1
  O  O120  1  0.42830695  0.14234341  0.17732200  1
  O  O121  1  0.07169305  0.64234341  0.32267800  1
  O  O122  1  0.31420706  0.86897778  0.96470303  1
  O  O123  1  0.18579294  0.36897778  0.53529697  1
  O  O124  1  0.68579294  0.13102222  0.03529697  1
  O  O125  1  0.81420706  0.63102222  0.46470303  1
