# generated using pymatgen
data_Zn3P6N12Cl
_symmetry_space_group_name_H-M   'P 1'
_cell_length_a   7.17266012
_cell_length_b   7.17266012
_cell_length_c   7.17266013
_cell_angle_alpha   109.36779358
_cell_angle_beta   109.36779358
_cell_angle_gamma   109.36778238
_symmetry_Int_Tables_number   1
_chemical_formula_structural   Zn3P6N12Cl
_chemical_formula_sum   'Zn3 P6 N12 Cl1'
_cell_volume   285.14836525
_cell_formula_units_Z   1
loop_
 _symmetry_equiv_pos_site_id
 _symmetry_equiv_pos_as_xyz
  1  'x, y, z'
loop_
 _atom_site_type_symbol
 _atom_site_label
 _atom_site_symmetry_multiplicity
 _atom_site_fract_x
 _atom_site_fract_y
 _atom_site_fract_z
 _atom_site_occupancy
  Zn  Zn0  1  0.00100500  0.35735200  0.00100500  1
  Zn  Zn1  1  0.00100500  0.00100500  0.35735200  1
  Zn  Zn2  1  0.35735200  0.00100500  0.00100500  1
  P  P3  1  0.49813500  0.25263200  0.74763800  1
  P  P4  1  0.25263200  0.74763800  0.49813500  1
  P  P5  1  0.74763800  0.49813500  0.25263200  1
  P  P6  1  0.74763800  0.25263200  0.49813500  1
  P  P7  1  0.49813500  0.74763800  0.25263200  1
  P  P8  1  0.25263200  0.49813500  0.74763800  1
  N  N9  1  0.44114500  0.71736000  0.44114500  1
  N  N10  1  0.71736000  0.44114500  0.44114500  1
  N  N11  1  0.44114500  0.44114500  0.71736000  1
  N  N12  1  0.72541200  0.27549300  0.72541200  1
  N  N13  1  0.99886400  0.55348500  0.27372600  1
  N  N14  1  0.27372600  0.55348500  0.99886400  1
  N  N15  1  0.27372600  0.99886400  0.55348500  1
  N  N16  1  0.99886400  0.27372600  0.55348500  1
  N  N17  1  0.72541200  0.72541200  0.27549300  1
  N  N18  1  0.55348500  0.99886400  0.27372600  1
  N  N19  1  0.27549300  0.72541200  0.72541200  1
  N  N20  1  0.55348500  0.27372600  0.99886400  1
  Cl  Cl21  1  0.02570800  0.02570800  0.02570800  1
