# generated using pymatgen
data_K(SiPd)4
_symmetry_space_group_name_H-M   'P 1'
_cell_length_a   6.42560173
_cell_length_b   6.42560173
_cell_length_c   6.42560173
_cell_angle_alpha   97.41625624
_cell_angle_beta   97.41625624
_cell_angle_gamma   137.88891276
_symmetry_Int_Tables_number   1
_chemical_formula_structural   K(SiPd)4
_chemical_formula_sum   'K1 Si4 Pd4'
_cell_volume   166.02578511
_cell_formula_units_Z   1
loop_
 _symmetry_equiv_pos_site_id
 _symmetry_equiv_pos_as_xyz
  1  'x, y, z'
loop_
 _atom_site_type_symbol
 _atom_site_label
 _atom_site_symmetry_multiplicity
 _atom_site_fract_x
 _atom_site_fract_y
 _atom_site_fract_z
 _atom_site_occupancy
  K  K0  1  0.34255000  0.34255000  0.00000000  1
  Si  Si1  1  0.38784100  0.88944500  0.27669500  1
  Si  Si2  1  0.61275000  0.11114600  0.72330500  1
  Si  Si3  1  0.11114600  0.38784100  0.49839600  1
  Si  Si4  1  0.88944500  0.61275000  0.50160400  1
  Pd  Pd5  1  0.17393600  0.68057100  0.85387400  1
  Pd  Pd6  1  0.82669700  0.32006200  0.14612600  1
  Pd  Pd7  1  0.32006200  0.17393600  0.49336500  1
  Pd  Pd8  1  0.68057100  0.82669700  0.50663500  1
