# generated using pymatgen
data_Ba5Lu2ZrAl2O13
_symmetry_space_group_name_H-M   'P 1'
_cell_length_a   5.97534203
_cell_length_b   5.97534203
_cell_length_c   24.92053100
_cell_angle_alpha   90.00000000
_cell_angle_beta   90.00000000
_cell_angle_gamma   120.00000030
_symmetry_Int_Tables_number   1
_chemical_formula_structural   Ba5Lu2ZrAl2O13
_chemical_formula_sum   'Ba10 Lu4 Zr2 Al4 O26'
_cell_volume   770.57241990
_cell_formula_units_Z   2
loop_
 _symmetry_equiv_pos_site_id
 _symmetry_equiv_pos_as_xyz
  1  'x, y, z'
loop_
 _atom_site_type_symbol
 _atom_site_label
 _atom_site_symmetry_multiplicity
 _atom_site_fract_x
 _atom_site_fract_y
 _atom_site_fract_z
 _atom_site_occupancy
  Ba  Ba0  1  0.33333300  0.66666700  0.54289100  1
  Ba  Ba1  1  0.66666700  0.33333300  0.45710900  1
  Ba  Ba2  1  0.66666700  0.33333300  0.04289100  1
  Ba  Ba3  1  0.33333300  0.66666700  0.95710900  1
  Ba  Ba4  1  0.00000000  0.00000000  0.13884300  1
  Ba  Ba5  1  0.00000000  0.00000000  0.86115700  1
  Ba  Ba6  1  0.00000000  0.00000000  0.63884300  1
  Ba  Ba7  1  0.00000000  0.00000000  0.36115700  1
  Ba  Ba8  1  0.33333300  0.66666700  0.25000000  1
  Ba  Ba9  1  0.66666700  0.33333300  0.75000000  1
  Lu  Lu10  1  0.33333300  0.66666700  0.10380300  1
  Lu  Lu11  1  0.66666700  0.33333300  0.89619700  1
  Lu  Lu12  1  0.66666700  0.33333300  0.60380300  1
  Lu  Lu13  1  0.33333300  0.66666700  0.39619700  1
  Zr  Zr14  1  0.00000000  0.00000000  0.00000000  1
  Zr  Zr15  1  0.00000000  0.00000000  0.50000000  1
  Al  Al16  1  0.33333300  0.66666700  0.68037900  1
  Al  Al17  1  0.66666700  0.33333300  0.31962100  1
  Al  Al18  1  0.66666700  0.33333300  0.18037900  1
  Al  Al19  1  0.33333300  0.66666700  0.81962100  1
  O  O20  1  0.50375100  0.00750200  0.15779800  1
  O  O21  1  0.49624900  0.99249800  0.84220200  1
  O  O22  1  0.99249800  0.49624900  0.15779800  1
  O  O23  1  0.49624900  0.99249800  0.65779800  1
  O  O24  1  0.00750200  0.50375100  0.84220200  1
  O  O25  1  0.50375100  0.00750200  0.34220200  1
  O  O26  1  0.50375100  0.49624900  0.15779800  1
  O  O27  1  0.00750200  0.50375100  0.65779800  1
  O  O28  1  0.49624900  0.50375100  0.84220200  1
  O  O29  1  0.99249800  0.49624900  0.34220200  1
  O  O30  1  0.49624900  0.50375100  0.65779800  1
  O  O31  1  0.50375100  0.49624900  0.34220200  1
  O  O32  1  0.16374900  0.32749900  0.05135500  1
  O  O33  1  0.83625100  0.67250100  0.94864500  1
  O  O34  1  0.67250100  0.83625100  0.05135500  1
  O  O35  1  0.83625100  0.67250100  0.55135500  1
  O  O36  1  0.32749900  0.16374900  0.94864500  1
  O  O37  1  0.16374900  0.32749900  0.44864500  1
  O  O38  1  0.16374900  0.83625100  0.05135500  1
  O  O39  1  0.32749900  0.16374900  0.55135500  1
  O  O40  1  0.83625100  0.16374900  0.94864500  1
  O  O41  1  0.67250100  0.83625100  0.44864500  1
  O  O42  1  0.83625100  0.16374900  0.55135500  1
  O  O43  1  0.16374900  0.83625100  0.44864500  1
  O  O44  1  0.33333300  0.66666700  0.75000000  1
  O  O45  1  0.66666700  0.33333300  0.25000000  1
