# generated using pymatgen
data_Nd3Pd4
_symmetry_space_group_name_H-M   'P 1'
_cell_length_a   8.18333512
_cell_length_b   8.18333512
_cell_length_c   8.18333488
_cell_angle_alpha   114.48717776
_cell_angle_beta   114.48717776
_cell_angle_gamma   114.48718577
_symmetry_Int_Tables_number   1
_chemical_formula_structural   Nd3Pd4
_chemical_formula_sum   'Nd6 Pd8'
_cell_volume   320.56429341
_cell_formula_units_Z   2
loop_
 _symmetry_equiv_pos_site_id
 _symmetry_equiv_pos_as_xyz
  1  'x, y, z'
loop_
 _atom_site_type_symbol
 _atom_site_label
 _atom_site_symmetry_multiplicity
 _atom_site_fract_x
 _atom_site_fract_y
 _atom_site_fract_z
 _atom_site_occupancy
  Nd  Nd0  1  0.97300800  0.59588300  0.72102400  1
  Nd  Nd1  1  0.72102400  0.97300800  0.59588300  1
  Nd  Nd2  1  0.59588300  0.72102400  0.97300800  1
  Nd  Nd3  1  0.02699200  0.40411700  0.27897600  1
  Nd  Nd4  1  0.27897600  0.02699200  0.40411700  1
  Nd  Nd5  1  0.40411700  0.27897600  0.02699200  1
  Pd  Pd6  1  0.00000000  0.00000000  0.00000000  1
  Pd  Pd7  1  0.50000000  0.50000000  0.50000000  1
  Pd  Pd8  1  0.94108600  0.77743000  0.44749000  1
  Pd  Pd9  1  0.44749000  0.94108600  0.77743000  1
  Pd  Pd10  1  0.77743000  0.44749000  0.94108600  1
  Pd  Pd11  1  0.05891400  0.22257000  0.55251000  1
  Pd  Pd12  1  0.55251000  0.05891400  0.22257000  1
  Pd  Pd13  1  0.22257000  0.55251000  0.05891400  1
