# generated using pymatgen
data_TaBeB
_symmetry_space_group_name_H-M   'P 1'
_cell_length_a   3.26067327
_cell_length_b   3.26073732
_cell_length_c   3.26221400
_cell_angle_alpha   90.00000000
_cell_angle_beta   90.00000000
_cell_angle_gamma   120.00055384
_symmetry_Int_Tables_number   1
_chemical_formula_structural   TaBeB
_chemical_formula_sum   'Ta1 Be1 B1'
_cell_volume   30.03749785
_cell_formula_units_Z   1
loop_
 _symmetry_equiv_pos_site_id
 _symmetry_equiv_pos_as_xyz
  1  'x, y, z'
loop_
 _atom_site_type_symbol
 _atom_site_label
 _atom_site_symmetry_multiplicity
 _atom_site_fract_x
 _atom_site_fract_y
 _atom_site_fract_z
 _atom_site_occupancy
  Ta  Ta0  1  0.99998500  0.00000700  0.00000000  1
  Be  Be1  1  0.33331300  0.66668000  0.50000000  1
  B  B2  1  0.66660200  0.33331300  0.50000000  1
