# generated using pymatgen
data_LiGaBH3O5
_symmetry_space_group_name_H-M   'P 1'
_cell_length_a   4.86425775
_cell_length_b   4.86425775
_cell_length_c   12.29065803
_cell_angle_alpha   89.99785432
_cell_angle_beta   89.99785432
_cell_angle_gamma   119.81599652
_symmetry_Int_Tables_number   1
_chemical_formula_structural   LiGaBH3O5
_chemical_formula_sum   'Li2 Ga2 B2 H6 O10'
_cell_volume   252.31390502
_cell_formula_units_Z   2
loop_
 _symmetry_equiv_pos_site_id
 _symmetry_equiv_pos_as_xyz
  1  'x, y, z'
loop_
 _atom_site_type_symbol
 _atom_site_label
 _atom_site_symmetry_multiplicity
 _atom_site_fract_x
 _atom_site_fract_y
 _atom_site_fract_z
 _atom_site_occupancy
  Li  Li0  1  0.99889600  0.99808400  0.84559400  1
  Li  Li1  1  0.99808400  0.99889600  0.34559400  1
  Ga  Ga2  1  0.33126600  0.66543300  0.73199600  1
  Ga  Ga3  1  0.66543300  0.33126600  0.23199600  1
  B  B4  1  0.66567200  0.33282000  0.78408700  1
  B  B5  1  0.33282000  0.66567200  0.28408700  1
  H  H6  1  0.53378200  0.76671800  0.55297100  1
  H  H7  1  0.76671800  0.53378200  0.05297100  1
  H  H8  1  0.88769400  0.10549900  0.03535000  1
  H  H9  1  0.21811800  0.10523800  0.03532600  1
  H  H10  1  0.10549900  0.88769400  0.53535000  1
  H  H11  1  0.10523800  0.21811800  0.53532600  1
  O  O12  1  0.99619500  0.99140600  0.00786200  1
  O  O13  1  0.99140600  0.99619500  0.50786200  1
  O  O14  1  0.31362600  0.65526700  0.58103300  1
  O  O15  1  0.65526700  0.31362600  0.08103300  1
  O  O16  1  0.66023100  0.61368700  0.78428900  1
  O  O17  1  0.95230000  0.33896200  0.78456200  1
  O  O18  1  0.38622500  0.04728200  0.78504000  1
  O  O19  1  0.61368700  0.66023100  0.28428900  1
  O  O20  1  0.33896200  0.95230000  0.28456200  1
  O  O21  1  0.04728200  0.38622500  0.28504000  1
