# generated using pymatgen
data_Ba(LuTe2)2
_symmetry_space_group_name_H-M   'P 1'
_cell_length_a   4.43024600
_cell_length_b   13.73243700
_cell_length_c   16.08171700
_cell_angle_alpha   90.00000000
_cell_angle_beta   90.00000000
_cell_angle_gamma   90.00000000
_symmetry_Int_Tables_number   1
_chemical_formula_structural   Ba(LuTe2)2
_chemical_formula_sum   'Ba4 Lu8 Te16'
_cell_volume   978.38069033
_cell_formula_units_Z   4
loop_
 _symmetry_equiv_pos_site_id
 _symmetry_equiv_pos_as_xyz
  1  'x, y, z'
loop_
 _atom_site_type_symbol
 _atom_site_label
 _atom_site_symmetry_multiplicity
 _atom_site_fract_x
 _atom_site_fract_y
 _atom_site_fract_z
 _atom_site_occupancy
  Ba  Ba0  1  0.25000000  0.23869100  0.33009300  1
  Ba  Ba1  1  0.25000000  0.73869100  0.16990700  1
  Ba  Ba2  1  0.75000000  0.76130900  0.66990700  1
  Ba  Ba3  1  0.75000000  0.26130900  0.83009300  1
  Lu  Lu4  1  0.25000000  0.08101000  0.59641800  1
  Lu  Lu5  1  0.25000000  0.58101000  0.90358200  1
  Lu  Lu6  1  0.75000000  0.91899000  0.40358200  1
  Lu  Lu7  1  0.75000000  0.41899000  0.09641800  1
  Lu  Lu8  1  0.25000000  0.55793400  0.39024000  1
  Lu  Lu9  1  0.25000000  0.05793400  0.10976000  1
  Lu  Lu10  1  0.75000000  0.44206600  0.60976000  1
  Lu  Lu11  1  0.75000000  0.94206600  0.89024000  1
  Te  Te12  1  0.25000000  0.08957400  0.92489500  1
  Te  Te13  1  0.25000000  0.58957400  0.57510500  1
  Te  Te14  1  0.75000000  0.91042600  0.07510500  1
  Te  Te15  1  0.75000000  0.41042600  0.42489500  1
  Te  Te16  1  0.25000000  0.29579300  0.65737500  1
  Te  Te17  1  0.25000000  0.79579300  0.84262500  1
  Te  Te18  1  0.75000000  0.70420700  0.34262500  1
  Te  Te19  1  0.75000000  0.20420700  0.15737500  1
  Te  Te20  1  0.25000000  0.37511800  0.97227700  1
  Te  Te21  1  0.25000000  0.87511800  0.52772300  1
  Te  Te22  1  0.75000000  0.62488200  0.02772300  1
  Te  Te23  1  0.75000000  0.12488200  0.47227700  1
  Te  Te24  1  0.25000000  0.47208800  0.21571000  1
  Te  Te25  1  0.25000000  0.97208800  0.28429000  1
  Te  Te26  1  0.75000000  0.52791200  0.78429000  1
  Te  Te27  1  0.75000000  0.02791200  0.71571000  1
