# generated using pymatgen
data_Y3AlC3
_symmetry_space_group_name_H-M   'P 1'
_cell_length_a   3.58917900
_cell_length_b   7.05807300
_cell_length_c   9.99730500
_cell_angle_alpha   90.00000000
_cell_angle_beta   90.00000000
_cell_angle_gamma   90.00000000
_symmetry_Int_Tables_number   1
_chemical_formula_structural   Y3AlC3
_chemical_formula_sum   'Y6 Al2 C6'
_cell_volume   253.25860233
_cell_formula_units_Z   2
loop_
 _symmetry_equiv_pos_site_id
 _symmetry_equiv_pos_as_xyz
  1  'x, y, z'
loop_
 _atom_site_type_symbol
 _atom_site_label
 _atom_site_symmetry_multiplicity
 _atom_site_fract_x
 _atom_site_fract_y
 _atom_site_fract_z
 _atom_site_occupancy
  Y  Y0  1  0.50000000  0.50957000  0.19895800  1
  Y  Y1  1  0.50000000  0.49043000  0.80104200  1
  Y  Y2  1  0.50000000  0.99043000  0.19895800  1
  Y  Y3  1  0.50000000  0.00957000  0.80104200  1
  Y  Y4  1  0.00000000  0.75000000  0.45734800  1
  Y  Y5  1  0.00000000  0.25000000  0.54265200  1
  Al  Al6  1  0.00000000  0.75000000  0.00640300  1
  Al  Al7  1  0.00000000  0.25000000  0.99359700  1
  C  C8  1  0.50000000  0.50943300  0.56590600  1
  C  C9  1  0.50000000  0.49056700  0.43409400  1
  C  C10  1  0.50000000  0.99056700  0.56590600  1
  C  C11  1  0.50000000  0.00943300  0.43409400  1
  C  C12  1  0.00000000  0.75000000  0.20851200  1
  C  C13  1  0.00000000  0.25000000  0.79148800  1
