# generated using pymatgen
data_Ba2Sm(CuO2)4
_symmetry_space_group_name_H-M   'P 1'
_cell_length_a   13.95306247
_cell_length_b   13.95306247
_cell_length_c   3.92856600
_cell_angle_alpha   90.00000000
_cell_angle_beta   90.00000000
_cell_angle_gamma   163.90848573
_symmetry_Int_Tables_number   1
_chemical_formula_structural   Ba2Sm(CuO2)4
_chemical_formula_sum   'Ba2 Sm1 Cu4 O8'
_cell_volume   211.99374302
_cell_formula_units_Z   1
loop_
 _symmetry_equiv_pos_site_id
 _symmetry_equiv_pos_as_xyz
  1  'x, y, z'
loop_
 _atom_site_type_symbol
 _atom_site_label
 _atom_site_symmetry_multiplicity
 _atom_site_fract_x
 _atom_site_fract_y
 _atom_site_fract_z
 _atom_site_occupancy
  Ba  Ba0  1  0.63564800  0.36435200  0.50000000  1
  Ba  Ba1  1  0.36435200  0.63564800  0.50000000  1
  Sm  Sm2  1  0.50000000  0.50000000  0.50000000  1
  Cu  Cu3  1  0.93792700  0.06207300  0.00000000  1
  Cu  Cu4  1  0.06207300  0.93792700  0.00000000  1
  Cu  Cu5  1  0.78746800  0.21253200  0.00000000  1
  Cu  Cu6  1  0.21253200  0.78746800  0.00000000  1
  O  O7  1  0.85425500  0.14574500  0.00000000  1
  O  O8  1  0.14574500  0.85425500  0.00000000  1
  O  O9  1  0.55382000  0.44618000  0.00000000  1
  O  O10  1  0.44618000  0.55382000  0.00000000  1
  O  O11  1  0.71909300  0.28090700  0.00000000  1
  O  O12  1  0.28090700  0.71909300  0.00000000  1
  O  O13  1  0.94600500  0.05399500  0.50000000  1
  O  O14  1  0.05399500  0.94600500  0.50000000  1
