# generated using pymatgen
data_K2Sc2Mo(PO6)2
_symmetry_space_group_name_H-M   'P 1'
_cell_length_a   10.52151600
_cell_length_b   10.54675514
_cell_length_c   10.55927045
_cell_angle_alpha   89.60336185
_cell_angle_beta   89.44821019
_cell_angle_gamma   89.81641208
_symmetry_Int_Tables_number   1
_chemical_formula_structural   K2Sc2Mo(PO6)2
_chemical_formula_sum   'K8 Sc8 Mo4 P8 O48'
_cell_volume   1171.65138994
_cell_formula_units_Z   4
loop_
 _symmetry_equiv_pos_site_id
 _symmetry_equiv_pos_as_xyz
  1  'x, y, z'
loop_
 _atom_site_type_symbol
 _atom_site_label
 _atom_site_symmetry_multiplicity
 _atom_site_fract_x
 _atom_site_fract_y
 _atom_site_fract_z
 _atom_site_occupancy
  K  K0  1  0.56274200  0.08355400  0.42846200  1
  K  K1  1  0.06129700  0.41121600  0.55593900  1
  K  K2  1  0.44456100  0.55394900  0.08813100  1
  K  K3  1  0.90672400  0.94347900  0.92411500  1
  K  K4  1  0.79433100  0.31058200  0.19437400  1
  K  K5  1  0.30573300  0.19969000  0.79548500  1
  K  K6  1  0.22128800  0.79166100  0.30506300  1
  K  K7  1  0.69759800  0.69770400  0.69894000  1
  Sc  Sc8  1  0.37622600  0.87588700  0.62312500  1
  Sc  Sc9  1  0.84700900  0.62350800  0.34778300  1
  Sc  Sc10  1  0.65660000  0.34900100  0.86235400  1
  Sc  Sc11  1  0.15492400  0.16607700  0.14617100  1
  Sc  Sc12  1  0.06622100  0.56842600  0.93406800  1
  Sc  Sc13  1  0.58566500  0.91027900  0.08317500  1
  Sc  Sc14  1  0.91102600  0.10638000  0.60033300  1
  Sc  Sc15  1  0.41564700  0.40779200  0.39914700  1
  Mo  Mo16  1  0.37167600  0.54510000  0.72736100  1
  Mo  Mo17  1  0.26750600  0.87218500  0.95263200  1
  Mo  Mo18  1  0.04392900  0.77194800  0.62701900  1
  Mo  Mo19  1  0.87733200  0.95689700  0.27793400  1
  P  P20  1  0.76366900  0.62311100  0.03937200  1
  P  P21  1  0.54338500  0.72788500  0.36590500  1
  P  P22  1  0.62928700  0.04322300  0.77324700  1
  P  P23  1  0.72163600  0.37409200  0.54170100  1
  P  P24  1  0.96341800  0.26795000  0.88217000  1
  P  P25  1  0.12595000  0.46126400  0.23637900  1
  P  P26  1  0.22657200  0.13217200  0.45612900  1
  P  P27  1  0.46587800  0.22544400  0.12056800  1
  O  O28  1  0.48291300  0.44400000  0.80464500  1
  O  O29  1  0.19925700  0.98659300  0.05600000  1
  O  O30  1  0.94099600  0.70050700  0.51485700  1
  O  O31  1  0.98747600  0.05988600  0.20168400  1
  O  O32  1  0.69731800  0.52563100  0.95321500  1
  O  O33  1  0.46857000  0.79942200  0.47255400  1
  O  O34  1  0.52806200  0.96901100  0.69594800  1
  O  O35  1  0.79294400  0.47362100  0.45763800  1
  O  O36  1  0.05162200  0.20327900  0.97937800  1
  O  O37  1  0.02431300  0.54058500  0.30746900  1
  O  O38  1  0.29982600  0.02698500  0.53148000  1
  O  O39  1  0.55401800  0.29582100  0.02525800  1
  O  O40  1  0.22901700  0.52446800  0.81657100  1
  O  O41  1  0.17318300  0.73490500  0.97510800  1
  O  O42  1  0.02104500  0.68176500  0.76792500  1
  O  O43  1  0.73549900  0.98195200  0.18903100  1
  O  O44  1  0.69390000  0.75173800  0.02918400  1
  O  O45  1  0.52161700  0.80482100  0.24226500  1
  O  O46  1  0.75906300  0.02811100  0.70442700  1
  O  O47  1  0.79991400  0.24911800  0.52785800  1
  O  O48  1  0.97955300  0.19726100  0.75484900  1
  O  O49  1  0.25500100  0.47696100  0.30314500  1
  O  O50  1  0.30312500  0.25648000  0.47205500  1
  O  O51  1  0.47887600  0.29745600  0.24848800  1
  O  O52  1  0.34247800  0.49332100  0.57010600  1
  O  O53  1  0.42413400  0.83102400  0.00157800  1
  O  O54  1  0.99579200  0.93020200  0.66127300  1
  O  O55  1  0.84801400  0.00361400  0.43788100  1
  O  O56  1  0.90276600  0.64505600  0.99632000  1
  O  O57  1  0.49106900  0.59193700  0.34987300  1
  O  O58  1  0.64239400  0.98473900  0.90744400  1
  O  O59  1  0.58576300  0.35330000  0.49126700  1
  O  O60  1  0.00171100  0.40720600  0.85862000  1
  O  O61  1  0.14315400  0.50706700  0.09769400  1
  O  O62  1  0.09048100  0.14990000  0.51126600  1
  O  O63  1  0.50403400  0.08491100  0.13841700  1
  O  O64  1  0.42727100  0.70692200  0.73288400  1
  O  O65  1  0.26362900  0.92937500  0.79137400  1
  O  O66  1  0.20662000  0.76497800  0.57095400  1
  O  O67  1  0.93486700  0.79709000  0.26770000  1
  O  O68  1  0.76393100  0.57174200  0.17843700  1
  O  O69  1  0.68591200  0.72701700  0.40307500  1
  O  O70  1  0.58658900  0.18349600  0.77892200  1
  O  O71  1  0.72090900  0.41873000  0.68138400  1
  O  O72  1  0.82304700  0.26321800  0.92918400  1
  O  O73  1  0.08116700  0.32117400  0.23669000  1
  O  O74  1  0.22357600  0.08982700  0.31590200  1
  O  O75  1  0.32575600  0.23331800  0.07364000  1
