# generated using pymatgen
data_CdCu2SiSe4
_symmetry_space_group_name_H-M   'P 1'
_cell_length_a   6.62962200
_cell_length_b   6.85525400
_cell_length_c   8.10158500
_cell_angle_alpha   90.00000000
_cell_angle_beta   90.00000000
_cell_angle_gamma   90.00000000
_symmetry_Int_Tables_number   1
_chemical_formula_structural   CdCu2SiSe4
_chemical_formula_sum   'Cd2 Cu4 Si2 Se8'
_cell_volume   368.19875082
_cell_formula_units_Z   2
loop_
 _symmetry_equiv_pos_site_id
 _symmetry_equiv_pos_as_xyz
  1  'x, y, z'
loop_
 _atom_site_type_symbol
 _atom_site_label
 _atom_site_symmetry_multiplicity
 _atom_site_fract_x
 _atom_site_fract_y
 _atom_site_fract_z
 _atom_site_occupancy
  Cd  Cd0  1  0.62865500  0.34810200  0.50000000  1
  Cd  Cd1  1  0.12865500  0.65189800  0.00000000  1
  Cu  Cu2  1  0.13078600  0.17573500  0.24901000  1
  Cu  Cu3  1  0.13078600  0.17573500  0.75099000  1
  Cu  Cu4  1  0.63078600  0.82426500  0.25099000  1
  Cu  Cu5  1  0.63078600  0.82426500  0.74901000  1
  Si  Si6  1  0.12105800  0.67724400  0.50000000  1
  Si  Si7  1  0.62105800  0.32275600  0.00000000  1
  Se  Se8  1  0.03242900  0.35047900  0.50000000  1
  Se  Se9  1  0.53242900  0.64952100  0.00000000  1
  Se  Se10  1  0.47080400  0.70541000  0.50000000  1
  Se  Se11  1  0.97080400  0.29459000  0.00000000  1
  Se  Se12  1  0.49524100  0.15679200  0.22777300  1
  Se  Se13  1  0.49524100  0.15679200  0.77222700  1
  Se  Se14  1  0.99524100  0.84320800  0.27222700  1
  Se  Se15  1  0.99524100  0.84320800  0.72777300  1
