# generated using pymatgen
data_KVOF3
_symmetry_space_group_name_H-M   'P 1'
_cell_length_a   7.36276691
_cell_length_b   7.69979001
_cell_length_c   7.93510542
_cell_angle_alpha   60.97102564
_cell_angle_beta   102.88880243
_cell_angle_gamma   90.00416696
_symmetry_Int_Tables_number   1
_chemical_formula_structural   KVOF3
_chemical_formula_sum   'K4 V4 O4 F12'
_cell_volume   380.33133496
_cell_formula_units_Z   4
loop_
 _symmetry_equiv_pos_site_id
 _symmetry_equiv_pos_as_xyz
  1  'x, y, z'
loop_
 _atom_site_type_symbol
 _atom_site_label
 _atom_site_symmetry_multiplicity
 _atom_site_fract_x
 _atom_site_fract_y
 _atom_site_fract_z
 _atom_site_occupancy
  K  K0  1  0.76813000  0.89230900  0.21537400  1
  K  K1  1  0.23186900  0.10767100  0.78462000  1
  K  K2  1  0.14842100  0.64222500  0.71562600  1
  K  K3  1  0.85158600  0.35777400  0.28438600  1
  V  V4  1  0.31786000  0.10789200  0.29146500  1
  V  V5  1  0.68214000  0.89212800  0.70850800  1
  V  V6  1  0.31783000  0.60031900  0.29171300  1
  V  V7  1  0.68218000  0.39969300  0.70826200  1
  O  O8  1  0.28094800  0.68742300  0.05119400  1
  O  O9  1  0.28079000  0.26172000  0.05086700  1
  O  O10  1  0.71905800  0.31255900  0.94886700  1
  O  O11  1  0.71921000  0.73828500  0.94909900  1
  F  F12  1  0.37668300  0.86023500  0.27957200  1
  F  F13  1  0.62333000  0.13977800  0.72043300  1
  F  F14  1  0.27340400  0.31423400  0.37136100  1
  F  F15  1  0.72659200  0.68575800  0.62864900  1
  F  F16  1  0.59628100  0.52370600  0.38227600  1
  F  F17  1  0.59617800  0.09413800  0.38219400  1
  F  F18  1  0.40372100  0.47628900  0.61774900  1
  F  F19  1  0.40382100  0.90586400  0.61778400  1
  F  F20  1  0.07731800  0.63434700  0.32991500  1
  F  F21  1  0.07742000  0.03588900  0.32984500  1
  F  F22  1  0.92265100  0.36564900  0.67011500  1
  F  F23  1  0.92258100  0.96411400  0.67012700  1
