# generated using pymatgen
data_MoI2
_symmetry_space_group_name_H-M   'P 1'
_cell_length_a   10.47200764
_cell_length_b   10.47200764
_cell_length_c   12.85702300
_cell_angle_alpha   90.00000000
_cell_angle_beta   90.00000000
_cell_angle_gamma   104.22176085
_symmetry_Int_Tables_number   1
_chemical_formula_structural   MoI2
_chemical_formula_sum   'Mo12 I24'
_cell_volume   1366.72734212
_cell_formula_units_Z   12
loop_
 _symmetry_equiv_pos_site_id
 _symmetry_equiv_pos_as_xyz
  1  'x, y, z'
loop_
 _atom_site_type_symbol
 _atom_site_label
 _atom_site_symmetry_multiplicity
 _atom_site_fract_x
 _atom_site_fract_y
 _atom_site_fract_z
 _atom_site_occupancy
  Mo  Mo0  1  0.63254400  0.63254400  0.43444900  1
  Mo  Mo1  1  0.36745600  0.36745600  0.56555100  1
  Mo  Mo2  1  0.86745600  0.86745600  0.93444900  1
  Mo  Mo3  1  0.13254400  0.13254400  0.06555100  1
  Mo  Mo4  1  0.56555700  0.56555700  0.63247200  1
  Mo  Mo5  1  0.43444300  0.43444300  0.36752800  1
  Mo  Mo6  1  0.93444300  0.93444300  0.13247200  1
  Mo  Mo7  1  0.06555700  0.06555700  0.86752800  1
  Mo  Mo8  1  0.61509900  0.38490100  0.50000000  1
  Mo  Mo9  1  0.88490100  0.11509900  0.00000000  1
  Mo  Mo10  1  0.38490100  0.61509900  0.50000000  1
  Mo  Mo11  1  0.11509900  0.88490100  0.00000000  1
  I  I12  1  0.82521900  0.58684600  0.57011400  1
  I  I13  1  0.41315400  0.17478100  0.42988600  1
  I  I14  1  0.67478100  0.91315400  0.07011400  1
  I  I15  1  0.08684600  0.32521900  0.92988600  1
  I  I16  1  0.17478100  0.41315400  0.42988600  1
  I  I17  1  0.58684600  0.82521900  0.57011400  1
  I  I18  1  0.32521900  0.08684600  0.92988600  1
  I  I19  1  0.91315400  0.67478100  0.07011400  1
  I  I20  1  0.68916500  0.45110700  0.29369400  1
  I  I21  1  0.54889300  0.31083500  0.70630600  1
  I  I22  1  0.81083500  0.04889300  0.79369400  1
  I  I23  1  0.95110700  0.18916500  0.20630600  1
  I  I24  1  0.31083500  0.54889300  0.70630600  1
  I  I25  1  0.45110700  0.68916500  0.29369400  1
  I  I26  1  0.18916500  0.95110700  0.20630600  1
  I  I27  1  0.04889300  0.81083500  0.79369400  1
  I  I28  1  0.65556200  0.65556200  0.84450100  1
  I  I29  1  0.34443800  0.34443800  0.15549900  1
  I  I30  1  0.84443800  0.84443800  0.34450100  1
  I  I31  1  0.15556200  0.15556200  0.65549900  1
  I  I32  1  0.78698800  0.21301200  0.50000000  1
  I  I33  1  0.71301200  0.28698800  0.00000000  1
  I  I34  1  0.21301200  0.78698800  0.50000000  1
  I  I35  1  0.28698800  0.71301200  0.00000000  1
