# generated using pymatgen
data_Sc2InAu2
_symmetry_space_group_name_H-M   'P 1'
_cell_length_a   7.73809600
_cell_length_b   7.73809600
_cell_length_c   6.91603600
_cell_angle_alpha   90.00000000
_cell_angle_beta   90.00000000
_cell_angle_gamma   90.00000000
_symmetry_Int_Tables_number   1
_chemical_formula_structural   Sc2InAu2
_chemical_formula_sum   'Sc8 In4 Au8'
_cell_volume   414.11930065
_cell_formula_units_Z   4
loop_
 _symmetry_equiv_pos_site_id
 _symmetry_equiv_pos_as_xyz
  1  'x, y, z'
loop_
 _atom_site_type_symbol
 _atom_site_label
 _atom_site_symmetry_multiplicity
 _atom_site_fract_x
 _atom_site_fract_y
 _atom_site_fract_z
 _atom_site_occupancy
  Sc  Sc0  1  0.15458700  0.15458700  0.00000000  1
  Sc  Sc1  1  0.84541300  0.84541300  0.00000000  1
  Sc  Sc2  1  0.65458700  0.34541300  0.50000000  1
  Sc  Sc3  1  0.34541300  0.65458700  0.50000000  1
  Sc  Sc4  1  0.68025800  0.31974200  0.00000000  1
  Sc  Sc5  1  0.31974200  0.68025800  0.00000000  1
  Sc  Sc6  1  0.81974200  0.81974200  0.50000000  1
  Sc  Sc7  1  0.18025800  0.18025800  0.50000000  1
  In  In8  1  0.50000000  0.00000000  0.25000000  1
  In  In9  1  0.50000000  0.00000000  0.75000000  1
  In  In10  1  0.00000000  0.50000000  0.25000000  1
  In  In11  1  0.00000000  0.50000000  0.75000000  1
  Au  Au12  1  0.36942400  0.36942400  0.22473300  1
  Au  Au13  1  0.63057600  0.63057600  0.77526700  1
  Au  Au14  1  0.63057600  0.63057600  0.22473300  1
  Au  Au15  1  0.86942400  0.13057600  0.72473300  1
  Au  Au16  1  0.86942400  0.13057600  0.27526700  1
  Au  Au17  1  0.36942400  0.36942400  0.77526700  1
  Au  Au18  1  0.13057600  0.86942400  0.27526700  1
  Au  Au19  1  0.13057600  0.86942400  0.72473300  1
