# generated using pymatgen
data_TmNi3
_symmetry_space_group_name_H-M   'P 1'
_cell_length_a   4.93461616
_cell_length_b   4.93461616
_cell_length_c   8.55835126
_cell_angle_alpha   73.24424434
_cell_angle_beta   73.24424434
_cell_angle_gamma   59.99999784
_symmetry_Int_Tables_number   1
_chemical_formula_structural   TmNi3
_chemical_formula_sum   'Tm3 Ni9'
_cell_volume   170.18572398
_cell_formula_units_Z   3
loop_
 _symmetry_equiv_pos_site_id
 _symmetry_equiv_pos_as_xyz
  1  'x, y, z'
loop_
 _atom_site_type_symbol
 _atom_site_label
 _atom_site_symmetry_multiplicity
 _atom_site_fract_x
 _atom_site_fract_y
 _atom_site_fract_z
 _atom_site_occupancy
  Tm  Tm0  1  0.13936600  0.13936600  0.58190300  1
  Tm  Tm1  1  0.86063400  0.86063400  0.41809700  1
  Tm  Tm2  1  0.00000000  0.00000000  0.00000000  1
  Ni  Ni3  1  0.08144000  0.58285000  0.75286000  1
  Ni  Ni4  1  0.58285000  0.58285000  0.75286000  1
  Ni  Ni5  1  0.58285000  0.08144000  0.75286000  1
  Ni  Ni6  1  0.91856000  0.41715000  0.24714000  1
  Ni  Ni7  1  0.41715000  0.41715000  0.24714000  1
  Ni  Ni8  1  0.41715000  0.91856000  0.24714000  1
  Ni  Ni9  1  0.33339800  0.33339800  0.99980600  1
  Ni  Ni10  1  0.66660200  0.66660200  0.00019400  1
  Ni  Ni11  1  0.50000000  0.50000000  0.50000000  1
