# generated using pymatgen
data_NaLa9(Ge3O13)2
_symmetry_space_group_name_H-M   'P 1'
_cell_length_a   9.98089694
_cell_length_b   9.98089694
_cell_length_c   7.31829800
_cell_angle_alpha   90.00000000
_cell_angle_beta   90.00000000
_cell_angle_gamma   119.99999299
_symmetry_Int_Tables_number   1
_chemical_formula_structural   NaLa9(Ge3O13)2
_chemical_formula_sum   'Na1 La9 Ge6 O26'
_cell_volume   631.36411615
_cell_formula_units_Z   1
loop_
 _symmetry_equiv_pos_site_id
 _symmetry_equiv_pos_as_xyz
  1  'x, y, z'
loop_
 _atom_site_type_symbol
 _atom_site_label
 _atom_site_symmetry_multiplicity
 _atom_site_fract_x
 _atom_site_fract_y
 _atom_site_fract_z
 _atom_site_occupancy
  Na  Na0  1  0.00000000  0.00000000  0.49413300  1
  La  La1  1  0.33333300  0.66666700  0.99859300  1
  La  La2  1  0.33333300  0.66666700  0.50058900  1
  La  La3  1  0.00000000  0.00000000  0.00150200  1
  La  La4  1  0.90314400  0.56477400  0.74885700  1
  La  La5  1  0.43522600  0.33836900  0.74885700  1
  La  La6  1  0.66163100  0.09685600  0.74885700  1
  La  La7  1  0.42637800  0.10139400  0.25074800  1
  La  La8  1  0.89860600  0.32498400  0.25074800  1
  La  La9  1  0.67501600  0.57362200  0.25074800  1
  Ge  Ge10  1  0.03956600  0.30327700  0.74729000  1
  Ge  Ge11  1  0.69672300  0.73628900  0.74729000  1
  Ge  Ge12  1  0.26371100  0.96043400  0.74729000  1
  Ge  Ge13  1  0.29378100  0.35836600  0.24881500  1
  Ge  Ge14  1  0.64163400  0.93541500  0.24881500  1
  Ge  Ge15  1  0.06458500  0.70621900  0.24881500  1
  O  O16  1  0.15991800  0.50863600  0.74894700  1
  O  O17  1  0.49136400  0.65128200  0.74894700  1
  O  O18  1  0.34871800  0.84008200  0.74894700  1
  O  O19  1  0.18172400  0.15804000  0.24250500  1
  O  O20  1  0.84196000  0.02368400  0.24250500  1
  O  O21  1  0.97631600  0.81827600  0.24250500  1
  O  O22  1  0.19428000  0.46592400  0.25022700  1
  O  O23  1  0.53407600  0.72835700  0.25022700  1
  O  O24  1  0.27164300  0.80572000  0.25022700  1
  O  O25  1  0.14667900  0.20770900  0.75984200  1
  O  O26  1  0.79229100  0.93897000  0.75984200  1
  O  O27  1  0.06103000  0.85332100  0.75984200  1
  O  O28  1  0.91390300  0.24081100  0.94067800  1
  O  O29  1  0.75918900  0.67309200  0.94067800  1
  O  O30  1  0.32690800  0.08609700  0.94067800  1
  O  O31  1  0.41931700  0.43073200  0.44123500  1
  O  O32  1  0.56926800  0.98858500  0.44123500  1
  O  O33  1  0.01141500  0.58068300  0.44123500  1
  O  O34  1  0.42238500  0.43378400  0.05822800  1
  O  O35  1  0.56621600  0.98860100  0.05822800  1
  O  O36  1  0.01139900  0.57761500  0.05822800  1
  O  O37  1  0.90811700  0.25044000  0.56295600  1
  O  O38  1  0.74956000  0.65767700  0.56295600  1
  O  O39  1  0.34232300  0.09188300  0.56295600  1
  O  O40  1  0.66666700  0.33333300  0.75364900  1
  O  O41  1  0.66666700  0.33333300  0.25054200  1
