# generated using pymatgen
data_K(GeAs)3
_symmetry_space_group_name_H-M   'P 1'
_cell_length_a   3.87500400
_cell_length_b   10.14849300
_cell_length_c   18.93880200
_cell_angle_alpha   90.00000000
_cell_angle_beta   90.00000000
_cell_angle_gamma   90.00000000
_symmetry_Int_Tables_number   1
_chemical_formula_structural   K(GeAs)3
_chemical_formula_sum   'K4 Ge12 As12'
_cell_volume   744.77692946
_cell_formula_units_Z   4
loop_
 _symmetry_equiv_pos_site_id
 _symmetry_equiv_pos_as_xyz
  1  'x, y, z'
loop_
 _atom_site_type_symbol
 _atom_site_label
 _atom_site_symmetry_multiplicity
 _atom_site_fract_x
 _atom_site_fract_y
 _atom_site_fract_z
 _atom_site_occupancy
  K  K0  1  0.25000000  0.22130800  0.54258100  1
  K  K1  1  0.25000000  0.72130800  0.95741900  1
  K  K2  1  0.75000000  0.77869200  0.45741900  1
  K  K3  1  0.75000000  0.27869200  0.04258100  1
  Ge  Ge4  1  0.25000000  0.30769900  0.84328900  1
  Ge  Ge5  1  0.25000000  0.80769900  0.65671100  1
  Ge  Ge6  1  0.75000000  0.69230100  0.15671100  1
  Ge  Ge7  1  0.75000000  0.19230100  0.34328900  1
  Ge  Ge8  1  0.25000000  0.41355800  0.24373700  1
  Ge  Ge9  1  0.25000000  0.91355800  0.25626300  1
  Ge  Ge10  1  0.75000000  0.58644200  0.75626300  1
  Ge  Ge11  1  0.75000000  0.08644200  0.74373700  1
  Ge  Ge12  1  0.25000000  0.52057600  0.36873300  1
  Ge  Ge13  1  0.25000000  0.02057600  0.13126700  1
  Ge  Ge14  1  0.75000000  0.47942400  0.63126700  1
  Ge  Ge15  1  0.75000000  0.97942400  0.86873300  1
  As  As16  1  0.25000000  0.04386100  0.36929200  1
  As  As17  1  0.25000000  0.54386100  0.13070800  1
  As  As18  1  0.75000000  0.95613900  0.63070800  1
  As  As19  1  0.75000000  0.45613900  0.86929200  1
  As  As20  1  0.25000000  0.11406000  0.92049300  1
  As  As21  1  0.25000000  0.61406000  0.57950700  1
  As  As22  1  0.75000000  0.88594000  0.07950700  1
  As  As23  1  0.75000000  0.38594000  0.42049300  1
  As  As24  1  0.25000000  0.23877400  0.71878200  1
  As  As25  1  0.25000000  0.73877400  0.78121800  1
  As  As26  1  0.75000000  0.76122600  0.28121800  1
  As  As27  1  0.75000000  0.26122600  0.21878200  1
