# generated using pymatgen
data_LuAlGe
_symmetry_space_group_name_H-M   'P 1'
_cell_length_a   5.50189295
_cell_length_b   5.50189295
_cell_length_c   5.67288400
_cell_angle_alpha   90.00000000
_cell_angle_beta   90.00000000
_cell_angle_gamma   136.95678235
_symmetry_Int_Tables_number   1
_chemical_formula_structural   LuAlGe
_chemical_formula_sum   'Lu2 Al2 Ge2'
_cell_volume   117.20942387
_cell_formula_units_Z   2
loop_
 _symmetry_equiv_pos_site_id
 _symmetry_equiv_pos_as_xyz
  1  'x, y, z'
loop_
 _atom_site_type_symbol
 _atom_site_label
 _atom_site_symmetry_multiplicity
 _atom_site_fract_x
 _atom_site_fract_y
 _atom_site_fract_z
 _atom_site_occupancy
  Lu  Lu0  1  0.69030900  0.30969100  0.25000000  1
  Lu  Lu1  1  0.30969100  0.69030900  0.75000000  1
  Al  Al2  1  0.00000000  0.00000000  0.00000000  1
  Al  Al3  1  0.00000000  0.00000000  0.50000000  1
  Ge  Ge4  1  0.39213000  0.60787000  0.25000000  1
  Ge  Ge5  1  0.60787000  0.39213000  0.75000000  1
