# generated using pymatgen
data_CsAg7S4
_symmetry_space_group_name_H-M   'P 1'
_cell_length_a   11.34105700
_cell_length_b   11.34105700
_cell_length_c   8.57030300
_cell_angle_alpha   90.00000000
_cell_angle_beta   90.00000000
_cell_angle_gamma   90.00000000
_symmetry_Int_Tables_number   1
_chemical_formula_structural   CsAg7S4
_chemical_formula_sum   'Cs4 Ag28 S16'
_cell_volume   1102.30871986
_cell_formula_units_Z   4
loop_
 _symmetry_equiv_pos_site_id
 _symmetry_equiv_pos_as_xyz
  1  'x, y, z'
loop_
 _atom_site_type_symbol
 _atom_site_label
 _atom_site_symmetry_multiplicity
 _atom_site_fract_x
 _atom_site_fract_y
 _atom_site_fract_z
 _atom_site_occupancy
  Cs  Cs0  1  0.50000000  0.00000000  0.62556800  1
  Cs  Cs1  1  0.00000000  0.50000000  0.37443200  1
  Cs  Cs2  1  0.50000000  0.00000000  0.12304800  1
  Cs  Cs3  1  0.00000000  0.50000000  0.87695200  1
  Ag  Ag4  1  0.25000000  0.25000000  0.00000000  1
  Ag  Ag5  1  0.75000000  0.75000000  0.00000000  1
  Ag  Ag6  1  0.25000000  0.75000000  0.00000000  1
  Ag  Ag7  1  0.75000000  0.25000000  0.00000000  1
  Ag  Ag8  1  0.72821200  0.29240600  0.66078500  1
  Ag  Ag9  1  0.27178800  0.70759400  0.66078500  1
  Ag  Ag10  1  0.20759400  0.22821200  0.66078500  1
  Ag  Ag11  1  0.79240600  0.77178800  0.66078500  1
  Ag  Ag12  1  0.77178800  0.20759400  0.33921500  1
  Ag  Ag13  1  0.22821200  0.79240600  0.33921500  1
  Ag  Ag14  1  0.29240600  0.27178800  0.33921500  1
  Ag  Ag15  1  0.70759400  0.72821200  0.33921500  1
  Ag  Ag16  1  0.98389800  0.86400900  0.87601600  1
  Ag  Ag17  1  0.01610200  0.13599100  0.87601600  1
  Ag  Ag18  1  0.63599100  0.48389800  0.87601600  1
  Ag  Ag19  1  0.36400900  0.51610200  0.87601600  1
  Ag  Ag20  1  0.51610200  0.63599100  0.12398400  1
  Ag  Ag21  1  0.48389800  0.36400900  0.12398400  1
  Ag  Ag22  1  0.86400900  0.01610200  0.12398400  1
  Ag  Ag23  1  0.13599100  0.98389800  0.12398400  1
  Ag  Ag24  1  0.53756200  0.64111600  0.61659700  1
  Ag  Ag25  1  0.46243800  0.35888400  0.61659700  1
  Ag  Ag26  1  0.85888400  0.03756200  0.61659700  1
  Ag  Ag27  1  0.14111600  0.96243800  0.61659700  1
  Ag  Ag28  1  0.96243800  0.85888400  0.38340300  1
  Ag  Ag29  1  0.03756200  0.14111600  0.38340300  1
  Ag  Ag30  1  0.64111600  0.46243800  0.38340300  1
  Ag  Ag31  1  0.35888400  0.53756200  0.38340300  1
  S  S32  1  0.23733000  0.06153100  0.86797500  1
  S  S33  1  0.76267000  0.93846900  0.86797500  1
  S  S34  1  0.43846900  0.73733000  0.86797500  1
  S  S35  1  0.56153100  0.26267000  0.86797500  1
  S  S36  1  0.26267000  0.43846900  0.13202500  1
  S  S37  1  0.73733000  0.56153100  0.13202500  1
  S  S38  1  0.06153100  0.76267000  0.13202500  1
  S  S39  1  0.93846900  0.23733000  0.13202500  1
  S  S40  1  0.25636800  0.44205000  0.62364800  1
  S  S41  1  0.74363200  0.55795000  0.62364800  1
  S  S42  1  0.05795000  0.75636800  0.62364800  1
  S  S43  1  0.94205000  0.24363200  0.62364800  1
  S  S44  1  0.24363200  0.05795000  0.37635200  1
  S  S45  1  0.75636800  0.94205000  0.37635200  1
  S  S46  1  0.44205000  0.74363200  0.37635200  1
  S  S47  1  0.55795000  0.25636800  0.37635200  1
