# generated using pymatgen
data_Hf9Re4As
_symmetry_space_group_name_H-M   'P 1'
_cell_length_a   8.62868717
_cell_length_b   8.62868717
_cell_length_c   8.64623600
_cell_angle_alpha   90.00000000
_cell_angle_beta   90.00000000
_cell_angle_gamma   120.19392986
_symmetry_Int_Tables_number   1
_chemical_formula_structural   Hf9Re4As
_chemical_formula_sum   'Hf18 Re8 As2'
_cell_volume   556.41030017
_cell_formula_units_Z   2
loop_
 _symmetry_equiv_pos_site_id
 _symmetry_equiv_pos_as_xyz
  1  'x, y, z'
loop_
 _atom_site_type_symbol
 _atom_site_label
 _atom_site_symmetry_multiplicity
 _atom_site_fract_x
 _atom_site_fract_y
 _atom_site_fract_z
 _atom_site_occupancy
  Hf  Hf0  1  0.80624900  0.61200300  0.54487100  1
  Hf  Hf1  1  0.80509900  0.19490100  0.54462600  1
  Hf  Hf2  1  0.38799700  0.19375100  0.54487100  1
  Hf  Hf3  1  0.19375100  0.38799700  0.45512900  1
  Hf  Hf4  1  0.19490100  0.80509900  0.45537400  1
  Hf  Hf5  1  0.61200300  0.80624900  0.45512900  1
  Hf  Hf6  1  0.19375100  0.38799700  0.04487100  1
  Hf  Hf7  1  0.19490100  0.80509900  0.04462600  1
  Hf  Hf8  1  0.61200300  0.80624900  0.04487100  1
  Hf  Hf9  1  0.80624900  0.61200300  0.95512900  1
  Hf  Hf10  1  0.80509900  0.19490100  0.95537400  1
  Hf  Hf11  1  0.38799700  0.19375100  0.95512900  1
  Hf  Hf12  1  0.45963900  0.91888700  0.75000000  1
  Hf  Hf13  1  0.45931900  0.54068100  0.75000000  1
  Hf  Hf14  1  0.08111300  0.54036100  0.75000000  1
  Hf  Hf15  1  0.54036100  0.08111300  0.25000000  1
  Hf  Hf16  1  0.54068100  0.45931900  0.25000000  1
  Hf  Hf17  1  0.91888700  0.45963900  0.25000000  1
  Re  Re18  1  0.10862400  0.21748500  0.75000000  1
  Re  Re19  1  0.10909800  0.89090200  0.75000000  1
  Re  Re20  1  0.78251500  0.89137600  0.75000000  1
  Re  Re21  1  0.89137600  0.78251500  0.25000000  1
  Re  Re22  1  0.89090200  0.10909800  0.25000000  1
  Re  Re23  1  0.21748500  0.10862400  0.25000000  1
  Re  Re24  1  0.00000000  0.00000000  0.50000000  1
  Re  Re25  1  0.00000000  0.00000000  0.00000000  1
  As  As26  1  0.66671100  0.33328900  0.75000000  1
  As  As27  1  0.33328900  0.66671100  0.25000000  1
