# generated using pymatgen
data_Er4CdPd
_symmetry_space_group_name_H-M   'P 1'
_cell_length_a   9.61638494
_cell_length_b   9.61638494
_cell_length_c   9.61638494
_cell_angle_alpha   60.00000000
_cell_angle_beta   60.00000000
_cell_angle_gamma   60.00000000
_symmetry_Int_Tables_number   1
_chemical_formula_structural   Er4CdPd
_chemical_formula_sum   'Er16 Cd4 Pd4'
_cell_volume   628.81156530
_cell_formula_units_Z   4
loop_
 _symmetry_equiv_pos_site_id
 _symmetry_equiv_pos_as_xyz
  1  'x, y, z'
loop_
 _atom_site_type_symbol
 _atom_site_label
 _atom_site_symmetry_multiplicity
 _atom_site_fract_x
 _atom_site_fract_y
 _atom_site_fract_z
 _atom_site_occupancy
  Er  Er0  1  0.35338900  0.35338900  0.35338900  1
  Er  Er1  1  0.35338900  0.35338900  0.93983200  1
  Er  Er2  1  0.35338900  0.93983200  0.35338900  1
  Er  Er3  1  0.93983200  0.35338900  0.35338900  1
  Er  Er4  1  0.81075300  0.18924700  0.18924700  1
  Er  Er5  1  0.18924700  0.81075300  0.81075300  1
  Er  Er6  1  0.18924700  0.81075300  0.18924700  1
  Er  Er7  1  0.81075300  0.18924700  0.81075300  1
  Er  Er8  1  0.18924700  0.18924700  0.81075300  1
  Er  Er9  1  0.81075300  0.81075300  0.18924700  1
  Er  Er10  1  0.93332600  0.56667400  0.56667400  1
  Er  Er11  1  0.56667400  0.93332600  0.93332600  1
  Er  Er12  1  0.56667400  0.93332600  0.56667400  1
  Er  Er13  1  0.93332600  0.56667400  0.93332600  1
  Er  Er14  1  0.56667400  0.56667400  0.93332600  1
  Er  Er15  1  0.93332600  0.93332600  0.56667400  1
  Cd  Cd16  1  0.58225000  0.58225000  0.58225000  1
  Cd  Cd17  1  0.58225000  0.58225000  0.25324900  1
  Cd  Cd18  1  0.58225000  0.25324900  0.58225000  1
  Cd  Cd19  1  0.25324900  0.58225000  0.58225000  1
  Pd  Pd20  1  0.14414000  0.14414000  0.14414000  1
  Pd  Pd21  1  0.14414000  0.14414000  0.56758000  1
  Pd  Pd22  1  0.14414000  0.56758000  0.14414000  1
  Pd  Pd23  1  0.56758000  0.14414000  0.14414000  1
