# generated using pymatgen
data_Ti3Te4
_symmetry_space_group_name_H-M   'P 1'
_cell_length_a   7.45433552
_cell_length_b   7.45433552
_cell_length_c   7.08072973
_cell_angle_alpha   61.96240510
_cell_angle_beta   61.96240510
_cell_angle_gamma   29.64359380
_symmetry_Int_Tables_number   1
_chemical_formula_structural   Ti3Te4
_chemical_formula_sum   'Ti3 Te4'
_cell_volume   170.05147110
_cell_formula_units_Z   1
loop_
 _symmetry_equiv_pos_site_id
 _symmetry_equiv_pos_as_xyz
  1  'x, y, z'
loop_
 _atom_site_type_symbol
 _atom_site_label
 _atom_site_symmetry_multiplicity
 _atom_site_fract_x
 _atom_site_fract_y
 _atom_site_fract_z
 _atom_site_occupancy
  Ti  Ti0  1  0.00000000  0.00000000  0.00000000  1
  Ti  Ti1  1  0.24718500  0.24718500  0.70481700  1
  Ti  Ti2  1  0.75281500  0.75281500  0.29518300  1
  Te  Te3  1  0.36519100  0.36519100  0.95898100  1
  Te  Te4  1  0.63480900  0.63480900  0.04101900  1
  Te  Te5  1  0.89299700  0.89299700  0.44849400  1
  Te  Te6  1  0.10700300  0.10700300  0.55150600  1
