# generated using pymatgen
data_KGaS2
_symmetry_space_group_name_H-M   'P 1'
_cell_length_a   7.47782759
_cell_length_b   7.47782759
_cell_length_c   15.02263631
_cell_angle_alpha   82.83977858
_cell_angle_beta   82.83977858
_cell_angle_gamma   89.97786240
_symmetry_Int_Tables_number   1
_chemical_formula_structural   KGaS2
_chemical_formula_sum   'K8 Ga8 S16'
_cell_volume   826.88546248
_cell_formula_units_Z   8
loop_
 _symmetry_equiv_pos_site_id
 _symmetry_equiv_pos_as_xyz
  1  'x, y, z'
loop_
 _atom_site_type_symbol
 _atom_site_label
 _atom_site_symmetry_multiplicity
 _atom_site_fract_x
 _atom_site_fract_y
 _atom_site_fract_z
 _atom_site_occupancy
  K  K0  1  0.65353100  0.77703400  0.88898800  1
  K  K1  1  0.22296600  0.34646900  0.61101200  1
  K  K2  1  0.15170900  0.77446800  0.89113600  1
  K  K3  1  0.77446800  0.15170900  0.39113600  1
  K  K4  1  0.22553200  0.84829100  0.60886400  1
  K  K5  1  0.84829100  0.22553200  0.10886400  1
  K  K6  1  0.77703400  0.65353100  0.38898800  1
  K  K7  1  0.34646900  0.22296600  0.11101200  1
  Ga  Ga8  1  0.91211700  0.28920900  0.83632700  1
  Ga  Ga9  1  0.28920900  0.91211700  0.33632700  1
  Ga  Ga10  1  0.29032600  0.41754400  0.33672400  1
  Ga  Ga11  1  0.41754400  0.29032600  0.83672400  1
  Ga  Ga12  1  0.70967400  0.58245600  0.66327600  1
  Ga  Ga13  1  0.58245600  0.70967400  0.16327600  1
  Ga  Ga14  1  0.08788300  0.71079100  0.16367300  1
  Ga  Ga15  1  0.71079100  0.08788300  0.66367300  1
  S  S16  1  0.43205100  0.05550800  0.75055400  1
  S  S17  1  0.05550800  0.43205100  0.25055400  1
  S  S18  1  0.64204300  0.26503300  0.93130400  1
  S  S19  1  0.26503300  0.64204300  0.43130400  1
  S  S20  1  0.94449200  0.56794900  0.74944600  1
  S  S21  1  0.56794900  0.94449200  0.24944600  1
  S  S22  1  0.26787400  0.14109500  0.42771600  1
  S  S23  1  0.14109500  0.26787400  0.92771600  1
  S  S24  1  0.56803400  0.43196600  0.25000000  1
  S  S25  1  0.43196600  0.56803400  0.75000000  1
  S  S26  1  0.73496700  0.35795700  0.56869600  1
  S  S27  1  0.94321400  0.05678600  0.75000000  1
  S  S28  1  0.85890500  0.73212600  0.07228400  1
  S  S29  1  0.73212600  0.85890500  0.57228400  1
  S  S30  1  0.05678600  0.94321400  0.25000000  1
  S  S31  1  0.35795700  0.73496700  0.06869600  1
