# generated using pymatgen
data_Rb2Cd2(MoO4)3
_symmetry_space_group_name_H-M   'P 1'
_cell_length_a   11.48461600
_cell_length_b   11.48461600
_cell_length_c   11.48461600
_cell_angle_alpha   90.00000000
_cell_angle_beta   90.00000000
_cell_angle_gamma   90.00000000
_symmetry_Int_Tables_number   1
_chemical_formula_structural   Rb2Cd2(MoO4)3
_chemical_formula_sum   'Rb8 Cd8 Mo12 O48'
_cell_volume   1514.77955939
_cell_formula_units_Z   4
loop_
 _symmetry_equiv_pos_site_id
 _symmetry_equiv_pos_as_xyz
  1  'x, y, z'
loop_
 _atom_site_type_symbol
 _atom_site_label
 _atom_site_symmetry_multiplicity
 _atom_site_fract_x
 _atom_site_fract_y
 _atom_site_fract_z
 _atom_site_occupancy
  Rb  Rb0  1  0.05260700  0.05260700  0.05260700  1
  Rb  Rb1  1  0.44739300  0.94739300  0.55260700  1
  Rb  Rb2  1  0.94739300  0.55260700  0.44739300  1
  Rb  Rb3  1  0.55260700  0.44739300  0.94739300  1
  Rb  Rb4  1  0.81880600  0.81880600  0.81880600  1
  Rb  Rb5  1  0.68119400  0.18119400  0.31880600  1
  Rb  Rb6  1  0.18119400  0.31880600  0.68119400  1
  Rb  Rb7  1  0.31880600  0.68119400  0.18119400  1
  Cd  Cd8  1  0.33512800  0.33512800  0.33512800  1
  Cd  Cd9  1  0.16487200  0.66487200  0.83512800  1
  Cd  Cd10  1  0.66487200  0.83512800  0.16487200  1
  Cd  Cd11  1  0.83512800  0.16487200  0.66487200  1
  Cd  Cd12  1  0.59995300  0.59995300  0.59995300  1
  Cd  Cd13  1  0.90004700  0.40004700  0.09995300  1
  Cd  Cd14  1  0.40004700  0.09995300  0.90004700  1
  Cd  Cd15  1  0.09995300  0.90004700  0.40004700  1
  Mo  Mo16  1  0.01957400  0.21430100  0.37654500  1
  Mo  Mo17  1  0.48042600  0.78569900  0.87654500  1
  Mo  Mo18  1  0.98042600  0.71430100  0.12345500  1
  Mo  Mo19  1  0.37654500  0.01957400  0.21430100  1
  Mo  Mo20  1  0.51957400  0.28569900  0.62345500  1
  Mo  Mo21  1  0.87654500  0.48042600  0.78569900  1
  Mo  Mo22  1  0.12345500  0.98042600  0.71430100  1
  Mo  Mo23  1  0.62345500  0.51957400  0.28569900  1
  Mo  Mo24  1  0.21430100  0.37654500  0.01957400  1
  Mo  Mo25  1  0.71430100  0.12345500  0.98042600  1
  Mo  Mo26  1  0.28569900  0.62345500  0.51957400  1
  Mo  Mo27  1  0.78569900  0.87654500  0.48042600  1
  O  O28  1  0.01274300  0.06575000  0.32504600  1
  O  O29  1  0.48725700  0.93425000  0.82504600  1
  O  O30  1  0.98725700  0.56575000  0.17495400  1
  O  O31  1  0.32504600  0.01274300  0.06575000  1
  O  O32  1  0.51274300  0.43425000  0.67495400  1
  O  O33  1  0.82504600  0.48725700  0.93425000  1
  O  O34  1  0.17495400  0.98725700  0.56575000  1
  O  O35  1  0.67495400  0.51274300  0.43425000  1
  O  O36  1  0.06575000  0.32504600  0.01274300  1
  O  O37  1  0.56575000  0.17495400  0.98725700  1
  O  O38  1  0.43425000  0.67495400  0.51274300  1
  O  O39  1  0.93425000  0.82504600  0.48725700  1
  O  O40  1  0.26661200  0.49207600  0.43781000  1
  O  O41  1  0.23338800  0.50792400  0.93781000  1
  O  O42  1  0.73338800  0.99207600  0.06219000  1
  O  O43  1  0.43781000  0.26661200  0.49207600  1
  O  O44  1  0.76661200  0.00792400  0.56219000  1
  O  O45  1  0.93781000  0.23338800  0.50792400  1
  O  O46  1  0.06219000  0.73338800  0.99207600  1
  O  O47  1  0.56219000  0.76661200  0.00792400  1
  O  O48  1  0.49207600  0.43781000  0.26661200  1
  O  O49  1  0.99207600  0.06219000  0.73338800  1
  O  O50  1  0.00792400  0.56219000  0.76661200  1
  O  O51  1  0.50792400  0.93781000  0.23338800  1
  O  O52  1  0.04684600  0.80688500  0.23012200  1
  O  O53  1  0.45315400  0.19311500  0.73012200  1
  O  O54  1  0.95315400  0.30688500  0.26987800  1
  O  O55  1  0.23012200  0.04684600  0.80688500  1
  O  O56  1  0.54684600  0.69311500  0.76987800  1
  O  O57  1  0.73012200  0.45315400  0.19311500  1
  O  O58  1  0.26987800  0.95315400  0.30688500  1
  O  O59  1  0.76987800  0.54684600  0.69311500  1
  O  O60  1  0.80688500  0.23012200  0.04684600  1
  O  O61  1  0.30688500  0.26987800  0.95315400  1
  O  O62  1  0.69311500  0.76987800  0.54684600  1
  O  O63  1  0.19311500  0.73012200  0.45315400  1
  O  O64  1  0.16665300  0.25719600  0.40613200  1
  O  O65  1  0.33334700  0.74280400  0.90613200  1
  O  O66  1  0.83334700  0.75719600  0.09386800  1
  O  O67  1  0.40613200  0.16665300  0.25719600  1
  O  O68  1  0.66665300  0.24280400  0.59386800  1
  O  O69  1  0.90613200  0.33334700  0.74280400  1
  O  O70  1  0.09386800  0.83334700  0.75719600  1
  O  O71  1  0.59386800  0.66665300  0.24280400  1
  O  O72  1  0.25719600  0.40613200  0.16665300  1
  O  O73  1  0.75719600  0.09386800  0.83334700  1
  O  O74  1  0.24280400  0.59386800  0.66665300  1
  O  O75  1  0.74280400  0.90613200  0.33334700  1
