# generated using pymatgen
data_NbVNi
_symmetry_space_group_name_H-M   'P 1'
_cell_length_a   4.90001561
_cell_length_b   4.90001561
_cell_length_c   8.09226300
_cell_angle_alpha   90.00000000
_cell_angle_beta   90.00000000
_cell_angle_gamma   120.01506230
_symmetry_Int_Tables_number   1
_chemical_formula_structural   NbVNi
_chemical_formula_sum   'Nb4 V4 Ni4'
_cell_volume   168.24013648
_cell_formula_units_Z   4
loop_
 _symmetry_equiv_pos_site_id
 _symmetry_equiv_pos_as_xyz
  1  'x, y, z'
loop_
 _atom_site_type_symbol
 _atom_site_label
 _atom_site_symmetry_multiplicity
 _atom_site_fract_x
 _atom_site_fract_y
 _atom_site_fract_z
 _atom_site_occupancy
  Nb  Nb0  1  0.32414100  0.67585900  0.18351700  1
  Nb  Nb1  1  0.65958600  0.34041400  0.30458800  1
  Nb  Nb2  1  0.65958600  0.34041400  0.69541200  1
  Nb  Nb3  1  0.32414100  0.67585900  0.81648300  1
  V  V4  1  0.84208800  0.15791200  0.00000000  1
  V  V5  1  0.16870500  0.33841300  0.50000000  1
  V  V6  1  0.66158700  0.83129500  0.50000000  1
  V  V7  1  0.17307700  0.82692300  0.50000000  1
  Ni  Ni8  1  0.00055700  0.99944300  0.24506600  1
  Ni  Ni9  1  0.00055700  0.99944300  0.75493400  1
  Ni  Ni10  1  0.83753800  0.65176700  0.00000000  1
  Ni  Ni11  1  0.34823300  0.16246200  0.00000000  1
