# generated using pymatgen
data_Rb18Mg6B29O58F
_symmetry_space_group_name_H-M   'P 1'
_cell_length_a   11.20163491
_cell_length_b   11.47046872
_cell_length_c   31.50295496
_cell_angle_alpha   90.11183702
_cell_angle_beta   90.22904253
_cell_angle_gamma   60.77230686
_symmetry_Int_Tables_number   1
_chemical_formula_structural   Rb18Mg6B29O58F
_chemical_formula_sum   'Rb36 Mg12 B58 O116 F2'
_cell_volume   3532.38878203
_cell_formula_units_Z   2
loop_
 _symmetry_equiv_pos_site_id
 _symmetry_equiv_pos_as_xyz
  1  'x, y, z'
loop_
 _atom_site_type_symbol
 _atom_site_label
 _atom_site_symmetry_multiplicity
 _atom_site_fract_x
 _atom_site_fract_y
 _atom_site_fract_z
 _atom_site_occupancy
  Rb  Rb0  1  0.50649865  0.67269132  0.26901560  1
  Rb  Rb1  1  0.82081002  0.67269132  0.23098440  1
  Rb  Rb2  1  0.49350135  0.32730868  0.73098440  1
  Rb  Rb3  1  0.17918998  0.32730868  0.76901560  1
  Rb  Rb4  1  0.16414675  0.98455972  0.23359689  1
  Rb  Rb5  1  0.85129354  0.98455972  0.26640311  1
  Rb  Rb6  1  0.83585325  0.01544028  0.76640311  1
  Rb  Rb7  1  0.14870646  0.01544028  0.73359689  1
  Rb  Rb8  1  0.49808229  0.36223050  0.22967841  1
  Rb  Rb9  1  0.13968721  0.36223050  0.27032159  1
  Rb  Rb10  1  0.50191771  0.63776950  0.77032159  1
  Rb  Rb11  1  0.86031279  0.63776950  0.72967841  1
  Rb  Rb12  1  0.51874226  0.74745641  0.38000960  1
  Rb  Rb13  1  0.73380133  0.74745641  0.11999040  1
  Rb  Rb14  1  0.48125774  0.25254359  0.61999040  1
  Rb  Rb15  1  0.26619867  0.25254359  0.88000960  1
  Rb  Rb16  1  0.19038926  0.69649339  0.42847665  1
  Rb  Rb17  1  0.11311735  0.69649339  0.07152335  1
  Rb  Rb18  1  0.80961074  0.30350661  0.57152335  1
  Rb  Rb19  1  0.88688265  0.30350661  0.92847665  1
  Rb  Rb20  1  0.79118348  0.38468334  0.43502678  1
  Rb  Rb21  1  0.82413318  0.38468334  0.06497322  1
  Rb  Rb22  1  0.20881652  0.61531666  0.56497322  1
  Rb  Rb23  1  0.17586682  0.61531666  0.93502678  1
  Rb  Rb24  1  0.46555898  0.36096073  0.09787215  1
  Rb  Rb25  1  0.17348029  0.36096073  0.40212785  1
  Rb  Rb26  1  0.53444102  0.63903927  0.90212785  1
  Rb  Rb27  1  0.82651971  0.63903927  0.59787215  1
  Rb  Rb28  1  0.12867809  0.05095617  0.10854018  1
  Rb  Rb29  1  0.82036573  0.05095617  0.39145982  1
  Rb  Rb30  1  0.87132191  0.94904383  0.89145982  1
  Rb  Rb31  1  0.17963427  0.94904383  0.60854018  1
  Rb  Rb32  1  0.49507511  0.05332235  0.43697413  1
  Rb  Rb33  1  0.45160255  0.05332235  0.06302587  1
  Rb  Rb34  1  0.50492489  0.94667765  0.56302587  1
  Rb  Rb35  1  0.54839745  0.94667765  0.93697413  1
  Mg  Mg36  1  0.12645788  0.07750145  0.34532529  1
  Mg  Mg37  1  0.79604066  0.07750145  0.15467471  1
  Mg  Mg38  1  0.87354212  0.92249855  0.65467471  1
  Mg  Mg39  1  0.20395934  0.92249855  0.84532529  1
  Mg  Mg40  1  0.43031474  0.69382733  0.16068821  1
  Mg  Mg41  1  0.87585794  0.69382733  0.33931179  1
  Mg  Mg42  1  0.56968526  0.30617267  0.83931179  1
  Mg  Mg43  1  0.12414206  0.30617267  0.66068821  1
  Mg  Mg44  1  0.47499666  0.67599841  0.51176460  1
  Mg  Mg45  1  0.84900493  0.67599841  0.98823540  1
  Mg  Mg46  1  0.52500334  0.32400159  0.48823540  1
  Mg  Mg47  1  0.15099507  0.32400159  0.01176460  1
  B  B48  1  0.24146822  0.77701779  0.32993866  1
  B  B49  1  0.98151398  0.77701779  0.17006134  1
  B  B50  1  0.75853178  0.22298221  0.67006134  1
  B  B51  1  0.01848602  0.22298221  0.82993866  1
  B  B52  1  0.36585317  0.51973370  0.33364062  1
  B  B53  1  0.11441314  0.51973370  0.16635938  1
  B  B54  1  0.63414683  0.48026630  0.66635938  1
  B  B55  1  0.88558686  0.48026630  0.83364062  1
  B  B56  1  0.21865317  0.65332366  0.19654599  1
  B  B57  1  0.12802317  0.65332366  0.30345401  1
  B  B58  1  0.78134683  0.34667634  0.80345401  1
  B  B59  1  0.87197683  0.34667634  0.69654599  1
  B  B60  1  0.41473789  0.69094185  0.07047402  1
  B  B61  1  0.89432025  0.69094185  0.42952598  1
  B  B62  1  0.58526211  0.30905815  0.92952598  1
  B  B63  1  0.10567975  0.30905815  0.57047402  1
  B  B64  1  0.73789542  0.48930544  0.17365059  1
  B  B65  1  0.77279913  0.48930544  0.32634941  1
  B  B66  1  0.26210458  0.51069456  0.82634941  1
  B  B67  1  0.22720087  0.51069456  0.67365059  1
  B  B68  1  0.62229621  0.38121882  0.33830341  1
  B  B69  1  0.99648497  0.38121882  0.16169659  1
  B  B70  1  0.37770379  0.61878118  0.66169659  1
  B  B71  1  0.00351503  0.61878118  0.83830341  1
  B  B72  1  0.47375414  0.36818690  0.39607682  1
  B  B73  1  0.15805896  0.36818690  0.10392318  1
  B  B74  1  0.52624586  0.63181310  0.60392318  1
  B  B75  1  0.84194104  0.63181310  0.89607682  1
  B  B76  1  0.49630778  0.00738445  0.25000000  1
  B  B77  1  0.50369222  0.99261555  0.75000000  1
  B  B78  1  0.36824267  0.08801193  0.31986323  1
  B  B79  1  0.54374540  0.08801193  0.18013677  1
  B  B80  1  0.63175733  0.91198807  0.68013677  1
  B  B81  1  0.45625460  0.91198807  0.81986323  1
  B  B82  1  0.44294935  0.93786373  0.17881434  1
  B  B83  1  0.61918692  0.93786373  0.32118566  1
  B  B84  1  0.55705065  0.06213627  0.82118566  1
  B  B85  1  0.38081308  0.06213627  0.67881434  1
  B  B86  1  0.09770914  0.09453673  0.43929633  1
  B  B87  1  0.80775414  0.09453673  0.06070367  1
  B  B88  1  0.90229086  0.90546327  0.56070367  1
  B  B89  1  0.19224586  0.90546327  0.93929633  1
  B  B90  1  0.82161424  0.84441357  0.49334751  1
  B  B91  1  0.33397219  0.84441357  0.00665249  1
  B  B92  1  0.17838576  0.15558643  0.50665249  1
  B  B93  1  0.66602781  0.15558643  0.99334751  1
  B  B94  1  0.22696913  0.91795934  0.49269508  1
  B  B95  1  0.85507153  0.91795934  0.00730492  1
  B  B96  1  0.77303087  0.08204066  0.50730492  1
  B  B97  1  0.14492847  0.08204066  0.99269508  1
  B  B98  1  0.86460757  0.25162802  0.30980231  1
  B  B99  1  0.88376441  0.25162802  0.19019769  1
  B  B100  1  0.13539243  0.74837198  0.69019769  1
  B  B101  1  0.11623559  0.74837198  0.80980231  1
  B  B102  1  0.68910911  0.72761863  0.46958001  1
  B  B103  1  0.58327226  0.72761863  0.03041999  1
  B  B104  1  0.31089089  0.27238137  0.53041999  1
  B  B105  1  0.41672774  0.27238137  0.96958001  1
  O  O106  1  0.21403707  0.53504840  0.19362024  1
  O  O107  1  0.25091453  0.53504840  0.30637976  1
  O  O108  1  0.78596293  0.46495160  0.80637976  1
  O  O109  1  0.74908547  0.46495160  0.69362024  1
  O  O110  1  0.49752949  0.43926776  0.31313221  1
  O  O111  1  0.06320274  0.43926776  0.18686779  1
  O  O112  1  0.50247051  0.56073224  0.68686779  1
  O  O113  1  0.93679726  0.56073224  0.81313221  1
  O  O114  1  0.62079135  0.60508307  0.17827820  1
  O  O115  1  0.77412558  0.60508307  0.32172180  1
  O  O116  1  0.37920865  0.39491693  0.82172180  1
  O  O117  1  0.22587442  0.39491693  0.67827820  1
  O  O118  1  0.66572549  0.48524610  0.34720078  1
  O  O119  1  0.84902841  0.48524610  0.15279922  1
  O  O120  1  0.33427451  0.51475390  0.65279922  1
  O  O121  1  0.15097159  0.51475390  0.84720078  1
  O  O122  1  0.24997898  0.15369199  0.34148151  1
  O  O123  1  0.59632903  0.15369199  0.15851849  1
  O  O124  1  0.75002102  0.84630801  0.65851849  1
  O  O125  1  0.40367097  0.84630801  0.84148151  1
  O  O126  1  0.18424309  0.45869817  0.12561553  1
  O  O127  1  0.35705874  0.45869817  0.37438447  1
  O  O128  1  0.81575691  0.54130183  0.87438447  1
  O  O129  1  0.64294126  0.54130183  0.62561553  1
  O  O130  1  0.33382001  0.65804353  0.20602436  1
  O  O131  1  0.00813646  0.65804353  0.29397564  1
  O  O132  1  0.66617999  0.34195647  0.79397564  1
  O  O133  1  0.99186354  0.34195647  0.70602436  1
  O  O134  1  0.03596015  0.12885449  0.40107131  1
  O  O135  1  0.83518535  0.12885449  0.09892869  1
  O  O136  1  0.96403985  0.87114551  0.59892869  1
  O  O137  1  0.16481465  0.87114551  0.90107131  1
  O  O138  1  0.38617731  0.64232864  0.10554749  1
  O  O139  1  0.97149405  0.64232864  0.39445251  1
  O  O140  1  0.61382269  0.35767136  0.89445251  1
  O  O141  1  0.02850595  0.35767136  0.60554749  1
  O  O142  1  0.97686387  0.13214024  0.30428406  1
  O  O143  1  0.89099589  0.13214024  0.19571594  1
  O  O144  1  0.02313613  0.86785976  0.69571594  1
  O  O145  1  0.10900411  0.86785976  0.80428406  1
  O  O146  1  0.24986184  0.88933689  0.33381119  1
  O  O147  1  0.86080126  0.88933689  0.16618881  1
  O  O148  1  0.75013816  0.11066311  0.66618881  1
  O  O149  1  0.13919874  0.11066311  0.83381119  1
  O  O150  1  0.49324188  0.01452613  0.34270700  1
  O  O151  1  0.49223199  0.01452613  0.15729300  1
  O  O152  1  0.50675812  0.98547387  0.65729300  1
  O  O153  1  0.50776801  0.98547387  0.84270700  1
  O  O154  1  0.37381536  0.09134871  0.27591302  1
  O  O155  1  0.53483593  0.09134871  0.22408698  1
  O  O156  1  0.62618464  0.90865129  0.72408698  1
  O  O157  1  0.46516407  0.90865129  0.77591302  1
  O  O158  1  0.38102657  0.88288844  0.15611699  1
  O  O159  1  0.73608499  0.88288844  0.34388301  1
  O  O160  1  0.61897343  0.11711156  0.84388301  1
  O  O161  1  0.26391501  0.11711156  0.65611699  1
  O  O162  1  0.34756772  0.65651369  0.34452598  1
  O  O163  1  0.99591859  0.65651369  0.15547402  1
  O  O164  1  0.65243228  0.34348631  0.65547402  1
  O  O165  1  0.00408141  0.34348631  0.84452598  1
  O  O166  1  0.46326242  0.92077156  0.22248877  1
  O  O167  1  0.61596602  0.92077156  0.27751123  1
  O  O168  1  0.53673758  0.07922844  0.77751123  1
  O  O169  1  0.38403398  0.07922844  0.72248877  1
  O  O170  1  0.09643165  0.77661359  0.18887540  1
  O  O171  1  0.12695477  0.77661359  0.31112460  1
  O  O172  1  0.90356835  0.22338641  0.81112460  1
  O  O173  1  0.87304523  0.22338641  0.68887540  1
  O  O174  1  0.15586507  0.96078958  0.45362443  1
  O  O175  1  0.88334535  0.96078958  0.04637557  1
  O  O176  1  0.84413493  0.03921042  0.54637557  1
  O  O177  1  0.11665465  0.03921042  0.95362443  1
  O  O178  1  0.27986335  0.78865313  0.50407921  1
  O  O179  1  0.93148353  0.78865313  0.99592079  1
  O  O180  1  0.72013665  0.21134687  0.49592079  1
  O  O181  1  0.06851647  0.21134687  0.00407921  1
  O  O182  1  0.75300779  0.36905315  0.19041816  1
  O  O183  1  0.87793906  0.36905315  0.30958184  1
  O  O184  1  0.24699221  0.63094685  0.80958184  1
  O  O185  1  0.12206094  0.63094685  0.69041816  1
  O  O186  1  0.60365178  0.33285146  0.38071020  1
  O  O187  1  0.06349676  0.33285146  0.11928980  1
  O  O188  1  0.39634822  0.66714854  0.61928980  1
  O  O189  1  0.93650324  0.66714854  0.88071020  1
  O  O190  1  0.99955868  0.26450828  0.18355449  1
  O  O191  1  0.73593304  0.26450828  0.31644551  1
  O  O192  1  0.00044132  0.73549172  0.81644551  1
  O  O193  1  0.26406696  0.73549172  0.68355449  1
  O  O194  1  0.10504565  0.18834257  0.46561472  1
  O  O195  1  0.70661179  0.18834257  0.03438528  1
  O  O196  1  0.89495435  0.81165743  0.53438528  1
  O  O197  1  0.29338821  0.81165743  0.96561472  1
  O  O198  1  0.78694150  0.66144069  0.43726902  1
  O  O199  1  0.55161781  0.66144069  0.06273098  1
  O  O200  1  0.21305850  0.33855931  0.56273098  1
  O  O201  1  0.44838219  0.33855931  0.93726902  1
  O  O202  1  0.54231800  0.68478911  0.56708765  1
  O  O203  1  0.77289289  0.68478911  0.93291235  1
  O  O204  1  0.45768200  0.31521089  0.43291235  1
  O  O205  1  0.22710711  0.31521089  0.06708765  1
  O  O206  1  0.57894854  0.71026490  0.47025049  1
  O  O207  1  0.71078656  0.71026490  0.02974951  1
  O  O208  1  0.42105146  0.28973510  0.52974951  1
  O  O209  1  0.28921344  0.28973510  0.97025049  1
  O  O210  1  0.70672340  0.81327486  0.49672730  1
  O  O211  1  0.48000174  0.81327486  0.00327270  1
  O  O212  1  0.29327660  0.18672514  0.50327270  1
  O  O213  1  0.51999826  0.18672514  0.99672730  1
  O  O214  1  0.91713254  0.76791985  0.45890642  1
  O  O215  1  0.31494761  0.76791985  0.04109358  1
  O  O216  1  0.08286746  0.23208015  0.54109358  1
  O  O217  1  0.68505239  0.23208015  0.95890642  1
  O  O218  1  0.25239789  0.98936694  0.01739220  1
  O  O219  1  0.75823517  0.98936694  0.48260780  1
  O  O220  1  0.74760211  0.01063306  0.98260780  1
  O  O221  1  0.24176483  0.01063306  0.51739220  1
  F  F222  1  0.50000000  0.50000000  0.50000000  1
  F  F223  1  -0.00000000  0.50000000  -0.00000000  1
