# generated using pymatgen
data_BaCo2(PO4)2
_symmetry_space_group_name_H-M   'P 1'
_cell_length_a   5.04963000
_cell_length_b   8.25757059
_cell_length_c   9.33705148
_cell_angle_alpha   92.38573963
_cell_angle_beta   90.00389855
_cell_angle_gamma   90.00301903
_symmetry_Int_Tables_number   1
_chemical_formula_structural   BaCo2(PO4)2
_chemical_formula_sum   'Ba2 Co4 P4 O16'
_cell_volume   388.99588214
_cell_formula_units_Z   2
loop_
 _symmetry_equiv_pos_site_id
 _symmetry_equiv_pos_as_xyz
  1  'x, y, z'
loop_
 _atom_site_type_symbol
 _atom_site_label
 _atom_site_symmetry_multiplicity
 _atom_site_fract_x
 _atom_site_fract_y
 _atom_site_fract_z
 _atom_site_occupancy
  Ba  Ba0  1  0.50000100  0.00000000  0.50000100  1
  Ba  Ba1  1  0.00000100  0.99999900  0.00000000  1
  Co  Co2  1  0.06730500  0.35021300  0.70719000  1
  Co  Co3  1  0.93269200  0.64978600  0.29280900  1
  Co  Co4  1  0.56736900  0.64979900  0.79279700  1
  Co  Co5  1  0.43262600  0.35020100  0.20720500  1
  P  P6  1  0.49548300  0.73491900  0.13589100  1
  P  P7  1  0.99547700  0.26507400  0.36412300  1
  P  P8  1  0.50451700  0.26508100  0.86410700  1
  P  P9  1  0.00452300  0.73492700  0.63588000  1
  O  O10  1  0.85148200  0.85694400  0.73434500  1
  O  O11  1  0.35149400  0.14303700  0.76564800  1
  O  O12  1  0.14852400  0.14305800  0.26565200  1
  O  O13  1  0.64850900  0.85696000  0.23435100  1
  O  O14  1  0.55578900  0.77592300  0.97810800  1
  O  O15  1  0.05576600  0.22404500  0.52191500  1
  O  O16  1  0.44420500  0.22408200  0.02189100  1
  O  O17  1  0.94422900  0.77595000  0.47808900  1
  O  O18  1  0.61221300  0.56414400  0.17383400  1
  O  O19  1  0.11225500  0.43586800  0.32622100  1
  O  O20  1  0.38779300  0.43585500  0.82615600  1
  O  O21  1  0.88774800  0.56413600  0.67378900  1
  O  O22  1  0.30796000  0.74096300  0.65539100  1
  O  O23  1  0.80795600  0.25905300  0.84463900  1
  O  O24  1  0.69203600  0.25903700  0.34460500  1
  O  O25  1  0.19204800  0.74094500  0.15536400  1
