# generated using pymatgen
data_CsNaNbOF5
_symmetry_space_group_name_H-M   'P 1'
_cell_length_a   8.59556700
_cell_length_b   11.40861900
_cell_length_c   13.53601500
_cell_angle_alpha   90.00000000
_cell_angle_beta   90.00000000
_cell_angle_gamma   90.00000000
_symmetry_Int_Tables_number   1
_chemical_formula_structural   CsNaNbOF5
_chemical_formula_sum   'Cs8 Na8 Nb8 O8 F40'
_cell_volume   1327.38967011
_cell_formula_units_Z   8
loop_
 _symmetry_equiv_pos_site_id
 _symmetry_equiv_pos_as_xyz
  1  'x, y, z'
loop_
 _atom_site_type_symbol
 _atom_site_label
 _atom_site_symmetry_multiplicity
 _atom_site_fract_x
 _atom_site_fract_y
 _atom_site_fract_z
 _atom_site_occupancy
  Cs  Cs0  1  0.00000000  0.75000000  0.41911500  1
  Cs  Cs1  1  0.00000000  0.25000000  0.58088500  1
  Cs  Cs2  1  0.50000000  0.25000000  0.08088500  1
  Cs  Cs3  1  0.50000000  0.75000000  0.91911500  1
  Cs  Cs4  1  0.00000000  0.75000000  0.88288900  1
  Cs  Cs5  1  0.00000000  0.25000000  0.11711100  1
  Cs  Cs6  1  0.50000000  0.25000000  0.61711100  1
  Cs  Cs7  1  0.50000000  0.75000000  0.38288900  1
  Na  Na8  1  0.24617400  0.92334800  0.14728700  1
  Na  Na9  1  0.75382600  0.07665200  0.85271300  1
  Na  Na10  1  0.25382600  0.42334800  0.35271300  1
  Na  Na11  1  0.75382600  0.57665200  0.14728700  1
  Na  Na12  1  0.74617400  0.57665200  0.64728700  1
  Na  Na13  1  0.24617400  0.42334800  0.85271300  1
  Na  Na14  1  0.74617400  0.07665200  0.35271300  1
  Na  Na15  1  0.25382600  0.92334800  0.64728700  1
  Nb  Nb16  1  0.24526300  0.58537600  0.13275800  1
  Nb  Nb17  1  0.75473700  0.41462400  0.86724200  1
  Nb  Nb18  1  0.25473700  0.08537600  0.36724200  1
  Nb  Nb19  1  0.75473700  0.91462400  0.13275800  1
  Nb  Nb20  1  0.74526300  0.91462400  0.63275800  1
  Nb  Nb21  1  0.24526300  0.08537600  0.86724200  1
  Nb  Nb22  1  0.74526300  0.41462400  0.36724200  1
  Nb  Nb23  1  0.25473700  0.58537600  0.63275800  1
  O  O24  1  0.21972800  0.73134300  0.08887700  1
  O  O25  1  0.78027200  0.26865700  0.91112300  1
  O  O26  1  0.28027200  0.23134300  0.41112300  1
  O  O27  1  0.78027200  0.76865700  0.08887700  1
  O  O28  1  0.71972800  0.76865700  0.58887700  1
  O  O29  1  0.21972800  0.23134300  0.91112300  1
  O  O30  1  0.71972800  0.26865700  0.41112300  1
  O  O31  1  0.28027200  0.73134300  0.58887700  1
  F  F32  1  0.02388400  0.53725700  0.12285700  1
  F  F33  1  0.97611600  0.46274300  0.87714300  1
  F  F34  1  0.47611600  0.03725700  0.37714300  1
  F  F35  1  0.97611600  0.96274300  0.12285700  1
  F  F36  1  0.52388400  0.96274300  0.62285700  1
  F  F37  1  0.02388400  0.03725700  0.87714300  1
  F  F38  1  0.52388400  0.46274300  0.37714300  1
  F  F39  1  0.47611600  0.53725700  0.62285700  1
  F  F40  1  0.22746600  0.90904300  0.31394100  1
  F  F41  1  0.77253400  0.09095700  0.68605900  1
  F  F42  1  0.27253400  0.40904300  0.18605900  1
  F  F43  1  0.77253400  0.59095700  0.31394100  1
  F  F44  1  0.72746600  0.59095700  0.81394100  1
  F  F45  1  0.22746600  0.40904300  0.68605900  1
  F  F46  1  0.72746600  0.09095700  0.18605900  1
  F  F47  1  0.27253400  0.90904300  0.81394100  1
  F  F48  1  0.47407900  0.59773300  0.15181400  1
  F  F49  1  0.52592100  0.40226700  0.84818600  1
  F  F50  1  0.02592100  0.09773300  0.34818600  1
  F  F51  1  0.52592100  0.90226700  0.15181400  1
  F  F52  1  0.97407900  0.90226700  0.65181400  1
  F  F53  1  0.47407900  0.09773300  0.84818600  1
  F  F54  1  0.97407900  0.40226700  0.34818600  1
  F  F55  1  0.02592100  0.59773300  0.65181400  1
  F  F56  1  0.28802500  0.51292300  0.00207500  1
  F  F57  1  0.71197500  0.48707700  0.99792500  1
  F  F58  1  0.21197500  0.01292300  0.49792500  1
  F  F59  1  0.71197500  0.98707700  0.00207500  1
  F  F60  1  0.78802500  0.98707700  0.50207500  1
  F  F61  1  0.28802500  0.01292300  0.99792500  1
  F  F62  1  0.78802500  0.48707700  0.49792500  1
  F  F63  1  0.21197500  0.51292300  0.50207500  1
  F  F64  1  0.22151900  0.61664800  0.27762700  1
  F  F65  1  0.77848100  0.38335200  0.72237300  1
  F  F66  1  0.27848100  0.11664800  0.22237300  1
  F  F67  1  0.77848100  0.88335200  0.27762700  1
  F  F68  1  0.72151900  0.88335200  0.77762700  1
  F  F69  1  0.22151900  0.11664800  0.72237300  1
  F  F70  1  0.72151900  0.38335200  0.22237300  1
  F  F71  1  0.27848100  0.61664800  0.77762700  1
