# generated using pymatgen
data_Be2AsH5O7
_symmetry_space_group_name_H-M   'P 1'
_cell_length_a   6.57983322
_cell_length_b   8.50743882
_cell_length_c   11.15036100
_cell_angle_alpha   90.00000000
_cell_angle_beta   90.00000000
_cell_angle_gamma   105.31605637
_symmetry_Int_Tables_number   1
_chemical_formula_structural   Be2AsH5O7
_chemical_formula_sum   'Be8 As4 H20 O28'
_cell_volume   602.00128866
_cell_formula_units_Z   4
loop_
 _symmetry_equiv_pos_site_id
 _symmetry_equiv_pos_as_xyz
  1  'x, y, z'
loop_
 _atom_site_type_symbol
 _atom_site_label
 _atom_site_symmetry_multiplicity
 _atom_site_fract_x
 _atom_site_fract_y
 _atom_site_fract_z
 _atom_site_occupancy
  Be  Be0  1  0.47433900  0.05003100  0.80483400  1
  Be  Be1  1  0.97433900  0.55003100  0.69516600  1
  Be  Be2  1  0.52566100  0.94996900  0.19516600  1
  Be  Be3  1  0.02566100  0.44996900  0.30483400  1
  Be  Be4  1  0.30665400  0.12262100  0.57621900  1
  Be  Be5  1  0.80665400  0.62262100  0.92378100  1
  Be  Be6  1  0.69334600  0.87737900  0.42378100  1
  Be  Be7  1  0.19334600  0.37737900  0.07621900  1
  As  As8  1  0.62755400  0.20649200  0.38296000  1
  As  As9  1  0.12755400  0.70649200  0.11704000  1
  As  As10  1  0.37244600  0.79350800  0.61704000  1
  As  As11  1  0.87244600  0.29350800  0.88296000  1
  H  H12  1  0.95678400  0.13626300  0.53729500  1
  H  H13  1  0.45678400  0.63626300  0.96270500  1
  H  H14  1  0.04321600  0.86373700  0.46270500  1
  H  H15  1  0.54321600  0.36373700  0.03729500  1
  H  H16  1  0.04794800  0.24230000  0.65547500  1
  H  H17  1  0.54794800  0.74230000  0.84452500  1
  H  H18  1  0.95205200  0.75770000  0.34452500  1
  H  H19  1  0.45205200  0.25770000  0.15547500  1
  H  H20  1  0.55213100  0.27361900  0.68836100  1
  H  H21  1  0.05213100  0.77361900  0.81163900  1
  H  H22  1  0.44786900  0.72638100  0.31163900  1
  H  H23  1  0.94786900  0.22638100  0.18836100  1
  H  H24  1  0.20498500  0.12436400  0.91526000  1
  H  H25  1  0.70498500  0.62436400  0.58474000  1
  H  H26  1  0.79501500  0.87563600  0.08474000  1
  H  H27  1  0.29501500  0.37563600  0.41526000  1
  H  H28  1  0.28134600  0.98230900  0.98138300  1
  H  H29  1  0.78134600  0.48230900  0.51861700  1
  H  H30  1  0.71865400  0.01769100  0.01861700  1
  H  H31  1  0.21865400  0.51769100  0.48138300  1
  O  O32  1  0.07940500  0.16589500  0.59384500  1
  O  O33  1  0.57940500  0.66589500  0.90615500  1
  O  O34  1  0.92059500  0.83410500  0.40615500  1
  O  O35  1  0.42059500  0.33410500  0.09384500  1
  O  O36  1  0.27067800  0.03178100  0.90081800  1
  O  O37  1  0.77067800  0.53178100  0.59918200  1
  O  O38  1  0.72932200  0.96821900  0.09918200  1
  O  O39  1  0.22932200  0.46821900  0.40081800  1
  O  O40  1  0.45064700  0.16747200  0.69541400  1
  O  O41  1  0.95064700  0.66747200  0.80458600  1
  O  O42  1  0.54935300  0.83252800  0.30458600  1
  O  O43  1  0.04935300  0.33252800  0.19541400  1
  O  O44  1  0.69314600  0.10594000  0.88225800  1
  O  O45  1  0.19314600  0.60594000  0.61774200  1
  O  O46  1  0.30685400  0.89406000  0.11774200  1
  O  O47  1  0.80685400  0.39406000  0.38225800  1
  O  O48  1  0.44850600  0.86029600  0.75978700  1
  O  O49  1  0.94850600  0.36029600  0.74021300  1
  O  O50  1  0.55149400  0.13970400  0.24021300  1
  O  O51  1  0.05149400  0.63970400  0.25978700  1
  O  O52  1  0.41427700  0.23310300  0.46049700  1
  O  O53  1  0.91427700  0.73310300  0.03950300  1
  O  O54  1  0.58572300  0.76689700  0.53950300  1
  O  O55  1  0.08572300  0.26689700  0.96049700  1
  O  O56  1  0.25616700  0.92782700  0.54758800  1
  O  O57  1  0.75616700  0.42782700  0.95241200  1
  O  O58  1  0.74383300  0.07217300  0.45241200  1
  O  O59  1  0.24383300  0.57217300  0.04758800  1
