# generated using pymatgen
data_Ce(BOs)2
_symmetry_space_group_name_H-M   'P 1'
_cell_length_a   6.75120721
_cell_length_b   6.02762324
_cell_length_c   5.58695523
_cell_angle_alpha   70.96418268
_cell_angle_beta   57.56468271
_cell_angle_gamma   51.47113461
_symmetry_Int_Tables_number   1
_chemical_formula_structural   Ce(BOs)2
_chemical_formula_sum   'Ce2 B4 Os4'
_cell_volume   150.10070922
_cell_formula_units_Z   2
loop_
 _symmetry_equiv_pos_site_id
 _symmetry_equiv_pos_as_xyz
  1  'x, y, z'
loop_
 _atom_site_type_symbol
 _atom_site_label
 _atom_site_symmetry_multiplicity
 _atom_site_fract_x
 _atom_site_fract_y
 _atom_site_fract_z
 _atom_site_occupancy
  Ce  Ce0  1  0.00000000  0.00000000  0.00000000  1
  Ce  Ce1  1  0.25000000  0.25000000  0.25000000  1
  B  B2  1  0.31485100  0.68514900  0.31485100  1
  B  B3  1  0.68514900  0.31485100  0.68514900  1
  B  B4  1  0.56485100  0.93514900  0.56485100  1
  B  B5  1  0.93514900  0.56485100  0.93514900  1
  Os  Os6  1  0.63779100  0.63779100  0.36220900  1
  Os  Os7  1  0.36220900  0.36220900  0.63779100  1
  Os  Os8  1  0.61220900  0.61220900  0.88779100  1
  Os  Os9  1  0.88779100  0.88779100  0.61220900  1
