# generated using pymatgen
data_NdCu
_symmetry_space_group_name_H-M   'P 1'
_cell_length_a   4.55639700
_cell_length_b   5.58495400
_cell_length_c   7.40532700
_cell_angle_alpha   90.00000000
_cell_angle_beta   90.00000000
_cell_angle_gamma   90.00000000
_symmetry_Int_Tables_number   1
_chemical_formula_structural   NdCu
_chemical_formula_sum   'Nd4 Cu4'
_cell_volume   188.44533821
_cell_formula_units_Z   4
loop_
 _symmetry_equiv_pos_site_id
 _symmetry_equiv_pos_as_xyz
  1  'x, y, z'
loop_
 _atom_site_type_symbol
 _atom_site_label
 _atom_site_symmetry_multiplicity
 _atom_site_fract_x
 _atom_site_fract_y
 _atom_site_fract_z
 _atom_site_occupancy
  Nd  Nd0  1  0.25000000  0.37471100  0.67981000  1
  Nd  Nd1  1  0.75000000  0.62528900  0.32019000  1
  Nd  Nd2  1  0.75000000  0.87471100  0.82019000  1
  Nd  Nd3  1  0.25000000  0.12528900  0.17981000  1
  Cu  Cu4  1  0.25000000  0.88234300  0.53320600  1
  Cu  Cu5  1  0.75000000  0.11765700  0.46679400  1
  Cu  Cu6  1  0.75000000  0.38234300  0.96679400  1
  Cu  Cu7  1  0.25000000  0.61765700  0.03320600  1
