# generated using pymatgen
data_Ca3(GeP2)2
_symmetry_space_group_name_H-M   'P 1'
_cell_length_a   17.57216800
_cell_length_b   7.08852200
_cell_length_c   7.14861736
_cell_angle_alpha   68.25646604
_cell_angle_beta   90.00000000
_cell_angle_gamma   90.00000000
_symmetry_Int_Tables_number   1
_chemical_formula_structural   Ca3(GeP2)2
_chemical_formula_sum   'Ca12 Ge8 P16'
_cell_volume   827.08341807
_cell_formula_units_Z   4
loop_
 _symmetry_equiv_pos_site_id
 _symmetry_equiv_pos_as_xyz
  1  'x, y, z'
loop_
 _atom_site_type_symbol
 _atom_site_label
 _atom_site_symmetry_multiplicity
 _atom_site_fract_x
 _atom_site_fract_y
 _atom_site_fract_z
 _atom_site_occupancy
  Ca  Ca0  1  0.31695000  0.01198500  0.78507700  1
  Ca  Ca1  1  0.81695000  0.48801500  0.21492300  1
  Ca  Ca2  1  0.06011700  0.01175400  0.74258200  1
  Ca  Ca3  1  0.18305000  0.51198500  0.78507700  1
  Ca  Ca4  1  0.43976200  0.99590800  0.26241900  1
  Ca  Ca5  1  0.93976200  0.50409200  0.73758100  1
  Ca  Ca6  1  0.56023800  0.00409200  0.73758100  1
  Ca  Ca7  1  0.06023800  0.49590800  0.26241900  1
  Ca  Ca8  1  0.43988300  0.51175400  0.74258200  1
  Ca  Ca9  1  0.93988300  0.98824600  0.25741800  1
  Ca  Ca10  1  0.56011700  0.48824600  0.25741800  1
  Ca  Ca11  1  0.68305000  0.98801500  0.21492300  1
  Ge  Ge12  1  0.87449900  0.03020800  0.79094900  1
  Ge  Ge13  1  0.12550100  0.96979200  0.20905100  1
  Ge  Ge14  1  0.62550100  0.53020800  0.79094900  1
  Ge  Ge15  1  0.24244900  0.08469900  0.31955700  1
  Ge  Ge16  1  0.74244900  0.41530100  0.68044300  1
  Ge  Ge17  1  0.75755100  0.91530100  0.68044300  1
  Ge  Ge18  1  0.25755100  0.58469900  0.31955700  1
  Ge  Ge19  1  0.37449900  0.46979200  0.20905100  1
  P  P20  1  0.43412300  0.25373900  0.50165800  1
  P  P21  1  0.68505100  0.72315800  0.96555700  1
  P  P22  1  0.81494900  0.22315800  0.96555700  1
  P  P23  1  0.31494900  0.27684200  0.03444300  1
  P  P24  1  0.30316400  0.77251000  0.51251600  1
  P  P25  1  0.80316400  0.72749000  0.48748400  1
  P  P26  1  0.69683600  0.22749000  0.48748400  1
  P  P27  1  0.19683600  0.27251000  0.51251600  1
  P  P28  1  0.05868700  0.25158300  0.00354500  1
  P  P29  1  0.18505100  0.77684200  0.03444300  1
  P  P30  1  0.55868700  0.24841700  0.99645500  1
  P  P31  1  0.94131300  0.74841700  0.99645500  1
  P  P32  1  0.93412300  0.24626100  0.49834200  1
  P  P33  1  0.56587700  0.74626100  0.49834200  1
  P  P34  1  0.06587700  0.75373900  0.50165800  1
  P  P35  1  0.44131300  0.75158300  0.00354500  1
