# generated using pymatgen
data_Ho5Co19P12
_symmetry_space_group_name_H-M   'P 1'
_cell_length_a   11.96393643
_cell_length_b   11.96393643
_cell_length_c   3.65773300
_cell_angle_alpha   90.00000000
_cell_angle_beta   90.00000000
_cell_angle_gamma   120.00000237
_symmetry_Int_Tables_number   1
_chemical_formula_structural   Ho5Co19P12
_chemical_formula_sum   'Ho5 Co19 P12'
_cell_volume   453.40970867
_cell_formula_units_Z   1
loop_
 _symmetry_equiv_pos_site_id
 _symmetry_equiv_pos_as_xyz
  1  'x, y, z'
loop_
 _atom_site_type_symbol
 _atom_site_label
 _atom_site_symmetry_multiplicity
 _atom_site_fract_x
 _atom_site_fract_y
 _atom_site_fract_z
 _atom_site_occupancy
  Ho  Ho0  1  0.66666700  0.33333300  0.00000000  1
  Ho  Ho1  1  0.33333300  0.66666700  0.00000000  1
  Ho  Ho2  1  0.81250600  0.81250600  0.50000000  1
  Ho  Ho3  1  0.18749400  0.00000000  0.50000000  1
  Ho  Ho4  1  0.00000000  0.18749400  0.50000000  1
  Co  Co5  1  0.87463300  0.35853100  0.50000000  1
  Co  Co6  1  0.64146900  0.51610200  0.50000000  1
  Co  Co7  1  0.48389800  0.12536700  0.50000000  1
  Co  Co8  1  0.35853100  0.87463300  0.50000000  1
  Co  Co9  1  0.51610200  0.64146900  0.50000000  1
  Co  Co10  1  0.12536700  0.48389800  0.50000000  1
  Co  Co11  1  0.44716500  0.44716500  0.00000000  1
  Co  Co12  1  0.55283500  0.00000000  0.00000000  1
  Co  Co13  1  0.00000000  0.55283500  0.00000000  1
  Co  Co14  1  0.80020800  0.17806700  0.00000000  1
  Co  Co15  1  0.82193300  0.62214000  0.00000000  1
  Co  Co16  1  0.37786000  0.19979200  0.00000000  1
  Co  Co17  1  0.17806700  0.80020800  0.00000000  1
  Co  Co18  1  0.62214000  0.82193300  0.00000000  1
  Co  Co19  1  0.19979200  0.37786000  0.00000000  1
  Co  Co20  1  0.28513600  0.28513600  0.50000000  1
  Co  Co21  1  0.71486400  0.00000000  0.50000000  1
  Co  Co22  1  0.00000000  0.71486400  0.50000000  1
  Co  Co23  1  0.00000000  0.00000000  0.00000000  1
  P  P24  1  0.68577900  0.16627000  0.50000000  1
  P  P25  1  0.83373000  0.51950900  0.50000000  1
  P  P26  1  0.48049100  0.31422100  0.50000000  1
  P  P27  1  0.16627000  0.68577900  0.50000000  1
  P  P28  1  0.51950900  0.83373000  0.50000000  1
  P  P29  1  0.31422100  0.48049100  0.50000000  1
  P  P30  1  0.18090300  0.18090300  0.00000000  1
  P  P31  1  0.81909700  0.00000000  0.00000000  1
  P  P32  1  0.00000000  0.81909700  0.00000000  1
  P  P33  1  0.63189200  0.63189200  0.00000000  1
  P  P34  1  0.36810800  0.00000000  0.00000000  1
  P  P35  1  0.00000000  0.36810800  0.00000000  1
