# generated using pymatgen
data_Na5(ZnSn5)2
_symmetry_space_group_name_H-M   'P 1'
_cell_length_a   10.92221500
_cell_length_b   13.18698400
_cell_length_c   13.21190300
_cell_angle_alpha   90.00000000
_cell_angle_beta   90.00000000
_cell_angle_gamma   90.00000000
_symmetry_Int_Tables_number   1
_chemical_formula_structural   Na5(ZnSn5)2
_chemical_formula_sum   'Na20 Zn8 Sn40'
_cell_volume   1902.92458461
_cell_formula_units_Z   4
loop_
 _symmetry_equiv_pos_site_id
 _symmetry_equiv_pos_as_xyz
  1  'x, y, z'
loop_
 _atom_site_type_symbol
 _atom_site_label
 _atom_site_symmetry_multiplicity
 _atom_site_fract_x
 _atom_site_fract_y
 _atom_site_fract_z
 _atom_site_occupancy
  Na  Na0  1  0.95007300  0.65517800  0.89335300  1
  Na  Na1  1  0.04992700  0.34482200  0.10664700  1
  Na  Na2  1  0.54992700  0.84482200  0.39335300  1
  Na  Na3  1  0.95007300  0.34482200  0.60664700  1
  Na  Na4  1  0.45007300  0.15517800  0.60664700  1
  Na  Na5  1  0.04992700  0.65517800  0.39335300  1
  Na  Na6  1  0.54992700  0.15517800  0.10664700  1
  Na  Na7  1  0.45007300  0.84482200  0.89335300  1
  Na  Na8  1  0.54323200  0.63868100  0.59915900  1
  Na  Na9  1  0.45676800  0.36131900  0.40084100  1
  Na  Na10  1  0.95676800  0.86131900  0.09915900  1
  Na  Na11  1  0.54323200  0.36131900  0.90084100  1
  Na  Na12  1  0.04323200  0.13868100  0.90084100  1
  Na  Na13  1  0.45676800  0.63868100  0.09915900  1
  Na  Na14  1  0.95676800  0.13868100  0.40084100  1
  Na  Na15  1  0.04323200  0.86131900  0.59915900  1
  Na  Na16  1  0.75194400  0.50000000  0.75000000  1
  Na  Na17  1  0.24805600  0.50000000  0.25000000  1
  Na  Na18  1  0.74805600  0.00000000  0.25000000  1
  Na  Na19  1  0.25194400  0.00000000  0.75000000  1
  Zn  Zn20  1  0.64040000  0.66257800  0.91350200  1
  Zn  Zn21  1  0.35960000  0.33742200  0.08649800  1
  Zn  Zn22  1  0.85960000  0.83742200  0.41350200  1
  Zn  Zn23  1  0.64040000  0.33742200  0.58649800  1
  Zn  Zn24  1  0.14040000  0.16257800  0.58649800  1
  Zn  Zn25  1  0.35960000  0.66257800  0.41350200  1
  Zn  Zn26  1  0.85960000  0.16257800  0.08649800  1
  Zn  Zn27  1  0.14040000  0.83742200  0.91350200  1
  Sn  Sn28  1  0.75132100  0.99464900  0.52187800  1
  Sn  Sn29  1  0.24867900  0.00535100  0.47812200  1
  Sn  Sn30  1  0.74867900  0.50535100  0.02187800  1
  Sn  Sn31  1  0.75132100  0.00535100  0.97812200  1
  Sn  Sn32  1  0.25132100  0.49464900  0.97812200  1
  Sn  Sn33  1  0.24867900  0.99464900  0.02187800  1
  Sn  Sn34  1  0.74867900  0.49464900  0.47812200  1
  Sn  Sn35  1  0.25132100  0.50535100  0.52187800  1
  Sn  Sn36  1  0.56951100  0.91987300  0.66638400  1
  Sn  Sn37  1  0.43048900  0.08012700  0.33361600  1
  Sn  Sn38  1  0.93048900  0.58012700  0.16638400  1
  Sn  Sn39  1  0.56951100  0.08012700  0.83361600  1
  Sn  Sn40  1  0.06951100  0.41987300  0.83361600  1
  Sn  Sn41  1  0.43048900  0.91987300  0.16638400  1
  Sn  Sn42  1  0.93048900  0.41987300  0.33361600  1
  Sn  Sn43  1  0.06951100  0.58012700  0.66638400  1
  Sn  Sn44  1  0.73883800  0.77122000  0.75460300  1
  Sn  Sn45  1  0.26116200  0.22878000  0.24539700  1
  Sn  Sn46  1  0.76116200  0.72878000  0.25460300  1
  Sn  Sn47  1  0.73883800  0.22878000  0.74539700  1
  Sn  Sn48  1  0.23883800  0.27122000  0.74539700  1
  Sn  Sn49  1  0.26116200  0.77122000  0.25460300  1
  Sn  Sn50  1  0.76116200  0.27122000  0.24539700  1
  Sn  Sn51  1  0.23883800  0.72878000  0.75460300  1
  Sn  Sn52  1  0.85432900  0.68017500  0.57184800  1
  Sn  Sn53  1  0.14567100  0.31982500  0.42815200  1
  Sn  Sn54  1  0.64567100  0.81982500  0.07184800  1
  Sn  Sn55  1  0.85432900  0.31982500  0.92815200  1
  Sn  Sn56  1  0.35432900  0.18017500  0.92815200  1
  Sn  Sn57  1  0.14567100  0.68017500  0.07184800  1
  Sn  Sn58  1  0.64567100  0.18017500  0.42815200  1
  Sn  Sn59  1  0.35432900  0.81982500  0.57184800  1
  Sn  Sn60  1  0.92422400  0.91469700  0.83245700  1
  Sn  Sn61  1  0.07577600  0.08530300  0.16754300  1
  Sn  Sn62  1  0.57577600  0.58530300  0.33245700  1
  Sn  Sn63  1  0.92422400  0.08530300  0.66754300  1
  Sn  Sn64  1  0.42422400  0.41469700  0.66754300  1
  Sn  Sn65  1  0.07577600  0.91469700  0.33245700  1
  Sn  Sn66  1  0.57577600  0.41469700  0.16754300  1
  Sn  Sn67  1  0.42422400  0.58530300  0.83245700  1
