# generated using pymatgen
data_Rb2Be3Zn2F12
_symmetry_space_group_name_H-M   'P 1'
_cell_length_a   10.19355500
_cell_length_b   10.19355500
_cell_length_c   10.19355500
_cell_angle_alpha   90.00000000
_cell_angle_beta   90.00000000
_cell_angle_gamma   90.00000000
_symmetry_Int_Tables_number   1
_chemical_formula_structural   Rb2Be3Zn2F12
_chemical_formula_sum   'Rb8 Be12 Zn8 F48'
_cell_volume   1059.19765740
_cell_formula_units_Z   4
loop_
 _symmetry_equiv_pos_site_id
 _symmetry_equiv_pos_as_xyz
  1  'x, y, z'
loop_
 _atom_site_type_symbol
 _atom_site_label
 _atom_site_symmetry_multiplicity
 _atom_site_fract_x
 _atom_site_fract_y
 _atom_site_fract_z
 _atom_site_occupancy
  Rb  Rb0  1  0.04849600  0.04849600  0.04849600  1
  Rb  Rb1  1  0.45150400  0.95150400  0.54849600  1
  Rb  Rb2  1  0.95150400  0.54849600  0.45150400  1
  Rb  Rb3  1  0.54849600  0.45150400  0.95150400  1
  Rb  Rb4  1  0.81587300  0.81587300  0.81587300  1
  Rb  Rb5  1  0.68412700  0.18412700  0.31587300  1
  Rb  Rb6  1  0.18412700  0.31587300  0.68412700  1
  Rb  Rb7  1  0.31587300  0.68412700  0.18412700  1
  Be  Be8  1  0.01980100  0.21465600  0.37562200  1
  Be  Be9  1  0.48019900  0.78534400  0.87562200  1
  Be  Be10  1  0.98019900  0.71465600  0.12437800  1
  Be  Be11  1  0.37562200  0.01980100  0.21465600  1
  Be  Be12  1  0.51980100  0.28534400  0.62437800  1
  Be  Be13  1  0.87562200  0.48019900  0.78534400  1
  Be  Be14  1  0.12437800  0.98019900  0.71465600  1
  Be  Be15  1  0.62437800  0.51980100  0.28534400  1
  Be  Be16  1  0.21465600  0.37562200  0.01980100  1
  Be  Be17  1  0.71465600  0.12437800  0.98019900  1
  Be  Be18  1  0.28534400  0.62437800  0.51980100  1
  Be  Be19  1  0.78534400  0.87562200  0.48019900  1
  Zn  Zn20  1  0.33471000  0.33471000  0.33471000  1
  Zn  Zn21  1  0.16529000  0.66529000  0.83471000  1
  Zn  Zn22  1  0.66529000  0.83471000  0.16529000  1
  Zn  Zn23  1  0.83471000  0.16529000  0.66529000  1
  Zn  Zn24  1  0.59781500  0.59781500  0.59781500  1
  Zn  Zn25  1  0.90218500  0.40218500  0.09781500  1
  Zn  Zn26  1  0.40218500  0.09781500  0.90218500  1
  Zn  Zn27  1  0.09781500  0.90218500  0.40218500  1
  F  F28  1  0.01191200  0.06884700  0.32967200  1
  F  F29  1  0.48808800  0.93115300  0.82967200  1
  F  F30  1  0.98808800  0.56884700  0.17032800  1
  F  F31  1  0.32967200  0.01191200  0.06884700  1
  F  F32  1  0.51191200  0.43115300  0.67032800  1
  F  F33  1  0.82967200  0.48808800  0.93115300  1
  F  F34  1  0.17032800  0.98808800  0.56884700  1
  F  F35  1  0.67032800  0.51191200  0.43115300  1
  F  F36  1  0.06884700  0.32967200  0.01191200  1
  F  F37  1  0.56884700  0.17032800  0.98808800  1
  F  F38  1  0.43115300  0.67032800  0.51191200  1
  F  F39  1  0.93115300  0.82967200  0.48808800  1
  F  F40  1  0.26586900  0.49590100  0.43779700  1
  F  F41  1  0.23413100  0.50409900  0.93779700  1
  F  F42  1  0.73413100  0.99590100  0.06220300  1
  F  F43  1  0.43779700  0.26586900  0.49590100  1
  F  F44  1  0.76586900  0.00409900  0.56220300  1
  F  F45  1  0.93779700  0.23413100  0.50409900  1
  F  F46  1  0.06220300  0.73413100  0.99590100  1
  F  F47  1  0.56220300  0.76586900  0.00409900  1
  F  F48  1  0.49590100  0.43779700  0.26586900  1
  F  F49  1  0.99590100  0.06220300  0.73413100  1
  F  F50  1  0.00409900  0.56220300  0.76586900  1
  F  F51  1  0.50409900  0.93779700  0.23413100  1
  F  F52  1  0.04554700  0.80580900  0.22989600  1
  F  F53  1  0.45445300  0.19419100  0.72989600  1
  F  F54  1  0.95445300  0.30580900  0.27010400  1
  F  F55  1  0.22989600  0.04554700  0.80580900  1
  F  F56  1  0.54554700  0.69419100  0.77010400  1
  F  F57  1  0.72989600  0.45445300  0.19419100  1
  F  F58  1  0.27010400  0.95445300  0.30580900  1
  F  F59  1  0.77010400  0.54554700  0.69419100  1
  F  F60  1  0.80580900  0.22989600  0.04554700  1
  F  F61  1  0.30580900  0.27010400  0.95445300  1
  F  F62  1  0.69419100  0.77010400  0.54554700  1
  F  F63  1  0.19419100  0.72989600  0.45445300  1
  F  F64  1  0.16353000  0.25610300  0.40218800  1
  F  F65  1  0.33647000  0.74389700  0.90218800  1
  F  F66  1  0.83647000  0.75610300  0.09781200  1
  F  F67  1  0.40218800  0.16353000  0.25610300  1
  F  F68  1  0.66353000  0.24389700  0.59781200  1
  F  F69  1  0.90218800  0.33647000  0.74389700  1
  F  F70  1  0.09781200  0.83647000  0.75610300  1
  F  F71  1  0.59781200  0.66353000  0.24389700  1
  F  F72  1  0.25610300  0.40218800  0.16353000  1
  F  F73  1  0.75610300  0.09781200  0.83647000  1
  F  F74  1  0.24389700  0.59781200  0.66353000  1
  F  F75  1  0.74389700  0.90218800  0.33647000  1
