# generated using pymatgen
data_Nb4SiTe4
_symmetry_space_group_name_H-M   'P 1'
_cell_length_a   4.87530000
_cell_length_b   10.98191000
_cell_length_c   19.11941600
_cell_angle_alpha   90.00000000
_cell_angle_beta   90.00000000
_cell_angle_gamma   90.00000000
_symmetry_Int_Tables_number   1
_chemical_formula_structural   Nb4SiTe4
_chemical_formula_sum   'Nb16 Si4 Te16'
_cell_volume   1023.65555591
_cell_formula_units_Z   4
loop_
 _symmetry_equiv_pos_site_id
 _symmetry_equiv_pos_as_xyz
  1  'x, y, z'
loop_
 _atom_site_type_symbol
 _atom_site_label
 _atom_site_symmetry_multiplicity
 _atom_site_fract_x
 _atom_site_fract_y
 _atom_site_fract_z
 _atom_site_occupancy
  Nb  Nb0  1  0.50000000  0.56350400  0.38359400  1
  Nb  Nb1  1  0.50000000  0.43649600  0.61640600  1
  Nb  Nb2  1  0.50000000  0.06350400  0.11640600  1
  Nb  Nb3  1  0.50000000  0.93649600  0.88359400  1
  Nb  Nb4  1  0.50000000  0.70303100  0.53622200  1
  Nb  Nb5  1  0.50000000  0.29696900  0.46377800  1
  Nb  Nb6  1  0.50000000  0.20303100  0.96377800  1
  Nb  Nb7  1  0.50000000  0.79696900  0.03622200  1
  Nb  Nb8  1  0.00000000  0.68848500  0.44304100  1
  Nb  Nb9  1  0.00000000  0.31151500  0.55695900  1
  Nb  Nb10  1  0.00000000  0.18848500  0.05695900  1
  Nb  Nb11  1  0.00000000  0.81151500  0.94304100  1
  Nb  Nb12  1  0.00000000  0.40138200  0.39195300  1
  Nb  Nb13  1  0.00000000  0.59861800  0.60804700  1
  Nb  Nb14  1  0.00000000  0.90138200  0.10804700  1
  Nb  Nb15  1  0.00000000  0.09861800  0.89195300  1
  Si  Si16  1  0.24994600  0.50000000  0.50000000  1
  Si  Si17  1  0.75005400  0.00000000  0.00000000  1
  Si  Si18  1  0.75005400  0.50000000  0.50000000  1
  Si  Si19  1  0.24994600  0.00000000  0.00000000  1
  Te  Te20  1  0.00000000  0.84550000  0.56180900  1
  Te  Te21  1  0.00000000  0.15450000  0.43819100  1
  Te  Te22  1  0.00000000  0.34550000  0.93819100  1
  Te  Te23  1  0.00000000  0.65450000  0.06180900  1
  Te  Te24  1  0.50000000  0.33232100  0.31605100  1
  Te  Te25  1  0.50000000  0.66767900  0.68394900  1
  Te  Te26  1  0.50000000  0.83232100  0.18394900  1
  Te  Te27  1  0.50000000  0.16767900  0.81605100  1
  Te  Te28  1  0.50000000  0.82139000  0.40326600  1
  Te  Te29  1  0.50000000  0.17861000  0.59673400  1
  Te  Te30  1  0.50000000  0.32139000  0.09673400  1
  Te  Te31  1  0.50000000  0.67861000  0.90326600  1
  Te  Te32  1  0.00000000  0.60770600  0.30156500  1
  Te  Te33  1  0.00000000  0.39229400  0.69843500  1
  Te  Te34  1  0.00000000  0.10770600  0.19843500  1
  Te  Te35  1  0.00000000  0.89229400  0.80156500  1
