# generated using pymatgen
data_MnH2Cl2O
_symmetry_space_group_name_H-M   'P 1'
_cell_length_a   3.77033400
_cell_length_b   9.10461200
_cell_length_c   11.69340200
_cell_angle_alpha   89.99897439
_cell_angle_beta   90.00014948
_cell_angle_gamma   89.99999371
_symmetry_Int_Tables_number   1
_chemical_formula_structural   MnH2Cl2O
_chemical_formula_sum   'Mn4 H8 Cl8 O4'
_cell_volume   401.40441731
_cell_formula_units_Z   4
loop_
 _symmetry_equiv_pos_site_id
 _symmetry_equiv_pos_as_xyz
  1  'x, y, z'
loop_
 _atom_site_type_symbol
 _atom_site_label
 _atom_site_symmetry_multiplicity
 _atom_site_fract_x
 _atom_site_fract_y
 _atom_site_fract_z
 _atom_site_occupancy
  Mn  Mn0  1  0.75000200  0.81717400  0.51769000  1
  Mn  Mn1  1  0.24999600  0.18282300  0.48231100  1
  Mn  Mn2  1  0.74999900  0.31710700  0.98233400  1
  Mn  Mn3  1  0.25001200  0.68290100  0.01766100  1
  H  H4  1  0.74999900  0.18849400  0.76344700  1
  H  H5  1  0.75000000  0.68847700  0.73655800  1
  H  H6  1  0.24999900  0.81150400  0.23655300  1
  H  H7  1  0.24999900  0.31152100  0.26344300  1
  H  H8  1  0.74999900  0.05453700  0.85234500  1
  H  H9  1  0.74999900  0.55455400  0.64765200  1
  H  H10  1  0.24999900  0.94546300  0.14765700  1
  H  H11  1  0.24999900  0.44544300  0.35234900  1
  Cl  Cl12  1  0.24999900  0.18969700  0.09233400  1
  Cl  Cl13  1  0.25000100  0.68975300  0.40768300  1
  Cl  Cl14  1  0.75000400  0.81030600  0.90766200  1
  Cl  Cl15  1  0.74999800  0.31024600  0.59231900  1
  Cl  Cl16  1  0.24999800  0.46408500  0.87681700  1
  Cl  Cl17  1  0.25000100  0.96409300  0.62322000  1
  Cl  Cl18  1  0.75000400  0.53591900  0.12318000  1
  Cl  Cl19  1  0.74999900  0.03590500  0.37678200  1
  O  O20  1  0.75000000  0.16191300  0.84501500  1
  O  O21  1  0.74999900  0.66192900  0.65498500  1
  O  O22  1  0.24999700  0.83808700  0.15498500  1
  O  O23  1  0.25000000  0.33806800  0.34501600  1
