# generated using pymatgen
data_Na2MgInF7
_symmetry_space_group_name_H-M   'P 1'
_cell_length_a   7.46185800
_cell_length_b   7.67550200
_cell_length_c   10.62244900
_cell_angle_alpha   90.00000000
_cell_angle_beta   90.00000000
_cell_angle_gamma   90.00000000
_symmetry_Int_Tables_number   1
_chemical_formula_structural   Na2MgInF7
_chemical_formula_sum   'Na8 Mg4 In4 F28'
_cell_volume   608.38489657
_cell_formula_units_Z   4
loop_
 _symmetry_equiv_pos_site_id
 _symmetry_equiv_pos_as_xyz
  1  'x, y, z'
loop_
 _atom_site_type_symbol
 _atom_site_label
 _atom_site_symmetry_multiplicity
 _atom_site_fract_x
 _atom_site_fract_y
 _atom_site_fract_z
 _atom_site_occupancy
  Na  Na0  1  0.00000000  0.00000000  0.00000000  1
  Na  Na1  1  0.50000000  0.00000000  0.00000000  1
  Na  Na2  1  0.00000000  0.50000000  0.50000000  1
  Na  Na3  1  0.50000000  0.50000000  0.50000000  1
  Na  Na4  1  0.25000000  0.23288700  0.27160900  1
  Na  Na5  1  0.25000000  0.26711300  0.77160900  1
  Na  Na6  1  0.75000000  0.73288700  0.22839100  1
  Na  Na7  1  0.75000000  0.76711300  0.72839100  1
  Mg  Mg8  1  0.50000000  0.00000000  0.50000000  1
  Mg  Mg9  1  0.50000000  0.50000000  0.00000000  1
  Mg  Mg10  1  0.00000000  0.00000000  0.50000000  1
  Mg  Mg11  1  0.00000000  0.50000000  0.00000000  1
  In  In12  1  0.25000000  0.74974200  0.26323100  1
  In  In13  1  0.75000000  0.25025800  0.73676900  1
  In  In14  1  0.75000000  0.24974200  0.23676900  1
  In  In15  1  0.25000000  0.75025800  0.76323100  1
  F  F16  1  0.45205900  0.67496700  0.13541900  1
  F  F17  1  0.95205900  0.32503300  0.86458100  1
  F  F18  1  0.54794100  0.17496700  0.36458100  1
  F  F19  1  0.04794100  0.82503300  0.63541900  1
  F  F20  1  0.54794100  0.32503300  0.86458100  1
  F  F21  1  0.04794100  0.67496700  0.13541900  1
  F  F22  1  0.45205900  0.82503300  0.63541900  1
  F  F23  1  0.95205900  0.17496700  0.36458100  1
  F  F24  1  0.51913000  0.29955600  0.12479100  1
  F  F25  1  0.01913000  0.70044400  0.87520900  1
  F  F26  1  0.48087000  0.79955600  0.37520900  1
  F  F27  1  0.98087000  0.20044400  0.62479100  1
  F  F28  1  0.48087000  0.70044400  0.87520900  1
  F  F29  1  0.98087000  0.29955600  0.12479100  1
  F  F30  1  0.51913000  0.20044400  0.62479100  1
  F  F31  1  0.01913000  0.79955600  0.37520900  1
  F  F32  1  0.25000000  0.50634100  0.35987500  1
  F  F33  1  0.75000000  0.49365900  0.64012500  1
  F  F34  1  0.75000000  0.00634100  0.14012500  1
  F  F35  1  0.25000000  0.99365900  0.85987500  1
  F  F36  1  0.25000000  0.98358300  0.15961700  1
  F  F37  1  0.75000000  0.01641700  0.84038300  1
  F  F38  1  0.75000000  0.48358300  0.34038300  1
  F  F39  1  0.25000000  0.51641700  0.65961700  1
  F  F40  1  0.25000000  0.05166800  0.46560800  1
  F  F41  1  0.75000000  0.94833200  0.53439200  1
  F  F42  1  0.75000000  0.55166800  0.03439200  1
  F  F43  1  0.25000000  0.44833200  0.96560800  1
