# generated using pymatgen
data_Tm2InNi2
_symmetry_space_group_name_H-M   'P 1'
_cell_length_a   7.28204868
_cell_length_b   7.28204868
_cell_length_c   3.54017300
_cell_angle_alpha   90.00000000
_cell_angle_beta   90.00000000
_cell_angle_gamma   148.41241274
_symmetry_Int_Tables_number   1
_chemical_formula_structural   Tm2InNi2
_chemical_formula_sum   'Tm2 In1 Ni2'
_cell_volume   98.33276993
_cell_formula_units_Z   1
loop_
 _symmetry_equiv_pos_site_id
 _symmetry_equiv_pos_as_xyz
  1  'x, y, z'
loop_
 _atom_site_type_symbol
 _atom_site_label
 _atom_site_symmetry_multiplicity
 _atom_site_fract_x
 _atom_site_fract_y
 _atom_site_fract_z
 _atom_site_occupancy
  Tm  Tm0  1  0.36012000  0.63988000  0.50000000  1
  Tm  Tm1  1  0.63988000  0.36012000  0.50000000  1
  In  In2  1  0.00000000  0.00000000  0.00000000  1
  Ni  Ni3  1  0.19787700  0.80212300  0.00000000  1
  Ni  Ni4  1  0.80212300  0.19787700  0.00000000  1
