# generated using pymatgen
data_Zn53Co7
_symmetry_space_group_name_H-M   'P 1'
_cell_length_a   7.71853500
_cell_length_b   11.25148200
_cell_length_c   11.26504279
_cell_angle_alpha   60.18954267
_cell_angle_beta   90.00000000
_cell_angle_gamma   90.00000000
_symmetry_Int_Tables_number   1
_chemical_formula_structural   Zn53Co7
_chemical_formula_sum   'Zn53 Co7'
_cell_volume   848.85674584
_cell_formula_units_Z   1
loop_
 _symmetry_equiv_pos_site_id
 _symmetry_equiv_pos_as_xyz
  1  'x, y, z'
loop_
 _atom_site_type_symbol
 _atom_site_label
 _atom_site_symmetry_multiplicity
 _atom_site_fract_x
 _atom_site_fract_y
 _atom_site_fract_z
 _atom_site_occupancy
  Zn  Zn0  1  0.42746400  0.11115200  0.51741600  1
  Zn  Zn1  1  0.76164200  0.37119400  0.11124900  1
  Zn  Zn2  1  0.09474200  0.51618700  0.37237300  1
  Zn  Zn3  1  0.42746400  0.88884800  0.48258400  1
  Zn  Zn4  1  0.76164200  0.62880600  0.88875100  1
  Zn  Zn5  1  0.09474200  0.48381300  0.62762700  1
  Zn  Zn6  1  0.69555200  0.51653900  0.37491500  1
  Zn  Zn7  1  0.02891800  0.10912600  0.51524900  1
  Zn  Zn8  1  0.36212000  0.37462100  0.10841100  1
  Zn  Zn9  1  0.69555200  0.48346100  0.62508500  1
  Zn  Zn10  1  0.02891800  0.89087400  0.48475100  1
  Zn  Zn11  1  0.36212000  0.62537900  0.89158900  1
  Zn  Zn12  1  0.22645800  0.26776800  0.57648100  1
  Zn  Zn13  1  0.55982000  0.15653800  0.26849800  1
  Zn  Zn14  1  0.89284600  0.57622400  0.15580700  1
  Zn  Zn15  1  0.22645800  0.73223200  0.42351900  1
  Zn  Zn16  1  0.55982000  0.84346200  0.73150200  1
  Zn  Zn17  1  0.89284600  0.42377600  0.84419300  1
  Zn  Zn18  1  0.72053300  0.21692400  0.81091600  1
  Zn  Zn19  1  0.05878300  0.97115400  0.22160000  1
  Zn  Zn20  1  0.39512600  0.81001500  0.97321500  1
  Zn  Zn21  1  0.72053300  0.78307600  0.18908400  1
  Zn  Zn22  1  0.05878300  0.02884600  0.77840000  1
  Zn  Zn23  1  0.39512600  0.18998500  0.02678500  1
  Zn  Zn24  1  0.40261800  0.38379500  0.33868500  1
  Zn  Zn25  1  0.73669600  0.27765900  0.38368100  1
  Zn  Zn26  1  0.06939100  0.33891700  0.27716900  1
  Zn  Zn27  1  0.40261800  0.61620500  0.66131500  1
  Zn  Zn28  1  0.73669600  0.72234100  0.61631900  1
  Zn  Zn29  1  0.06939100  0.66108300  0.72283100  1
  Zn  Zn30  1  0.39951200  0.50000000  0.50000000  1
  Zn  Zn31  1  0.73324300  0.00000000  0.50000000  1
  Zn  Zn32  1  0.06618500  0.50000000  0.00000000  1
  Zn  Zn33  1  0.89691200  0.31335800  0.57342100  1
  Zn  Zn34  1  0.23058900  0.11344200  0.31322400  1
  Zn  Zn35  1  0.56379300  0.57232400  0.11365600  1
  Zn  Zn36  1  0.89691200  0.68664200  0.42657900  1
  Zn  Zn37  1  0.23058900  0.88655800  0.68677600  1
  Zn  Zn38  1  0.56379300  0.42767600  0.88634400  1
  Zn  Zn39  1  0.40393700  0.31265700  0.75676600  1
  Zn  Zn40  1  0.73663600  0.93069400  0.31241800  1
  Zn  Zn41  1  0.07014400  0.75622300  0.93066500  1
  Zn  Zn42  1  0.40393700  0.68734300  0.24323400  1
  Zn  Zn43  1  0.73663600  0.06930600  0.68758200  1
  Zn  Zn44  1  0.07014400  0.24377700  0.06933500  1
  Zn  Zn45  1  0.89894200  0.00000000  0.00000000  1
  Zn  Zn46  1  0.24111400  0.00000000  0.00000000  1
  Zn  Zn47  1  0.41895300  0.06736900  0.77417600  1
  Zn  Zn48  1  0.74389900  0.15860600  0.06778100  1
  Zn  Zn49  1  0.08079400  0.76949100  0.16307500  1
  Zn  Zn50  1  0.41895300  0.93263100  0.22582400  1
  Zn  Zn51  1  0.74389900  0.84139400  0.93221900  1
  Zn  Zn52  1  0.08079400  0.23050900  0.83692500  1
  Co  Co53  1  0.56570800  0.28411600  0.57549700  1
  Co  Co54  1  0.89876600  0.13972100  0.28384600  1
  Co  Co55  1  0.23289600  0.57572200  0.14008100  1
  Co  Co56  1  0.56570800  0.71588400  0.42450300  1
  Co  Co57  1  0.89876600  0.86027900  0.71615400  1
  Co  Co58  1  0.23289600  0.42427800  0.85991900  1
  Co  Co59  1  0.56983900  0.00000000  0.00000000  1
