# generated using pymatgen
data_Mn3Zn2O8
_symmetry_space_group_name_H-M   'P 1'
_cell_length_a   5.77342412
_cell_length_b   5.77342412
_cell_length_c   4.97342217
_cell_angle_alpha   78.00816305
_cell_angle_beta   78.00816305
_cell_angle_gamma   60.08612260
_symmetry_Int_Tables_number   1
_chemical_formula_structural   Mn3Zn2O8
_chemical_formula_sum   'Mn3 Zn2 O8'
_cell_volume   139.49050767
_cell_formula_units_Z   1
loop_
 _symmetry_equiv_pos_site_id
 _symmetry_equiv_pos_as_xyz
  1  'x, y, z'
loop_
 _atom_site_type_symbol
 _atom_site_label
 _atom_site_symmetry_multiplicity
 _atom_site_fract_x
 _atom_site_fract_y
 _atom_site_fract_z
 _atom_site_occupancy
  Mn  Mn0  1  0.00000000  0.00000000  0.00000000  1
  Mn  Mn1  1  0.74407900  0.25592100  0.50000000  1
  Mn  Mn2  1  0.25592100  0.74407900  0.50000000  1
  Zn  Zn3  1  0.28821800  0.28821800  0.11910800  1
  Zn  Zn4  1  0.71178200  0.71178200  0.88089200  1
  O  O5  1  0.60725100  0.60725100  0.58883400  1
  O  O6  1  0.39274900  0.39274900  0.41116600  1
  O  O7  1  0.10076800  0.10076800  0.61990000  1
  O  O8  1  0.89923200  0.89923200  0.38010000  1
  O  O9  1  0.11192700  0.65843000  0.87557500  1
  O  O10  1  0.65843000  0.11192700  0.87557500  1
  O  O11  1  0.34157000  0.88807300  0.12442500  1
  O  O12  1  0.88807300  0.34157000  0.12442500  1
