# generated using pymatgen
data_Lu10Ni28As19
_symmetry_space_group_name_H-M   'P 1'
_cell_length_a   16.01467665
_cell_length_b   16.01467665
_cell_length_c   3.84314000
_cell_angle_alpha   90.00000000
_cell_angle_beta   90.00000000
_cell_angle_gamma   120.00000269
_symmetry_Int_Tables_number   1
_chemical_formula_structural   Lu10Ni28As19
_chemical_formula_sum   'Lu10 Ni28 As19'
_cell_volume   853.59757778
_cell_formula_units_Z   1
loop_
 _symmetry_equiv_pos_site_id
 _symmetry_equiv_pos_as_xyz
  1  'x, y, z'
loop_
 _atom_site_type_symbol
 _atom_site_label
 _atom_site_symmetry_multiplicity
 _atom_site_fract_x
 _atom_site_fract_y
 _atom_site_fract_z
 _atom_site_occupancy
  Lu  Lu0  1  0.03417700  0.30245300  0.50000000  1
  Lu  Lu1  1  0.69754700  0.73172500  0.50000000  1
  Lu  Lu2  1  0.26827500  0.96582300  0.50000000  1
  Lu  Lu3  1  0.53114500  0.34333300  0.00000000  1
  Lu  Lu4  1  0.65666700  0.18781200  0.00000000  1
  Lu  Lu5  1  0.81218800  0.46885500  0.00000000  1
  Lu  Lu6  1  0.33333300  0.66666700  0.00000000  1
  Lu  Lu7  1  0.15265300  0.13145400  0.50000000  1
  Lu  Lu8  1  0.86854600  0.02119900  0.50000000  1
  Lu  Lu9  1  0.97880100  0.84734700  0.50000000  1
  Ni  Ni10  1  0.42814000  0.10644300  0.00000000  1
  Ni  Ni11  1  0.89355700  0.32169700  0.00000000  1
  Ni  Ni12  1  0.67830300  0.57186000  0.00000000  1
  Ni  Ni13  1  0.15992000  0.53537200  0.50000000  1
  Ni  Ni14  1  0.46462800  0.62454800  0.50000000  1
  Ni  Ni15  1  0.37545200  0.84008000  0.50000000  1
  Ni  Ni16  1  0.31326200  0.27704300  0.00000000  1
  Ni  Ni17  1  0.72295700  0.03621800  0.00000000  1
  Ni  Ni18  1  0.96378200  0.68673800  0.00000000  1
  Ni  Ni19  1  0.37419800  0.19668700  0.50000000  1
  Ni  Ni20  1  0.80331300  0.17751200  0.50000000  1
  Ni  Ni21  1  0.82248800  0.62580200  0.50000000  1
  Ni  Ni22  1  0.01458000  0.14911400  0.00000000  1
  Ni  Ni23  1  0.85088600  0.86546600  0.00000000  1
  Ni  Ni24  1  0.13453400  0.98542000  0.00000000  1
  Ni  Ni25  1  0.20058200  0.44124500  0.00000000  1
  Ni  Ni26  1  0.55875500  0.75933700  0.00000000  1
  Ni  Ni27  1  0.24066300  0.79941800  0.00000000  1
  Ni  Ni28  1  0.49123700  0.03322000  0.50000000  1
  Ni  Ni29  1  0.96678000  0.45801700  0.50000000  1
  Ni  Ni30  1  0.54198300  0.50876300  0.50000000  1
  Ni  Ni31  1  0.25506200  0.35479500  0.50000000  1
  Ni  Ni32  1  0.64520500  0.90026700  0.50000000  1
  Ni  Ni33  1  0.09973300  0.74493800  0.50000000  1
  Ni  Ni34  1  0.66666700  0.33333300  0.50000000  1
  Ni  Ni35  1  0.38797100  0.46877300  0.00000000  1
  Ni  Ni36  1  0.53122700  0.91919900  0.00000000  1
  Ni  Ni37  1  0.08080100  0.61202900  0.00000000  1
  As  As38  1  0.00000000  0.00000000  0.00000000  1
  As  As39  1  0.40363200  0.35855500  0.50000000  1
  As  As40  1  0.64144500  0.04507700  0.50000000  1
  As  As41  1  0.95492300  0.59636800  0.50000000  1
  As  As42  1  0.51979300  0.19478300  0.50000000  1
  As  As43  1  0.80521700  0.32501000  0.50000000  1
  As  As44  1  0.67499000  0.48020700  0.50000000  1
  As  As45  1  0.29920200  0.51607600  0.50000000  1
  As  As46  1  0.48392400  0.78312600  0.50000000  1
  As  As47  1  0.21687400  0.70079800  0.50000000  1
  As  As48  1  0.05619400  0.45141200  0.00000000  1
  As  As49  1  0.54858800  0.60478200  0.00000000  1
  As  As50  1  0.39521800  0.94380600  0.00000000  1
  As  As51  1  0.16376800  0.27630400  0.00000000  1
  As  As52  1  0.72369600  0.88746400  0.00000000  1
  As  As53  1  0.11253600  0.83623200  0.00000000  1
  As  As54  1  0.28356500  0.11518700  0.00000000  1
  As  As55  1  0.88481300  0.16837700  0.00000000  1
  As  As56  1  0.83162300  0.71643500  0.00000000  1
