# generated using pymatgen
data_CaAs3
_symmetry_space_group_name_H-M   'P 1'
_cell_length_a   5.88128500
_cell_length_b   5.92679068
_cell_length_c   5.99021593
_cell_angle_alpha   80.09653469
_cell_angle_beta   70.65490142
_cell_angle_gamma   75.48362225
_symmetry_Int_Tables_number   1
_chemical_formula_structural   CaAs3
_chemical_formula_sum   'Ca2 As6'
_cell_volume   189.81692196
_cell_formula_units_Z   2
loop_
 _symmetry_equiv_pos_site_id
 _symmetry_equiv_pos_as_xyz
  1  'x, y, z'
loop_
 _atom_site_type_symbol
 _atom_site_label
 _atom_site_symmetry_multiplicity
 _atom_site_fract_x
 _atom_site_fract_y
 _atom_site_fract_z
 _atom_site_occupancy
  Ca  Ca0  1  0.66064500  0.68387800  0.63213400  1
  Ca  Ca1  1  0.33935500  0.31612200  0.36786600  1
  As  As2  1  0.77911700  0.01194300  0.01584500  1
  As  As3  1  0.22088300  0.98805700  0.98415500  1
  As  As4  1  0.18967100  0.85507300  0.40825600  1
  As  As5  1  0.81032900  0.14492700  0.59174400  1
  As  As6  1  0.77909900  0.58915700  0.09941000  1
  As  As7  1  0.22090100  0.41084300  0.90059000  1
