# generated using pymatgen
data_USO6
_symmetry_space_group_name_H-M   'P 1'
_cell_length_a   6.01857900
_cell_length_b   6.82681900
_cell_length_c   12.96566552
_cell_angle_alpha   76.73685940
_cell_angle_beta   90.00000000
_cell_angle_gamma   90.00000000
_symmetry_Int_Tables_number   1
_chemical_formula_structural   USO6
_chemical_formula_sum   'U4 S4 O24'
_cell_volume   518.52033122
_cell_formula_units_Z   4
loop_
 _symmetry_equiv_pos_site_id
 _symmetry_equiv_pos_as_xyz
  1  'x, y, z'
loop_
 _atom_site_type_symbol
 _atom_site_label
 _atom_site_symmetry_multiplicity
 _atom_site_fract_x
 _atom_site_fract_y
 _atom_site_fract_z
 _atom_site_occupancy
  U  U0  1  0.25347300  0.32178400  0.83929100  1
  U  U1  1  0.75347300  0.67821600  0.66070900  1
  U  U2  1  0.74652700  0.67821600  0.16070900  1
  U  U3  1  0.24652700  0.32178400  0.33929100  1
  S  S4  1  0.95823100  0.21484600  0.60614700  1
  S  S5  1  0.45823100  0.78515400  0.89385300  1
  S  S6  1  0.04176900  0.78515400  0.39385300  1
  S  S7  1  0.54176900  0.21484600  0.10614700  1
  O  O8  1  0.99667700  0.24661300  0.90609100  1
  O  O9  1  0.49667700  0.75338700  0.59390900  1
  O  O10  1  0.00332300  0.75338700  0.09390900  1
  O  O11  1  0.50332300  0.24661300  0.40609100  1
  O  O12  1  0.01422300  0.59016700  0.73101800  1
  O  O13  1  0.51422300  0.40983300  0.76898200  1
  O  O14  1  0.98577700  0.40983300  0.26898200  1
  O  O15  1  0.48577700  0.59016700  0.23101800  1
  O  O16  1  0.20704400  0.62021200  0.40083700  1
  O  O17  1  0.70704400  0.37978800  0.09916300  1
  O  O18  1  0.79295600  0.37978800  0.59916300  1
  O  O19  1  0.29295600  0.62021200  0.90083700  1
  O  O20  1  0.05483900  0.22541000  0.50012900  1
  O  O21  1  0.55483900  0.77459000  0.99987100  1
  O  O22  1  0.94516100  0.77459000  0.49987100  1
  O  O23  1  0.44516100  0.22541000  0.00012900  1
  O  O24  1  0.15501200  0.98040700  0.35661200  1
  O  O25  1  0.65501200  0.01959300  0.14338800  1
  O  O26  1  0.84498800  0.01959300  0.64338800  1
  O  O27  1  0.34498800  0.98040700  0.85661200  1
  O  O28  1  0.36121600  0.23537600  0.18101600  1
  O  O29  1  0.86121600  0.76462400  0.31898400  1
  O  O30  1  0.63878400  0.76462400  0.81898400  1
  O  O31  1  0.13878400  0.23537600  0.68101600  1
