# generated using pymatgen
data_Lu3(P3Pd10)2
_symmetry_space_group_name_H-M   'P 1'
_cell_length_a   8.65202564
_cell_length_b   8.65202564
_cell_length_c   8.65202564
_cell_angle_alpha   60.00000000
_cell_angle_beta   60.00000000
_cell_angle_gamma   60.00000000
_symmetry_Int_Tables_number   1
_chemical_formula_structural   Lu3(P3Pd10)2
_chemical_formula_sum   'Lu3 P6 Pd20'
_cell_volume   457.97143991
_cell_formula_units_Z   1
loop_
 _symmetry_equiv_pos_site_id
 _symmetry_equiv_pos_as_xyz
  1  'x, y, z'
loop_
 _atom_site_type_symbol
 _atom_site_label
 _atom_site_symmetry_multiplicity
 _atom_site_fract_x
 _atom_site_fract_y
 _atom_site_fract_z
 _atom_site_occupancy
  Lu  Lu0  1  0.25000000  0.25000000  0.25000000  1
  Lu  Lu1  1  0.75000000  0.75000000  0.75000000  1
  Lu  Lu2  1  0.00000000  0.00000000  0.00000000  1
  P  P3  1  0.73514800  0.26485200  0.26485200  1
  P  P4  1  0.26485200  0.73514800  0.73514800  1
  P  P5  1  0.26485200  0.73514800  0.26485200  1
  P  P6  1  0.73514800  0.26485200  0.73514800  1
  P  P7  1  0.26485200  0.26485200  0.73514800  1
  P  P8  1  0.73514800  0.73514800  0.26485200  1
  Pd  Pd9  1  0.38317500  0.38317500  0.38317500  1
  Pd  Pd10  1  0.61682500  0.61682500  0.61682500  1
  Pd  Pd11  1  0.38317500  0.38317500  0.85047400  1
  Pd  Pd12  1  0.38317500  0.85047400  0.38317500  1
  Pd  Pd13  1  0.61682500  0.61682500  0.14952600  1
  Pd  Pd14  1  0.61682500  0.14952600  0.61682500  1
  Pd  Pd15  1  0.85047400  0.38317500  0.38317500  1
  Pd  Pd16  1  0.14952600  0.61682500  0.61682500  1
  Pd  Pd17  1  0.34388900  0.00000000  0.00000000  1
  Pd  Pd18  1  0.65611100  0.00000000  0.00000000  1
  Pd  Pd19  1  0.00000000  0.34388900  0.65611100  1
  Pd  Pd20  1  0.00000000  0.65611100  0.34388900  1
  Pd  Pd21  1  0.00000000  0.34388900  0.00000000  1
  Pd  Pd22  1  0.65611100  0.00000000  0.34388900  1
  Pd  Pd23  1  0.00000000  0.65611100  0.00000000  1
  Pd  Pd24  1  0.34388900  0.00000000  0.65611100  1
  Pd  Pd25  1  0.00000000  0.00000000  0.34388900  1
  Pd  Pd26  1  0.00000000  0.00000000  0.65611100  1
  Pd  Pd27  1  0.65611100  0.34388900  0.00000000  1
  Pd  Pd28  1  0.34388900  0.65611100  0.00000000  1
