# generated using pymatgen
data_NaNbGeO5
_symmetry_space_group_name_H-M   'P 1'
_cell_length_a   9.01560000
_cell_length_b   6.94461500
_cell_length_c   7.69789730
_cell_angle_alpha   64.19000714
_cell_angle_beta   90.00000000
_cell_angle_gamma   90.00000000
_symmetry_Int_Tables_number   1
_chemical_formula_structural   NaNbGeO5
_chemical_formula_sum   'Na4 Nb4 Ge4 O20'
_cell_volume   433.88496596
_cell_formula_units_Z   4
loop_
 _symmetry_equiv_pos_site_id
 _symmetry_equiv_pos_as_xyz
  1  'x, y, z'
loop_
 _atom_site_type_symbol
 _atom_site_label
 _atom_site_symmetry_multiplicity
 _atom_site_fract_x
 _atom_site_fract_y
 _atom_site_fract_z
 _atom_site_occupancy
  Na  Na0  1  0.58072100  0.24112400  0.79599200  1
  Na  Na1  1  0.41927900  0.75887600  0.20400800  1
  Na  Na2  1  0.08072100  0.75887600  0.70400800  1
  Na  Na3  1  0.91927900  0.24112400  0.29599200  1
  Nb  Nb4  1  0.73856300  0.74089700  0.47813700  1
  Nb  Nb5  1  0.26143700  0.25910300  0.52186300  1
  Nb  Nb6  1  0.76143700  0.74089700  0.97813700  1
  Nb  Nb7  1  0.23856300  0.25910300  0.02186300  1
  Ge  Ge8  1  0.06367600  0.75419600  0.24818700  1
  Ge  Ge9  1  0.43632400  0.75419600  0.74818700  1
  Ge  Ge10  1  0.93632400  0.24580400  0.75181300  1
  Ge  Ge11  1  0.56367600  0.24580400  0.25181300  1
  O  O12  1  0.54781800  0.84519700  0.88771100  1
  O  O13  1  0.04781800  0.15480300  0.61228900  1
  O  O14  1  0.45218200  0.15480300  0.11228900  1
  O  O15  1  0.95218200  0.84519700  0.38771100  1
  O  O16  1  0.95401100  0.64217600  0.12449700  1
  O  O17  1  0.45401100  0.35782400  0.37550300  1
  O  O18  1  0.04598900  0.35782400  0.87550300  1
  O  O19  1  0.54598900  0.64217600  0.62449700  1
  O  O20  1  0.68252500  0.04636700  0.41449900  1
  O  O21  1  0.18252500  0.95363300  0.08550100  1
  O  O22  1  0.31747500  0.95363300  0.58550100  1
  O  O23  1  0.81747500  0.04636700  0.91449900  1
  O  O24  1  0.67856600  0.74657900  0.24837300  1
  O  O25  1  0.17856600  0.25342100  0.25162700  1
  O  O26  1  0.32143400  0.25342100  0.75162700  1
  O  O27  1  0.82143400  0.74657900  0.74837300  1
  O  O28  1  0.69003600  0.43781400  0.09402000  1
  O  O29  1  0.19003600  0.56218600  0.40598000  1
  O  O30  1  0.30996400  0.56218600  0.90598000  1
  O  O31  1  0.80996400  0.43781400  0.59402000  1
