# generated using pymatgen
data_Tb2Fe14C
_symmetry_space_group_name_H-M   'P 1'
_cell_length_a   8.72904100
_cell_length_b   8.72904100
_cell_length_c   11.77236900
_cell_angle_alpha   90.00000000
_cell_angle_beta   90.00000000
_cell_angle_gamma   90.00000000
_symmetry_Int_Tables_number   1
_chemical_formula_structural   Tb2Fe14C
_chemical_formula_sum   'Tb8 Fe56 C4'
_cell_volume   897.00927399
_cell_formula_units_Z   4
loop_
 _symmetry_equiv_pos_site_id
 _symmetry_equiv_pos_as_xyz
  1  'x, y, z'
loop_
 _atom_site_type_symbol
 _atom_site_label
 _atom_site_symmetry_multiplicity
 _atom_site_fract_x
 _atom_site_fract_y
 _atom_site_fract_z
 _atom_site_occupancy
  Tb  Tb0  1  0.24109400  0.75890600  0.50000000  1
  Tb  Tb1  1  0.75890600  0.24109400  0.50000000  1
  Tb  Tb2  1  0.25890600  0.25890600  0.00000000  1
  Tb  Tb3  1  0.74109400  0.74109400  0.00000000  1
  Tb  Tb4  1  0.64392000  0.64392000  0.50000000  1
  Tb  Tb5  1  0.35608000  0.35608000  0.50000000  1
  Tb  Tb6  1  0.85608000  0.14392000  0.00000000  1
  Tb  Tb7  1  0.14392000  0.85608000  0.00000000  1
  Fe  Fe8  1  0.00000000  0.50000000  0.50000000  1
  Fe  Fe9  1  0.50000000  0.00000000  0.00000000  1
  Fe  Fe10  1  0.50000000  0.00000000  0.50000000  1
  Fe  Fe11  1  0.00000000  0.50000000  0.00000000  1
  Fe  Fe12  1  0.50000000  0.50000000  0.10641100  1
  Fe  Fe13  1  0.00000000  0.00000000  0.60641100  1
  Fe  Fe14  1  0.50000000  0.50000000  0.89358900  1
  Fe  Fe15  1  0.00000000  0.00000000  0.39358900  1
  Fe  Fe16  1  0.18301100  0.81698900  0.25498100  1
  Fe  Fe17  1  0.81698900  0.18301100  0.25498100  1
  Fe  Fe18  1  0.31698900  0.31698900  0.75498100  1
  Fe  Fe19  1  0.68301100  0.68301100  0.75498100  1
  Fe  Fe20  1  0.81698900  0.18301100  0.74501900  1
  Fe  Fe21  1  0.18301100  0.81698900  0.74501900  1
  Fe  Fe22  1  0.68301100  0.68301100  0.24501900  1
  Fe  Fe23  1  0.31698900  0.31698900  0.24501900  1
  Fe  Fe24  1  0.40267900  0.59732100  0.29577800  1
  Fe  Fe25  1  0.59732100  0.40267900  0.29577800  1
  Fe  Fe26  1  0.09732100  0.09732100  0.79577800  1
  Fe  Fe27  1  0.90267900  0.90267900  0.79577800  1
  Fe  Fe28  1  0.59732100  0.40267900  0.70422200  1
  Fe  Fe29  1  0.40267900  0.59732100  0.70422200  1
  Fe  Fe30  1  0.90267900  0.90267900  0.20422200  1
  Fe  Fe31  1  0.09732100  0.09732100  0.20422200  1
  Fe  Fe32  1  0.14146900  0.53568400  0.32432100  1
  Fe  Fe33  1  0.85853100  0.46431600  0.32432100  1
  Fe  Fe34  1  0.35853100  0.03568400  0.82432100  1
  Fe  Fe35  1  0.64146900  0.96431600  0.82432100  1
  Fe  Fe36  1  0.85853100  0.46431600  0.67567900  1
  Fe  Fe37  1  0.14146900  0.53568400  0.67567900  1
  Fe  Fe38  1  0.64146900  0.96431600  0.17567900  1
  Fe  Fe39  1  0.35853100  0.03568400  0.17567900  1
  Fe  Fe40  1  0.53568400  0.14146900  0.32432100  1
  Fe  Fe41  1  0.46431600  0.85853100  0.32432100  1
  Fe  Fe42  1  0.03568400  0.35853100  0.82432100  1
  Fe  Fe43  1  0.96431600  0.64146900  0.82432100  1
  Fe  Fe44  1  0.46431600  0.85853100  0.67567900  1
  Fe  Fe45  1  0.53568400  0.14146900  0.67567900  1
  Fe  Fe46  1  0.96431600  0.64146900  0.17567900  1
  Fe  Fe47  1  0.03568400  0.35853100  0.17567900  1
  Fe  Fe48  1  0.93533400  0.72587800  0.37934900  1
  Fe  Fe49  1  0.06466600  0.27412200  0.37934900  1
  Fe  Fe50  1  0.56466600  0.22587800  0.87934900  1
  Fe  Fe51  1  0.43533400  0.77412200  0.87934900  1
  Fe  Fe52  1  0.06466600  0.27412200  0.62065100  1
  Fe  Fe53  1  0.93533400  0.72587800  0.62065100  1
  Fe  Fe54  1  0.43533400  0.77412200  0.12065100  1
  Fe  Fe55  1  0.56466600  0.22587800  0.12065100  1
  Fe  Fe56  1  0.72587800  0.93533400  0.37934900  1
  Fe  Fe57  1  0.27412200  0.06466600  0.37934900  1
  Fe  Fe58  1  0.22587800  0.56466600  0.87934900  1
  Fe  Fe59  1  0.77412200  0.43533400  0.87934900  1
  Fe  Fe60  1  0.27412200  0.06466600  0.62065100  1
  Fe  Fe61  1  0.72587800  0.93533400  0.62065100  1
  Fe  Fe62  1  0.77412200  0.43533400  0.12065100  1
  Fe  Fe63  1  0.22587800  0.56466600  0.12065100  1
  C  C64  1  0.87100100  0.87100100  0.50000000  1
  C  C65  1  0.12899900  0.12899900  0.50000000  1
  C  C66  1  0.62899900  0.37100100  0.00000000  1
  C  C67  1  0.37100100  0.62899900  0.00000000  1
