# generated using pymatgen
data_LiVZnO4
_symmetry_space_group_name_H-M   'P 1'
_cell_length_a   8.90811041
_cell_length_b   8.90811041
_cell_length_c   8.90811057
_cell_angle_alpha   107.82562209
_cell_angle_beta   107.82562209
_cell_angle_gamma   107.82563342
_symmetry_Int_Tables_number   1
_chemical_formula_structural   LiVZnO4
_chemical_formula_sum   'Li6 V6 Zn6 O24'
_cell_volume   574.93729658
_cell_formula_units_Z   6
loop_
 _symmetry_equiv_pos_site_id
 _symmetry_equiv_pos_as_xyz
  1  'x, y, z'
loop_
 _atom_site_type_symbol
 _atom_site_label
 _atom_site_symmetry_multiplicity
 _atom_site_fract_x
 _atom_site_fract_y
 _atom_site_fract_z
 _atom_site_occupancy
  Li  Li0  1  0.20355800  0.43878300  0.61069000  1
  Li  Li1  1  0.43878300  0.61069000  0.20355800  1
  Li  Li2  1  0.61069000  0.20355800  0.43878300  1
  Li  Li3  1  0.89553200  0.72431600  0.12647700  1
  Li  Li4  1  0.72431600  0.12647700  0.89553200  1
  Li  Li5  1  0.12647700  0.89553200  0.72431600  1
  V  V6  1  0.53785600  0.76651100  0.94499100  1
  V  V7  1  0.76651100  0.94499100  0.53785600  1
  V  V8  1  0.94499100  0.53785600  0.76651100  1
  V  V9  1  0.46169700  0.23285300  0.05436700  1
  V  V10  1  0.23285300  0.05436700  0.46169700  1
  V  V11  1  0.05436700  0.46169700  0.23285300  1
  Zn  Zn12  1  0.79600900  0.56187300  0.38911000  1
  Zn  Zn13  1  0.56187300  0.38911000  0.79600900  1
  Zn  Zn14  1  0.38911000  0.79600900  0.56187300  1
  Zn  Zn15  1  0.10454500  0.27532400  0.87291500  1
  Zn  Zn16  1  0.27532400  0.87291500  0.10454500  1
  Zn  Zn17  1  0.87291500  0.10454500  0.27532400  1
  O  O18  1  0.39024000  0.68667600  0.72520600  1
  O  O19  1  0.68667600  0.72520600  0.39024000  1
  O  O20  1  0.72520600  0.39024000  0.68667600  1
  O  O21  1  0.61156400  0.31626700  0.27517200  1
  O  O22  1  0.31626700  0.27517200  0.61156400  1
  O  O23  1  0.27517200  0.61156400  0.31626700  1
  O  O24  1  0.69504700  0.98351400  0.02810400  1
  O  O25  1  0.98351400  0.02810400  0.69504700  1
  O  O26  1  0.02810400  0.69504700  0.98351400  1
  O  O27  1  0.30619400  0.01701800  0.97380700  1
  O  O28  1  0.01701800  0.97380700  0.30619400  1
  O  O29  1  0.97380700  0.30619400  0.01701800  1
  O  O30  1  0.42493200  0.75433100  0.07351800  1
  O  O31  1  0.75433100  0.07351800  0.42493200  1
  O  O32  1  0.07351800  0.42493200  0.75433100  1
  O  O33  1  0.57498800  0.24551900  0.92626300  1
  O  O34  1  0.24551900  0.92626300  0.57498800  1
  O  O35  1  0.92626300  0.57498800  0.24551900  1
  O  O36  1  0.64673300  0.63474100  0.96198200  1
  O  O37  1  0.63474100  0.96198200  0.64673300  1
  O  O38  1  0.96198200  0.64673300  0.63474100  1
  O  O39  1  0.35108800  0.36329100  0.03639600  1
  O  O40  1  0.36329100  0.03639600  0.35108800  1
  O  O41  1  0.03639600  0.35108800  0.36329100  1
