# generated using pymatgen
data_BaCu2SnS4
_symmetry_space_group_name_H-M   'P 1'
_cell_length_a   6.43650042
_cell_length_b   6.43650042
_cell_length_c   15.83099500
_cell_angle_alpha   90.00000000
_cell_angle_beta   90.00000000
_cell_angle_gamma   120.00000435
_symmetry_Int_Tables_number   1
_chemical_formula_structural   BaCu2SnS4
_chemical_formula_sum   'Ba3 Cu6 Sn3 S12'
_cell_volume   567.98704304
_cell_formula_units_Z   3
loop_
 _symmetry_equiv_pos_site_id
 _symmetry_equiv_pos_as_xyz
  1  'x, y, z'
loop_
 _atom_site_type_symbol
 _atom_site_label
 _atom_site_symmetry_multiplicity
 _atom_site_fract_x
 _atom_site_fract_y
 _atom_site_fract_z
 _atom_site_occupancy
  Ba  Ba0  1  0.42640200  0.42640200  0.50000000  1
  Ba  Ba1  1  0.00000000  0.57359800  0.16666700  1
  Ba  Ba2  1  0.57359800  0.00000000  0.83333300  1
  Cu  Cu3  1  0.36978200  0.43384000  0.74519900  1
  Cu  Cu4  1  0.93594200  0.56616000  0.92146800  1
  Cu  Cu5  1  0.43384000  0.36978200  0.25480100  1
  Cu  Cu6  1  0.06405800  0.63021800  0.41186500  1
  Cu  Cu7  1  0.56616000  0.93594200  0.07853200  1
  Cu  Cu8  1  0.63021800  0.06405800  0.58813500  1
  Sn  Sn9  1  0.70499200  0.00000000  0.33333300  1
  Sn  Sn10  1  0.00000000  0.70499200  0.66666700  1
  Sn  Sn11  1  0.29500800  0.29500800  0.00000000  1
  S  S12  1  0.76519500  0.65191000  0.33581900  1
  S  S13  1  0.88671500  0.23480500  0.00248600  1
  S  S14  1  0.34809000  0.11328500  0.66915300  1
  S  S15  1  0.11328500  0.34809000  0.33084700  1
  S  S16  1  0.23480500  0.88671500  0.99751400  1
  S  S17  1  0.65191000  0.76519500  0.66418100  1
  S  S18  1  0.93958700  0.44044700  0.54641000  1
  S  S19  1  0.50086000  0.06041300  0.21307700  1
  S  S20  1  0.06041300  0.50086000  0.78692300  1
  S  S21  1  0.44044700  0.93958700  0.45359000  1
  S  S22  1  0.49914000  0.55955300  0.12025700  1
  S  S23  1  0.55955300  0.49914000  0.87974300  1
