# generated using pymatgen
data_SmCrB4
_symmetry_space_group_name_H-M   'P 1'
_cell_length_a   3.51098300
_cell_length_b   5.99050400
_cell_length_c   11.58069900
_cell_angle_alpha   90.00000000
_cell_angle_beta   90.00000000
_cell_angle_gamma   90.00000000
_symmetry_Int_Tables_number   1
_chemical_formula_structural   SmCrB4
_chemical_formula_sum   'Sm4 Cr4 B16'
_cell_volume   243.57171999
_cell_formula_units_Z   4
loop_
 _symmetry_equiv_pos_site_id
 _symmetry_equiv_pos_as_xyz
  1  'x, y, z'
loop_
 _atom_site_type_symbol
 _atom_site_label
 _atom_site_symmetry_multiplicity
 _atom_site_fract_x
 _atom_site_fract_y
 _atom_site_fract_z
 _atom_site_occupancy
  Sm  Sm0  1  0.00000000  0.62451900  0.34887600  1
  Sm  Sm1  1  0.00000000  0.37548100  0.65112400  1
  Sm  Sm2  1  0.00000000  0.12451900  0.15112400  1
  Sm  Sm3  1  0.00000000  0.87548100  0.84887600  1
  Cr  Cr4  1  0.00000000  0.62096500  0.07830800  1
  Cr  Cr5  1  0.00000000  0.37903500  0.92169200  1
  Cr  Cr6  1  0.00000000  0.12096500  0.42169200  1
  Cr  Cr7  1  0.00000000  0.87903500  0.57830800  1
  B  B8  1  0.50000000  0.77857500  0.18247700  1
  B  B9  1  0.50000000  0.22142500  0.81752300  1
  B  B10  1  0.50000000  0.27857500  0.31752300  1
  B  B11  1  0.50000000  0.72142500  0.68247700  1
  B  B12  1  0.50000000  0.86071100  0.03268400  1
  B  B13  1  0.50000000  0.13928900  0.96731600  1
  B  B14  1  0.50000000  0.36071100  0.46731600  1
  B  B15  1  0.50000000  0.63928900  0.53268400  1
  B  B16  1  0.50000000  0.88821600  0.45390100  1
  B  B17  1  0.50000000  0.11178400  0.54609900  1
  B  B18  1  0.50000000  0.38821600  0.04609900  1
  B  B19  1  0.50000000  0.61178400  0.95390100  1
  B  B20  1  0.50000000  0.97656500  0.31010700  1
  B  B21  1  0.50000000  0.02343500  0.68989300  1
  B  B22  1  0.50000000  0.47656500  0.18989300  1
  B  B23  1  0.50000000  0.52343500  0.81010700  1
