# generated using pymatgen
data_Sr2SnS5
_symmetry_space_group_name_H-M   'P 1'
_cell_length_a   4.10740500
_cell_length_b   11.87012100
_cell_length_c   15.89418100
_cell_angle_alpha   90.00000000
_cell_angle_beta   90.00000000
_cell_angle_gamma   90.00000000
_symmetry_Int_Tables_number   1
_chemical_formula_structural   Sr2SnS5
_chemical_formula_sum   'Sr8 Sn4 S20'
_cell_volume   774.92706246
_cell_formula_units_Z   4
loop_
 _symmetry_equiv_pos_site_id
 _symmetry_equiv_pos_as_xyz
  1  'x, y, z'
loop_
 _atom_site_type_symbol
 _atom_site_label
 _atom_site_symmetry_multiplicity
 _atom_site_fract_x
 _atom_site_fract_y
 _atom_site_fract_z
 _atom_site_occupancy
  Sr  Sr0  1  0.97443700  0.74745900  0.42830600  1
  Sr  Sr1  1  0.97443700  0.25254100  0.57169400  1
  Sr  Sr2  1  0.02556300  0.24745900  0.07169400  1
  Sr  Sr3  1  0.02556300  0.75254100  0.92830600  1
  Sr  Sr4  1  0.00758700  0.87644400  0.17863000  1
  Sr  Sr5  1  0.00758700  0.12355600  0.82137000  1
  Sr  Sr6  1  0.99241300  0.37644400  0.32137000  1
  Sr  Sr7  1  0.99241300  0.62355600  0.67863000  1
  Sn  Sn8  1  0.53563800  0.06324200  0.37014400  1
  Sn  Sn9  1  0.53563800  0.93675800  0.62985600  1
  Sn  Sn10  1  0.46436200  0.56324200  0.12985600  1
  Sn  Sn11  1  0.46436200  0.43675800  0.87014400  1
  S  S12  1  0.49084000  0.54953600  0.39613300  1
  S  S13  1  0.49084000  0.45046400  0.60386700  1
  S  S14  1  0.50916000  0.04953600  0.10386700  1
  S  S15  1  0.50916000  0.95046400  0.89613300  1
  S  S16  1  0.11486800  0.50000000  0.00000000  1
  S  S17  1  0.88513200  0.00000000  0.50000000  1
  S  S18  1  0.47897600  0.86508200  0.32199900  1
  S  S19  1  0.47897600  0.13491800  0.67800100  1
  S  S20  1  0.52102400  0.36508200  0.17800100  1
  S  S21  1  0.52102400  0.63491800  0.82199900  1
  S  S22  1  0.00444900  0.61264400  0.22566100  1
  S  S23  1  0.00444900  0.38735600  0.77433900  1
  S  S24  1  0.99555100  0.11264400  0.27433900  1
  S  S25  1  0.99555100  0.88735600  0.72566100  1
  S  S26  1  0.46707400  0.25139700  0.43229000  1
  S  S27  1  0.46707400  0.74860300  0.56771000  1
  S  S28  1  0.53292600  0.75139700  0.06771000  1
  S  S29  1  0.53292600  0.24860300  0.93229000  1
  S  S30  1  0.76819300  0.50000000  0.50000000  1
  S  S31  1  0.23180700  0.00000000  0.00000000  1
