# generated using pymatgen
data_Nd3W(ClO2)3
_symmetry_space_group_name_H-M   'P 1'
_cell_length_a   9.36615151
_cell_length_b   9.36615151
_cell_length_c   5.41575500
_cell_angle_alpha   90.00000000
_cell_angle_beta   90.00000000
_cell_angle_gamma   119.99999653
_symmetry_Int_Tables_number   1
_chemical_formula_structural   Nd3W(ClO2)3
_chemical_formula_sum   'Nd6 W2 Cl6 O12'
_cell_volume   411.44521284
_cell_formula_units_Z   2
loop_
 _symmetry_equiv_pos_site_id
 _symmetry_equiv_pos_as_xyz
  1  'x, y, z'
loop_
 _atom_site_type_symbol
 _atom_site_label
 _atom_site_symmetry_multiplicity
 _atom_site_fract_x
 _atom_site_fract_y
 _atom_site_fract_z
 _atom_site_occupancy
  Nd  Nd0  1  0.90915200  0.59577900  0.75000000  1
  Nd  Nd1  1  0.09084800  0.40422100  0.25000000  1
  Nd  Nd2  1  0.68662600  0.09084800  0.75000000  1
  Nd  Nd3  1  0.31337400  0.90915200  0.25000000  1
  Nd  Nd4  1  0.40422100  0.31337400  0.75000000  1
  Nd  Nd5  1  0.59577900  0.68662600  0.25000000  1
  W  W6  1  0.33333300  0.66666700  0.75000000  1
  W  W7  1  0.66666700  0.33333300  0.25000000  1
  Cl  Cl8  1  0.76004800  0.80889600  0.75000000  1
  Cl  Cl9  1  0.23995200  0.19110400  0.25000000  1
  Cl  Cl10  1  0.04884800  0.23995200  0.75000000  1
  Cl  Cl11  1  0.95115200  0.76004800  0.25000000  1
  Cl  Cl12  1  0.19110400  0.95115200  0.75000000  1
  Cl  Cl13  1  0.80889600  0.04884800  0.25000000  1
  O  O14  1  0.47683300  0.84088300  0.98265600  1
  O  O15  1  0.52316700  0.15911700  0.01734400  1
  O  O16  1  0.36405000  0.52316700  0.98265600  1
  O  O17  1  0.52316700  0.15911700  0.48265600  1
  O  O18  1  0.63595000  0.47683300  0.01734400  1
  O  O19  1  0.47683300  0.84088300  0.51734400  1
  O  O20  1  0.15911700  0.63595000  0.98265600  1
  O  O21  1  0.63595000  0.47683300  0.48265600  1
  O  O22  1  0.84088300  0.36405000  0.01734400  1
  O  O23  1  0.36405000  0.52316700  0.51734400  1
  O  O24  1  0.84088300  0.36405000  0.48265600  1
  O  O25  1  0.15911700  0.63595000  0.51734400  1
