# generated using pymatgen
data_RbBaSc(SiO3)3
_symmetry_space_group_name_H-M   'P 1'
_cell_length_a   10.33175700
_cell_length_b   7.05323800
_cell_length_c   13.94898559
_cell_angle_alpha   59.67154923
_cell_angle_beta   90.00000000
_cell_angle_gamma   90.00000000
_symmetry_Int_Tables_number   1
_chemical_formula_structural   RbBaSc(SiO3)3
_chemical_formula_sum   'Rb4 Ba4 Sc4 Si12 O36'
_cell_volume   877.38269510
_cell_formula_units_Z   4
loop_
 _symmetry_equiv_pos_site_id
 _symmetry_equiv_pos_as_xyz
  1  'x, y, z'
loop_
 _atom_site_type_symbol
 _atom_site_label
 _atom_site_symmetry_multiplicity
 _atom_site_fract_x
 _atom_site_fract_y
 _atom_site_fract_z
 _atom_site_occupancy
  Rb  Rb0  1  0.05423900  0.66507200  0.07924400  1
  Rb  Rb1  1  0.44576100  0.66507200  0.57924400  1
  Rb  Rb2  1  0.94576100  0.33492800  0.92075600  1
  Rb  Rb3  1  0.55423900  0.33492800  0.42075600  1
  Ba  Ba4  1  0.94143500  0.32891100  0.41242000  1
  Ba  Ba5  1  0.55856500  0.32891100  0.91242000  1
  Ba  Ba6  1  0.05856500  0.67108900  0.58758000  1
  Ba  Ba7  1  0.44143500  0.67108900  0.08758000  1
  Sc  Sc8  1  0.00404300  0.02125300  0.73497000  1
  Sc  Sc9  1  0.49595700  0.02125300  0.23497000  1
  Sc  Sc10  1  0.99595700  0.97874700  0.26503000  1
  Sc  Sc11  1  0.50404300  0.97874700  0.76503000  1
  Si  Si12  1  0.76421400  0.86886600  0.94209000  1
  Si  Si13  1  0.73578600  0.86886600  0.44209000  1
  Si  Si14  1  0.23578600  0.13113400  0.05791000  1
  Si  Si15  1  0.26421400  0.13113400  0.55791000  1
  Si  Si16  1  0.75168300  0.38481500  0.12319800  1
  Si  Si17  1  0.74831700  0.38481500  0.62319800  1
  Si  Si18  1  0.24831700  0.61518500  0.87680200  1
  Si  Si19  1  0.25168300  0.61518500  0.37680200  1
  Si  Si20  1  0.75293000  0.75089000  0.18329200  1
  Si  Si21  1  0.74707000  0.75089000  0.68329200  1
  Si  Si22  1  0.24707000  0.24911000  0.81670800  1
  Si  Si23  1  0.25293000  0.24911000  0.31670800  1
  O  O24  1  0.87515600  0.00216200  0.85319300  1
  O  O25  1  0.62484400  0.00216200  0.35319300  1
  O  O26  1  0.12484400  0.99783800  0.14680700  1
  O  O27  1  0.37515600  0.99783800  0.64680700  1
  O  O28  1  0.61361500  0.93927000  0.90947200  1
  O  O29  1  0.88638500  0.93927000  0.40947200  1
  O  O30  1  0.38638500  0.06073000  0.09052800  1
  O  O31  1  0.11361500  0.06073000  0.59052800  1
  O  O32  1  0.78414000  0.59895800  0.99585500  1
  O  O33  1  0.71586000  0.59895800  0.49585500  1
  O  O34  1  0.21586000  0.40104200  0.00414500  1
  O  O35  1  0.28414000  0.40104200  0.50414500  1
  O  O36  1  0.79252300  0.90948600  0.04969200  1
  O  O37  1  0.70747700  0.90948600  0.54969200  1
  O  O38  1  0.20747700  0.09051400  0.95030800  1
  O  O39  1  0.29252300  0.09051400  0.45030800  1
  O  O40  1  0.87255700  0.22263000  0.15430500  1
  O  O41  1  0.62744300  0.22263000  0.65430500  1
  O  O42  1  0.12744300  0.77737000  0.84569500  1
  O  O43  1  0.37255700  0.77737000  0.34569500  1
  O  O44  1  0.60767800  0.30472900  0.11169500  1
  O  O45  1  0.89232200  0.30472900  0.61169500  1
  O  O46  1  0.39232200  0.69527100  0.88830500  1
  O  O47  1  0.10767800  0.69527100  0.38830500  1
  O  O48  1  0.74662000  0.49233900  0.20596600  1
  O  O49  1  0.75338000  0.49233900  0.70596600  1
  O  O50  1  0.25338000  0.50766100  0.79403400  1
  O  O51  1  0.24662000  0.50766100  0.29403400  1
  O  O52  1  0.87039800  0.74198900  0.26167200  1
  O  O53  1  0.62960200  0.74198900  0.76167200  1
  O  O54  1  0.12960200  0.25801100  0.73832800  1
  O  O55  1  0.37039800  0.25801100  0.23832800  1
  O  O56  1  0.60699100  0.80198900  0.20468700  1
  O  O57  1  0.89300900  0.80198900  0.70468700  1
  O  O58  1  0.39300900  0.19801100  0.79531300  1
  O  O59  1  0.10699100  0.19801100  0.29531300  1
