# generated using pymatgen
data_Ti2Ni(PO5)2
_symmetry_space_group_name_H-M   'P 1'
_cell_length_a   7.42977100
_cell_length_b   7.41667500
_cell_length_c   7.43819970
_cell_angle_alpha   60.23640186
_cell_angle_beta   90.00000000
_cell_angle_gamma   90.00000000
_symmetry_Int_Tables_number   1
_chemical_formula_structural   Ti2Ni(PO5)2
_chemical_formula_sum   'Ti4 Ni2 P4 O20'
_cell_volume   355.80559477
_cell_formula_units_Z   2
loop_
 _symmetry_equiv_pos_site_id
 _symmetry_equiv_pos_as_xyz
  1  'x, y, z'
loop_
 _atom_site_type_symbol
 _atom_site_label
 _atom_site_symmetry_multiplicity
 _atom_site_fract_x
 _atom_site_fract_y
 _atom_site_fract_z
 _atom_site_occupancy
  Ti  Ti0  1  0.22143000  0.76633700  0.70451900  1
  Ti  Ti1  1  0.72143000  0.23366300  0.79548100  1
  Ti  Ti2  1  0.77857000  0.23366300  0.29548100  1
  Ti  Ti3  1  0.27857000  0.76633700  0.20451900  1
  Ni  Ni4  1  0.50000000  0.50000000  0.00000000  1
  Ni  Ni5  1  0.00000000  0.50000000  0.50000000  1
  P  P6  1  0.37829800  0.25582600  0.49493200  1
  P  P7  1  0.87829800  0.74417400  0.00506800  1
  P  P8  1  0.62170200  0.74417400  0.50506800  1
  P  P9  1  0.12170200  0.25582600  0.99493200  1
  O  O10  1  0.15510500  0.73189900  0.49819900  1
  O  O11  1  0.65510500  0.26810100  0.00180100  1
  O  O12  1  0.84489500  0.26810100  0.50180100  1
  O  O13  1  0.34489500  0.73189900  0.99819900  1
  O  O14  1  0.50486400  0.28508100  0.31547800  1
  O  O15  1  0.00486400  0.71491900  0.18452200  1
  O  O16  1  0.49513600  0.71491900  0.68452200  1
  O  O17  1  0.99513600  0.28508100  0.81547800  1
  O  O18  1  0.24994100  0.44406400  0.41159900  1
  O  O19  1  0.74994100  0.55593600  0.08840100  1
  O  O20  1  0.75005900  0.55593600  0.58840100  1
  O  O21  1  0.25005900  0.44406400  0.91159900  1
  O  O22  1  0.49214100  0.23871100  0.67643600  1
  O  O23  1  0.99214100  0.76128900  0.82356400  1
  O  O24  1  0.50785900  0.76128900  0.32356400  1
  O  O25  1  0.00785900  0.23871100  0.17643600  1
  O  O26  1  0.26400100  0.05901000  0.57151500  1
  O  O27  1  0.76400100  0.94099000  0.92848500  1
  O  O28  1  0.73599900  0.94099000  0.42848500  1
  O  O29  1  0.23599900  0.05901000  0.07151500  1
