# generated using pymatgen
data_Pr23Cd4Ni7
_symmetry_space_group_name_H-M   'P 1'
_cell_length_a   9.91834635
_cell_length_b   9.91834635
_cell_length_c   22.42974200
_cell_angle_alpha   90.00000000
_cell_angle_beta   90.00000000
_cell_angle_gamma   120.00000231
_symmetry_Int_Tables_number   1
_chemical_formula_structural   Pr23Cd4Ni7
_chemical_formula_sum   'Pr46 Cd8 Ni14'
_cell_volume   1910.88010613
_cell_formula_units_Z   2
loop_
 _symmetry_equiv_pos_site_id
 _symmetry_equiv_pos_as_xyz
  1  'x, y, z'
loop_
 _atom_site_type_symbol
 _atom_site_label
 _atom_site_symmetry_multiplicity
 _atom_site_fract_x
 _atom_site_fract_y
 _atom_site_fract_z
 _atom_site_occupancy
  Pr  Pr0  1  0.20603300  0.41206500  0.71986600  1
  Pr  Pr1  1  0.20603300  0.79396700  0.71986600  1
  Pr  Pr2  1  0.79396700  0.58793500  0.21986600  1
  Pr  Pr3  1  0.58793500  0.79396700  0.71986600  1
  Pr  Pr4  1  0.79396700  0.20603300  0.21986600  1
  Pr  Pr5  1  0.41206500  0.20603300  0.21986600  1
  Pr  Pr6  1  0.79317200  0.58634300  0.94686400  1
  Pr  Pr7  1  0.79317200  0.20682800  0.94686400  1
  Pr  Pr8  1  0.20682800  0.41365700  0.44686400  1
  Pr  Pr9  1  0.41365700  0.20682800  0.94686400  1
  Pr  Pr10  1  0.20682800  0.79317200  0.44686400  1
  Pr  Pr11  1  0.58634300  0.79317200  0.44686400  1
  Pr  Pr12  1  0.21104400  0.42208800  0.99054000  1
  Pr  Pr13  1  0.21104400  0.78895600  0.99054000  1
  Pr  Pr14  1  0.78895600  0.57791200  0.49054000  1
  Pr  Pr15  1  0.57791200  0.78895600  0.99054000  1
  Pr  Pr16  1  0.78895600  0.21104400  0.49054000  1
  Pr  Pr17  1  0.42208800  0.21104400  0.49054000  1
  Pr  Pr18  1  0.87302400  0.74604800  0.63374800  1
  Pr  Pr19  1  0.87302400  0.12697600  0.63374800  1
  Pr  Pr20  1  0.12697600  0.25395200  0.13374800  1
  Pr  Pr21  1  0.25395200  0.12697600  0.63374800  1
  Pr  Pr22  1  0.12697600  0.87302400  0.13374800  1
  Pr  Pr23  1  0.74604800  0.87302400  0.13374800  1
  Pr  Pr24  1  0.45756100  0.91512300  0.85581100  1
  Pr  Pr25  1  0.45756100  0.54243900  0.85581100  1
  Pr  Pr26  1  0.54243900  0.08487700  0.35581100  1
  Pr  Pr27  1  0.08487700  0.54243900  0.85581100  1
  Pr  Pr28  1  0.54243900  0.45756100  0.35581100  1
  Pr  Pr29  1  0.91512300  0.45756100  0.35581100  1
  Pr  Pr30  1  0.00000000  0.00000000  0.99870100  1
  Pr  Pr31  1  0.00000000  0.00000000  0.49870100  1
  Pr  Pr32  1  0.46043900  0.92087900  0.58583200  1
  Pr  Pr33  1  0.46043900  0.53956100  0.58583200  1
  Pr  Pr34  1  0.53956100  0.07912100  0.08583200  1
  Pr  Pr35  1  0.07912100  0.53956100  0.58583200  1
  Pr  Pr36  1  0.53956100  0.46043900  0.08583200  1
  Pr  Pr37  1  0.92087900  0.46043900  0.08583200  1
  Pr  Pr38  1  0.79716600  0.59433300  0.78244200  1
  Pr  Pr39  1  0.79716600  0.20283400  0.78244200  1
  Pr  Pr40  1  0.20283400  0.40566700  0.28244200  1
  Pr  Pr41  1  0.40566700  0.20283400  0.78244200  1
  Pr  Pr42  1  0.20283400  0.79716600  0.28244200  1
  Pr  Pr43  1  0.59433300  0.79716600  0.28244200  1
  Pr  Pr44  1  0.66666700  0.33333300  0.64558600  1
  Pr  Pr45  1  0.33333300  0.66666700  0.14558600  1
  Cd  Cd46  1  0.00000000  0.00000000  0.74905400  1
  Cd  Cd47  1  0.00000000  0.00000000  0.24905400  1
  Cd  Cd48  1  0.10655700  0.21311300  0.86313200  1
  Cd  Cd49  1  0.10655700  0.89344300  0.86313200  1
  Cd  Cd50  1  0.89344300  0.78688700  0.36313200  1
  Cd  Cd51  1  0.78688700  0.89344300  0.86313200  1
  Cd  Cd52  1  0.89344300  0.10655700  0.36313200  1
  Cd  Cd53  1  0.21311300  0.10655700  0.36313200  1
  Ni  Ni54  1  0.52121100  0.04242200  0.71063700  1
  Ni  Ni55  1  0.52121100  0.47878900  0.71063700  1
  Ni  Ni56  1  0.47878900  0.95757800  0.21063700  1
  Ni  Ni57  1  0.95757800  0.47878900  0.71063700  1
  Ni  Ni58  1  0.47878900  0.52121100  0.21063700  1
  Ni  Ni59  1  0.04242200  0.52121100  0.21063700  1
  Ni  Ni60  1  0.66666700  0.33333300  0.86327000  1
  Ni  Ni61  1  0.33333300  0.66666700  0.36327000  1
  Ni  Ni62  1  0.14278000  0.28556000  0.56449700  1
  Ni  Ni63  1  0.14278000  0.85722000  0.56449700  1
  Ni  Ni64  1  0.85722000  0.71444000  0.06449700  1
  Ni  Ni65  1  0.71444000  0.85722000  0.56449700  1
  Ni  Ni66  1  0.85722000  0.14278000  0.06449700  1
  Ni  Ni67  1  0.28556000  0.14278000  0.06449700  1
