# generated using pymatgen
data_TaAgP4O13
_symmetry_space_group_name_H-M   'P 1'
_cell_length_a   7.20819700
_cell_length_b   8.41290500
_cell_length_c   18.05070900
_cell_angle_alpha   90.00000000
_cell_angle_beta   90.00000000
_cell_angle_gamma   90.00000000
_symmetry_Int_Tables_number   1
_chemical_formula_structural   TaAgP4O13
_chemical_formula_sum   'Ta4 Ag4 P16 O52'
_cell_volume   1094.62886740
_cell_formula_units_Z   4
loop_
 _symmetry_equiv_pos_site_id
 _symmetry_equiv_pos_as_xyz
  1  'x, y, z'
loop_
 _atom_site_type_symbol
 _atom_site_label
 _atom_site_symmetry_multiplicity
 _atom_site_fract_x
 _atom_site_fract_y
 _atom_site_fract_z
 _atom_site_occupancy
  Ta  Ta0  1  0.23852400  0.27383500  0.71091000  1
  Ta  Ta1  1  0.73852400  0.22616500  0.28909000  1
  Ta  Ta2  1  0.76147600  0.77383500  0.78909000  1
  Ta  Ta3  1  0.26147600  0.72616500  0.21091000  1
  Ag  Ag4  1  0.20571600  0.72280700  0.48490300  1
  Ag  Ag5  1  0.70571600  0.77719300  0.51509700  1
  Ag  Ag6  1  0.79428400  0.22280700  0.01509700  1
  Ag  Ag7  1  0.29428400  0.27719300  0.98490300  1
  P  P8  1  0.40341100  0.65380600  0.67161200  1
  P  P9  1  0.90341100  0.84619400  0.32838800  1
  P  P10  1  0.59658900  0.15380600  0.82838800  1
  P  P11  1  0.09658900  0.34619400  0.17161200  1
  P  P12  1  0.09722600  0.89497100  0.66646600  1
  P  P13  1  0.59722600  0.60502900  0.33353400  1
  P  P14  1  0.90277400  0.39497100  0.83353400  1
  P  P15  1  0.40277400  0.10502900  0.16646600  1
  P  P16  1  0.07308700  0.31799400  0.42476600  1
  P  P17  1  0.57308700  0.18200600  0.57523400  1
  P  P18  1  0.92691300  0.81799400  0.07523400  1
  P  P19  1  0.42691300  0.68200600  0.92476600  1
  P  P20  1  0.92095800  0.38888000  0.57313000  1
  P  P21  1  0.42095800  0.11112000  0.42687000  1
  P  P22  1  0.07904200  0.88888000  0.92687000  1
  P  P23  1  0.57904200  0.61112000  0.07313000  1
  O  O24  1  0.43333300  0.65552600  0.59037700  1
  O  O25  1  0.93333300  0.84447400  0.40962300  1
  O  O26  1  0.56666700  0.15552600  0.90962300  1
  O  O27  1  0.06666700  0.34447400  0.09037700  1
  O  O28  1  0.33606500  0.49273200  0.70458500  1
  O  O29  1  0.83606500  0.00726800  0.29541500  1
  O  O30  1  0.66393500  0.99273200  0.79541500  1
  O  O31  1  0.16393500  0.50726800  0.20458500  1
  O  O32  1  0.57455600  0.70294200  0.71890100  1
  O  O33  1  0.07455600  0.79705800  0.28109900  1
  O  O34  1  0.42544400  0.20294200  0.78109900  1
  O  O35  1  0.92544400  0.29705800  0.21890100  1
  O  O36  1  0.09273900  0.89980500  0.58482500  1
  O  O37  1  0.59273900  0.60019500  0.41517500  1
  O  O38  1  0.90726100  0.39980500  0.91517500  1
  O  O39  1  0.40726100  0.10019500  0.08482500  1
  O  O40  1  0.91939500  0.83230700  0.70610300  1
  O  O41  1  0.41939500  0.66769300  0.29389700  1
  O  O42  1  0.25221000  0.77837300  0.70117900  1
  O  O43  1  0.08060500  0.33230700  0.79389700  1
  O  O44  1  0.14210400  0.05567400  0.70560300  1
  O  O45  1  0.64210400  0.44432600  0.29439700  1
  O  O46  1  0.85789600  0.55567400  0.79439700  1
  O  O47  1  0.35789600  0.94432600  0.20560300  1
  O  O48  1  0.46509400  0.66775800  0.14002800  1
  O  O49  1  0.96509400  0.83224200  0.85997200  1
  O  O50  1  0.53490600  0.16775800  0.35997200  1
  O  O51  1  0.03490600  0.33224200  0.64002800  1
  O  O52  1  0.78725400  0.67125400  0.08712400  1
  O  O53  1  0.28725400  0.82874600  0.91287600  1
  O  O54  1  0.21274600  0.17125400  0.41287600  1
  O  O55  1  0.71274600  0.32874600  0.58712400  1
  O  O56  1  0.50598200  0.72178800  0.00644800  1
  O  O57  1  0.00598200  0.77821200  0.99355200  1
  O  O58  1  0.49401800  0.22178800  0.49355200  1
  O  O59  1  0.99401800  0.27821200  0.50644800  1
  O  O60  1  0.57778800  0.43888600  0.05768600  1
  O  O61  1  0.07778800  0.06111400  0.94231400  1
  O  O62  1  0.42221200  0.93888600  0.44231400  1
  O  O63  1  0.92221200  0.56111400  0.55768600  1
  O  O64  1  0.58996200  0.72241800  0.87348400  1
  O  O65  1  0.08996200  0.77758200  0.12651600  1
  O  O66  1  0.41003800  0.22241800  0.62651600  1
  O  O67  1  0.91003800  0.27758200  0.37348400  1
  O  O68  1  0.33891600  0.52485900  0.91718000  1
  O  O69  1  0.83891600  0.97514100  0.08282000  1
  O  O70  1  0.66108400  0.02485900  0.58282000  1
  O  O71  1  0.16108400  0.47514100  0.41718000  1
  O  O72  1  0.24779000  0.22162700  0.20117900  1
  O  O73  1  0.74779000  0.27837300  0.79882100  1
  O  O74  1  0.75221000  0.72162700  0.29882100  1
  O  O75  1  0.58060500  0.16769300  0.20610300  1
