# generated using pymatgen
data_GdAlNi
_symmetry_space_group_name_H-M   'P 1'
_cell_length_a   3.83951100
_cell_length_b   7.09607096
_cell_length_c   7.09501795
_cell_angle_alpha   120.00491828
_cell_angle_beta   90.00000000
_cell_angle_gamma   90.00000000
_symmetry_Int_Tables_number   1
_chemical_formula_structural   GdAlNi
_chemical_formula_sum   'Gd3 Al3 Ni3'
_cell_volume   167.40039193
_cell_formula_units_Z   3
loop_
 _symmetry_equiv_pos_site_id
 _symmetry_equiv_pos_as_xyz
  1  'x, y, z'
loop_
 _atom_site_type_symbol
 _atom_site_label
 _atom_site_symmetry_multiplicity
 _atom_site_fract_x
 _atom_site_fract_y
 _atom_site_fract_z
 _atom_site_occupancy
  Gd  Gd0  1  0.50000000  0.58056300  0.00000000  1
  Gd  Gd1  1  0.50000000  0.41928400  0.41902500  1
  Gd  Gd2  1  0.50000000  0.00025800  0.58097500  1
  Al  Al3  1  0.00000000  0.23228500  0.00000000  1
  Al  Al4  1  0.00000000  0.76743600  0.76733500  1
  Al  Al5  1  0.00000000  0.00010100  0.23266500  1
  Ni  Ni6  1  0.50000000  0.00069300  0.00000000  1
  Ni  Ni7  1  0.00000000  0.33209000  0.66490000  1
  Ni  Ni8  1  0.00000000  0.66719000  0.33510000  1
