# generated using pymatgen
data_Ba3SrEr2(MoO6)2
_symmetry_space_group_name_H-M   'P 1'
_cell_length_a   5.94562300
_cell_length_b   5.95395101
_cell_length_c   10.31584809
_cell_angle_alpha   73.97258679
_cell_angle_beta   74.00661620
_cell_angle_gamma   60.68125162
_symmetry_Int_Tables_number   1
_chemical_formula_structural   Ba3SrEr2(MoO6)2
_chemical_formula_sum   'Ba3 Sr1 Er2 Mo2 O12'
_cell_volume   301.70651380
_cell_formula_units_Z   1
loop_
 _symmetry_equiv_pos_site_id
 _symmetry_equiv_pos_as_xyz
  1  'x, y, z'
loop_
 _atom_site_type_symbol
 _atom_site_label
 _atom_site_symmetry_multiplicity
 _atom_site_fract_x
 _atom_site_fract_y
 _atom_site_fract_z
 _atom_site_occupancy
  Ba  Ba0  1  0.37461600  0.37525900  0.87587900  1
  Ba  Ba1  1  0.87497000  0.87527700  0.37417700  1
  Ba  Ba2  1  0.12549400  0.12411800  0.62513400  1
  Sr  Sr3  1  0.62480300  0.62576900  0.12468900  1
  Er  Er4  1  0.99977200  0.99949600  0.00083000  1
  Er  Er5  1  0.50029200  0.50059500  0.49906400  1
  Mo  Mo6  1  0.74937800  0.74984400  0.75110200  1
  Mo  Mo7  1  0.25086600  0.25002900  0.24886500  1
  O  O8  1  0.86446000  0.86478000  0.86977900  1
  O  O9  1  0.36662700  0.36828600  0.36507800  1
  O  O10  1  0.63467300  0.63332100  0.63261200  1
  O  O11  1  0.13420500  0.13354900  0.13263200  1
  O  O12  1  0.65676800  0.09949600  0.62117700  1
  O  O13  1  0.16342200  0.60048300  0.12080300  1
  O  O14  1  0.84033200  0.40306600  0.88296600  1
  O  O15  1  0.34258400  0.89948600  0.37816900  1
  O  O16  1  0.11726800  0.60209100  0.63945700  1
  O  O17  1  0.61838100  0.09707700  0.13880400  1
  O  O18  1  0.38234000  0.89745000  0.86177200  1
  O  O19  1  0.87875000  0.40052700  0.35701100  1
