# generated using pymatgen
data_KLiTbF5
_symmetry_space_group_name_H-M   'P 1'
_cell_length_a   6.53172850
_cell_length_b   6.40606532
_cell_length_c   11.91114800
_cell_angle_alpha   90.00000000
_cell_angle_beta   90.00000000
_cell_angle_gamma   113.76905712
_symmetry_Int_Tables_number   1
_chemical_formula_structural   KLiTbF5
_chemical_formula_sum   'K4 Li4 Tb4 F20'
_cell_volume   456.11927886
_cell_formula_units_Z   4
loop_
 _symmetry_equiv_pos_site_id
 _symmetry_equiv_pos_as_xyz
  1  'x, y, z'
loop_
 _atom_site_type_symbol
 _atom_site_label
 _atom_site_symmetry_multiplicity
 _atom_site_fract_x
 _atom_site_fract_y
 _atom_site_fract_z
 _atom_site_occupancy
  K  K0  1  0.94735700  0.96322000  0.34976100  1
  K  K1  1  0.05264300  0.03678000  0.65023900  1
  K  K2  1  0.05264300  0.53678000  0.84976100  1
  K  K3  1  0.94735700  0.46322000  0.15023900  1
  Li  Li4  1  0.55790500  0.96219000  0.74569300  1
  Li  Li5  1  0.44209500  0.03781000  0.25430700  1
  Li  Li6  1  0.44209500  0.53781000  0.24569300  1
  Li  Li7  1  0.55790500  0.46219000  0.75430700  1
  Tb  Tb8  1  0.68151600  0.81931800  0.99784000  1
  Tb  Tb9  1  0.31848400  0.18068200  0.00216000  1
  Tb  Tb10  1  0.31848400  0.68068200  0.49784000  1
  Tb  Tb11  1  0.68151600  0.31931800  0.50216000  1
  F  F12  1  0.72011100  0.77670200  0.80506700  1
  F  F13  1  0.27988900  0.22329800  0.19493300  1
  F  F14  1  0.27988900  0.72329800  0.30506700  1
  F  F15  1  0.72011100  0.27670200  0.69493300  1
  F  F16  1  0.66641700  0.95401100  0.53205400  1
  F  F17  1  0.33358300  0.04598900  0.46794600  1
  F  F18  1  0.33358300  0.54598900  0.03205400  1
  F  F19  1  0.66641700  0.45401100  0.96794600  1
  F  F20  1  0.95590500  0.67229200  0.50673400  1
  F  F21  1  0.04409500  0.32770800  0.49326600  1
  F  F22  1  0.04409500  0.82770800  0.00673400  1
  F  F23  1  0.95590500  0.17229200  0.99326600  1
  F  F24  1  0.46375900  0.96582300  0.89528600  1
  F  F25  1  0.53624100  0.03417700  0.10471400  1
  F  F26  1  0.53624100  0.53417700  0.39528600  1
  F  F27  1  0.46375900  0.46582300  0.60471400  1
  F  F28  1  0.28750600  0.77945000  0.67473700  1
  F  F29  1  0.71249400  0.22055000  0.32526300  1
  F  F30  1  0.71249400  0.72055000  0.17473700  1
  F  F31  1  0.28750600  0.27945000  0.82526300  1
