# generated using pymatgen
data_Ba2Mn(PO4)2
_symmetry_space_group_name_H-M   'P 1'
_cell_length_a   5.41325329
_cell_length_b   9.11716000
_cell_length_c   16.44473347
_cell_angle_alpha   90.00000000
_cell_angle_beta   90.35895994
_cell_angle_gamma   90.00000000
_symmetry_Int_Tables_number   1
_chemical_formula_structural   Ba2Mn(PO4)2
_chemical_formula_sum   'Ba8 Mn4 P8 O32'
_cell_volume   811.58916500
_cell_formula_units_Z   4
loop_
 _symmetry_equiv_pos_site_id
 _symmetry_equiv_pos_as_xyz
  1  'x, y, z'
loop_
 _atom_site_type_symbol
 _atom_site_label
 _atom_site_symmetry_multiplicity
 _atom_site_fract_x
 _atom_site_fract_y
 _atom_site_fract_z
 _atom_site_occupancy
  Ba  Ba0  1  0.23982100  0.65739300  0.77042500  1
  Ba  Ba1  1  0.26017900  0.15739400  0.72957500  1
  Ba  Ba2  1  0.76017800  0.34260700  0.22957500  1
  Ba  Ba3  1  0.73982200  0.84260600  0.27042500  1
  Ba  Ba4  1  0.79629500  0.20212800  0.47947100  1
  Ba  Ba5  1  0.70370500  0.70212900  0.02052900  1
  Ba  Ba6  1  0.20370600  0.79787100  0.52052900  1
  Ba  Ba7  1  0.29629400  0.29787100  0.97947100  1
  Mn  Mn8  1  0.76830100  0.01787300  0.86436700  1
  Mn  Mn9  1  0.73169800  0.51787300  0.63563300  1
  Mn  Mn10  1  0.26830300  0.48212700  0.36436800  1
  Mn  Mn11  1  0.23169800  0.98212700  0.13563300  1
  P  P12  1  0.74145100  0.89592400  0.66302700  1
  P  P13  1  0.75854900  0.39592400  0.83697300  1
  P  P14  1  0.25855000  0.10407700  0.33697300  1
  P  P15  1  0.24145000  0.60407600  0.16302700  1
  P  P16  1  0.23972800  0.90460800  0.92208600  1
  P  P17  1  0.73972900  0.59539200  0.42208600  1
  P  P18  1  0.76027100  0.09539200  0.07791400  1
  P  P19  1  0.26027200  0.40460800  0.57791400  1
  O  O20  1  0.83753600  0.98946100  0.73649800  1
  O  O21  1  0.66246400  0.48946000  0.76350200  1
  O  O22  1  0.16246400  0.01053900  0.26350100  1
  O  O23  1  0.33753700  0.51053900  0.23649800  1
  O  O24  1  0.45353000  0.88761500  0.66577300  1
  O  O25  1  0.04647000  0.38761400  0.83422700  1
  O  O26  1  0.54646900  0.11238600  0.33422600  1
  O  O27  1  0.95353100  0.61238600  0.16577400  1
  O  O28  1  0.85849200  0.73905600  0.66963200  1
  O  O29  1  0.64150900  0.23905600  0.83036800  1
  O  O30  1  0.14150900  0.26094400  0.33036800  1
  O  O31  1  0.35849200  0.76094500  0.16963200  1
  O  O32  1  0.82883200  0.96762300  0.58231100  1
  O  O33  1  0.67117000  0.46762200  0.91768900  1
  O  O34  1  0.17116900  0.03237800  0.41768900  1
  O  O35  1  0.32883100  0.53237700  0.08231100  1
  O  O36  1  0.47686100  0.85167700  0.87650400  1
  O  O37  1  0.02313700  0.35167800  0.62349600  1
  O  O38  1  0.52313800  0.14832300  0.12349600  1
  O  O39  1  0.97686200  0.64832200  0.37650400  1
  O  O40  1  0.79037900  0.59804300  0.51404100  1
  O  O41  1  0.70962100  0.09804400  0.98595900  1
  O  O42  1  0.20962200  0.40195600  0.48595900  1
  O  O43  1  0.29037800  0.90195600  0.01404100  1
  O  O44  1  0.52082900  0.69858800  0.39930000  1
  O  O45  1  0.97917000  0.19858800  0.10070000  1
  O  O46  1  0.16878200  0.06000100  0.88896200  1
  O  O47  1  0.02082900  0.80141200  0.89929900  1
  O  O48  1  0.66878300  0.43999900  0.38896200  1
  O  O49  1  0.83121700  0.93999900  0.11103800  1
  O  O50  1  0.33121800  0.56000100  0.61103800  1
  O  O51  1  0.47917000  0.30141200  0.60070100  1
