# generated using pymatgen
data_KMgAs3F18
_symmetry_space_group_name_H-M   'P 1'
_cell_length_a   9.72780100
_cell_length_b   10.61051100
_cell_length_c   14.29490700
_cell_angle_alpha   90.00000000
_cell_angle_beta   90.00000000
_cell_angle_gamma   90.00000000
_symmetry_Int_Tables_number   1
_chemical_formula_structural   KMgAs3F18
_chemical_formula_sum   'K4 Mg4 As12 F72'
_cell_volume   1475.47655121
_cell_formula_units_Z   4
loop_
 _symmetry_equiv_pos_site_id
 _symmetry_equiv_pos_as_xyz
  1  'x, y, z'
loop_
 _atom_site_type_symbol
 _atom_site_label
 _atom_site_symmetry_multiplicity
 _atom_site_fract_x
 _atom_site_fract_y
 _atom_site_fract_z
 _atom_site_occupancy
  K  K0  1  0.52720200  0.92551400  0.75000000  1
  K  K1  1  0.97279800  0.42551400  0.75000000  1
  K  K2  1  0.47279800  0.07448600  0.25000000  1
  K  K3  1  0.02720200  0.57448600  0.25000000  1
  Mg  Mg4  1  0.00000000  0.00000000  0.50000000  1
  Mg  Mg5  1  0.50000000  0.50000000  0.00000000  1
  Mg  Mg6  1  0.00000000  0.00000000  0.00000000  1
  Mg  Mg7  1  0.50000000  0.50000000  0.50000000  1
  As  As8  1  0.09997500  0.02097900  0.75000000  1
  As  As9  1  0.40002500  0.52097900  0.75000000  1
  As  As10  1  0.90002500  0.97902100  0.25000000  1
  As  As11  1  0.59997500  0.47902100  0.25000000  1
  As  As12  1  0.69705100  0.20565300  0.54671700  1
  As  As13  1  0.80294900  0.70565300  0.95328300  1
  As  As14  1  0.30294900  0.79434700  0.04671700  1
  As  As15  1  0.19705100  0.29434700  0.45328300  1
  As  As16  1  0.30294900  0.79434700  0.45328300  1
  As  As17  1  0.19705100  0.29434700  0.04671700  1
  As  As18  1  0.69705100  0.20565300  0.95328300  1
  As  As19  1  0.80294900  0.70565300  0.54671700  1
  F  F20  1  0.09908400  0.02333800  0.62224000  1
  F  F21  1  0.40091600  0.52333800  0.87776000  1
  F  F22  1  0.90091600  0.97666200  0.12224000  1
  F  F23  1  0.59908400  0.47666200  0.37776000  1
  F  F24  1  0.90091600  0.97666200  0.37776000  1
  F  F25  1  0.59908400  0.47666200  0.12224000  1
  F  F26  1  0.09908400  0.02333800  0.87776000  1
  F  F27  1  0.40091600  0.52333800  0.62224000  1
  F  F28  1  0.13846200  0.86084200  0.75000000  1
  F  F29  1  0.36153800  0.36084200  0.75000000  1
  F  F30  1  0.86153800  0.13915800  0.25000000  1
  F  F31  1  0.63846200  0.63915800  0.25000000  1
  F  F32  1  0.27677700  0.05518500  0.75000000  1
  F  F33  1  0.22322300  0.55518500  0.75000000  1
  F  F34  1  0.72322300  0.94481500  0.25000000  1
  F  F35  1  0.77677700  0.44481500  0.25000000  1
  F  F36  1  0.06568700  0.18410500  0.75000000  1
  F  F37  1  0.43431300  0.68410500  0.75000000  1
  F  F38  1  0.93431300  0.81589500  0.25000000  1
  F  F39  1  0.56568700  0.31589500  0.25000000  1
  F  F40  1  0.92361400  0.98945400  0.75000000  1
  F  F41  1  0.57638600  0.48945400  0.75000000  1
  F  F42  1  0.07638600  0.01054600  0.25000000  1
  F  F43  1  0.42361400  0.51054600  0.25000000  1
  F  F44  1  0.82671900  0.08079200  0.55062400  1
  F  F45  1  0.67328100  0.58079200  0.94937600  1
  F  F46  1  0.17328100  0.91920800  0.05062400  1
  F  F47  1  0.32671900  0.41920800  0.44937600  1
  F  F48  1  0.17328100  0.91920800  0.44937600  1
  F  F49  1  0.32671900  0.41920800  0.05062400  1
  F  F50  1  0.82671900  0.08079200  0.94937600  1
  F  F51  1  0.67328100  0.58079200  0.55062400  1
  F  F52  1  0.79406200  0.28720300  0.46440600  1
  F  F53  1  0.70593800  0.78720300  0.03559400  1
  F  F54  1  0.20593800  0.71279700  0.96440600  1
  F  F55  1  0.29406200  0.21279700  0.53559400  1
  F  F56  1  0.20593800  0.71279700  0.53559400  1
  F  F57  1  0.29406200  0.21279700  0.96440600  1
  F  F58  1  0.79406200  0.28720300  0.03559400  1
  F  F59  1  0.70593800  0.78720300  0.46440600  1
  F  F60  1  0.60922500  0.12624100  0.45750800  1
  F  F61  1  0.89077500  0.62624100  0.04249200  1
  F  F62  1  0.39077500  0.87375900  0.95750800  1
  F  F63  1  0.10922500  0.37375900  0.54249200  1
  F  F64  1  0.39077500  0.87375900  0.54249200  1
  F  F65  1  0.10922500  0.37375900  0.95750800  1
  F  F66  1  0.60922500  0.12624100  0.04249200  1
  F  F67  1  0.89077500  0.62624100  0.45750800  1
  F  F68  1  0.56830800  0.33052700  0.54543700  1
  F  F69  1  0.93169200  0.83052700  0.95456300  1
  F  F70  1  0.43169200  0.66947300  0.04543700  1
  F  F71  1  0.06830800  0.16947300  0.45456300  1
  F  F72  1  0.43169200  0.66947300  0.45456300  1
  F  F73  1  0.06830800  0.16947300  0.04543700  1
  F  F74  1  0.56830800  0.33052700  0.95456300  1
  F  F75  1  0.93169200  0.83052700  0.54543700  1
  F  F76  1  0.60027900  0.12304600  0.63056000  1
  F  F77  1  0.89972100  0.62304600  0.86944000  1
  F  F78  1  0.39972100  0.87695400  0.13056000  1
  F  F79  1  0.10027900  0.37695400  0.36944000  1
  F  F80  1  0.39972100  0.87695400  0.36944000  1
  F  F81  1  0.10027900  0.37695400  0.13056000  1
  F  F82  1  0.60027900  0.12304600  0.86944000  1
  F  F83  1  0.89972100  0.62304600  0.63056000  1
  F  F84  1  0.78358300  0.28386100  0.63794900  1
  F  F85  1  0.71641700  0.78386100  0.86205100  1
  F  F86  1  0.21641700  0.71613900  0.13794900  1
  F  F87  1  0.28358300  0.21613900  0.36205100  1
  F  F88  1  0.21641700  0.71613900  0.36205100  1
  F  F89  1  0.28358300  0.21613900  0.13794900  1
  F  F90  1  0.78358300  0.28386100  0.86205100  1
  F  F91  1  0.71641700  0.78386100  0.63794900  1
