# generated using pymatgen
data_CeMg(BO2)5
_symmetry_space_group_name_H-M   'P 1'
_cell_length_a   7.67828400
_cell_length_b   8.82440600
_cell_length_c   12.72301355
_cell_angle_alpha   48.66822932
_cell_angle_beta   90.00000000
_cell_angle_gamma   90.00000000
_symmetry_Int_Tables_number   1
_chemical_formula_structural   CeMg(BO2)5
_chemical_formula_sum   'Ce4 Mg4 B20 O40'
_cell_volume   647.32237077
_cell_formula_units_Z   4
loop_
 _symmetry_equiv_pos_site_id
 _symmetry_equiv_pos_as_xyz
  1  'x, y, z'
loop_
 _atom_site_type_symbol
 _atom_site_label
 _atom_site_symmetry_multiplicity
 _atom_site_fract_x
 _atom_site_fract_y
 _atom_site_fract_z
 _atom_site_occupancy
  Ce  Ce0  1  0.18158400  0.94806200  0.23686100  1
  Ce  Ce1  1  0.81841600  0.05193800  0.76313900  1
  Ce  Ce2  1  0.68158400  0.05193800  0.26313900  1
  Ce  Ce3  1  0.31841600  0.94806200  0.73686100  1
  Mg  Mg4  1  0.91014400  0.51792000  0.37563800  1
  Mg  Mg5  1  0.08985600  0.48208000  0.62436200  1
  Mg  Mg6  1  0.41014400  0.48208000  0.12436200  1
  Mg  Mg7  1  0.58985600  0.51792000  0.87563800  1
  B  B8  1  0.82673900  0.90746700  0.10672000  1
  B  B9  1  0.17326100  0.09253300  0.89328000  1
  B  B10  1  0.32673900  0.09253300  0.39328000  1
  B  B11  1  0.67326100  0.90746700  0.60672000  1
  B  B12  1  0.57978000  0.65073200  0.26146500  1
  B  B13  1  0.42022000  0.34926800  0.73853500  1
  B  B14  1  0.07978000  0.34926800  0.23853500  1
  B  B15  1  0.92022000  0.65073200  0.76146500  1
  B  B16  1  0.81509000  0.48334800  0.08679800  1
  B  B17  1  0.18491000  0.51665200  0.91320200  1
  B  B18  1  0.31509000  0.51665200  0.41320200  1
  B  B19  1  0.68491000  0.48334800  0.58679800  1
  B  B20  1  0.46624100  0.72576900  0.55566100  1
  B  B21  1  0.53375900  0.27423100  0.44433900  1
  B  B22  1  0.96624100  0.27423100  0.94433900  1
  B  B23  1  0.03375900  0.72576900  0.05566100  1
  B  B24  1  0.59879300  0.84288800  0.00229000  1
  B  B25  1  0.40120700  0.15711200  0.99771000  1
  B  B26  1  0.09879300  0.15711200  0.49771000  1
  B  B27  1  0.90120700  0.84288800  0.50229000  1
  O  O28  1  0.91628000  0.32098800  0.19228500  1
  O  O29  1  0.08372000  0.67901200  0.80771500  1
  O  O30  1  0.41628000  0.67901200  0.30771500  1
  O  O31  1  0.58372000  0.32098800  0.69228500  1
  O  O32  1  0.87690700  0.67699100  0.01016000  1
  O  O33  1  0.12309300  0.32300900  0.98984000  1
  O  O34  1  0.37690700  0.32300900  0.48984000  1
  O  O35  1  0.62309300  0.67699100  0.51016000  1
  O  O36  1  0.39248900  0.91174600  0.41914500  1
  O  O37  1  0.60751100  0.08825400  0.58085500  1
  O  O38  1  0.89248900  0.08825400  0.08085500  1
  O  O39  1  0.10751100  0.91174600  0.91914500  1
  O  O40  1  0.71462600  0.79398700  0.23403200  1
  O  O41  1  0.28537400  0.20601300  0.76596800  1
  O  O42  1  0.21462600  0.20601300  0.26596800  1
  O  O43  1  0.78537400  0.79398700  0.73403200  1
  O  O44  1  0.65388000  0.43446700  0.06845200  1
  O  O45  1  0.34612000  0.56553300  0.93154800  1
  O  O46  1  0.15388000  0.56553300  0.43154800  1
  O  O47  1  0.84612000  0.43446700  0.56845200  1
  O  O48  1  0.77503100  0.97039900  0.48597600  1
  O  O49  1  0.22496900  0.02960100  0.51402400  1
  O  O50  1  0.27503100  0.02960100  0.01402400  1
  O  O51  1  0.72496900  0.97039900  0.98597600  1
  O  O52  1  0.65338800  0.44632300  0.36703300  1
  O  O53  1  0.34661200  0.55367700  0.63296700  1
  O  O54  1  0.15338800  0.55367700  0.13296700  1
  O  O55  1  0.84661200  0.44632300  0.86703300  1
  O  O56  1  0.53470900  0.68327000  0.13287500  1
  O  O57  1  0.46529100  0.31673000  0.86712500  1
  O  O58  1  0.03470900  0.31673000  0.36712500  1
  O  O59  1  0.96529100  0.68327000  0.63287500  1
  O  O60  1  0.95421700  0.87755900  0.38639700  1
  O  O61  1  0.04578300  0.12244100  0.61360300  1
  O  O62  1  0.45421700  0.12244100  0.11360300  1
  O  O63  1  0.54578300  0.87755900  0.88639700  1
  O  O64  1  0.97301700  0.76538000  0.14754700  1
  O  O65  1  0.02698300  0.23462000  0.85245300  1
  O  O66  1  0.47301700  0.23462000  0.35245300  1
  O  O67  1  0.52698300  0.76538000  0.64754700  1
