# generated using pymatgen
data_SnPtS
_symmetry_space_group_name_H-M   'P 1'
_cell_length_a   6.20777600
_cell_length_b   6.20777600
_cell_length_c   6.20777600
_cell_angle_alpha   90.00000000
_cell_angle_beta   90.00000000
_cell_angle_gamma   90.00000000
_symmetry_Int_Tables_number   1
_chemical_formula_structural   SnPtS
_chemical_formula_sum   'Sn4 Pt4 S4'
_cell_volume   239.22585346
_cell_formula_units_Z   4
loop_
 _symmetry_equiv_pos_site_id
 _symmetry_equiv_pos_as_xyz
  1  'x, y, z'
loop_
 _atom_site_type_symbol
 _atom_site_label
 _atom_site_symmetry_multiplicity
 _atom_site_fract_x
 _atom_site_fract_y
 _atom_site_fract_z
 _atom_site_occupancy
  Sn  Sn0  1  0.11776600  0.61776600  0.88223400  1
  Sn  Sn1  1  0.61776600  0.88223400  0.11776600  1
  Sn  Sn2  1  0.88223400  0.11776600  0.61776600  1
  Sn  Sn3  1  0.38223400  0.38223400  0.38223400  1
  Pt  Pt4  1  0.48887700  0.98887700  0.51112300  1
  Pt  Pt5  1  0.98887700  0.51112300  0.48887700  1
  Pt  Pt6  1  0.51112300  0.48887700  0.98887700  1
  Pt  Pt7  1  0.01112300  0.01112300  0.01112300  1
  S  S8  1  0.87976600  0.37976600  0.12023400  1
  S  S9  1  0.37976600  0.12023400  0.87976600  1
  S  S10  1  0.12023400  0.87976600  0.37976600  1
  S  S11  1  0.62023400  0.62023400  0.62023400  1
