# generated using pymatgen
data_Tb2SiO5
_symmetry_space_group_name_H-M   'P 1'
_cell_length_a   7.05760900
_cell_length_b   6.71380500
_cell_length_c   9.13567920
_cell_angle_alpha   72.59143429
_cell_angle_beta   90.00000000
_cell_angle_gamma   90.00000000
_symmetry_Int_Tables_number   1
_chemical_formula_structural   Tb2SiO5
_chemical_formula_sum   'Tb8 Si4 O20'
_cell_volume   413.05185140
_cell_formula_units_Z   4
loop_
 _symmetry_equiv_pos_site_id
 _symmetry_equiv_pos_as_xyz
  1  'x, y, z'
loop_
 _atom_site_type_symbol
 _atom_site_label
 _atom_site_symmetry_multiplicity
 _atom_site_fract_x
 _atom_site_fract_y
 _atom_site_fract_z
 _atom_site_occupancy
  Tb  Tb0  1  0.35265800  0.41771200  0.38488600  1
  Tb  Tb1  1  0.64734200  0.58228800  0.61511400  1
  Tb  Tb2  1  0.85265800  0.08228800  0.61511400  1
  Tb  Tb3  1  0.14734200  0.91771200  0.38488600  1
  Tb  Tb4  1  0.37581600  0.26647100  0.02646600  1
  Tb  Tb5  1  0.62418400  0.73352900  0.97353400  1
  Tb  Tb6  1  0.87581600  0.23352900  0.97353400  1
  Tb  Tb7  1  0.12418400  0.76647100  0.02646600  1
  Si  Si8  1  0.91343400  0.46077900  0.29830500  1
  Si  Si9  1  0.08656600  0.53922100  0.70169500  1
  Si  Si10  1  0.41343400  0.03922100  0.70169500  1
  Si  Si11  1  0.58656600  0.96077900  0.29830500  1
  O  O12  1  0.42840900  0.14515800  0.29483000  1
  O  O13  1  0.57159100  0.85484200  0.70517000  1
  O  O14  1  0.92840900  0.35484200  0.70517000  1
  O  O15  1  0.07159100  0.64515800  0.29483000  1
  O  O16  1  0.23092000  0.04898000  0.59386200  1
  O  O17  1  0.76908000  0.95102000  0.40613800  1
  O  O18  1  0.73092000  0.45102000  0.40613800  1
  O  O19  1  0.26908000  0.54898000  0.59386200  1
  O  O20  1  0.12126100  0.05172400  0.11555000  1
  O  O21  1  0.87873900  0.94827600  0.88445000  1
  O  O22  1  0.62126100  0.44827600  0.88445000  1
  O  O23  1  0.37873900  0.55172400  0.11555000  1
  O  O24  1  0.13693400  0.49157700  0.88559700  1
  O  O25  1  0.86306600  0.50842300  0.11440300  1
  O  O26  1  0.63693400  0.00842300  0.11440300  1
  O  O27  1  0.36306600  0.99157700  0.88559700  1
  O  O28  1  0.04295700  0.25187100  0.36831400  1
  O  O29  1  0.95704300  0.74812900  0.63168600  1
  O  O30  1  0.54295700  0.24812900  0.63168600  1
  O  O31  1  0.45704300  0.75187100  0.36831400  1
