# generated using pymatgen
data_Gd3CI3
_symmetry_space_group_name_H-M   'P 1'
_cell_length_a   3.95161531
_cell_length_b   8.78355539
_cell_length_c   11.89346664
_cell_angle_alpha   92.21471852
_cell_angle_beta   90.00000000
_cell_angle_gamma   90.00000000
_symmetry_Int_Tables_number   1
_chemical_formula_structural   Gd3CI3
_chemical_formula_sum   'Gd6 C2 I6'
_cell_volume   412.50473011
_cell_formula_units_Z   2
loop_
 _symmetry_equiv_pos_site_id
 _symmetry_equiv_pos_as_xyz
  1  'x, y, z'
loop_
 _atom_site_type_symbol
 _atom_site_label
 _atom_site_symmetry_multiplicity
 _atom_site_fract_x
 _atom_site_fract_y
 _atom_site_fract_z
 _atom_site_occupancy
  Gd  Gd0  1  0.25000000  0.91803274  0.59992681  1
  Gd  Gd1  1  0.75000000  0.08196726  0.40007319  1
  Gd  Gd2  1  0.25000000  0.88508253  0.18040172  1
  Gd  Gd3  1  0.75000000  0.11491747  0.81959828  1
  Gd  Gd4  1  0.25000000  0.29713386  0.61665859  1
  Gd  Gd5  1  0.75000000  0.70286614  0.38334141  1
  C  C6  1  0.25000000  0.87984925  0.38336773  1
  C  C7  1  0.75000000  0.12015075  0.61663227  1
  I  I8  1  0.25000000  0.85444564  0.87653160  1
  I  I9  1  0.75000000  0.14555436  0.12346840  1
  I  I10  1  0.25000000  0.38057506  0.87566016  1
  I  I11  1  0.75000000  0.61942494  0.12433984  1
  I  I12  1  0.25000000  0.38309674  0.36453165  1
  I  I13  1  0.75000000  0.61690326  0.63546835  1
