# generated using pymatgen
data_Mg5As4(H11O13)2
_symmetry_space_group_name_H-M   'P 1'
_cell_length_a   6.70205200
_cell_length_b   7.86519402
_cell_length_c   10.57077943
_cell_angle_alpha   81.35201708
_cell_angle_beta   80.93425728
_cell_angle_gamma   84.13007868
_symmetry_Int_Tables_number   1
_chemical_formula_structural   Mg5As4(H11O13)2
_chemical_formula_sum   'Mg5 As4 H22 O26'
_cell_volume   542.23531624
_cell_formula_units_Z   1
loop_
 _symmetry_equiv_pos_site_id
 _symmetry_equiv_pos_as_xyz
  1  'x, y, z'
loop_
 _atom_site_type_symbol
 _atom_site_label
 _atom_site_symmetry_multiplicity
 _atom_site_fract_x
 _atom_site_fract_y
 _atom_site_fract_z
 _atom_site_occupancy
  Mg  Mg0  1  0.00000000  0.00000000  0.50000000  1
  Mg  Mg1  1  0.60235600  0.08164600  0.09311700  1
  Mg  Mg2  1  0.39764400  0.91835400  0.90688300  1
  Mg  Mg3  1  0.10781500  0.63742200  0.06490800  1
  Mg  Mg4  1  0.89218500  0.36257800  0.93509200  1
  As  As5  1  0.08079000  0.03967800  0.16500300  1
  As  As6  1  0.91921000  0.96032200  0.83499700  1
  As  As7  1  0.59509000  0.63028100  0.13364300  1
  As  As8  1  0.40491000  0.36971900  0.86635700  1
  H  H9  1  0.37020600  0.13361800  0.30845200  1
  H  H10  1  0.62979400  0.86638200  0.69154800  1
  H  H11  1  0.34518300  0.45199400  0.60483900  1
  H  H12  1  0.65481700  0.54800600  0.39516100  1
  H  H13  1  0.25389500  0.48284300  0.27067000  1
  H  H14  1  0.74610500  0.51715700  0.72933000  1
  H  H15  1  0.35386900  0.00184500  0.60156700  1
  H  H16  1  0.64613100  0.99815500  0.39843300  1
  H  H17  1  0.12372900  0.76647700  0.35267300  1
  H  H18  1  0.87627100  0.23352300  0.64732700  1
  H  H19  1  0.27060600  0.19711400  0.55349500  1
  H  H20  1  0.72939400  0.80288600  0.44650500  1
  H  H21  1  0.20258300  0.18383900  0.79802900  1
  H  H22  1  0.79741700  0.81616100  0.20197100  1
  H  H23  1  0.11040300  0.44308400  0.62308100  1
  H  H24  1  0.88959700  0.55691600  0.37691900  1
  H  H25  1  0.09271800  0.35069900  0.26441600  1
  H  H26  1  0.90728200  0.64930100  0.73558400  1
  H  H27  1  0.52631800  0.27998100  0.27783400  1
  H  H28  1  0.47368200  0.72001900  0.72216600  1
  H  H29  1  0.18451000  0.65366400  0.48127300  1
  H  H30  1  0.81549000  0.34633600  0.51872700  1
  O  O31  1  0.89253300  0.15402200  0.08635700  1
  O  O32  1  0.10746700  0.84597800  0.91364300  1
  O  O33  1  0.82428900  0.56156400  0.05370000  1
  O  O34  1  0.17571100  0.43843600  0.94630000  1
  O  O35  1  0.15433300  0.77341400  0.44047000  1
  O  O36  1  0.84566700  0.22658600  0.55953000  1
  O  O37  1  0.41331000  0.68490800  0.03466800  1
  O  O38  1  0.58669000  0.31509200  0.96533200  1
  O  O39  1  0.31260100  0.04706300  0.06963300  1
  O  O40  1  0.68739900  0.95293700  0.93036700  1
  O  O41  1  0.23330400  0.43378800  0.55811900  1
  O  O42  1  0.76669600  0.56621200  0.44188100  1
  O  O43  1  0.51575600  0.15306800  0.27768400  1
  O  O44  1  0.48424400  0.84693200  0.72231600  1
  O  O45  1  0.02283500  0.82546300  0.19973600  1
  O  O46  1  0.97716500  0.17453700  0.80026400  1
  O  O47  1  0.50974500  0.49521300  0.26871900  1
  O  O48  1  0.49025500  0.50478700  0.73128100  1
  O  O49  1  0.35697400  0.17902200  0.80605600  1
  O  O50  1  0.64302600  0.82097800  0.19394400  1
  O  O51  1  0.09366900  0.12256400  0.30469000  1
  O  O52  1  0.90633100  0.87743600  0.69531000  1
  O  O53  1  0.26662200  0.07423200  0.54395500  1
  O  O54  1  0.73337800  0.92576800  0.45604500  1
  O  O55  1  0.11399400  0.47683100  0.24925800  1
  O  O56  1  0.88600600  0.52316900  0.75074200  1
