# generated using pymatgen
data_Th7Fe3
_symmetry_space_group_name_H-M   'P 1'
_cell_length_a   9.68330601
_cell_length_b   9.68330601
_cell_length_c   6.23407600
_cell_angle_alpha   90.00000000
_cell_angle_beta   90.00000000
_cell_angle_gamma   120.00000007
_symmetry_Int_Tables_number   1
_chemical_formula_structural   Th7Fe3
_chemical_formula_sum   'Th14 Fe6'
_cell_volume   506.23251595
_cell_formula_units_Z   2
loop_
 _symmetry_equiv_pos_site_id
 _symmetry_equiv_pos_as_xyz
  1  'x, y, z'
loop_
 _atom_site_type_symbol
 _atom_site_label
 _atom_site_symmetry_multiplicity
 _atom_site_fract_x
 _atom_site_fract_y
 _atom_site_fract_z
 _atom_site_occupancy
  Th  Th0  1  0.33333300  0.66666700  0.03085200  1
  Th  Th1  1  0.66666700  0.33333300  0.53085200  1
  Th  Th2  1  0.12487600  0.87512400  0.24991400  1
  Th  Th3  1  0.24975200  0.12487600  0.74991400  1
  Th  Th4  1  0.87512400  0.75024800  0.74991400  1
  Th  Th5  1  0.12487600  0.24975200  0.24991400  1
  Th  Th6  1  0.75024800  0.87512400  0.24991400  1
  Th  Th7  1  0.87512400  0.12487600  0.74991400  1
  Th  Th8  1  0.54212700  0.45787300  0.05670800  1
  Th  Th9  1  0.08425400  0.54212700  0.55670800  1
  Th  Th10  1  0.45787300  0.91574600  0.55670800  1
  Th  Th11  1  0.54212700  0.08425400  0.05670800  1
  Th  Th12  1  0.91574600  0.45787300  0.05670800  1
  Th  Th13  1  0.45787300  0.54212700  0.55670800  1
  Fe  Fe14  1  0.81524300  0.18475700  0.29309400  1
  Fe  Fe15  1  0.63048500  0.81524300  0.79309400  1
  Fe  Fe16  1  0.18475700  0.36951500  0.79309400  1
  Fe  Fe17  1  0.81524300  0.63048500  0.29309400  1
  Fe  Fe18  1  0.36951500  0.18475700  0.29309400  1
  Fe  Fe19  1  0.18475700  0.81524300  0.79309400  1
