# generated using pymatgen
data_CaGa3Ni2
_symmetry_space_group_name_H-M   'P 1'
_cell_length_a   6.28396992
_cell_length_b   6.28396992
_cell_length_c   5.16527500
_cell_angle_alpha   90.00000000
_cell_angle_beta   90.00000000
_cell_angle_gamma   102.19156350
_symmetry_Int_Tables_number   1
_chemical_formula_structural   CaGa3Ni2
_chemical_formula_sum   'Ca2 Ga6 Ni4'
_cell_volume   199.36772870
_cell_formula_units_Z   2
loop_
 _symmetry_equiv_pos_site_id
 _symmetry_equiv_pos_as_xyz
  1  'x, y, z'
loop_
 _atom_site_type_symbol
 _atom_site_label
 _atom_site_symmetry_multiplicity
 _atom_site_fract_x
 _atom_site_fract_y
 _atom_site_fract_z
 _atom_site_occupancy
  Ca  Ca0  1  0.65605100  0.65605100  0.75000000  1
  Ca  Ca1  1  0.34394900  0.34394900  0.25000000  1
  Ga  Ga2  1  0.53398900  0.90908100  0.25000000  1
  Ga  Ga3  1  0.90908100  0.53398900  0.25000000  1
  Ga  Ga4  1  0.46601100  0.09091900  0.75000000  1
  Ga  Ga5  1  0.95019000  0.95019000  0.25000000  1
  Ga  Ga6  1  0.04981000  0.04981000  0.75000000  1
  Ga  Ga7  1  0.09091900  0.46601100  0.75000000  1
  Ni  Ni8  1  0.21087600  0.78912400  0.50000000  1
  Ni  Ni9  1  0.21087600  0.78912400  0.00000000  1
  Ni  Ni10  1  0.78912400  0.21087600  0.00000000  1
  Ni  Ni11  1  0.78912400  0.21087600  0.50000000  1
