# generated using pymatgen
data_NaUN3O11
_symmetry_space_group_name_H-M   'P 1'
_cell_length_a   10.80357500
_cell_length_b   10.80357500
_cell_length_c   10.80357500
_cell_angle_alpha   90.00000000
_cell_angle_beta   90.00000000
_cell_angle_gamma   90.00000000
_symmetry_Int_Tables_number   1
_chemical_formula_structural   NaUN3O11
_chemical_formula_sum   'Na4 U4 N12 O44'
_cell_volume   1260.96337814
_cell_formula_units_Z   4
loop_
 _symmetry_equiv_pos_site_id
 _symmetry_equiv_pos_as_xyz
  1  'x, y, z'
loop_
 _atom_site_type_symbol
 _atom_site_label
 _atom_site_symmetry_multiplicity
 _atom_site_fract_x
 _atom_site_fract_y
 _atom_site_fract_z
 _atom_site_occupancy
  Na  Na0  1  0.32599500  0.32599500  0.32599500  1
  Na  Na1  1  0.67400500  0.82599500  0.17400500  1
  Na  Na2  1  0.82599500  0.17400500  0.67400500  1
  Na  Na3  1  0.17400500  0.67400500  0.82599500  1
  U  U4  1  0.57078000  0.07078000  0.42922000  1
  U  U5  1  0.07078000  0.42922000  0.57078000  1
  U  U6  1  0.42922000  0.57078000  0.07078000  1
  U  U7  1  0.92922000  0.92922000  0.92922000  1
  N  N8  1  0.52058100  0.28062800  0.59688300  1
  N  N9  1  0.40311700  0.02058100  0.21937200  1
  N  N10  1  0.78062800  0.90311700  0.47941900  1
  N  N11  1  0.02058100  0.21937200  0.40311700  1
  N  N12  1  0.90311700  0.47941900  0.78062800  1
  N  N13  1  0.28062800  0.59688300  0.52058100  1
  N  N14  1  0.47941900  0.78062800  0.90311700  1
  N  N15  1  0.59688300  0.52058100  0.28062800  1
  N  N16  1  0.21937200  0.40311700  0.02058100  1
  N  N17  1  0.97941900  0.71937200  0.09688300  1
  N  N18  1  0.09688300  0.97941900  0.71937200  1
  N  N19  1  0.71937200  0.09688300  0.97941900  1
  O  O20  1  0.49656400  0.36346600  0.66865900  1
  O  O21  1  0.33134100  0.99656400  0.13653400  1
  O  O22  1  0.86346600  0.83134100  0.50343600  1
  O  O23  1  0.99656400  0.13653400  0.33134100  1
  O  O24  1  0.83134100  0.50343600  0.86346600  1
  O  O25  1  0.36346600  0.66865900  0.49656400  1
  O  O26  1  0.50343600  0.86346600  0.83134100  1
  O  O27  1  0.66865900  0.49656400  0.36346600  1
  O  O28  1  0.13653400  0.33134100  0.99656400  1
  O  O29  1  0.00343600  0.63653400  0.16865900  1
  O  O30  1  0.16865900  0.00343600  0.63653400  1
  O  O31  1  0.63653400  0.16865900  0.00343600  1
  O  O32  1  0.45357200  0.25493800  0.50028200  1
  O  O33  1  0.49971800  0.95357200  0.24506200  1
  O  O34  1  0.75493800  0.99971800  0.54642800  1
  O  O35  1  0.95357200  0.24506200  0.49971800  1
  O  O36  1  0.99971800  0.54642800  0.75493800  1
  O  O37  1  0.25493800  0.50028200  0.45357200  1
  O  O38  1  0.54642800  0.75493800  0.99971800  1
  O  O39  1  0.50028200  0.45357200  0.25493800  1
  O  O40  1  0.24506200  0.49971800  0.95357200  1
  O  O41  1  0.04642800  0.74506200  0.00028200  1
  O  O42  1  0.00028200  0.04642800  0.74506200  1
  O  O43  1  0.74506200  0.00028200  0.04642800  1
  O  O44  1  0.61529500  0.20725900  0.60946400  1
  O  O45  1  0.39053600  0.11529500  0.29274100  1
  O  O46  1  0.70725900  0.89053600  0.38470500  1
  O  O47  1  0.11529500  0.29274100  0.39053600  1
  O  O48  1  0.89053600  0.38470500  0.70725900  1
  O  O49  1  0.20725900  0.60946400  0.61529500  1
  O  O50  1  0.38470500  0.70725900  0.89053600  1
  O  O51  1  0.60946400  0.61529500  0.20725900  1
  O  O52  1  0.29274100  0.39053600  0.11529500  1
  O  O53  1  0.88470500  0.79274100  0.10946400  1
  O  O54  1  0.10946400  0.88470500  0.79274100  1
  O  O55  1  0.79274100  0.10946400  0.88470500  1
  O  O56  1  0.47515100  0.97515100  0.52484900  1
  O  O57  1  0.97515100  0.52484900  0.47515100  1
  O  O58  1  0.52484900  0.47515100  0.97515100  1
  O  O59  1  0.02484900  0.02484900  0.02484900  1
  O  O60  1  0.66688700  0.16688700  0.33311300  1
  O  O61  1  0.16688700  0.33311300  0.66688700  1
  O  O62  1  0.33311300  0.66688700  0.16688700  1
  O  O63  1  0.83311300  0.83311300  0.83311300  1
