# generated using pymatgen
data_KY2F7
_symmetry_space_group_name_H-M   'P 1'
_cell_length_a   8.31461607
_cell_length_b   8.31461607
_cell_length_c   12.10138864
_cell_angle_alpha   59.70322433
_cell_angle_beta   59.70322433
_cell_angle_gamma   58.40946114
_symmetry_Int_Tables_number   1
_chemical_formula_structural   KY2F7
_chemical_formula_sum   'K4 Y8 F28'
_cell_volume   581.55924896
_cell_formula_units_Z   4
loop_
 _symmetry_equiv_pos_site_id
 _symmetry_equiv_pos_as_xyz
  1  'x, y, z'
loop_
 _atom_site_type_symbol
 _atom_site_label
 _atom_site_symmetry_multiplicity
 _atom_site_fract_x
 _atom_site_fract_y
 _atom_site_fract_z
 _atom_site_occupancy
  K  K0  1  0.26158300  0.26158300  0.98058300  1
  K  K1  1  0.76830000  0.76830000  0.65507100  1
  K  K2  1  0.23170000  0.23170000  0.34492900  1
  K  K3  1  0.73841700  0.73841700  0.01941700  1
  Y  Y4  1  0.74043900  0.25956100  0.00000000  1
  Y  Y5  1  0.25956100  0.74043900  0.00000000  1
  Y  Y6  1  0.24197500  0.24197500  0.67939900  1
  Y  Y7  1  0.75802500  0.75802500  0.32060100  1
  Y  Y8  1  0.76505600  0.24017000  0.31892100  1
  Y  Y9  1  0.24017000  0.76505600  0.31892100  1
  Y  Y10  1  0.75983000  0.23494400  0.68107900  1
  Y  Y11  1  0.23494400  0.75983000  0.68107900  1
  F  F12  1  0.87917300  0.35647800  0.76341200  1
  F  F13  1  0.35647800  0.87917300  0.76341200  1
  F  F14  1  0.86877700  0.33309900  0.08471000  1
  F  F15  1  0.33309900  0.86877700  0.08471000  1
  F  F16  1  0.49420400  0.49420400  0.73164700  1
  F  F17  1  0.10535300  0.10535300  0.25152600  1
  F  F18  1  0.39407400  0.39407400  0.07639100  1
  F  F19  1  0.50458100  0.17283600  0.50099300  1
  F  F20  1  0.17283600  0.50458100  0.50099300  1
  F  F21  1  0.89464700  0.89464700  0.74847400  1
  F  F22  1  0.49541900  0.82716400  0.49900700  1
  F  F23  1  0.82716400  0.49541900  0.49900700  1
  F  F24  1  0.64352200  0.12082700  0.23658800  1
  F  F25  1  0.12082700  0.64352200  0.23658800  1
  F  F26  1  0.82109500  0.17890500  0.50000000  1
  F  F27  1  0.17890500  0.82109500  0.50000000  1
  F  F28  1  0.50579600  0.50579600  0.26835300  1
  F  F29  1  0.10411000  0.10411000  0.91286600  1
  F  F30  1  0.49867400  0.15475200  0.74006200  1
  F  F31  1  0.15475200  0.49867400  0.74006200  1
  F  F32  1  0.50132600  0.84524800  0.25993800  1
  F  F33  1  0.84524800  0.50132600  0.25993800  1
  F  F34  1  0.88744400  0.88744400  0.38362200  1
  F  F35  1  0.60592600  0.60592600  0.92360900  1
  F  F36  1  0.89589000  0.89589000  0.08713400  1
  F  F37  1  0.66690100  0.13122300  0.91529000  1
  F  F38  1  0.13122300  0.66690100  0.91529000  1
  F  F39  1  0.11255600  0.11255600  0.61637800  1
