# generated using pymatgen
data_Tm2MgSi2
_symmetry_space_group_name_H-M   'P 1'
_cell_length_a   4.18036000
_cell_length_b   7.07848300
_cell_length_c   7.07848300
_cell_angle_alpha   90.00000000
_cell_angle_beta   90.00000000
_cell_angle_gamma   90.00000000
_symmetry_Int_Tables_number   1
_chemical_formula_structural   Tm2MgSi2
_chemical_formula_sum   'Tm4 Mg2 Si4'
_cell_volume   209.45660998
_cell_formula_units_Z   2
loop_
 _symmetry_equiv_pos_site_id
 _symmetry_equiv_pos_as_xyz
  1  'x, y, z'
loop_
 _atom_site_type_symbol
 _atom_site_label
 _atom_site_symmetry_multiplicity
 _atom_site_fract_x
 _atom_site_fract_y
 _atom_site_fract_z
 _atom_site_occupancy
  Tm  Tm0  1  0.50000000  0.17822300  0.67822300  1
  Tm  Tm1  1  0.50000000  0.82177700  0.32177700  1
  Tm  Tm2  1  0.50000000  0.32177700  0.17822300  1
  Tm  Tm3  1  0.50000000  0.67822300  0.82177700  1
  Mg  Mg4  1  0.00000000  0.00000000  0.00000000  1
  Mg  Mg5  1  0.00000000  0.50000000  0.50000000  1
  Si  Si6  1  0.00000000  0.61933000  0.11933000  1
  Si  Si7  1  0.00000000  0.38067000  0.88067000  1
  Si  Si8  1  0.00000000  0.88067000  0.61933000  1
  Si  Si9  1  0.00000000  0.11933000  0.38067000  1
