# generated using pymatgen
data_Na2BiAsCO7
_symmetry_space_group_name_H-M   'P 1'
_cell_length_a   7.26504200
_cell_length_b   5.45084900
_cell_length_c   9.53879934
_cell_angle_alpha   87.84946162
_cell_angle_beta   90.00000000
_cell_angle_gamma   90.00000000
_symmetry_Int_Tables_number   1
_chemical_formula_structural   Na2BiAsCO7
_chemical_formula_sum   'Na4 Bi2 As2 C2 O14'
_cell_volume   377.47657410
_cell_formula_units_Z   2
loop_
 _symmetry_equiv_pos_site_id
 _symmetry_equiv_pos_as_xyz
  1  'x, y, z'
loop_
 _atom_site_type_symbol
 _atom_site_label
 _atom_site_symmetry_multiplicity
 _atom_site_fract_x
 _atom_site_fract_y
 _atom_site_fract_z
 _atom_site_occupancy
  Na  Na0  1  0.00899300  0.23248000  0.78984000  1
  Na  Na1  1  0.49100700  0.23248000  0.78984000  1
  Na  Na2  1  0.50899300  0.76752000  0.21016000  1
  Na  Na3  1  0.99100700  0.76752000  0.21016000  1
  Bi  Bi4  1  0.75000000  0.78226600  0.63093400  1
  Bi  Bi5  1  0.25000000  0.21773400  0.36906600  1
  As  As6  1  0.25000000  0.71779600  0.59887200  1
  As  As7  1  0.75000000  0.28220400  0.40112800  1
  C  C8  1  0.75000000  0.72650600  0.92174700  1
  C  C9  1  0.25000000  0.27349400  0.07825300  1
  O  O10  1  0.25000000  0.28702600  0.94650800  1
  O  O11  1  0.75000000  0.94209800  0.85068000  1
  O  O12  1  0.75000000  0.53237800  0.84290600  1
  O  O13  1  0.06081500  0.84930200  0.67426700  1
  O  O14  1  0.43918500  0.84930200  0.67426700  1
  O  O15  1  0.75000000  0.20992300  0.58227100  1
  O  O16  1  0.25000000  0.40530700  0.61933400  1
  O  O17  1  0.75000000  0.59469300  0.38066600  1
  O  O18  1  0.25000000  0.79007700  0.41772900  1
  O  O19  1  0.56081500  0.15069800  0.32573300  1
  O  O20  1  0.93918500  0.15069800  0.32573300  1
  O  O21  1  0.25000000  0.46762200  0.15709400  1
  O  O22  1  0.25000000  0.05790200  0.14932000  1
  O  O23  1  0.75000000  0.71297400  0.05349200  1
