# generated using pymatgen
data_LaCd2Pd
_symmetry_space_group_name_H-M   'P 1'
_cell_length_a   5.54425920
_cell_length_b   5.54425920
_cell_length_c   8.64835100
_cell_angle_alpha   90.00000000
_cell_angle_beta   90.00000000
_cell_angle_gamma   134.06947673
_symmetry_Int_Tables_number   1
_chemical_formula_structural   LaCd2Pd
_chemical_formula_sum   'La2 Cd4 Pd2'
_cell_volume   191.00523771
_cell_formula_units_Z   2
loop_
 _symmetry_equiv_pos_site_id
 _symmetry_equiv_pos_as_xyz
  1  'x, y, z'
loop_
 _atom_site_type_symbol
 _atom_site_label
 _atom_site_symmetry_multiplicity
 _atom_site_fract_x
 _atom_site_fract_y
 _atom_site_fract_z
 _atom_site_occupancy
  La  La0  1  0.06485000  0.93515000  0.25000000  1
  La  La1  1  0.93515000  0.06485000  0.75000000  1
  Cd  Cd2  1  0.64520300  0.35479700  0.54733300  1
  Cd  Cd3  1  0.35479700  0.64520300  0.45266700  1
  Cd  Cd4  1  0.64520300  0.35479700  0.95266700  1
  Cd  Cd5  1  0.35479700  0.64520300  0.04733300  1
  Pd  Pd6  1  0.22056100  0.77943900  0.75000000  1
  Pd  Pd7  1  0.77943900  0.22056100  0.25000000  1
