# generated using pymatgen
data_Ta2Be17
_symmetry_space_group_name_H-M   'P 1'
_cell_length_a   5.55553076
_cell_length_b   5.55553076
_cell_length_c   5.55553133
_cell_angle_alpha   82.88539235
_cell_angle_beta   82.88539235
_cell_angle_gamma   82.88539816
_symmetry_Int_Tables_number   1
_chemical_formula_structural   Ta2Be17
_chemical_formula_sum   'Ta2 Be17'
_cell_volume   167.80682187
_cell_formula_units_Z   1
loop_
 _symmetry_equiv_pos_site_id
 _symmetry_equiv_pos_as_xyz
  1  'x, y, z'
loop_
 _atom_site_type_symbol
 _atom_site_label
 _atom_site_symmetry_multiplicity
 _atom_site_fract_x
 _atom_site_fract_y
 _atom_site_fract_z
 _atom_site_occupancy
  Ta  Ta0  1  0.84050700  0.84050700  0.84050700  1
  Ta  Ta1  1  0.15949300  0.15949300  0.15949300  1
  Be  Be2  1  0.59916600  0.59916600  0.59916600  1
  Be  Be3  1  0.40083400  0.40083400  0.40083400  1
  Be  Be4  1  0.50000000  0.50000000  0.00000000  1
  Be  Be5  1  0.00000000  0.50000000  0.50000000  1
  Be  Be6  1  0.50000000  0.00000000  0.50000000  1
  Be  Be7  1  0.20468200  0.50000000  0.79531800  1
  Be  Be8  1  0.79531800  0.20468200  0.50000000  1
  Be  Be9  1  0.50000000  0.79531800  0.20468200  1
  Be  Be10  1  0.79531800  0.50000000  0.20468200  1
  Be  Be11  1  0.20468200  0.79531800  0.50000000  1
  Be  Be12  1  0.50000000  0.20468200  0.79531800  1
  Be  Be13  1  0.84654900  0.33793300  0.84654900  1
  Be  Be14  1  0.84654900  0.84654900  0.33793300  1
  Be  Be15  1  0.33793300  0.84654900  0.84654900  1
  Be  Be16  1  0.15345100  0.66206700  0.15345100  1
  Be  Be17  1  0.15345100  0.15345100  0.66206700  1
  Be  Be18  1  0.66206700  0.15345100  0.15345100  1
