# generated using pymatgen
data_TmGaNi
_symmetry_space_group_name_H-M   'P 1'
_cell_length_a   4.27660800
_cell_length_b   6.75626500
_cell_length_c   7.23208700
_cell_angle_alpha   90.00000000
_cell_angle_beta   90.00000000
_cell_angle_gamma   90.00000000
_symmetry_Int_Tables_number   1
_chemical_formula_structural   TmGaNi
_chemical_formula_sum   'Tm4 Ga4 Ni4'
_cell_volume   208.96317651
_cell_formula_units_Z   4
loop_
 _symmetry_equiv_pos_site_id
 _symmetry_equiv_pos_as_xyz
  1  'x, y, z'
loop_
 _atom_site_type_symbol
 _atom_site_label
 _atom_site_symmetry_multiplicity
 _atom_site_fract_x
 _atom_site_fract_y
 _atom_site_fract_z
 _atom_site_occupancy
  Tm  Tm0  1  0.25000000  0.01834900  0.80240300  1
  Tm  Tm1  1  0.25000000  0.51834900  0.69759700  1
  Tm  Tm2  1  0.75000000  0.98165100  0.19759700  1
  Tm  Tm3  1  0.75000000  0.48165100  0.30240300  1
  Ga  Ga4  1  0.25000000  0.18209200  0.42048400  1
  Ga  Ga5  1  0.25000000  0.68209200  0.07951600  1
  Ga  Ga6  1  0.75000000  0.81790800  0.57951600  1
  Ga  Ga7  1  0.75000000  0.31790800  0.92048400  1
  Ni  Ni8  1  0.25000000  0.79266300  0.40837100  1
  Ni  Ni9  1  0.25000000  0.29266300  0.09162900  1
  Ni  Ni10  1  0.75000000  0.20733700  0.59162900  1
  Ni  Ni11  1  0.75000000  0.70733700  0.90837100  1
