# generated using pymatgen
data_LiMn2O4
_symmetry_space_group_name_H-M   'P 1'
_cell_length_a   6.04904300
_cell_length_b   8.22519344
_cell_length_c   10.23491844
_cell_angle_alpha   113.69360855
_cell_angle_beta   104.51434668
_cell_angle_gamma   89.50460771
_symmetry_Int_Tables_number   1
_chemical_formula_structural   LiMn2O4
_chemical_formula_sum   'Li6 Mn12 O24'
_cell_volume   448.98572949
_cell_formula_units_Z   6
loop_
 _symmetry_equiv_pos_site_id
 _symmetry_equiv_pos_as_xyz
  1  'x, y, z'
loop_
 _atom_site_type_symbol
 _atom_site_label
 _atom_site_symmetry_multiplicity
 _atom_site_fract_x
 _atom_site_fract_y
 _atom_site_fract_z
 _atom_site_occupancy
  Li  Li0  1  0.93310100  0.04244800  0.83660600  1
  Li  Li1  1  0.59451900  0.71192700  0.17140800  1
  Li  Li2  1  0.06803000  0.95884300  0.16393900  1
  Li  Li3  1  0.73475100  0.62039000  0.49559700  1
  Li  Li4  1  0.41195700  0.29007600  0.83124500  1
  Li  Li5  1  0.26050300  0.37413400  0.50207700  1
  Mn  Mn6  1  0.82851900  0.33298600  0.16551700  1
  Mn  Mn7  1  0.50137700  0.00036900  0.99959100  1
  Mn  Mn8  1  0.67633000  0.67034900  0.83919400  1
  Mn  Mn9  1  0.15891900  0.66612400  0.33209100  1
  Mn  Mn10  1  0.17623800  0.66831000  0.83875500  1
  Mn  Mn11  1  0.00584200  0.50365600  0.00291000  1
  Mn  Mn12  1  0.99820900  0.99908800  0.49902500  1
  Mn  Mn13  1  0.32762100  0.33013400  0.16221100  1
  Mn  Mn14  1  0.83943500  0.33174600  0.66804500  1
  Mn  Mn15  1  0.49654400  0.99784200  0.49618500  1
  Mn  Mn16  1  0.33639100  0.83005700  0.66520000  1
  Mn  Mn17  1  0.66106100  0.16594700  0.33345900  1
  O  O18  1  0.84542900  0.08778300  0.65461600  1
  O  O19  1  0.15980100  0.44192100  0.85164000  1
  O  O20  1  0.48564400  0.23922300  0.00820700  1
  O  O21  1  0.51758000  0.76358600  0.99359800  1
  O  O22  1  0.98958000  0.23715800  0.50611100  1
  O  O23  1  0.33736500  0.09214000  0.15115600  1
  O  O24  1  0.45334900  0.75376400  0.48677600  1
  O  O25  1  0.01968100  0.27581000  0.02102800  1
  O  O26  1  0.29838200  0.57165100  0.16307300  1
  O  O27  1  0.69172400  0.93743600  0.35671700  1
  O  O28  1  0.17419100  0.42364200  0.31859800  1
  O  O29  1  0.30765700  0.05653800  0.64119000  1
  O  O30  1  0.63212500  0.39438100  0.30412300  1
  O  O31  1  0.66247300  0.90783700  0.84630700  1
  O  O32  1  0.98214800  0.72874000  0.98373300  1
  O  O33  1  0.37186000  0.60552200  0.69515600  1
  O  O34  1  0.00905400  0.75446200  0.48730500  1
  O  O35  1  0.14934300  0.90350600  0.34077000  1
  O  O36  1  0.71129600  0.43436000  0.84775500  1
  O  O37  1  0.21187400  0.90593200  0.83992900  1
  O  O38  1  0.86877000  0.57301600  0.17085700  1
  O  O39  1  0.78950100  0.09389100  0.15998800  1
  O  O40  1  0.83110200  0.57917100  0.68429400  1
  O  O41  1  0.51593300  0.22932400  0.49182300  1
