# generated using pymatgen
data_Nd3Rh2
_symmetry_space_group_name_H-M   'P 1'
_cell_length_a   7.60807351
_cell_length_b   7.60807351
_cell_length_c   7.60807374
_cell_angle_alpha   71.46585159
_cell_angle_beta   71.46585159
_cell_angle_gamma   71.46584796
_symmetry_Int_Tables_number   1
_chemical_formula_structural   Nd3Rh2
_chemical_formula_sum   'Nd9 Rh6'
_cell_volume   384.19213191
_cell_formula_units_Z   3
loop_
 _symmetry_equiv_pos_site_id
 _symmetry_equiv_pos_as_xyz
  1  'x, y, z'
loop_
 _atom_site_type_symbol
 _atom_site_label
 _atom_site_symmetry_multiplicity
 _atom_site_fract_x
 _atom_site_fract_y
 _atom_site_fract_z
 _atom_site_occupancy
  Nd  Nd0  1  0.00000000  0.00000000  0.00000000  1
  Nd  Nd1  1  0.79646200  0.79646200  0.79646200  1
  Nd  Nd2  1  0.20353800  0.20353800  0.20353800  1
  Nd  Nd3  1  0.16504600  0.39294900  0.66441100  1
  Nd  Nd4  1  0.66441100  0.16504600  0.39294900  1
  Nd  Nd5  1  0.39294900  0.66441100  0.16504600  1
  Nd  Nd6  1  0.83495400  0.60705100  0.33558900  1
  Nd  Nd7  1  0.33558900  0.83495400  0.60705100  1
  Nd  Nd8  1  0.60705100  0.33558900  0.83495400  1
  Rh  Rh9  1  0.95618000  0.16365800  0.58939000  1
  Rh  Rh10  1  0.58939000  0.95618000  0.16365800  1
  Rh  Rh11  1  0.16365800  0.58939000  0.95618000  1
  Rh  Rh12  1  0.04382000  0.83634200  0.41061000  1
  Rh  Rh13  1  0.41061000  0.04382000  0.83634200  1
  Rh  Rh14  1  0.83634200  0.41061000  0.04382000  1
