# generated using pymatgen
data_RbNb4Ag(PS10)2
_symmetry_space_group_name_H-M   'P 1'
_cell_length_a   7.40778300
_cell_length_b   7.53796935
_cell_length_c   13.03814517
_cell_angle_alpha   89.47371348
_cell_angle_beta   76.52633973
_cell_angle_gamma   87.90710521
_symmetry_Int_Tables_number   1
_chemical_formula_structural   RbNb4Ag(PS10)2
_chemical_formula_sum   'Rb1 Nb4 Ag1 P2 S20'
_cell_volume   707.53499342
_cell_formula_units_Z   1
loop_
 _symmetry_equiv_pos_site_id
 _symmetry_equiv_pos_as_xyz
  1  'x, y, z'
loop_
 _atom_site_type_symbol
 _atom_site_label
 _atom_site_symmetry_multiplicity
 _atom_site_fract_x
 _atom_site_fract_y
 _atom_site_fract_z
 _atom_site_occupancy
  Rb  Rb0  1  0.05645000  0.50190400  0.43931500  1
  Nb  Nb1  1  0.49991300  0.06759300  0.60548800  1
  Nb  Nb2  1  0.49936300  0.93175000  0.39635900  1
  Nb  Nb3  1  0.50195400  0.06747400  0.89471200  1
  Nb  Nb4  1  0.49818600  0.93349000  0.10452600  1
  Ag  Ag5  1  0.00326500  0.49993000  0.99878700  1
  P  P6  1  0.29119500  0.38257500  0.77711800  1
  P  P7  1  0.70678300  0.61886500  0.22200300  1
  S  S8  1  0.62884700  0.86545700  0.73377000  1
  S  S9  1  0.37220400  0.13530300  0.26730600  1
  S  S10  1  0.70713900  0.16957600  0.01051000  1
  S  S11  1  0.29366400  0.83041100  0.98871000  1
  S  S12  1  0.44941500  0.40933300  0.88562900  1
  S  S13  1  0.54842300  0.59062400  0.11448100  1
  S  S14  1  0.71088800  0.16623700  0.43329700  1
  S  S15  1  0.28856700  0.83101100  0.56840300  1
  S  S16  1  0.77262400  0.91755900  0.48048400  1
  S  S17  1  0.22562900  0.07988000  0.52212300  1
  S  S18  1  0.77654600  0.92110000  0.95072100  1
  S  S19  1  0.22358900  0.07868000  0.04888700  1
  S  S20  1  0.05803200  0.53709800  0.80735400  1
  S  S21  1  0.94052700  0.46319200  0.19103200  1
  S  S22  1  0.74441300  0.10954500  0.71704700  1
  S  S23  1  0.25496400  0.89221800  0.28253900  1
  S  S24  1  0.24825600  0.10846900  0.78302500  1
  S  S25  1  0.75109000  0.89182200  0.21746300  1
  S  S26  1  0.43970200  0.41109100  0.62338300  1
  S  S27  1  0.56277200  0.58761500  0.37692900  1
