# generated using pymatgen
data_Pr4AsBrO8
_symmetry_space_group_name_H-M   'P 1'
_cell_length_a   8.45782300
_cell_length_b   8.45782300
_cell_length_c   13.41400600
_cell_angle_alpha   90.00000000
_cell_angle_beta   90.00000000
_cell_angle_gamma   90.00000000
_symmetry_Int_Tables_number   1
_chemical_formula_structural   Pr4AsBrO8
_chemical_formula_sum   'Pr16 As4 Br4 O32'
_cell_volume   959.56783264
_cell_formula_units_Z   4
loop_
 _symmetry_equiv_pos_site_id
 _symmetry_equiv_pos_as_xyz
  1  'x, y, z'
loop_
 _atom_site_type_symbol
 _atom_site_label
 _atom_site_symmetry_multiplicity
 _atom_site_fract_x
 _atom_site_fract_y
 _atom_site_fract_z
 _atom_site_occupancy
  Pr  Pr0  1  0.01319000  0.24436400  0.16829200  1
  Pr  Pr1  1  0.98681000  0.75563600  0.16829200  1
  Pr  Pr2  1  0.24436400  0.98681000  0.66829200  1
  Pr  Pr3  1  0.75563600  0.01319000  0.66829200  1
  Pr  Pr4  1  0.98681000  0.75563600  0.83170800  1
  Pr  Pr5  1  0.01319000  0.24436400  0.83170800  1
  Pr  Pr6  1  0.75563600  0.01319000  0.33170800  1
  Pr  Pr7  1  0.24436400  0.98681000  0.33170800  1
  Pr  Pr8  1  0.75536500  0.48324300  0.33135400  1
  Pr  Pr9  1  0.24463500  0.51675700  0.33135400  1
  Pr  Pr10  1  0.48324300  0.24463500  0.83135400  1
  Pr  Pr11  1  0.51675700  0.75536500  0.83135400  1
  Pr  Pr12  1  0.24463500  0.51675700  0.66864600  1
  Pr  Pr13  1  0.75536500  0.48324300  0.66864600  1
  Pr  Pr14  1  0.51675700  0.75536500  0.16864600  1
  Pr  Pr15  1  0.48324300  0.24463500  0.16864600  1
  As  As16  1  0.04272900  0.25207200  0.50000000  1
  As  As17  1  0.95727100  0.74792800  0.50000000  1
  As  As18  1  0.25207200  0.95727100  0.00000000  1
  As  As19  1  0.74792800  0.04272900  0.00000000  1
  Br  Br20  1  0.55613300  0.25291900  0.50000000  1
  Br  Br21  1  0.44386700  0.74708100  0.50000000  1
  Br  Br22  1  0.25291900  0.44386700  0.00000000  1
  Br  Br23  1  0.74708100  0.55613300  0.00000000  1
  O  O24  1  0.00000000  0.00000000  0.25000000  1
  O  O25  1  0.00000000  0.00000000  0.75000000  1
  O  O26  1  0.50000000  0.50000000  0.25000000  1
  O  O27  1  0.50000000  0.50000000  0.75000000  1
  O  O28  1  0.74343400  0.24946500  0.23020400  1
  O  O29  1  0.25656600  0.75053500  0.23020400  1
  O  O30  1  0.24946500  0.25656600  0.73020400  1
  O  O31  1  0.75053500  0.74343400  0.73020400  1
  O  O32  1  0.25656600  0.75053500  0.76979600  1
  O  O33  1  0.74343400  0.24946500  0.76979600  1
  O  O34  1  0.75053500  0.74343400  0.26979600  1
  O  O35  1  0.24946500  0.25656600  0.26979600  1
  O  O36  1  0.00000000  0.50000000  0.23880300  1
  O  O37  1  0.50000000  0.00000000  0.73880300  1
  O  O38  1  0.00000000  0.50000000  0.76119700  1
  O  O39  1  0.50000000  0.00000000  0.26119700  1
  O  O40  1  0.16406000  0.08599800  0.50000000  1
  O  O41  1  0.83594000  0.91400200  0.50000000  1
  O  O42  1  0.08599800  0.83594000  0.00000000  1
  O  O43  1  0.91400200  0.16406000  0.00000000  1
  O  O44  1  0.16455100  0.41752800  0.50000000  1
  O  O45  1  0.83544900  0.58247200  0.50000000  1
  O  O46  1  0.41752800  0.83544900  0.00000000  1
  O  O47  1  0.58247200  0.16455100  0.00000000  1
  O  O48  1  0.92820200  0.25203000  0.39482000  1
  O  O49  1  0.07179800  0.74797000  0.39482000  1
  O  O50  1  0.25203000  0.07179800  0.89482000  1
  O  O51  1  0.74797000  0.92820200  0.89482000  1
  O  O52  1  0.07179800  0.74797000  0.60518000  1
  O  O53  1  0.92820200  0.25203000  0.60518000  1
  O  O54  1  0.74797000  0.92820200  0.10518000  1
  O  O55  1  0.25203000  0.07179800  0.10518000  1
