# generated using pymatgen
data_Ba2V3HO9
_symmetry_space_group_name_H-M   'P 1'
_cell_length_a   6.27530000
_cell_length_b   8.00218803
_cell_length_c   9.28883187
_cell_angle_alpha   112.73112119
_cell_angle_beta   90.00000000
_cell_angle_gamma   90.00000000
_symmetry_Int_Tables_number   1
_chemical_formula_structural   Ba2V3HO9
_chemical_formula_sum   'Ba4 V6 H2 O18'
_cell_volume   430.21931126
_cell_formula_units_Z   2
loop_
 _symmetry_equiv_pos_site_id
 _symmetry_equiv_pos_as_xyz
  1  'x, y, z'
loop_
 _atom_site_type_symbol
 _atom_site_label
 _atom_site_symmetry_multiplicity
 _atom_site_fract_x
 _atom_site_fract_y
 _atom_site_fract_z
 _atom_site_occupancy
  Ba  Ba0  1  0.75000000  0.32085200  0.41165700  1
  Ba  Ba1  1  0.25000000  0.67914800  0.58834300  1
  Ba  Ba2  1  0.75000000  0.73565500  0.24454000  1
  Ba  Ba3  1  0.25000000  0.26434500  0.75546000  1
  V  V4  1  0.50000000  0.00000000  0.00000000  1
  V  V5  1  0.00000000  0.00000000  0.00000000  1
  V  V6  1  0.25000000  0.04667200  0.33400900  1
  V  V7  1  0.75000000  0.95332800  0.66599100  1
  V  V8  1  0.75000000  0.56416600  0.82697900  1
  V  V9  1  0.25000000  0.43583400  0.17302100  1
  H  H10  1  0.75000000  0.27106600  0.02492700  1
  H  H11  1  0.25000000  0.72893400  0.97507300  1
  O  O12  1  0.48787000  0.00472000  0.21951800  1
  O  O13  1  0.98787000  0.99528000  0.78048200  1
  O  O14  1  0.51213000  0.99528000  0.78048200  1
  O  O15  1  0.01213000  0.00472000  0.21951800  1
  O  O16  1  0.52956300  0.50205000  0.70671300  1
  O  O17  1  0.02956300  0.49795000  0.29328700  1
  O  O18  1  0.47043700  0.49795000  0.29328700  1
  O  O19  1  0.97043700  0.50205000  0.70671300  1
  O  O20  1  0.75000000  0.80719400  0.94977300  1
  O  O21  1  0.25000000  0.19280600  0.05022700  1
  O  O22  1  0.25000000  0.26921800  0.45893600  1
  O  O23  1  0.75000000  0.73078200  0.54106400  1
  O  O24  1  0.75000000  0.17415900  0.06669900  1
  O  O25  1  0.25000000  0.82584100  0.93330100  1
  O  O26  1  0.25000000  0.91986800  0.44478400  1
  O  O27  1  0.75000000  0.08013200  0.55521600  1
  O  O28  1  0.75000000  0.45150500  0.95067500  1
  O  O29  1  0.25000000  0.54849500  0.04932500  1
