# generated using pymatgen
data_TaNiTe2
_symmetry_space_group_name_H-M   'P 1'
_cell_length_a   6.26406000
_cell_length_b   7.53306000
_cell_length_c   7.97655600
_cell_angle_alpha   90.00000000
_cell_angle_beta   90.00000000
_cell_angle_gamma   90.00000000
_symmetry_Int_Tables_number   1
_chemical_formula_structural   TaNiTe2
_chemical_formula_sum   'Ta4 Ni4 Te8'
_cell_volume   376.39405391
_cell_formula_units_Z   4
loop_
 _symmetry_equiv_pos_site_id
 _symmetry_equiv_pos_as_xyz
  1  'x, y, z'
loop_
 _atom_site_type_symbol
 _atom_site_label
 _atom_site_symmetry_multiplicity
 _atom_site_fract_x
 _atom_site_fract_y
 _atom_site_fract_z
 _atom_site_occupancy
  Ta  Ta0  1  0.50000000  0.00000000  0.79384300  1
  Ta  Ta1  1  0.00000000  0.00000000  0.70615700  1
  Ta  Ta2  1  0.00000000  0.00000000  0.29384300  1
  Ta  Ta3  1  0.50000000  0.00000000  0.20615700  1
  Ni  Ni4  1  0.85544900  0.88538000  0.00000000  1
  Ni  Ni5  1  0.64455100  0.88538000  0.50000000  1
  Ni  Ni6  1  0.35544900  0.11462000  0.50000000  1
  Ni  Ni7  1  0.14455100  0.11462000  0.00000000  1
  Te  Te8  1  0.25293600  0.78016500  0.00000000  1
  Te  Te9  1  0.75000000  0.68853000  0.25000000  1
  Te  Te10  1  0.75293600  0.21983500  0.50000000  1
  Te  Te11  1  0.74706400  0.21983500  0.00000000  1
  Te  Te12  1  0.25000000  0.31147000  0.25000000  1
  Te  Te13  1  0.25000000  0.31147000  0.75000000  1
  Te  Te14  1  0.75000000  0.68853000  0.75000000  1
  Te  Te15  1  0.24706400  0.78016500  0.50000000  1
