# generated using pymatgen
data_LaGePt
_symmetry_space_group_name_H-M   'P 1'
_cell_length_a   8.17121725
_cell_length_b   8.17121725
_cell_length_c   8.17121725
_cell_angle_alpha   149.49612183
_cell_angle_beta   149.49612183
_cell_angle_gamma   43.68154769
_symmetry_Int_Tables_number   1
_chemical_formula_structural   LaGePt
_chemical_formula_sum   'La2 Ge2 Pt2'
_cell_volume   140.18262746
_cell_formula_units_Z   2
loop_
 _symmetry_equiv_pos_site_id
 _symmetry_equiv_pos_as_xyz
  1  'x, y, z'
loop_
 _atom_site_type_symbol
 _atom_site_label
 _atom_site_symmetry_multiplicity
 _atom_site_fract_x
 _atom_site_fract_y
 _atom_site_fract_z
 _atom_site_occupancy
  La  La0  1  0.74991300  0.24991300  0.50000000  1
  La  La1  1  0.99991300  0.99991300  0.00000000  1
  Ge  Ge2  1  0.16913700  0.66913700  0.50000000  1
  Ge  Ge3  1  0.41913700  0.41913700  0.00000000  1
  Pt  Pt4  1  0.33495000  0.83495000  0.50000000  1
  Pt  Pt5  1  0.58495000  0.58495000  0.00000000  1
