# generated using pymatgen
data_Ba(FeO2)2
_symmetry_space_group_name_H-M   'P 1'
_cell_length_a   10.63317961
_cell_length_b   10.63317961
_cell_length_c   5.50661500
_cell_angle_alpha   90.00000000
_cell_angle_beta   90.00000000
_cell_angle_gamma   132.18809740
_symmetry_Int_Tables_number   1
_chemical_formula_structural   Ba(FeO2)2
_chemical_formula_sum   'Ba4 Fe8 O16'
_cell_volume   461.31382608
_cell_formula_units_Z   4
loop_
 _symmetry_equiv_pos_site_id
 _symmetry_equiv_pos_as_xyz
  1  'x, y, z'
loop_
 _atom_site_type_symbol
 _atom_site_label
 _atom_site_symmetry_multiplicity
 _atom_site_fract_x
 _atom_site_fract_y
 _atom_site_fract_z
 _atom_site_occupancy
  Ba  Ba0  1  0.61991600  0.38008400  0.27558700  1
  Ba  Ba1  1  0.38008400  0.61991600  0.77558700  1
  Ba  Ba2  1  0.13017900  0.86982100  0.24274700  1
  Ba  Ba3  1  0.86982100  0.13017900  0.74274600  1
  Fe  Fe4  1  0.91833100  0.49855400  0.74738600  1
  Fe  Fe5  1  0.08166900  0.50144600  0.24738600  1
  Fe  Fe6  1  0.50144600  0.08166900  0.74738600  1
  Fe  Fe7  1  0.49855400  0.91833100  0.24738600  1
  Fe  Fe8  1  0.76380400  0.67592300  0.76853100  1
  Fe  Fe9  1  0.23619600  0.32407700  0.26853100  1
  Fe  Fe10  1  0.32407700  0.23619600  0.76853100  1
  Fe  Fe11  1  0.67592300  0.76380400  0.26853100  1
  O  O12  1  0.28269500  0.71730500  0.14174000  1
  O  O13  1  0.71730500  0.28269500  0.64174000  1
  O  O14  1  0.44911600  0.55088400  0.25607500  1
  O  O15  1  0.55088400  0.44911600  0.75607500  1
  O  O16  1  0.92121500  0.50342300  0.09431900  1
  O  O17  1  0.07878500  0.49657700  0.59431900  1
  O  O18  1  0.49657700  0.07878500  0.09431900  1
  O  O19  1  0.50342300  0.92121500  0.59431900  1
  O  O20  1  0.92130600  0.66823200  0.62173900  1
  O  O21  1  0.07869400  0.33176800  0.12173900  1
  O  O22  1  0.33176800  0.07869400  0.62173900  1
  O  O23  1  0.66823200  0.92130600  0.12173900  1
  O  O24  1  0.73963900  0.81642000  0.60245100  1
  O  O25  1  0.26036100  0.18358000  0.10245100  1
  O  O26  1  0.18358000  0.26036100  0.60245100  1
  O  O27  1  0.81642000  0.73963900  0.10245100  1
