# generated using pymatgen
data_HoNiO3
_symmetry_space_group_name_H-M   'P 1'
_cell_length_a   5.18423000
_cell_length_b   5.65831800
_cell_length_c   7.40740500
_cell_angle_alpha   90.00000000
_cell_angle_beta   90.00000000
_cell_angle_gamma   90.00000000
_symmetry_Int_Tables_number   1
_chemical_formula_structural   HoNiO3
_chemical_formula_sum   'Ho4 Ni4 O12'
_cell_volume   217.28898068
_cell_formula_units_Z   4
loop_
 _symmetry_equiv_pos_site_id
 _symmetry_equiv_pos_as_xyz
  1  'x, y, z'
loop_
 _atom_site_type_symbol
 _atom_site_label
 _atom_site_symmetry_multiplicity
 _atom_site_fract_x
 _atom_site_fract_y
 _atom_site_fract_z
 _atom_site_occupancy
  Ho  Ho0  1  0.47714600  0.41769700  0.75000000  1
  Ho  Ho1  1  0.02285400  0.91769700  0.75000000  1
  Ho  Ho2  1  0.52285400  0.58230300  0.25000000  1
  Ho  Ho3  1  0.97714600  0.08230300  0.25000000  1
  Ni  Ni4  1  0.00000000  0.50000000  0.00000000  1
  Ni  Ni5  1  0.50000000  0.00000000  0.50000000  1
  Ni  Ni6  1  0.00000000  0.50000000  0.50000000  1
  Ni  Ni7  1  0.50000000  0.00000000  0.00000000  1
  O  O8  1  0.69606200  0.31186000  0.44717500  1
  O  O9  1  0.80393800  0.81186000  0.05282500  1
  O  O10  1  0.30393800  0.68814000  0.55282500  1
  O  O11  1  0.19606200  0.18814000  0.94717500  1
  O  O12  1  0.19606200  0.18814000  0.55282500  1
  O  O13  1  0.30393800  0.68814000  0.94717500  1
  O  O14  1  0.80393800  0.81186000  0.44717500  1
  O  O15  1  0.69606200  0.31186000  0.05282500  1
  O  O16  1  0.10903600  0.46734200  0.25000000  1
  O  O17  1  0.39096400  0.96734200  0.25000000  1
  O  O18  1  0.89096400  0.53265800  0.75000000  1
  O  O19  1  0.60903600  0.03265800  0.75000000  1
