# generated using pymatgen
data_HoGa2Ni
_symmetry_space_group_name_H-M   'P 1'
_cell_length_a   5.45900640
_cell_length_b   5.45900640
_cell_length_c   6.64266300
_cell_angle_alpha   90.00000000
_cell_angle_beta   90.00000000
_cell_angle_gamma   135.71094078
_symmetry_Int_Tables_number   1
_chemical_formula_structural   HoGa2Ni
_chemical_formula_sum   'Ho2 Ga4 Ni2'
_cell_volume   138.22868139
_cell_formula_units_Z   2
loop_
 _symmetry_equiv_pos_site_id
 _symmetry_equiv_pos_as_xyz
  1  'x, y, z'
loop_
 _atom_site_type_symbol
 _atom_site_label
 _atom_site_symmetry_multiplicity
 _atom_site_fract_x
 _atom_site_fract_y
 _atom_site_fract_z
 _atom_site_occupancy
  Ho  Ho0  1  0.57196700  0.42803300  0.25000000  1
  Ho  Ho1  1  0.42803300  0.57196700  0.75000000  1
  Ga  Ga2  1  0.85578000  0.14422000  0.44572500  1
  Ga  Ga3  1  0.14422000  0.85578000  0.55427500  1
  Ga  Ga4  1  0.85578000  0.14422000  0.05427500  1
  Ga  Ga5  1  0.14422000  0.85578000  0.94572500  1
  Ni  Ni6  1  0.29061000  0.70939000  0.25000000  1
  Ni  Ni7  1  0.70939000  0.29061000  0.75000000  1
