# generated using pymatgen
data_GdCO4
_symmetry_space_group_name_H-M   'P 1'
_cell_length_a   12.23709017
_cell_length_b   12.23709017
_cell_length_c   9.77164300
_cell_angle_alpha   90.00000000
_cell_angle_beta   90.00000000
_cell_angle_gamma   120.00000090
_symmetry_Int_Tables_number   1
_chemical_formula_structural   GdCO4
_chemical_formula_sum   'Gd18 C18 O72'
_cell_volume   1267.22735662
_cell_formula_units_Z   18
loop_
 _symmetry_equiv_pos_site_id
 _symmetry_equiv_pos_as_xyz
  1  'x, y, z'
loop_
 _atom_site_type_symbol
 _atom_site_label
 _atom_site_symmetry_multiplicity
 _atom_site_fract_x
 _atom_site_fract_y
 _atom_site_fract_z
 _atom_site_occupancy
  Gd  Gd0  1  0.43585600  0.22142100  0.26006300  1
  Gd  Gd1  1  0.77857900  0.21443500  0.26006300  1
  Gd  Gd2  1  0.78556500  0.56414400  0.26006300  1
  Gd  Gd3  1  0.43585600  0.22142100  0.73993700  1
  Gd  Gd4  1  0.77857900  0.21443500  0.73993700  1
  Gd  Gd5  1  0.78556500  0.56414400  0.73993700  1
  Gd  Gd6  1  0.10363700  0.55577700  0.24377700  1
  Gd  Gd7  1  0.44422300  0.54786000  0.24377700  1
  Gd  Gd8  1  0.45214000  0.89636300  0.24377700  1
  Gd  Gd9  1  0.10363700  0.55577700  0.75622300  1
  Gd  Gd10  1  0.44422300  0.54786000  0.75622300  1
  Gd  Gd11  1  0.45214000  0.89636300  0.75622300  1
  Gd  Gd12  1  0.11975900  0.88993300  0.24459500  1
  Gd  Gd13  1  0.11006700  0.22982600  0.24459500  1
  Gd  Gd14  1  0.77017400  0.88024100  0.24459500  1
  Gd  Gd15  1  0.11975900  0.88993300  0.75540500  1
  Gd  Gd16  1  0.11006700  0.22982600  0.75540500  1
  Gd  Gd17  1  0.77017400  0.88024100  0.75540500  1
  C  C18  1  0.15715900  0.47171800  0.50000000  1
  C  C19  1  0.52828200  0.68544100  0.50000000  1
  C  C20  1  0.31455900  0.84284100  0.50000000  1
  C  C21  1  0.55568000  0.42619600  0.50000000  1
  C  C22  1  0.57380400  0.12948400  0.50000000  1
  C  C23  1  0.87051600  0.44432000  0.50000000  1
  C  C24  1  0.19635600  0.02744500  0.50000000  1
  C  C25  1  0.97255500  0.16891100  0.50000000  1
  C  C26  1  0.83108900  0.80364400  0.50000000  1
  C  C27  1  0.24259200  0.78111000  0.00000000  1
  C  C28  1  0.21889000  0.46148100  0.00000000  1
  C  C29  1  0.53851900  0.75740800  0.00000000  1
  C  C30  1  0.89279600  0.79583700  0.00000000  1
  C  C31  1  0.20416300  0.09695900  0.00000000  1
  C  C32  1  0.90304100  0.10720400  0.00000000  1
  C  C33  1  0.48766900  0.35509700  0.00000000  1
  C  C34  1  0.64490300  0.13257100  0.00000000  1
  C  C35  1  0.86742900  0.51233100  0.00000000  1
  O  O36  1  0.15311200  0.57618000  0.50000000  1
  O  O37  1  0.42382000  0.57693100  0.50000000  1
  O  O38  1  0.42306900  0.84688800  0.50000000  1
  O  O39  1  0.15713700  0.42199200  0.38408500  1
  O  O40  1  0.57800800  0.73514500  0.38408500  1
  O  O41  1  0.26485500  0.84286300  0.38408500  1
  O  O42  1  0.15713700  0.42199200  0.61591500  1
  O  O43  1  0.57800800  0.73514500  0.61591500  1
  O  O44  1  0.26485500  0.84286300  0.61591500  1
  O  O45  1  0.49613000  0.30387400  0.50000000  1
  O  O46  1  0.69612600  0.19225700  0.50000000  1
  O  O47  1  0.80774300  0.50387000  0.50000000  1
  O  O48  1  0.51462100  0.09972400  0.38458000  1
  O  O49  1  0.90027600  0.41489700  0.38458000  1
  O  O50  1  0.58510300  0.48537900  0.38458000  1
  O  O51  1  0.51462100  0.09972400  0.61542000  1
  O  O52  1  0.90027600  0.41489700  0.61542000  1
  O  O53  1  0.58510300  0.48537900  0.61542000  1
  O  O54  1  0.09327100  0.91919100  0.50000000  1
  O  O55  1  0.08080900  0.17408000  0.50000000  1
  O  O56  1  0.82592000  0.90672900  0.50000000  1
  O  O57  1  0.24696400  0.07813200  0.38467100  1
  O  O58  1  0.92186800  0.16883200  0.38467100  1
  O  O59  1  0.83116800  0.75303600  0.38467100  1
  O  O60  1  0.24696400  0.07813200  0.61532900  1
  O  O61  1  0.92186800  0.16883200  0.61532900  1
  O  O62  1  0.83116800  0.75303600  0.61532900  1
  O  O63  1  0.16474000  0.52955800  0.00000000  1
  O  O64  1  0.47044200  0.63518200  0.00000000  1
  O  O65  1  0.36481800  0.83526000  0.00000000  1
  O  O66  1  0.18206100  0.75432700  0.11543500  1
  O  O67  1  0.24567300  0.42773500  0.11543500  1
  O  O68  1  0.57226500  0.81793900  0.11543500  1
  O  O69  1  0.18206100  0.75432700  0.88456500  1
  O  O70  1  0.24567300  0.42773500  0.88456500  1
  O  O71  1  0.57226500  0.81793900  0.88456500  1
  O  O72  1  0.14555000  0.97541300  0.00000000  1
  O  O73  1  0.02458700  0.17013700  0.00000000  1
  O  O74  1  0.82986300  0.85445000  0.00000000  1
  O  O75  1  0.92380000  0.76698200  0.11590700  1
  O  O76  1  0.23301800  0.15681800  0.11590700  1
  O  O77  1  0.84318200  0.07620000  0.11590700  1
  O  O78  1  0.92380000  0.76698200  0.88409300  1
  O  O79  1  0.23301800  0.15681800  0.88409300  1
  O  O80  1  0.84318200  0.07620000  0.88409300  1
  O  O81  1  0.48488000  0.24766900  0.00000000  1
  O  O82  1  0.75233100  0.23721000  0.00000000  1
  O  O83  1  0.76279000  0.51512000  0.00000000  1
  O  O84  1  0.48780300  0.40587500  0.11574300  1
  O  O85  1  0.59412500  0.08192800  0.11574300  1
  O  O86  1  0.91807200  0.51219700  0.11574300  1
  O  O87  1  0.48780300  0.40587500  0.88425700  1
  O  O88  1  0.59412500  0.08192800  0.88425700  1
  O  O89  1  0.91807200  0.51219700  0.88425700  1
  O  O90  1  0.66666700  0.33333300  0.24144400  1
  O  O91  1  0.66666700  0.33333300  0.75855600  1
  O  O92  1  0.33333300  0.66666700  0.25444300  1
  O  O93  1  0.33333300  0.66666700  0.74555700  1
  O  O94  1  0.00000000  0.00000000  0.25635000  1
  O  O95  1  0.00000000  0.00000000  0.74365000  1
  O  O96  1  0.99245400  0.33579300  0.19096900  1
  O  O97  1  0.66420700  0.65666100  0.19096900  1
  O  O98  1  0.34333900  0.00754600  0.19096900  1
  O  O99  1  0.99245400  0.33579300  0.80903100  1
  O  O100  1  0.66420700  0.65666100  0.80903100  1
  O  O101  1  0.34333900  0.00754600  0.80903100  1
  O  O102  1  0.00777400  0.67583200  0.30919600  1
  O  O103  1  0.32416800  0.33194300  0.30919600  1
  O  O104  1  0.66805700  0.99222600  0.30919600  1
  O  O105  1  0.00777400  0.67583200  0.69080400  1
  O  O106  1  0.32416800  0.33194300  0.69080400  1
  O  O107  1  0.66805700  0.99222600  0.69080400  1
