# generated using pymatgen
data_TmTl(MoO4)2
_symmetry_space_group_name_H-M   'P 1'
_cell_length_a   6.08961900
_cell_length_b   15.33116800
_cell_length_c   9.07554300
_cell_angle_alpha   90.00000000
_cell_angle_beta   90.00000000
_cell_angle_gamma   90.00000000
_symmetry_Int_Tables_number   1
_chemical_formula_structural   TmTl(MoO4)2
_chemical_formula_sum   'Tm4 Tl4 Mo8 O32'
_cell_volume   847.30151541
_cell_formula_units_Z   4
loop_
 _symmetry_equiv_pos_site_id
 _symmetry_equiv_pos_as_xyz
  1  'x, y, z'
loop_
 _atom_site_type_symbol
 _atom_site_label
 _atom_site_symmetry_multiplicity
 _atom_site_fract_x
 _atom_site_fract_y
 _atom_site_fract_z
 _atom_site_occupancy
  Tm  Tm0  1  0.75000000  0.89373600  0.69517800  1
  Tm  Tm1  1  0.25000000  0.10626400  0.30482200  1
  Tm  Tm2  1  0.25000000  0.60626400  0.19517800  1
  Tm  Tm3  1  0.75000000  0.39373600  0.80482200  1
  Tl  Tl4  1  0.75000000  0.62526800  0.55622000  1
  Tl  Tl5  1  0.25000000  0.37473200  0.44378000  1
  Tl  Tl6  1  0.25000000  0.87473200  0.05622000  1
  Tl  Tl7  1  0.75000000  0.12526800  0.94378000  1
  Mo  Mo8  1  0.75000000  0.96049400  0.28255400  1
  Mo  Mo9  1  0.25000000  0.03950600  0.71744600  1
  Mo  Mo10  1  0.25000000  0.53950600  0.78255400  1
  Mo  Mo11  1  0.75000000  0.46049400  0.21744600  1
  Mo  Mo12  1  0.75000000  0.71621400  0.99565000  1
  Mo  Mo13  1  0.25000000  0.28378600  0.00435000  1
  Mo  Mo14  1  0.25000000  0.78378600  0.49565000  1
  Mo  Mo15  1  0.75000000  0.21621400  0.50435000  1
  O  O16  1  0.75000000  0.85291500  0.21968100  1
  O  O17  1  0.25000000  0.14708500  0.78031900  1
  O  O18  1  0.25000000  0.64708500  0.71968100  1
  O  O19  1  0.75000000  0.35291500  0.28031900  1
  O  O20  1  0.75000000  0.96268100  0.48024900  1
  O  O21  1  0.25000000  0.03731900  0.51975100  1
  O  O22  1  0.25000000  0.53731900  0.98024900  1
  O  O23  1  0.75000000  0.46268100  0.01975100  1
  O  O24  1  0.75000000  0.64027500  0.85187200  1
  O  O25  1  0.25000000  0.35972500  0.14812800  1
  O  O26  1  0.25000000  0.85972500  0.35187200  1
  O  O27  1  0.75000000  0.14027500  0.64812800  1
  O  O28  1  0.75000000  0.82278600  0.90783000  1
  O  O29  1  0.25000000  0.17721400  0.09217000  1
  O  O30  1  0.25000000  0.67721400  0.40783000  1
  O  O31  1  0.75000000  0.32278600  0.59217000  1
  O  O32  1  0.00229900  0.80421200  0.60196500  1
  O  O33  1  0.99770100  0.19578800  0.39803500  1
  O  O34  1  0.99770100  0.69578800  0.10196500  1
  O  O35  1  0.50229900  0.19578800  0.39803500  1
  O  O36  1  0.00229900  0.30421200  0.89803500  1
  O  O37  1  0.49770100  0.80421200  0.60196500  1
  O  O38  1  0.49770100  0.30421200  0.89803500  1
  O  O39  1  0.50229900  0.69578800  0.10196500  1
  O  O40  1  0.49044200  0.98203400  0.78944700  1
  O  O41  1  0.50955800  0.01796600  0.21055400  1
  O  O42  1  0.50955800  0.51796600  0.28944600  1
  O  O43  1  0.99044200  0.01796600  0.21055400  1
  O  O44  1  0.49044200  0.48203400  0.71055300  1
  O  O45  1  0.00955800  0.98203400  0.78944700  1
  O  O46  1  0.00955800  0.48203400  0.71055300  1
  O  O47  1  0.99044200  0.51796600  0.28944600  1
