# generated using pymatgen
data_Yb2Cu4As3
_symmetry_space_group_name_H-M   'P 1'
_cell_length_a   13.21826364
_cell_length_b   13.21826364
_cell_length_c   4.07713900
_cell_angle_alpha   90.00000000
_cell_angle_beta   90.00000000
_cell_angle_gamma   119.99999819
_symmetry_Int_Tables_number   1
_chemical_formula_structural   Yb2Cu4As3
_chemical_formula_sum   'Yb8 Cu16 As12'
_cell_volume   616.92870331
_cell_formula_units_Z   4
loop_
 _symmetry_equiv_pos_site_id
 _symmetry_equiv_pos_as_xyz
  1  'x, y, z'
loop_
 _atom_site_type_symbol
 _atom_site_label
 _atom_site_symmetry_multiplicity
 _atom_site_fract_x
 _atom_site_fract_y
 _atom_site_fract_z
 _atom_site_occupancy
  Yb  Yb0  1  0.00000000  0.57084600  0.00000000  1
  Yb  Yb1  1  0.42915400  0.42915400  0.00000000  1
  Yb  Yb2  1  0.57084600  0.00000000  0.00000000  1
  Yb  Yb3  1  0.00000000  0.18940000  0.50000000  1
  Yb  Yb4  1  0.81060000  0.81060000  0.50000000  1
  Yb  Yb5  1  0.18940000  0.00000000  0.50000000  1
  Yb  Yb6  1  0.66666700  0.33333300  0.00000000  1
  Yb  Yb7  1  0.33333300  0.66666700  0.00000000  1
  Cu  Cu8  1  0.11819100  0.48156500  0.50000000  1
  Cu  Cu9  1  0.48156500  0.11819100  0.50000000  1
  Cu  Cu10  1  0.88180900  0.36337400  0.50000000  1
  Cu  Cu11  1  0.63662600  0.51843500  0.50000000  1
  Cu  Cu12  1  0.51843500  0.63662600  0.50000000  1
  Cu  Cu13  1  0.36337400  0.88180900  0.50000000  1
  Cu  Cu14  1  0.37520800  0.18988200  0.00000000  1
  Cu  Cu15  1  0.81011800  0.18532600  0.00000000  1
  Cu  Cu16  1  0.00000000  0.00000000  0.00000000  1
  Cu  Cu17  1  0.72479700  0.00000000  0.50000000  1
  Cu  Cu18  1  0.27520300  0.27520300  0.50000000  1
  Cu  Cu19  1  0.00000000  0.72479700  0.50000000  1
  Cu  Cu20  1  0.18988200  0.37520800  0.00000000  1
  Cu  Cu21  1  0.18532600  0.81011800  0.00000000  1
  Cu  Cu22  1  0.62479200  0.81467400  0.00000000  1
  Cu  Cu23  1  0.81467400  0.62479200  0.00000000  1
  As  As24  1  0.64197700  0.64197700  0.00000000  1
  As  As25  1  0.00000000  0.35802300  0.00000000  1
  As  As26  1  0.48160000  0.30604200  0.50000000  1
  As  As27  1  0.30604200  0.48160000  0.50000000  1
  As  As28  1  0.17555800  0.69395800  0.50000000  1
  As  As29  1  0.51840000  0.82444200  0.50000000  1
  As  As30  1  0.82444200  0.51840000  0.50000000  1
  As  As31  1  0.69395800  0.17555800  0.50000000  1
  As  As32  1  0.82282100  0.00000000  0.00000000  1
  As  As33  1  0.17717900  0.17717900  0.00000000  1
  As  As34  1  0.00000000  0.82282100  0.00000000  1
  As  As35  1  0.35802300  0.00000000  0.00000000  1
