# generated using pymatgen
data_NaTiAsO5
_symmetry_space_group_name_H-M   'P 1'
_cell_length_a   8.90964100
_cell_length_b   6.83871100
_cell_length_c   7.30753012
_cell_angle_alpha   65.04050408
_cell_angle_beta   90.00000000
_cell_angle_gamma   90.00000000
_symmetry_Int_Tables_number   1
_chemical_formula_structural   NaTiAsO5
_chemical_formula_sum   'Na4 Ti4 As4 O20'
_cell_volume   403.66752624
_cell_formula_units_Z   4
loop_
 _symmetry_equiv_pos_site_id
 _symmetry_equiv_pos_as_xyz
  1  'x, y, z'
loop_
 _atom_site_type_symbol
 _atom_site_label
 _atom_site_symmetry_multiplicity
 _atom_site_fract_x
 _atom_site_fract_y
 _atom_site_fract_z
 _atom_site_occupancy
  Na  Na0  1  0.42470600  0.24865900  0.76179600  1
  Na  Na1  1  0.92470600  0.75134100  0.73820400  1
  Na  Na2  1  0.57529400  0.75134100  0.23820400  1
  Na  Na3  1  0.07529400  0.24865900  0.26179600  1
  Ti  Ti4  1  0.24335500  0.74875400  0.98036400  1
  Ti  Ti5  1  0.74335500  0.25124600  0.51963600  1
  Ti  Ti6  1  0.75664500  0.25124600  0.01963600  1
  Ti  Ti7  1  0.25664500  0.74875400  0.48036400  1
  As  As8  1  0.06673700  0.24976300  0.75092500  1
  As  As9  1  0.56673700  0.75023700  0.74907500  1
  As  As10  1  0.93326300  0.75023700  0.24907500  1
  As  As11  1  0.43326300  0.24976300  0.25092500  1
  O  O12  1  0.18344200  0.05465400  0.91737600  1
  O  O13  1  0.68344200  0.94534600  0.58262400  1
  O  O14  1  0.81655800  0.94534600  0.08262400  1
  O  O15  1  0.31655800  0.05465400  0.41737600  1
  O  O16  1  0.18771200  0.43751500  0.58782100  1
  O  O17  1  0.68771200  0.56248500  0.91217900  1
  O  O18  1  0.81228800  0.56248500  0.41217900  1
  O  O19  1  0.31228800  0.43751500  0.08782100  1
  O  O20  1  0.95859400  0.15055500  0.61290300  1
  O  O21  1  0.45859400  0.84944500  0.88709700  1
  O  O22  1  0.04140600  0.84944500  0.38709700  1
  O  O23  1  0.54140600  0.15055500  0.11290300  1
  O  O24  1  0.96096000  0.35540800  0.88527200  1
  O  O25  1  0.46096000  0.64459200  0.61472800  1
  O  O26  1  0.03904000  0.64459200  0.11472800  1
  O  O27  1  0.53904000  0.35540800  0.38527200  1
  O  O28  1  0.18639100  0.74931800  0.75150200  1
  O  O29  1  0.68639100  0.25068200  0.74849800  1
  O  O30  1  0.81360900  0.25068200  0.24849800  1
  O  O31  1  0.31360900  0.74931800  0.25150200  1
