# generated using pymatgen
data_BaIrF6
_symmetry_space_group_name_H-M   'P 1'
_cell_length_a   5.03696074
_cell_length_b   5.03696074
_cell_length_c   5.03696104
_cell_angle_alpha   98.18718182
_cell_angle_beta   98.18718182
_cell_angle_gamma   98.18717057
_symmetry_Int_Tables_number   1
_chemical_formula_structural   BaIrF6
_chemical_formula_sum   'Ba1 Ir1 F6'
_cell_volume   123.46276032
_cell_formula_units_Z   1
loop_
 _symmetry_equiv_pos_site_id
 _symmetry_equiv_pos_as_xyz
  1  'x, y, z'
loop_
 _atom_site_type_symbol
 _atom_site_label
 _atom_site_symmetry_multiplicity
 _atom_site_fract_x
 _atom_site_fract_y
 _atom_site_fract_z
 _atom_site_occupancy
  Ba  Ba0  1  0.50000000  0.50000000  0.50000000  1
  Ir  Ir1  1  0.00000000  0.00000000  0.00000000  1
  F  F2  1  0.26037400  0.30210000  0.92965900  1
  F  F3  1  0.73962600  0.69790000  0.07034100  1
  F  F4  1  0.07034100  0.73962600  0.69790000  1
  F  F5  1  0.69790000  0.07034100  0.73962600  1
  F  F6  1  0.92965900  0.26037400  0.30210000  1
  F  F7  1  0.30210000  0.92965900  0.26037400  1
