# generated using pymatgen
data_Ce2Mg17Ru4
_symmetry_space_group_name_H-M   'P 1'
_cell_length_a   8.60343524
_cell_length_b   8.60343524
_cell_length_c   8.60343524
_cell_angle_alpha   108.47692617
_cell_angle_beta   109.97064387
_cell_angle_gamma   109.97064387
_symmetry_Int_Tables_number   1
_chemical_formula_structural   Ce2Mg17Ru4
_chemical_formula_sum   'Ce2 Mg17 Ru4'
_cell_volume   490.11263021
_cell_formula_units_Z   1
loop_
 _symmetry_equiv_pos_site_id
 _symmetry_equiv_pos_as_xyz
  1  'x, y, z'
loop_
 _atom_site_type_symbol
 _atom_site_label
 _atom_site_symmetry_multiplicity
 _atom_site_fract_x
 _atom_site_fract_y
 _atom_site_fract_z
 _atom_site_occupancy
  Ce  Ce0  1  0.00000000  0.35318500  0.35318500  1
  Ce  Ce1  1  0.00000000  0.64681500  0.64681500  1
  Mg  Mg2  1  0.00000000  0.00000000  0.00000000  1
  Mg  Mg3  1  0.32414700  0.50000000  0.82414700  1
  Mg  Mg4  1  0.67585300  0.50000000  0.17585300  1
  Mg  Mg5  1  0.67585300  0.17585300  0.50000000  1
  Mg  Mg6  1  0.32414700  0.82414700  0.50000000  1
  Mg  Mg7  1  0.43179000  0.14758800  0.14758800  1
  Mg  Mg8  1  0.56821000  0.71579700  0.71579700  1
  Mg  Mg9  1  0.00000000  0.85241200  0.28420300  1
  Mg  Mg10  1  0.00000000  0.28420300  0.85241200  1
  Mg  Mg11  1  0.35269000  0.24198500  0.48937300  1
  Mg  Mg12  1  0.64731000  0.13668300  0.88929500  1
  Mg  Mg13  1  0.24738700  0.75801500  0.11070500  1
  Mg  Mg14  1  0.75261300  0.86331700  0.51062700  1
  Mg  Mg15  1  0.75261300  0.51062700  0.86331700  1
  Mg  Mg16  1  0.24738700  0.11070500  0.75801500  1
  Mg  Mg17  1  0.35269000  0.48937300  0.24198500  1
  Mg  Mg18  1  0.64731000  0.88929500  0.13668300  1
  Ru  Ru19  1  0.66917500  0.49998000  0.49998000  1
  Ru  Ru20  1  0.33082500  0.83080500  0.83080500  1
  Ru  Ru21  1  0.00000000  0.50002000  0.16919500  1
  Ru  Ru22  1  0.00000000  0.16919500  0.50002000  1
