# generated using pymatgen
data_TlCuSe2
_symmetry_space_group_name_H-M   'P 1'
_cell_length_a   7.33261256
_cell_length_b   7.33261256
_cell_length_c   7.33261256
_cell_angle_alpha   132.08760884
_cell_angle_beta   132.08760884
_cell_angle_gamma   70.09069341
_symmetry_Int_Tables_number   1
_chemical_formula_structural   TlCuSe2
_chemical_formula_sum   'Tl2 Cu2 Se4'
_cell_volume   212.85967719
_cell_formula_units_Z   2
loop_
 _symmetry_equiv_pos_site_id
 _symmetry_equiv_pos_as_xyz
  1  'x, y, z'
loop_
 _atom_site_type_symbol
 _atom_site_label
 _atom_site_symmetry_multiplicity
 _atom_site_fract_x
 _atom_site_fract_y
 _atom_site_fract_z
 _atom_site_occupancy
  Tl  Tl0  1  0.50000000  0.50000000  0.00000000  1
  Tl  Tl1  1  0.25000000  0.75000000  0.50000000  1
  Cu  Cu2  1  0.00000000  0.00000000  0.00000000  1
  Cu  Cu3  1  0.75000000  0.25000000  0.50000000  1
  Se  Se4  1  0.37500000  0.32715500  0.45215500  1
  Se  Se5  1  0.87500000  0.92284500  0.54784500  1
  Se  Se6  1  0.67284500  0.12500000  0.04784500  1
  Se  Se7  1  0.07715500  0.62500000  0.95215500  1
