# generated using pymatgen
data_BaFeP(O2F)2
_symmetry_space_group_name_H-M   'P 1'
_cell_length_a   12.97759200
_cell_length_b   5.28907900
_cell_length_c   8.05890233
_cell_angle_alpha   62.11931900
_cell_angle_beta   90.00000000
_cell_angle_gamma   90.00000000
_symmetry_Int_Tables_number   1
_chemical_formula_structural   BaFeP(O2F)2
_chemical_formula_sum   'Ba4 Fe4 P4 O16 F8'
_cell_volume   488.95024993
_cell_formula_units_Z   4
loop_
 _symmetry_equiv_pos_site_id
 _symmetry_equiv_pos_as_xyz
  1  'x, y, z'
loop_
 _atom_site_type_symbol
 _atom_site_label
 _atom_site_symmetry_multiplicity
 _atom_site_fract_x
 _atom_site_fract_y
 _atom_site_fract_z
 _atom_site_occupancy
  Ba  Ba0  1  0.70098500  0.35064100  0.18572700  1
  Ba  Ba1  1  0.29901500  0.64935900  0.81427300  1
  Ba  Ba2  1  0.20098500  0.64935900  0.31427300  1
  Ba  Ba3  1  0.79901500  0.35064100  0.68572700  1
  Fe  Fe4  1  0.00000000  0.50000000  0.00000000  1
  Fe  Fe5  1  0.50000000  0.50000000  0.50000000  1
  Fe  Fe6  1  0.00000000  0.00000000  0.50000000  1
  Fe  Fe7  1  0.50000000  0.00000000  0.00000000  1
  P  P8  1  0.88578100  0.87273000  0.19543900  1
  P  P9  1  0.11421900  0.12727000  0.80456100  1
  P  P10  1  0.38578100  0.12727000  0.30456100  1
  P  P11  1  0.61421900  0.87273000  0.69543900  1
  O  O12  1  0.90683600  0.73110000  0.06797900  1
  O  O13  1  0.09316400  0.26890000  0.93202100  1
  O  O14  1  0.40683600  0.26890000  0.43202100  1
  O  O15  1  0.59316400  0.73110000  0.56797900  1
  O  O16  1  0.38373800  0.79304400  0.43723300  1
  O  O17  1  0.61626200  0.20695600  0.56276700  1
  O  O18  1  0.88373800  0.20695600  0.06276700  1
  O  O19  1  0.11626200  0.79304400  0.93723300  1
  O  O20  1  0.97229100  0.80021300  0.34535900  1
  O  O21  1  0.02770900  0.19978700  0.65464100  1
  O  O22  1  0.47229100  0.19978700  0.15464100  1
  O  O23  1  0.52770900  0.80021300  0.84535900  1
  O  O24  1  0.78003700  0.77851900  0.28811300  1
  O  O25  1  0.21996300  0.22148100  0.71188700  1
  O  O26  1  0.28003700  0.22148100  0.21188700  1
  O  O27  1  0.71996300  0.77851900  0.78811300  1
  F  F28  1  0.36207600  0.83237200  0.05352600  1
  F  F29  1  0.63792400  0.16762800  0.94647400  1
  F  F30  1  0.86207600  0.16762800  0.44647400  1
  F  F31  1  0.13792400  0.83237200  0.55352600  1
  F  F32  1  0.55705200  0.68248200  0.23638100  1
  F  F33  1  0.44294800  0.31751800  0.76361900  1
  F  F34  1  0.05705200  0.31751800  0.26361900  1
  F  F35  1  0.94294800  0.68248200  0.73638100  1
