# generated using pymatgen
data_Ho5Ir3
_symmetry_space_group_name_H-M   'P 1'
_cell_length_a   10.84634900
_cell_length_b   10.84634900
_cell_length_c   6.35996000
_cell_angle_alpha   90.00000000
_cell_angle_beta   90.00000000
_cell_angle_gamma   90.00000000
_symmetry_Int_Tables_number   1
_chemical_formula_structural   Ho5Ir3
_chemical_formula_sum   'Ho20 Ir12'
_cell_volume   748.20659723
_cell_formula_units_Z   4
loop_
 _symmetry_equiv_pos_site_id
 _symmetry_equiv_pos_as_xyz
  1  'x, y, z'
loop_
 _atom_site_type_symbol
 _atom_site_label
 _atom_site_symmetry_multiplicity
 _atom_site_fract_x
 _atom_site_fract_y
 _atom_site_fract_z
 _atom_site_occupancy
  Ho  Ho0  1  0.29105500  0.08790300  0.37811300  1
  Ho  Ho1  1  0.29105500  0.91209700  0.87811300  1
  Ho  Ho2  1  0.70894500  0.08790300  0.87811300  1
  Ho  Ho3  1  0.70894500  0.91209700  0.37811300  1
  Ho  Ho4  1  0.58790300  0.79105500  0.87811300  1
  Ho  Ho5  1  0.58790300  0.20894500  0.37811300  1
  Ho  Ho6  1  0.41209700  0.79105500  0.37811300  1
  Ho  Ho7  1  0.41209700  0.20894500  0.87811300  1
  Ho  Ho8  1  0.20894500  0.41209700  0.62188700  1
  Ho  Ho9  1  0.20894500  0.58790300  0.12188700  1
  Ho  Ho10  1  0.79105500  0.41209700  0.12188700  1
  Ho  Ho11  1  0.79105500  0.58790300  0.62188700  1
  Ho  Ho12  1  0.91209700  0.70894500  0.12188700  1
  Ho  Ho13  1  0.91209700  0.29105500  0.62188700  1
  Ho  Ho14  1  0.08790300  0.70894500  0.62188700  1
  Ho  Ho15  1  0.08790300  0.29105500  0.12188700  1
  Ho  Ho16  1  0.00000000  0.00000000  0.50000000  1
  Ho  Ho17  1  0.00000000  0.00000000  0.00000000  1
  Ho  Ho18  1  0.50000000  0.50000000  0.00000000  1
  Ho  Ho19  1  0.50000000  0.50000000  0.50000000  1
  Ir  Ir20  1  0.84620300  0.15379700  0.25000000  1
  Ir  Ir21  1  0.84620300  0.84620300  0.75000000  1
  Ir  Ir22  1  0.15379700  0.15379700  0.75000000  1
  Ir  Ir23  1  0.15379700  0.84620300  0.25000000  1
  Ir  Ir24  1  0.65379700  0.34620300  0.75000000  1
  Ir  Ir25  1  0.65379700  0.65379700  0.25000000  1
  Ir  Ir26  1  0.34620300  0.34620300  0.25000000  1
  Ir  Ir27  1  0.34620300  0.65379700  0.75000000  1
  Ir  Ir28  1  0.50000000  0.00000000  0.11959000  1
  Ir  Ir29  1  0.50000000  0.00000000  0.61959000  1
  Ir  Ir30  1  0.00000000  0.50000000  0.88041000  1
  Ir  Ir31  1  0.00000000  0.50000000  0.38041000  1
