# generated using pymatgen
data_LiSmSn
_symmetry_space_group_name_H-M   'P 1'
_cell_length_a   9.47682371
_cell_length_b   9.47682371
_cell_length_c   7.55759000
_cell_angle_alpha   90.00000000
_cell_angle_beta   90.00000000
_cell_angle_gamma   119.99999800
_symmetry_Int_Tables_number   1
_chemical_formula_structural   LiSmSn
_chemical_formula_sum   'Li8 Sm8 Sn8'
_cell_volume   587.81352180
_cell_formula_units_Z   8
loop_
 _symmetry_equiv_pos_site_id
 _symmetry_equiv_pos_as_xyz
  1  'x, y, z'
loop_
 _atom_site_type_symbol
 _atom_site_label
 _atom_site_symmetry_multiplicity
 _atom_site_fract_x
 _atom_site_fract_y
 _atom_site_fract_z
 _atom_site_occupancy
  Li  Li0  1  0.83420000  0.16580000  0.71146700  1
  Li  Li1  1  0.83420000  0.66840100  0.71146700  1
  Li  Li2  1  0.33159900  0.16580000  0.71146700  1
  Li  Li3  1  0.16580000  0.83420000  0.21146700  1
  Li  Li4  1  0.16580000  0.33159900  0.21146700  1
  Li  Li5  1  0.66840100  0.83420000  0.21146700  1
  Li  Li6  1  0.66666700  0.33333300  0.34048700  1
  Li  Li7  1  0.33333300  0.66666700  0.84048700  1
  Sm  Sm8  1  0.48681100  0.51318900  0.50456800  1
  Sm  Sm9  1  0.48681100  0.97362300  0.50456800  1
  Sm  Sm10  1  0.02637700  0.51318900  0.50456800  1
  Sm  Sm11  1  0.51318900  0.48681100  0.00456800  1
  Sm  Sm12  1  0.51318900  0.02637700  0.00456800  1
  Sm  Sm13  1  0.97362300  0.48681100  0.00456800  1
  Sm  Sm14  1  0.00000000  0.00000000  0.49722800  1
  Sm  Sm15  1  0.00000000  0.00000000  0.99722800  1
  Sn  Sn16  1  0.83289300  0.16710700  0.27044900  1
  Sn  Sn17  1  0.83289300  0.66578500  0.27044900  1
  Sn  Sn18  1  0.33421500  0.16710700  0.27044900  1
  Sn  Sn19  1  0.16710700  0.83289300  0.77044900  1
  Sn  Sn20  1  0.16710700  0.33421500  0.77044900  1
  Sn  Sn21  1  0.66578500  0.83289300  0.77044900  1
  Sn  Sn22  1  0.66666700  0.33333300  0.73184000  1
  Sn  Sn23  1  0.33333300  0.66666700  0.23184000  1
