# generated using pymatgen
data_RbEr(WO4)2
_symmetry_space_group_name_H-M   'P 1'
_cell_length_a   7.58216250
_cell_length_b   7.58216250
_cell_length_c   7.50238358
_cell_angle_alpha   62.46182162
_cell_angle_beta   62.46182162
_cell_angle_gamma   88.35335447
_symmetry_Int_Tables_number   1
_chemical_formula_structural   RbEr(WO4)2
_chemical_formula_sum   'Rb2 Er2 W4 O16'
_cell_volume   329.58756154
_cell_formula_units_Z   2
loop_
 _symmetry_equiv_pos_site_id
 _symmetry_equiv_pos_as_xyz
  1  'x, y, z'
loop_
 _atom_site_type_symbol
 _atom_site_label
 _atom_site_symmetry_multiplicity
 _atom_site_fract_x
 _atom_site_fract_y
 _atom_site_fract_z
 _atom_site_occupancy
  Rb  Rb0  1  0.20017500  0.79982500  0.75000000  1
  Rb  Rb1  1  0.79982500  0.20017500  0.25000000  1
  Er  Er2  1  0.77615600  0.22384400  0.75000000  1
  Er  Er3  1  0.22384400  0.77615600  0.25000000  1
  W  W4  1  0.69983300  0.69035300  0.77968300  1
  W  W5  1  0.30016700  0.30964700  0.22031700  1
  W  W6  1  0.30964700  0.30016700  0.72031700  1
  W  W7  1  0.69035300  0.69983300  0.27968300  1
  O  O8  1  0.61970200  0.75657500  0.55870500  1
  O  O9  1  0.38029800  0.24342500  0.44129500  1
  O  O10  1  0.24342500  0.38029800  0.94129500  1
  O  O11  1  0.75657500  0.61970200  0.05870500  1
  O  O12  1  0.37254600  0.05910500  0.87898800  1
  O  O13  1  0.62745400  0.94089500  0.12101200  1
  O  O14  1  0.94089500  0.62745400  0.62101200  1
  O  O15  1  0.05910500  0.37254600  0.37898800  1
  O  O16  1  0.59132000  0.37010700  0.96447400  1
  O  O17  1  0.40868000  0.62989300  0.03552600  1
  O  O18  1  0.62989300  0.40868000  0.53552600  1
  O  O19  1  0.37010700  0.59132000  0.46447400  1
  O  O20  1  0.78375300  0.95663600  0.69312700  1
  O  O21  1  0.21624700  0.04336400  0.30687300  1
  O  O22  1  0.04336400  0.21624700  0.80687300  1
  O  O23  1  0.95663600  0.78375300  0.19312700  1
