# generated using pymatgen
data_CeGaAg
_symmetry_space_group_name_H-M   'P 1'
_cell_length_a   5.86308925
_cell_length_b   5.86308925
_cell_length_c   5.86308925
_cell_angle_alpha   133.23908665
_cell_angle_beta   104.08874540
_cell_angle_gamma   94.10194261
_symmetry_Int_Tables_number   1
_chemical_formula_structural   CeGaAg
_chemical_formula_sum   'Ce2 Ga2 Ag2'
_cell_volume   134.06921610
_cell_formula_units_Z   2
loop_
 _symmetry_equiv_pos_site_id
 _symmetry_equiv_pos_as_xyz
  1  'x, y, z'
loop_
 _atom_site_type_symbol
 _atom_site_label
 _atom_site_symmetry_multiplicity
 _atom_site_fract_x
 _atom_site_fract_y
 _atom_site_fract_z
 _atom_site_occupancy
  Ce  Ce0  1  0.06826900  0.06826900  0.00000000  1
  Ce  Ce1  1  0.50383800  0.00383800  0.50000000  1
  Ga  Ga2  1  0.50328000  0.70040900  0.80287200  1
  Ga  Ga3  1  0.89753700  0.70040900  0.19712800  1
  Ag  Ag4  1  0.08115600  0.37016100  0.71099400  1
  Ag  Ag5  1  0.65916700  0.37016100  0.28900600  1
