# generated using pymatgen
data_Y12(MnC3)5
_symmetry_space_group_name_H-M   'P 1'
_cell_length_a   5.06206700
_cell_length_b   10.50390872
_cell_length_c   10.50390872
_cell_angle_alpha   120.00000454
_cell_angle_beta   90.00000000
_cell_angle_gamma   90.00000000
_symmetry_Int_Tables_number   1
_chemical_formula_structural   Y12(MnC3)5
_chemical_formula_sum   'Y12 Mn5 C15'
_cell_volume   483.68250499
_cell_formula_units_Z   1
loop_
 _symmetry_equiv_pos_site_id
 _symmetry_equiv_pos_as_xyz
  1  'x, y, z'
loop_
 _atom_site_type_symbol
 _atom_site_label
 _atom_site_symmetry_multiplicity
 _atom_site_fract_x
 _atom_site_fract_y
 _atom_site_fract_z
 _atom_site_occupancy
  Y  Y0  1  0.50000000  0.20707900  0.20707900  1
  Y  Y1  1  0.50000000  0.00000000  0.79292100  1
  Y  Y2  1  0.50000000  0.79292100  0.00000000  1
  Y  Y3  1  0.00000000  0.73009300  0.18517700  1
  Y  Y4  1  0.00000000  0.45508400  0.26990700  1
  Y  Y5  1  0.00000000  0.54491600  0.81482300  1
  Y  Y6  1  0.00000000  0.81482300  0.54491600  1
  Y  Y7  1  0.00000000  0.18517700  0.73009300  1
  Y  Y8  1  0.00000000  0.26990700  0.45508400  1
  Y  Y9  1  0.50000000  0.57219100  0.57219100  1
  Y  Y10  1  0.50000000  0.00000000  0.42780900  1
  Y  Y11  1  0.50000000  0.42780900  0.00000000  1
  Mn  Mn12  1  0.00000000  0.84723000  0.84723000  1
  Mn  Mn13  1  0.00000000  0.00000000  0.15277000  1
  Mn  Mn14  1  0.00000000  0.15277000  0.00000000  1
  Mn  Mn15  1  0.50000000  0.66666700  0.33333300  1
  Mn  Mn16  1  0.50000000  0.33333300  0.66666700  1
  C  C17  1  0.00000000  0.67620500  0.67620500  1
  C  C18  1  0.00000000  0.00000000  0.32379500  1
  C  C19  1  0.00000000  0.32379500  0.00000000  1
  C  C20  1  0.00000000  0.19986600  0.19986600  1
  C  C21  1  0.00000000  0.00000000  0.80013400  1
  C  C22  1  0.00000000  0.80013400  0.00000000  1
  C  C23  1  0.00000000  0.54751600  0.54751600  1
  C  C24  1  0.00000000  0.00000000  0.45248400  1
  C  C25  1  0.00000000  0.45248400  0.00000000  1
  C  C26  1  0.50000000  0.71498100  0.19265900  1
  C  C27  1  0.50000000  0.47767800  0.28501900  1
  C  C28  1  0.50000000  0.52232200  0.80734100  1
  C  C29  1  0.50000000  0.80734100  0.52232200  1
  C  C30  1  0.50000000  0.19265900  0.71498100  1
  C  C31  1  0.50000000  0.28501900  0.47767800  1
