# generated using pymatgen
data_HfCuGeAs
_symmetry_space_group_name_H-M   'P 1'
_cell_length_a   3.73292400
_cell_length_b   3.73292400
_cell_length_c   9.49474400
_cell_angle_alpha   90.00000000
_cell_angle_beta   90.00000000
_cell_angle_gamma   90.00000000
_symmetry_Int_Tables_number   1
_chemical_formula_structural   HfCuGeAs
_chemical_formula_sum   'Hf2 Cu2 Ge2 As2'
_cell_volume   132.30661421
_cell_formula_units_Z   2
loop_
 _symmetry_equiv_pos_site_id
 _symmetry_equiv_pos_as_xyz
  1  'x, y, z'
loop_
 _atom_site_type_symbol
 _atom_site_label
 _atom_site_symmetry_multiplicity
 _atom_site_fract_x
 _atom_site_fract_y
 _atom_site_fract_z
 _atom_site_occupancy
  Hf  Hf0  1  0.00000000  0.50000000  0.77306800  1
  Hf  Hf1  1  0.50000000  0.00000000  0.22693200  1
  Cu  Cu2  1  0.50000000  0.50000000  0.50000000  1
  Cu  Cu3  1  0.00000000  0.00000000  0.50000000  1
  Ge  Ge4  1  0.50000000  0.50000000  0.00000000  1
  Ge  Ge5  1  0.00000000  0.00000000  0.00000000  1
  As  As6  1  0.00000000  0.50000000  0.31977500  1
  As  As7  1  0.50000000  0.00000000  0.68022500  1
