# generated using pymatgen
data_HoSnPd
_symmetry_space_group_name_H-M   'P 1'
_cell_length_a   4.62923300
_cell_length_b   7.18916600
_cell_length_c   7.99619300
_cell_angle_alpha   90.00000000
_cell_angle_beta   90.00000000
_cell_angle_gamma   90.00000000
_symmetry_Int_Tables_number   1
_chemical_formula_structural   HoSnPd
_chemical_formula_sum   'Ho4 Sn4 Pd4'
_cell_volume   266.11589772
_cell_formula_units_Z   4
loop_
 _symmetry_equiv_pos_site_id
 _symmetry_equiv_pos_as_xyz
  1  'x, y, z'
loop_
 _atom_site_type_symbol
 _atom_site_label
 _atom_site_symmetry_multiplicity
 _atom_site_fract_x
 _atom_site_fract_y
 _atom_site_fract_z
 _atom_site_occupancy
  Ho  Ho0  1  0.25000000  0.50901100  0.20676500  1
  Ho  Ho1  1  0.75000000  0.49098900  0.79323500  1
  Ho  Ho2  1  0.25000000  0.00901100  0.29323500  1
  Ho  Ho3  1  0.75000000  0.99098900  0.70676500  1
  Sn  Sn4  1  0.25000000  0.69565300  0.58748500  1
  Sn  Sn5  1  0.75000000  0.80434700  0.08748500  1
  Sn  Sn6  1  0.25000000  0.19565300  0.91251500  1
  Sn  Sn7  1  0.75000000  0.30434700  0.41251500  1
  Pd  Pd8  1  0.75000000  0.20599500  0.08456300  1
  Pd  Pd9  1  0.25000000  0.29400500  0.58456300  1
  Pd  Pd10  1  0.75000000  0.70599500  0.41543700  1
  Pd  Pd11  1  0.25000000  0.79400500  0.91543700  1
