# generated using pymatgen
data_Zr2NiS4
_symmetry_space_group_name_H-M   'P 1'
_cell_length_a   6.90630406
_cell_length_b   6.90630406
_cell_length_c   6.32069605
_cell_angle_alpha   62.88381727
_cell_angle_beta   62.88381727
_cell_angle_gamma   31.00049105
_symmetry_Int_Tables_number   1
_chemical_formula_structural   Zr2NiS4
_chemical_formula_sum   'Zr2 Ni1 S4'
_cell_volume   136.80708871
_cell_formula_units_Z   1
loop_
 _symmetry_equiv_pos_site_id
 _symmetry_equiv_pos_as_xyz
  1  'x, y, z'
loop_
 _atom_site_type_symbol
 _atom_site_label
 _atom_site_symmetry_multiplicity
 _atom_site_fract_x
 _atom_site_fract_y
 _atom_site_fract_z
 _atom_site_occupancy
  Zr  Zr0  1  0.49922500  0.49922500  0.50433600  1
  Zr  Zr1  1  0.00269200  0.00269200  0.99091000  1
  Ni  Ni2  1  0.67600300  0.67600300  0.65728600  1
  S  S3  1  0.37383300  0.37383300  0.95916500  1
  S  S4  1  0.87249400  0.87249400  0.46312300  1
  S  S5  1  0.62675400  0.62675400  0.04549800  1
  S  S6  1  0.13145800  0.13145800  0.53053200  1
