# generated using pymatgen
data_Tm4MgNi
_symmetry_space_group_name_H-M   'P 1'
_cell_length_a   9.46729713
_cell_length_b   9.46729713
_cell_length_c   9.46729713
_cell_angle_alpha   60.00000000
_cell_angle_beta   60.00000000
_cell_angle_gamma   60.00000000
_symmetry_Int_Tables_number   1
_chemical_formula_structural   Tm4MgNi
_chemical_formula_sum   'Tm16 Mg4 Ni4'
_cell_volume   600.01626743
_cell_formula_units_Z   4
loop_
 _symmetry_equiv_pos_site_id
 _symmetry_equiv_pos_as_xyz
  1  'x, y, z'
loop_
 _atom_site_type_symbol
 _atom_site_label
 _atom_site_symmetry_multiplicity
 _atom_site_fract_x
 _atom_site_fract_y
 _atom_site_fract_z
 _atom_site_occupancy
  Tm  Tm0  1  0.59678900  0.59678900  0.59678900  1
  Tm  Tm1  1  0.59678900  0.59678900  0.20963400  1
  Tm  Tm2  1  0.59678900  0.20963400  0.59678900  1
  Tm  Tm3  1  0.20963400  0.59678900  0.59678900  1
  Tm  Tm4  1  0.06370900  0.43629100  0.43629100  1
  Tm  Tm5  1  0.43629100  0.06370900  0.06370900  1
  Tm  Tm6  1  0.43629100  0.06370900  0.43629100  1
  Tm  Tm7  1  0.06370900  0.43629100  0.06370900  1
  Tm  Tm8  1  0.43629100  0.43629100  0.06370900  1
  Tm  Tm9  1  0.06370900  0.06370900  0.43629100  1
  Tm  Tm10  1  0.18533500  0.81466500  0.81466500  1
  Tm  Tm11  1  0.81466500  0.18533500  0.18533500  1
  Tm  Tm12  1  0.81466500  0.18533500  0.81466500  1
  Tm  Tm13  1  0.18533500  0.81466500  0.18533500  1
  Tm  Tm14  1  0.81466500  0.81466500  0.18533500  1
  Tm  Tm15  1  0.18533500  0.18533500  0.81466500  1
  Mg  Mg16  1  0.82979200  0.82979200  0.82979200  1
  Mg  Mg17  1  0.82979200  0.82979200  0.51062300  1
  Mg  Mg18  1  0.82979200  0.51062300  0.82979200  1
  Mg  Mg19  1  0.51062300  0.82979200  0.82979200  1
  Ni  Ni20  1  0.39234200  0.39234200  0.39234200  1
  Ni  Ni21  1  0.39234200  0.39234200  0.82297500  1
  Ni  Ni22  1  0.39234200  0.82297500  0.39234200  1
  Ni  Ni23  1  0.82297500  0.39234200  0.39234200  1
