# generated using pymatgen
data_Sr7Y6OF30
_symmetry_space_group_name_H-M   'P 1'
_cell_length_a   9.08182228
_cell_length_b   9.08182228
_cell_length_c   9.08182179
_cell_angle_alpha   107.31272318
_cell_angle_beta   107.31272318
_cell_angle_gamma   107.31271600
_symmetry_Int_Tables_number   1
_chemical_formula_structural   Sr7Y6OF30
_chemical_formula_sum   'Sr7 Y6 O1 F30'
_cell_volume   618.42889676
_cell_formula_units_Z   1
loop_
 _symmetry_equiv_pos_site_id
 _symmetry_equiv_pos_as_xyz
  1  'x, y, z'
loop_
 _atom_site_type_symbol
 _atom_site_label
 _atom_site_symmetry_multiplicity
 _atom_site_fract_x
 _atom_site_fract_y
 _atom_site_fract_z
 _atom_site_occupancy
  Sr  Sr0  1  0.82280400  0.26856300  0.41587400  1
  Sr  Sr1  1  0.41587400  0.82280400  0.26856300  1
  Sr  Sr2  1  0.26856300  0.41587400  0.82280400  1
  Sr  Sr3  1  0.18867100  0.74030400  0.60289500  1
  Sr  Sr4  1  0.60289500  0.18867100  0.74030400  1
  Sr  Sr5  1  0.74030400  0.60289500  0.18867100  1
  Sr  Sr6  1  0.48908500  0.48908500  0.48908500  1
  Y  Y7  1  0.87444600  0.94465700  0.66489100  1
  Y  Y8  1  0.66489100  0.87444600  0.94465700  1
  Y  Y9  1  0.94465700  0.66489100  0.87444600  1
  Y  Y10  1  0.12459500  0.04338500  0.37502700  1
  Y  Y11  1  0.37502700  0.12459500  0.04338500  1
  Y  Y12  1  0.04338500  0.37502700  0.12459500  1
  O  O13  1  0.89693700  0.89693700  0.89693700  1
  F  F14  1  0.63623900  0.71741400  0.40420000  1
  F  F15  1  0.40420000  0.63623900  0.71741400  1
  F  F16  1  0.71741400  0.40420000  0.63623900  1
  F  F17  1  0.36045800  0.27838700  0.59779600  1
  F  F18  1  0.59779600  0.36045800  0.27838700  1
  F  F19  1  0.27838700  0.59779600  0.36045800  1
  F  F20  1  0.10426000  0.26699200  0.32117500  1
  F  F21  1  0.32117500  0.10426000  0.26699200  1
  F  F22  1  0.26699200  0.32117500  0.10426000  1
  F  F23  1  0.89397300  0.69084500  0.62373300  1
  F  F24  1  0.62373300  0.89397300  0.69084500  1
  F  F25  1  0.69084500  0.62373300  0.89397300  1
  F  F26  1  0.16841100  0.05276500  0.78979500  1
  F  F27  1  0.78979500  0.16841100  0.05276500  1
  F  F28  1  0.05276500  0.78979500  0.16841100  1
  F  F29  1  0.84044500  0.94355400  0.21582800  1
  F  F30  1  0.21582800  0.84044500  0.94355400  1
  F  F31  1  0.94355400  0.21582800  0.84044500  1
  F  F32  1  0.95281000  0.49537700  0.32217700  1
  F  F33  1  0.32217700  0.95281000  0.49537700  1
  F  F34  1  0.49537700  0.32217700  0.95281000  1
  F  F35  1  0.05731700  0.50900400  0.68618500  1
  F  F36  1  0.68618500  0.05731700  0.50900400  1
  F  F37  1  0.50900400  0.68618500  0.05731700  1
  F  F38  1  0.02627600  0.16431500  0.56111400  1
  F  F39  1  0.56111400  0.02627600  0.16431500  1
  F  F40  1  0.16431500  0.56111400  0.02627600  1
  F  F41  1  0.98636300  0.84819600  0.45356300  1
  F  F42  1  0.45356300  0.98636300  0.84819600  1
  F  F43  1  0.84819600  0.45356300  0.98636300  1
