# generated using pymatgen
data_ErAl7Au3
_symmetry_space_group_name_H-M   'P 1'
_cell_length_a   8.44830512
_cell_length_b   8.44830512
_cell_length_c   8.44830509
_cell_angle_alpha   57.18665377
_cell_angle_beta   57.18665377
_cell_angle_gamma   57.18665454
_symmetry_Int_Tables_number   1
_chemical_formula_structural   ErAl7Au3
_chemical_formula_sum   'Er2 Al14 Au6'
_cell_volume   398.74396920
_cell_formula_units_Z   2
loop_
 _symmetry_equiv_pos_site_id
 _symmetry_equiv_pos_as_xyz
  1  'x, y, z'
loop_
 _atom_site_type_symbol
 _atom_site_label
 _atom_site_symmetry_multiplicity
 _atom_site_fract_x
 _atom_site_fract_y
 _atom_site_fract_z
 _atom_site_occupancy
  Er  Er0  1  0.50000000  0.50000000  0.50000000  1
  Er  Er1  1  0.00000000  0.00000000  0.00000000  1
  Al  Al2  1  0.43023100  0.64724200  0.83298600  1
  Al  Al3  1  0.83298600  0.43023100  0.64724200  1
  Al  Al4  1  0.64724200  0.83298600  0.43023100  1
  Al  Al5  1  0.06976900  0.66701400  0.85275800  1
  Al  Al6  1  0.85275800  0.06976900  0.66701400  1
  Al  Al7  1  0.66701400  0.85275800  0.06976900  1
  Al  Al8  1  0.56976900  0.35275800  0.16701400  1
  Al  Al9  1  0.16701400  0.56976900  0.35275800  1
  Al  Al10  1  0.25000000  0.25000000  0.25000000  1
  Al  Al11  1  0.75000000  0.75000000  0.75000000  1
  Al  Al12  1  0.33298600  0.14724200  0.93023100  1
  Al  Al13  1  0.14724200  0.93023100  0.33298600  1
  Al  Al14  1  0.93023100  0.33298600  0.14724200  1
  Al  Al15  1  0.35275800  0.16701400  0.56976900  1
  Au  Au16  1  0.75000000  0.07451400  0.42548600  1
  Au  Au17  1  0.42548600  0.75000000  0.07451400  1
  Au  Au18  1  0.07451400  0.42548600  0.75000000  1
  Au  Au19  1  0.25000000  0.92548600  0.57451400  1
  Au  Au20  1  0.57451400  0.25000000  0.92548600  1
  Au  Au21  1  0.92548600  0.57451400  0.25000000  1
