# generated using pymatgen
data_K3Mn4O8
_symmetry_space_group_name_H-M   'P 1'
_cell_length_a   6.38840100
_cell_length_b   10.35617995
_cell_length_c   13.19198696
_cell_angle_alpha   71.62428093
_cell_angle_beta   85.28078034
_cell_angle_gamma   84.98886792
_symmetry_Int_Tables_number   1
_chemical_formula_structural   K3Mn4O8
_chemical_formula_sum   'K12 Mn16 O32'
_cell_volume   823.72131134
_cell_formula_units_Z   4
loop_
 _symmetry_equiv_pos_site_id
 _symmetry_equiv_pos_as_xyz
  1  'x, y, z'
loop_
 _atom_site_type_symbol
 _atom_site_label
 _atom_site_symmetry_multiplicity
 _atom_site_fract_x
 _atom_site_fract_y
 _atom_site_fract_z
 _atom_site_occupancy
  K  K0  1  0.74508300  0.71169300  0.75262800  1
  K  K1  1  0.75152600  0.70235400  0.25152400  1
  K  K2  1  0.47309900  0.07912100  0.74819500  1
  K  K3  1  0.03067600  0.39287700  0.24717100  1
  K  K4  1  0.47989800  0.05673100  0.25115300  1
  K  K5  1  0.24936300  0.70493100  0.25223800  1
  K  K6  1  0.23459100  0.78310800  0.74993100  1
  K  K7  1  0.00342000  0.41146500  0.75079600  1
  K  K8  1  0.96624900  0.08242500  0.74589800  1
  K  K9  1  0.97915400  0.05696300  0.24783100  1
  K  K10  1  0.49671800  0.42148000  0.75024900  1
  K  K11  1  0.53202800  0.39845000  0.25257400  1
  Mn  Mn12  1  0.24613300  0.74270200  0.00112500  1
  Mn  Mn13  1  0.23573000  0.74609400  0.49738600  1
  Mn  Mn14  1  0.73706700  0.24277800  0.99991700  1
  Mn  Mn15  1  0.74310700  0.24410600  0.50258000  1
  Mn  Mn16  1  0.74863200  0.74157000  0.00217500  1
  Mn  Mn17  1  0.74246700  0.74442000  0.50119000  1
  Mn  Mn18  1  0.23225300  0.24261700  0.99577500  1
  Mn  Mn19  1  0.23536400  0.24553300  0.49623100  1
  Mn  Mn20  1  0.99579700  0.99147900  0.00027000  1
  Mn  Mn21  1  0.98728900  0.99291500  0.50377100  1
  Mn  Mn22  1  0.48612200  0.49294700  0.99934300  1
  Mn  Mn23  1  0.49006000  0.49644000  0.49549100  1
  Mn  Mn24  1  0.50436200  0.99201500  0.00677600  1
  Mn  Mn25  1  0.48966500  0.99273800  0.50560100  1
  Mn  Mn26  1  0.98189800  0.49348300  0.99558300  1
  Mn  Mn27  1  0.99123400  0.49685200  0.49549800  1
  O  O28  1  0.76132500  0.94264600  0.92646600  1
  O  O29  1  0.75415400  0.94444100  0.42781900  1
  O  O30  1  0.22064400  0.43277100  0.91306600  1
  O  O31  1  0.22295400  0.44036500  0.40638800  1
  O  O32  1  0.22108200  0.93767000  0.91052300  1
  O  O33  1  0.21737300  0.93928700  0.41511500  1
  O  O34  1  0.71709600  0.43283500  0.91125600  1
  O  O35  1  0.75775100  0.44600300  0.41925200  1
  O  O36  1  0.97679800  0.68515900  0.91563900  1
  O  O37  1  0.97059400  0.68788500  0.41308600  1
  O  O38  1  0.50566300  0.18905700  0.92524800  1
  O  O39  1  0.47220100  0.18285200  0.41727900  1
  O  O40  1  0.47971800  0.68715900  0.91594900  1
  O  O41  1  0.47690000  0.68967600  0.41479200  1
  O  O42  1  0.96840400  0.18306000  0.91289600  1
  O  O43  1  0.96677900  0.18184500  0.41606100  1
  O  O44  1  0.00961800  0.80244400  0.58644600  1
  O  O45  1  0.01649500  0.80533100  0.08659400  1
  O  O46  1  0.50548000  0.30520800  0.58304500  1
  O  O47  1  0.50501500  0.29621400  0.08679100  1
  O  O48  1  0.50451200  0.79981200  0.58547000  1
  O  O49  1  0.51350200  0.80343400  0.08571100  1
  O  O50  1  0.01105400  0.30725400  0.58247200  1
  O  O51  1  0.96927400  0.29279100  0.07377000  1
  O  O52  1  0.22463400  0.54513900  0.57133800  1
  O  O53  1  0.26485900  0.54952700  0.09010300  1
  O  O54  1  0.75442800  0.04992700  0.59150100  1
  O  O55  1  0.76302900  0.05136100  0.08763000  1
  O  O56  1  0.76285900  0.55102000  0.58589700  1
  O  O57  1  0.76549900  0.54944200  0.08939500  1
  O  O58  1  0.22120600  0.04407700  0.58055600  1
  O  O59  1  0.23003400  0.04527300  0.07422800  1
