# generated using pymatgen
data_Ho4CdPt
_symmetry_space_group_name_H-M   'P 1'
_cell_length_a   9.65893297
_cell_length_b   9.65893297
_cell_length_c   9.65893297
_cell_angle_alpha   60.00000000
_cell_angle_beta   60.00000000
_cell_angle_gamma   60.00000000
_symmetry_Int_Tables_number   1
_chemical_formula_structural   Ho4CdPt
_chemical_formula_sum   'Ho16 Cd4 Pt4'
_cell_volume   637.19514541
_cell_formula_units_Z   4
loop_
 _symmetry_equiv_pos_site_id
 _symmetry_equiv_pos_as_xyz
  1  'x, y, z'
loop_
 _atom_site_type_symbol
 _atom_site_label
 _atom_site_symmetry_multiplicity
 _atom_site_fract_x
 _atom_site_fract_y
 _atom_site_fract_z
 _atom_site_occupancy
  Ho  Ho0  1  0.60148900  0.60148900  0.60148900  1
  Ho  Ho1  1  0.60148900  0.60148900  0.19553300  1
  Ho  Ho2  1  0.60148900  0.19553300  0.60148900  1
  Ho  Ho3  1  0.19553300  0.60148900  0.60148900  1
  Ho  Ho4  1  0.06043800  0.43956200  0.43956200  1
  Ho  Ho5  1  0.43956200  0.06043800  0.06043800  1
  Ho  Ho6  1  0.43956200  0.06043800  0.43956200  1
  Ho  Ho7  1  0.06043800  0.43956200  0.06043800  1
  Ho  Ho8  1  0.43956200  0.43956200  0.06043800  1
  Ho  Ho9  1  0.06043800  0.06043800  0.43956200  1
  Ho  Ho10  1  0.18505300  0.81494700  0.81494700  1
  Ho  Ho11  1  0.81494700  0.18505300  0.18505300  1
  Ho  Ho12  1  0.81494700  0.18505300  0.81494700  1
  Ho  Ho13  1  0.18505300  0.81494700  0.18505300  1
  Ho  Ho14  1  0.81494700  0.81494700  0.18505300  1
  Ho  Ho15  1  0.18505300  0.18505300  0.81494700  1
  Cd  Cd16  1  0.83186500  0.83186500  0.83186500  1
  Cd  Cd17  1  0.83186500  0.83186500  0.50440500  1
  Cd  Cd18  1  0.83186500  0.50440500  0.83186500  1
  Cd  Cd19  1  0.50440500  0.83186500  0.83186500  1
  Pt  Pt20  1  0.39284300  0.39284300  0.39284300  1
  Pt  Pt21  1  0.39284300  0.39284300  0.82147000  1
  Pt  Pt22  1  0.39284300  0.82147000  0.39284300  1
  Pt  Pt23  1  0.82147000  0.39284300  0.39284300  1
