# generated using pymatgen
data_Cs2Al2B2O7
_symmetry_space_group_name_H-M   'P 1'
_cell_length_a   7.22978600
_cell_length_b   6.80485700
_cell_length_c   9.74717788
_cell_angle_alpha   64.77504765
_cell_angle_beta   90.00000000
_cell_angle_gamma   90.00000000
_symmetry_Int_Tables_number   1
_chemical_formula_structural   Cs2Al2B2O7
_chemical_formula_sum   'Cs4 Al4 B4 O14'
_cell_volume   433.81030384
_cell_formula_units_Z   2
loop_
 _symmetry_equiv_pos_site_id
 _symmetry_equiv_pos_as_xyz
  1  'x, y, z'
loop_
 _atom_site_type_symbol
 _atom_site_label
 _atom_site_symmetry_multiplicity
 _atom_site_fract_x
 _atom_site_fract_y
 _atom_site_fract_z
 _atom_site_occupancy
  Cs  Cs0  1  0.86281000  0.22259500  0.61730500  1
  Cs  Cs1  1  0.36281000  0.77740500  0.88269500  1
  Cs  Cs2  1  0.13719000  0.77740500  0.38269500  1
  Cs  Cs3  1  0.63719000  0.22259500  0.11730500  1
  Al  Al4  1  0.61919800  0.76057100  0.54008200  1
  Al  Al5  1  0.11919800  0.23942900  0.95991800  1
  Al  Al6  1  0.38080200  0.23942900  0.45991800  1
  Al  Al7  1  0.88080200  0.76057100  0.04008200  1
  B  B8  1  0.88865000  0.64603700  0.77547700  1
  B  B9  1  0.38865000  0.35396300  0.72452300  1
  B  B10  1  0.11135000  0.35396300  0.22452300  1
  B  B11  1  0.61135000  0.64603700  0.27547700  1
  O  O12  1  0.84013900  0.74477700  0.62303200  1
  O  O13  1  0.34013900  0.25522300  0.87696800  1
  O  O14  1  0.15986100  0.25522300  0.37696800  1
  O  O15  1  0.65986100  0.74477700  0.12303200  1
  O  O16  1  0.83176100  0.74062800  0.86857100  1
  O  O17  1  0.33176100  0.25937200  0.63142900  1
  O  O18  1  0.16823900  0.25937200  0.13142900  1
  O  O19  1  0.66823900  0.74062800  0.36857100  1
  O  O20  1  0.50000000  0.00000000  0.50000000  1
  O  O21  1  0.00000000  0.00000000  0.00000000  1
  O  O22  1  0.99422500  0.46125400  0.82769400  1
  O  O23  1  0.49422500  0.53874600  0.67230600  1
  O  O24  1  0.00577500  0.53874600  0.17230600  1
  O  O25  1  0.50577500  0.46125400  0.32769400  1
