# generated using pymatgen
data_Mg2Al2SiH4O9
_symmetry_space_group_name_H-M   'P 1'
_cell_length_a   5.36121987
_cell_length_b   5.35783393
_cell_length_c   14.12164036
_cell_angle_alpha   90.29329366
_cell_angle_beta   90.26794357
_cell_angle_gamma   60.10125882
_symmetry_Int_Tables_number   1
_chemical_formula_structural   Mg2Al2SiH4O9
_chemical_formula_sum   'Mg4 Al4 Si2 H8 O18'
_cell_volume   351.64454093
_cell_formula_units_Z   2
loop_
 _symmetry_equiv_pos_site_id
 _symmetry_equiv_pos_as_xyz
  1  'x, y, z'
loop_
 _atom_site_type_symbol
 _atom_site_label
 _atom_site_symmetry_multiplicity
 _atom_site_fract_x
 _atom_site_fract_y
 _atom_site_fract_z
 _atom_site_occupancy
  Mg  Mg0  1  0.31682500  0.68358700  0.26373000  1
  Mg  Mg1  1  0.66890300  0.33475500  0.76302000  1
  Mg  Mg2  1  0.98808200  0.35276900  0.26299800  1
  Mg  Mg3  1  0.99789800  0.66493000  0.76234300  1
  Al  Al4  1  0.32012200  0.34595400  0.45954700  1
  Al  Al5  1  0.67089900  0.67509700  0.95916000  1
  Al  Al6  1  0.64419500  0.02635400  0.26430700  1
  Al  Al7  1  0.34167900  0.99148200  0.76418200  1
  Si  Si8  1  0.97697000  0.01639500  0.46176000  1
  Si  Si9  1  0.01381400  0.00500400  0.96148900  1
  H  H10  1  0.67783000  0.31725700  0.12498300  1
  H  H11  1  0.03718400  0.28496100  0.62529800  1
  H  H12  1  0.33511100  0.30494200  0.90441100  1
  H  H13  1  0.65083500  0.72199400  0.40489900  1
  H  H14  1  0.64363400  0.01912700  0.62462900  1
  H  H15  1  0.30785400  0.70013900  0.62458600  1
  H  H16  1  0.34201100  0.99516600  0.12503200  1
  H  H17  1  0.94879700  0.73237300  0.12568600  1
  O  O18  1  0.65192300  0.71127800  0.33612800  1
  O  O19  1  0.02858400  0.99821800  0.84334600  1
  O  O20  1  0.03045000  0.29847700  0.69532800  1
  O  O21  1  0.77845500  0.32602500  0.99950500  1
  O  O22  1  0.64513600  0.00087200  0.69449600  1
  O  O23  1  0.34180300  0.33020400  0.33498500  1
  O  O24  1  0.91932000  0.77607700  0.99928500  1
  O  O25  1  0.32909600  0.68952700  0.69423700  1
  O  O26  1  0.65549000  0.32752400  0.19456100  1
  O  O27  1  0.33521700  0.30940600  0.83555200  1
  O  O28  1  0.64604300  0.68918400  0.83455600  1
  O  O29  1  0.95956400  0.02152100  0.34371800  1
  O  O30  1  0.66203700  0.10067600  0.50549300  1
  O  O31  1  0.95446300  0.71777100  0.19565700  1
  O  O32  1  0.07072500  0.24717800  0.49951000  1
  O  O33  1  0.21510300  0.69608600  0.49935100  1
  O  O34  1  0.32976300  0.91898900  0.00535000  1
  O  O35  1  0.33948600  0.01529900  0.19498400  1
