# generated using pymatgen
data_La2(Al3Ir)3
_symmetry_space_group_name_H-M   'P 1'
_cell_length_a   7.65491738
_cell_length_b   7.65491738
_cell_length_c   9.67529100
_cell_angle_alpha   90.00000000
_cell_angle_beta   90.00000000
_cell_angle_gamma   119.31289598
_symmetry_Int_Tables_number   1
_chemical_formula_structural   La2(Al3Ir)3
_chemical_formula_sum   'La4 Al18 Ir6'
_cell_volume   494.35754444
_cell_formula_units_Z   2
loop_
 _symmetry_equiv_pos_site_id
 _symmetry_equiv_pos_as_xyz
  1  'x, y, z'
loop_
 _atom_site_type_symbol
 _atom_site_label
 _atom_site_symmetry_multiplicity
 _atom_site_fract_x
 _atom_site_fract_y
 _atom_site_fract_z
 _atom_site_occupancy
  La  La0  1  0.99626900  0.66953700  0.25000000  1
  La  La1  1  0.00373100  0.33046300  0.75000000  1
  La  La2  1  0.66953700  0.99626900  0.25000000  1
  La  La3  1  0.33046300  0.00373100  0.75000000  1
  Al  Al4  1  0.13092000  0.13092000  0.25000000  1
  Al  Al5  1  0.86908000  0.86908000  0.75000000  1
  Al  Al6  1  0.00469300  0.33504600  0.07214500  1
  Al  Al7  1  0.99530700  0.66495400  0.92785500  1
  Al  Al8  1  0.99530700  0.66495400  0.57214500  1
  Al  Al9  1  0.33504600  0.00469300  0.42785500  1
  Al  Al10  1  0.00469300  0.33504600  0.42785500  1
  Al  Al11  1  0.66495400  0.99530700  0.57214500  1
  Al  Al12  1  0.66495400  0.99530700  0.92785500  1
  Al  Al13  1  0.33504600  0.00469300  0.07214500  1
  Al  Al14  1  0.33497200  0.33497200  0.54650500  1
  Al  Al15  1  0.66502800  0.66502800  0.45349500  1
  Al  Al16  1  0.66502800  0.66502800  0.04650500  1
  Al  Al17  1  0.33497200  0.33497200  0.95349500  1
  Al  Al18  1  0.33816200  0.54359500  0.25000000  1
  Al  Al19  1  0.66183800  0.45640500  0.75000000  1
  Al  Al20  1  0.54359500  0.33816200  0.25000000  1
  Al  Al21  1  0.45640500  0.66183800  0.75000000  1
  Ir  Ir22  1  0.67052800  0.32947200  0.00000000  1
  Ir  Ir23  1  0.32947200  0.67052800  0.00000000  1
  Ir  Ir24  1  0.32947200  0.67052800  0.50000000  1
  Ir  Ir25  1  0.67052800  0.32947200  0.50000000  1
  Ir  Ir26  1  0.00000000  0.00000000  0.00000000  1
  Ir  Ir27  1  0.00000000  0.00000000  0.50000000  1
