# generated using pymatgen
data_RbAlH4
_symmetry_space_group_name_H-M   'P 1'
_cell_length_a   5.92735200
_cell_length_b   7.69846500
_cell_length_c   9.48643100
_cell_angle_alpha   90.00000000
_cell_angle_beta   90.00000000
_cell_angle_gamma   90.00000000
_symmetry_Int_Tables_number   1
_chemical_formula_structural   RbAlH4
_chemical_formula_sum   'Rb4 Al4 H16'
_cell_volume   432.88018920
_cell_formula_units_Z   4
loop_
 _symmetry_equiv_pos_site_id
 _symmetry_equiv_pos_as_xyz
  1  'x, y, z'
loop_
 _atom_site_type_symbol
 _atom_site_label
 _atom_site_symmetry_multiplicity
 _atom_site_fract_x
 _atom_site_fract_y
 _atom_site_fract_z
 _atom_site_occupancy
  Rb  Rb0  1  0.25000000  0.65971000  0.18165400  1
  Rb  Rb1  1  0.75000000  0.34029000  0.81834600  1
  Rb  Rb2  1  0.75000000  0.15971000  0.31834600  1
  Rb  Rb3  1  0.25000000  0.84029000  0.68165400  1
  Al  Al4  1  0.25000000  0.18641700  0.06155200  1
  Al  Al5  1  0.75000000  0.81358300  0.93844800  1
  Al  Al6  1  0.75000000  0.68641700  0.43844800  1
  Al  Al7  1  0.25000000  0.31358300  0.56155200  1
  H  H8  1  0.02683100  0.31036200  0.07995000  1
  H  H9  1  0.97316900  0.68963800  0.92005000  1
  H  H10  1  0.97316900  0.81036200  0.42005000  1
  H  H11  1  0.52683100  0.68963800  0.92005000  1
  H  H12  1  0.02683100  0.18963800  0.57995000  1
  H  H13  1  0.47316900  0.31036200  0.07995000  1
  H  H14  1  0.47316900  0.18963800  0.57995000  1
  H  H15  1  0.52683100  0.81036200  0.42005000  1
  H  H16  1  0.25000000  0.04099900  0.18644000  1
  H  H17  1  0.75000000  0.95900100  0.81356000  1
  H  H18  1  0.75000000  0.54099900  0.31356000  1
  H  H19  1  0.25000000  0.45900100  0.68644000  1
  H  H20  1  0.25000000  0.39775100  0.40402700  1
  H  H21  1  0.75000000  0.60224900  0.59597300  1
  H  H22  1  0.75000000  0.89775100  0.09597300  1
  H  H23  1  0.25000000  0.10224900  0.90402700  1
