# generated using pymatgen
data_Ga3Te3Cl
_symmetry_space_group_name_H-M   'P 1'
_cell_length_a   4.17104300
_cell_length_b   11.07822400
_cell_length_c   19.96693800
_cell_angle_alpha   90.00000000
_cell_angle_beta   90.00000000
_cell_angle_gamma   90.00000000
_symmetry_Int_Tables_number   1
_chemical_formula_structural   Ga3Te3Cl
_chemical_formula_sum   'Ga12 Te12 Cl4'
_cell_volume   922.62725277
_cell_formula_units_Z   4
loop_
 _symmetry_equiv_pos_site_id
 _symmetry_equiv_pos_as_xyz
  1  'x, y, z'
loop_
 _atom_site_type_symbol
 _atom_site_label
 _atom_site_symmetry_multiplicity
 _atom_site_fract_x
 _atom_site_fract_y
 _atom_site_fract_z
 _atom_site_occupancy
  Ga  Ga0  1  0.75000000  0.83032000  0.50571900  1
  Ga  Ga1  1  0.25000000  0.16968000  0.49428100  1
  Ga  Ga2  1  0.25000000  0.66968000  0.00571900  1
  Ga  Ga3  1  0.75000000  0.33032000  0.99428100  1
  Ga  Ga4  1  0.75000000  0.94785800  0.40010500  1
  Ga  Ga5  1  0.25000000  0.05214200  0.59989500  1
  Ga  Ga6  1  0.25000000  0.55214200  0.90010500  1
  Ga  Ga7  1  0.75000000  0.44785800  0.09989500  1
  Ga  Ga8  1  0.75000000  0.84273300  0.86590900  1
  Ga  Ga9  1  0.25000000  0.15726700  0.13409100  1
  Ga  Ga10  1  0.25000000  0.65726700  0.36590900  1
  Ga  Ga11  1  0.75000000  0.34273300  0.63409100  1
  Te  Te12  1  0.75000000  0.76899400  0.30791600  1
  Te  Te13  1  0.25000000  0.23100600  0.69208400  1
  Te  Te14  1  0.25000000  0.73100600  0.80791600  1
  Te  Te15  1  0.75000000  0.26899400  0.19208400  1
  Te  Te16  1  0.75000000  0.82727300  0.99914500  1
  Te  Te17  1  0.25000000  0.17272700  0.00085500  1
  Te  Te18  1  0.25000000  0.67272700  0.49914500  1
  Te  Te19  1  0.75000000  0.32727300  0.50085500  1
  Te  Te20  1  0.75000000  0.90794200  0.63275100  1
  Te  Te21  1  0.25000000  0.09205800  0.36724900  1
  Te  Te22  1  0.25000000  0.59205800  0.13275100  1
  Te  Te23  1  0.75000000  0.40794200  0.86724900  1
  Cl  Cl24  1  0.75000000  0.53390400  0.66589700  1
  Cl  Cl25  1  0.25000000  0.46609600  0.33410300  1
  Cl  Cl26  1  0.25000000  0.96609600  0.16589700  1
  Cl  Cl27  1  0.75000000  0.03390400  0.83410300  1
