# generated using pymatgen
data_HfPd3
_symmetry_space_group_name_H-M   'P 1'
_cell_length_a   5.67067782
_cell_length_b   5.67067782
_cell_length_c   9.30004200
_cell_angle_alpha   90.00000000
_cell_angle_beta   90.00000000
_cell_angle_gamma   119.99999793
_symmetry_Int_Tables_number   1
_chemical_formula_structural   HfPd3
_chemical_formula_sum   'Hf4 Pd12'
_cell_volume   258.99149233
_cell_formula_units_Z   4
loop_
 _symmetry_equiv_pos_site_id
 _symmetry_equiv_pos_as_xyz
  1  'x, y, z'
loop_
 _atom_site_type_symbol
 _atom_site_label
 _atom_site_symmetry_multiplicity
 _atom_site_fract_x
 _atom_site_fract_y
 _atom_site_fract_z
 _atom_site_occupancy
  Hf  Hf0  1  0.66666700  0.33333300  0.75000000  1
  Hf  Hf1  1  0.33333300  0.66666700  0.25000000  1
  Hf  Hf2  1  0.00000000  0.00000000  0.50000000  1
  Hf  Hf3  1  0.00000000  0.00000000  0.00000000  1
  Pd  Pd4  1  0.16879400  0.33758800  0.75000000  1
  Pd  Pd5  1  0.83120600  0.16879400  0.25000000  1
  Pd  Pd6  1  0.33758800  0.16879400  0.25000000  1
  Pd  Pd7  1  0.66241200  0.83120600  0.75000000  1
  Pd  Pd8  1  0.50000000  0.00000000  0.00000000  1
  Pd  Pd9  1  0.50000000  0.50000000  0.50000000  1
  Pd  Pd10  1  0.00000000  0.50000000  0.50000000  1
  Pd  Pd11  1  0.00000000  0.50000000  0.00000000  1
  Pd  Pd12  1  0.50000000  0.50000000  0.00000000  1
  Pd  Pd13  1  0.50000000  0.00000000  0.50000000  1
  Pd  Pd14  1  0.83120600  0.66241200  0.25000000  1
  Pd  Pd15  1  0.16879400  0.83120600  0.75000000  1
