# generated using pymatgen
data_K2Ca3Si3O10
_symmetry_space_group_name_H-M   'P 1'
_cell_length_a   5.72403900
_cell_length_b   7.48650849
_cell_length_c   12.06384135
_cell_angle_alpha   85.42372650
_cell_angle_beta   80.47258053
_cell_angle_gamma   88.32354067
_symmetry_Int_Tables_number   1
_chemical_formula_structural   K2Ca3Si3O10
_chemical_formula_sum   'K4 Ca6 Si6 O20'
_cell_volume   508.14863000
_cell_formula_units_Z   2
loop_
 _symmetry_equiv_pos_site_id
 _symmetry_equiv_pos_as_xyz
  1  'x, y, z'
loop_
 _atom_site_type_symbol
 _atom_site_label
 _atom_site_symmetry_multiplicity
 _atom_site_fract_x
 _atom_site_fract_y
 _atom_site_fract_z
 _atom_site_occupancy
  K  K0  1  0.72068900  0.96020700  0.62576500  1
  K  K1  1  0.27931100  0.03979300  0.37423500  1
  K  K2  1  0.16732600  0.93866900  0.84849600  1
  K  K3  1  0.83267400  0.06133100  0.15150400  1
  Ca  Ca4  1  0.20677700  0.24440600  0.62305300  1
  Ca  Ca5  1  0.79322300  0.75559400  0.37694700  1
  Ca  Ca6  1  0.16903200  0.47011900  0.86021400  1
  Ca  Ca7  1  0.83096800  0.52988100  0.13978600  1
  Ca  Ca8  1  0.72805700  0.49579600  0.66022100  1
  Ca  Ca9  1  0.27194300  0.50420400  0.33977900  1
  Si  Si10  1  0.24906700  0.72876200  0.57831500  1
  Si  Si11  1  0.75093300  0.27123800  0.42168500  1
  Si  Si12  1  0.65803200  0.18531000  0.84999000  1
  Si  Si13  1  0.34196800  0.81469000  0.15001000  1
  Si  Si14  1  0.36373300  0.25473500  0.08926600  1
  Si  Si15  1  0.63626700  0.74526500  0.91073400  1
  O  O16  1  0.21160300  0.93270200  0.62273400  1
  O  O17  1  0.78839700  0.06729800  0.37726600  1
  O  O18  1  0.46268100  0.31122800  0.45839900  1
  O  O19  1  0.53731900  0.68877200  0.54160100  1
  O  O20  1  0.12861300  0.56997700  0.67364400  1
  O  O21  1  0.87138700  0.43002300  0.32635600  1
  O  O22  1  0.88399000  0.28453100  0.53326900  1
  O  O23  1  0.11601000  0.71546900  0.46673100  1
  O  O24  1  0.91701700  0.26153400  0.79576200  1
  O  O25  1  0.08298300  0.73846600  0.20423800  1
  O  O26  1  0.46152300  0.25010000  0.77010900  1
  O  O27  1  0.53847700  0.74990000  0.22989100  1
  O  O28  1  0.58055500  0.24921500  0.97890300  1
  O  O29  1  0.41944500  0.75078500  0.02109700  1
  O  O30  1  0.32335900  0.03821900  0.13753300  1
  O  O31  1  0.67664100  0.96178100  0.86246700  1
  O  O32  1  0.53098900  0.64571600  0.81635500  1
  O  O33  1  0.46901100  0.35428400  0.18364500  1
  O  O34  1  0.12194700  0.33339700  0.04980900  1
  O  O35  1  0.87805300  0.66660300  0.95019100  1
