# generated using pymatgen
data_RbNaCd3O4
_symmetry_space_group_name_H-M   'P 1'
_cell_length_a   6.82606522
_cell_length_b   6.82606522
_cell_length_c   9.26584822
_cell_angle_alpha   47.46160281
_cell_angle_beta   47.46160281
_cell_angle_gamma   31.86885789
_symmetry_Int_Tables_number   1
_chemical_formula_structural   RbNaCd3O4
_chemical_formula_sum   'Rb1 Na1 Cd3 O4'
_cell_volume   162.09374659
_cell_formula_units_Z   1
loop_
 _symmetry_equiv_pos_site_id
 _symmetry_equiv_pos_as_xyz
  1  'x, y, z'
loop_
 _atom_site_type_symbol
 _atom_site_label
 _atom_site_symmetry_multiplicity
 _atom_site_fract_x
 _atom_site_fract_y
 _atom_site_fract_z
 _atom_site_occupancy
  Rb  Rb0  1  0.99866400  0.99866400  0.99911600  1
  Na  Na1  1  0.17984500  0.17984500  0.45017400  1
  Cd  Cd2  1  0.80788300  0.80788300  0.55500000  1
  Cd  Cd3  1  0.37714600  0.37714600  0.80583800  1
  Cd  Cd4  1  0.63085800  0.63085800  0.19163500  1
  O  O5  1  0.23842800  0.23842800  0.15191700  1
  O  O6  1  0.76613000  0.76613000  0.83317600  1
  O  O7  1  0.59818800  0.59818800  0.64677800  1
  O  O8  1  0.40285700  0.40285700  0.36636500  1
