# generated using pymatgen
data_In2Cu3(SeO3)6
_symmetry_space_group_name_H-M   'P 1'
_cell_length_a   19.70693100
_cell_length_b   5.60876300
_cell_length_c   9.42186250
_cell_angle_alpha   56.14405602
_cell_angle_beta   90.00000000
_cell_angle_gamma   90.00000000
_symmetry_Int_Tables_number   1
_chemical_formula_structural   In2Cu3(SeO3)6
_chemical_formula_sum   'In4 Cu6 Se12 O36'
_cell_volume   864.83165799
_cell_formula_units_Z   2
loop_
 _symmetry_equiv_pos_site_id
 _symmetry_equiv_pos_as_xyz
  1  'x, y, z'
loop_
 _atom_site_type_symbol
 _atom_site_label
 _atom_site_symmetry_multiplicity
 _atom_site_fract_x
 _atom_site_fract_y
 _atom_site_fract_z
 _atom_site_occupancy
  In  In0  1  0.34588700  0.72965600  0.74345100  1
  In  In1  1  0.84588700  0.27034400  0.75654900  1
  In  In2  1  0.65411300  0.27034400  0.25654900  1
  In  In3  1  0.15411300  0.72965600  0.24345100  1
  Cu  Cu4  1  0.50000000  0.00000000  0.50000000  1
  Cu  Cu5  1  0.00000000  0.00000000  0.00000000  1
  Cu  Cu6  1  0.48617200  0.70821600  0.17293700  1
  Cu  Cu7  1  0.98617200  0.29178400  0.32706300  1
  Cu  Cu8  1  0.51382800  0.29178400  0.82706300  1
  Cu  Cu9  1  0.01382800  0.70821600  0.67293700  1
  Se  Se10  1  0.27665400  0.04339200  0.94155600  1
  Se  Se11  1  0.77665400  0.95660800  0.55844400  1
  Se  Se12  1  0.72334600  0.95660800  0.05844400  1
  Se  Se13  1  0.22334600  0.04339200  0.44155600  1
  Se  Se14  1  0.38600600  0.42971000  0.52406000  1
  Se  Se15  1  0.88600600  0.57029000  0.97594000  1
  Se  Se16  1  0.61399400  0.57029000  0.47594000  1
  Se  Se17  1  0.11399400  0.42971000  0.02406000  1
  Se  Se18  1  0.40834200  0.23227200  0.14715100  1
  Se  Se19  1  0.90834200  0.76772800  0.35284900  1
  Se  Se20  1  0.59165800  0.76772800  0.85284900  1
  Se  Se21  1  0.09165800  0.23227200  0.64715100  1
  O  O22  1  0.26698900  0.40631200  0.85140400  1
  O  O23  1  0.76698900  0.59368800  0.64859600  1
  O  O24  1  0.73301100  0.59368800  0.14859600  1
  O  O25  1  0.23301100  0.40631200  0.35140400  1
  O  O26  1  0.19288500  0.93442800  0.98447900  1
  O  O27  1  0.69288500  0.06557200  0.51552100  1
  O  O28  1  0.80711500  0.06557200  0.01552100  1
  O  O29  1  0.30711500  0.93442800  0.48447900  1
  O  O30  1  0.28810700  0.03926200  0.76001900  1
  O  O31  1  0.78810700  0.96073800  0.73998100  1
  O  O32  1  0.71189300  0.96073800  0.23998100  1
  O  O33  1  0.21189300  0.03926200  0.26001900  1
  O  O34  1  0.42486200  0.09004800  0.60475900  1
  O  O35  1  0.92486200  0.90995200  0.89524100  1
  O  O36  1  0.57513800  0.90995200  0.39524100  1
  O  O37  1  0.07513800  0.09004800  0.10475900  1
  O  O38  1  0.44209200  0.67146600  0.36904700  1
  O  O39  1  0.94209200  0.32853400  0.13095300  1
  O  O40  1  0.55790800  0.32853400  0.63095300  1
  O  O41  1  0.05790800  0.67146600  0.86904700  1
  O  O42  1  0.39565600  0.58429300  0.98726800  1
  O  O43  1  0.89565600  0.41570700  0.51273200  1
  O  O44  1  0.60434400  0.41570700  0.01273200  1
  O  O45  1  0.10434400  0.58429300  0.48726800  1
  O  O46  1  0.45986300  0.12219300  0.04085800  1
  O  O47  1  0.95986300  0.87780700  0.45914200  1
  O  O48  1  0.54013700  0.87780700  0.95914200  1
  O  O49  1  0.04013700  0.12219300  0.54085800  1
  O  O50  1  0.46705100  0.29613300  0.26439200  1
  O  O51  1  0.96705100  0.70386700  0.23560800  1
  O  O52  1  0.53294900  0.70386700  0.73560800  1
  O  O53  1  0.03294900  0.29613300  0.76439200  1
  O  O54  1  0.41177300  0.47985500  0.68311200  1
  O  O55  1  0.91177300  0.52014500  0.81688800  1
  O  O56  1  0.58822700  0.52014500  0.31688800  1
  O  O57  1  0.08822700  0.47985500  0.18311200  1
