# generated using pymatgen
data_Na2YHC2O7
_symmetry_space_group_name_H-M   'P 1'
_cell_length_a   9.38105135
_cell_length_b   9.38105135
_cell_length_c   11.48604175
_cell_angle_alpha   84.38555977
_cell_angle_beta   84.38555977
_cell_angle_gamma   38.53376026
_symmetry_Int_Tables_number   1
_chemical_formula_structural   Na2YHC2O7
_chemical_formula_sum   'Na8 Y4 H4 C8 O28'
_cell_volume   626.32467934
_cell_formula_units_Z   4
loop_
 _symmetry_equiv_pos_site_id
 _symmetry_equiv_pos_as_xyz
  1  'x, y, z'
loop_
 _atom_site_type_symbol
 _atom_site_label
 _atom_site_symmetry_multiplicity
 _atom_site_fract_x
 _atom_site_fract_y
 _atom_site_fract_z
 _atom_site_occupancy
  Na  Na0  1  0.49094600  0.28721800  0.38160000  1
  Na  Na1  1  0.71278200  0.50905400  0.11840000  1
  Na  Na2  1  0.50905400  0.71278200  0.61840000  1
  Na  Na3  1  0.28721800  0.49094600  0.88160000  1
  Na  Na4  1  0.17643500  0.35528300  0.64232200  1
  Na  Na5  1  0.64471700  0.82356500  0.85767800  1
  Na  Na6  1  0.82356500  0.64471700  0.35767800  1
  Na  Na7  1  0.35528300  0.17643500  0.14232200  1
  Y  Y8  1  0.78144600  0.09759400  0.63094700  1
  Y  Y9  1  0.90240600  0.21855400  0.86905300  1
  Y  Y10  1  0.21855400  0.90240600  0.36905300  1
  Y  Y11  1  0.09759400  0.78144600  0.13094700  1
  H  H12  1  0.94074900  0.26087600  0.62353100  1
  H  H13  1  0.73912400  0.05925100  0.87646900  1
  H  H14  1  0.05925100  0.73912400  0.37646900  1
  H  H15  1  0.26087600  0.94074900  0.12353100  1
  C  C16  1  0.23266700  0.63819200  0.61626200  1
  C  C17  1  0.36180800  0.76733300  0.88373800  1
  C  C18  1  0.76733300  0.36180800  0.38373800  1
  C  C19  1  0.63819200  0.23266700  0.11626200  1
  C  C20  1  0.28251600  0.13377000  0.42167100  1
  C  C21  1  0.86623000  0.71748400  0.07832900  1
  C  C22  1  0.71748400  0.86623000  0.57832900  1
  C  C23  1  0.13377000  0.28251600  0.92167100  1
  O  O24  1  0.18069200  0.80575800  0.56553500  1
  O  O25  1  0.19424200  0.81930800  0.93446500  1
  O  O26  1  0.81930800  0.19424200  0.43446500  1
  O  O27  1  0.80575800  0.18069200  0.06553500  1
  O  O28  1  0.69301000  0.09469500  0.20010100  1
  O  O29  1  0.90530500  0.30699000  0.29989900  1
  O  O30  1  0.30699000  0.90530500  0.79989900  1
  O  O31  1  0.09469500  0.69301000  0.70010100  1
  O  O32  1  0.01277400  0.38360700  0.82705300  1
  O  O33  1  0.61639300  0.98722600  0.67294700  1
  O  O34  1  0.98722600  0.61639300  0.17294700  1
  O  O35  1  0.38360700  0.01277400  0.32705300  1
  O  O36  1  0.40851600  0.43128000  0.58319000  1
  O  O37  1  0.56872000  0.59148400  0.91681000  1
  O  O38  1  0.59148400  0.56872000  0.41681000  1
  O  O39  1  0.43128000  0.40851600  0.08319000  1
  O  O40  1  0.24080200  0.29758200  0.43402100  1
  O  O41  1  0.70241800  0.75919800  0.06597900  1
  O  O42  1  0.75919800  0.70241800  0.56597900  1
  O  O43  1  0.29758200  0.24080200  0.93402100  1
  O  O44  1  0.78096000  0.91922400  0.49629500  1
  O  O45  1  0.08077600  0.21904000  0.00370500  1
  O  O46  1  0.21904000  0.08077600  0.50370500  1
  O  O47  1  0.91922400  0.78096000  0.99629500  1
  O  O48  1  0.82626600  0.29825900  0.67553000  1
  O  O49  1  0.70174100  0.17373400  0.82447000  1
  O  O50  1  0.17373400  0.70174100  0.32447000  1
  O  O51  1  0.29825900  0.82626600  0.17553000  1
