# generated using pymatgen
data_Cs2HgCl4
_symmetry_space_group_name_H-M   'P 1'
_cell_length_a   7.92396700
_cell_length_b   9.90183400
_cell_length_c   27.88553585
_cell_angle_alpha   89.59262185
_cell_angle_beta   90.00000000
_cell_angle_gamma   90.00000000
_symmetry_Int_Tables_number   1
_chemical_formula_structural   Cs2HgCl4
_chemical_formula_sum   'Cs16 Hg8 Cl32'
_cell_volume   2187.89419623
_cell_formula_units_Z   8
loop_
 _symmetry_equiv_pos_site_id
 _symmetry_equiv_pos_as_xyz
  1  'x, y, z'
loop_
 _atom_site_type_symbol
 _atom_site_label
 _atom_site_symmetry_multiplicity
 _atom_site_fract_x
 _atom_site_fract_y
 _atom_site_fract_z
 _atom_site_occupancy
  Cs  Cs0  1  0.24582300  0.62014700  0.78899300  1
  Cs  Cs1  1  0.74582300  0.37985300  0.71100700  1
  Cs  Cs2  1  0.75417700  0.37985300  0.21100700  1
  Cs  Cs3  1  0.25417700  0.62014700  0.28899300  1
  Cs  Cs4  1  0.24436600  0.99110600  0.65659300  1
  Cs  Cs5  1  0.74436600  0.00889400  0.84340700  1
  Cs  Cs6  1  0.75563400  0.00889400  0.34340700  1
  Cs  Cs7  1  0.25563400  0.99110600  0.15659300  1
  Cs  Cs8  1  0.76906900  0.87520300  0.05837700  1
  Cs  Cs9  1  0.26906900  0.12479700  0.44162300  1
  Cs  Cs10  1  0.23093100  0.12479700  0.94162300  1
  Cs  Cs11  1  0.73093100  0.87520300  0.55837700  1
  Cs  Cs12  1  0.71427400  0.51576400  0.91251800  1
  Cs  Cs13  1  0.21427400  0.48423600  0.58748200  1
  Cs  Cs14  1  0.28572600  0.48423600  0.08748200  1
  Cs  Cs15  1  0.78572600  0.51576400  0.41251800  1
  Hg  Hg16  1  0.22959200  0.20832900  0.78666000  1
  Hg  Hg17  1  0.72959200  0.79167100  0.71334000  1
  Hg  Hg18  1  0.77040800  0.79167100  0.21334000  1
  Hg  Hg19  1  0.27040800  0.20832900  0.28666000  1
  Hg  Hg20  1  0.78031400  0.27967200  0.04052300  1
  Hg  Hg21  1  0.28031400  0.72032800  0.45947700  1
  Hg  Hg22  1  0.21968600  0.72032800  0.95947700  1
  Hg  Hg23  1  0.71968600  0.27967200  0.54052300  1
  Cl  Cl24  1  0.15642800  0.96488100  0.78261600  1
  Cl  Cl25  1  0.65642800  0.03511900  0.71738400  1
  Cl  Cl26  1  0.84357200  0.03511900  0.21738400  1
  Cl  Cl27  1  0.34357200  0.96488100  0.28261600  1
  Cl  Cl28  1  0.24805300  0.32889200  0.70520600  1
  Cl  Cl29  1  0.74805300  0.67110800  0.79479400  1
  Cl  Cl30  1  0.75194700  0.67110800  0.29479400  1
  Cl  Cl31  1  0.25194700  0.32889200  0.20520600  1
  Cl  Cl32  1  0.97984500  0.31940700  0.83041400  1
  Cl  Cl33  1  0.47984500  0.68059300  0.66958600  1
  Cl  Cl34  1  0.02015500  0.68059300  0.16958600  1
  Cl  Cl35  1  0.52015500  0.31940700  0.33041400  1
  Cl  Cl36  1  0.01397400  0.29968900  0.33014700  1
  Cl  Cl37  1  0.51397400  0.70031100  0.16985300  1
  Cl  Cl38  1  0.98602600  0.70031100  0.66985300  1
  Cl  Cl39  1  0.48602600  0.29968900  0.83014700  1
  Cl  Cl40  1  0.76453800  0.53257500  0.04136200  1
  Cl  Cl41  1  0.26453800  0.46742500  0.45863800  1
  Cl  Cl42  1  0.23546200  0.46742500  0.95863800  1
  Cl  Cl43  1  0.73546200  0.53257500  0.54136200  1
  Cl  Cl44  1  0.69578300  0.17767700  0.96018800  1
  Cl  Cl45  1  0.19578300  0.82232300  0.53981200  1
  Cl  Cl46  1  0.30421700  0.82232300  0.03981200  1
  Cl  Cl47  1  0.80421700  0.17767700  0.46018800  1
  Cl  Cl48  1  0.57907300  0.19676400  0.10550800  1
  Cl  Cl49  1  0.07907300  0.80323600  0.39449200  1
  Cl  Cl50  1  0.42092700  0.80323600  0.89449200  1
  Cl  Cl51  1  0.92092700  0.19676400  0.60550800  1
  Cl  Cl52  1  0.43506900  0.17442000  0.55944500  1
  Cl  Cl53  1  0.93506900  0.82558000  0.94055500  1
  Cl  Cl54  1  0.56493100  0.82558000  0.44055500  1
  Cl  Cl55  1  0.06493100  0.17442000  0.05944500  1
