# generated using pymatgen
data_YbSiPt
_symmetry_space_group_name_H-M   'P 1'
_cell_length_a   4.35954800
_cell_length_b   7.08089200
_cell_length_c   7.19668900
_cell_angle_alpha   90.00000000
_cell_angle_beta   90.00000000
_cell_angle_gamma   90.00000000
_symmetry_Int_Tables_number   1
_chemical_formula_structural   YbSiPt
_chemical_formula_sum   'Yb4 Si4 Pt4'
_cell_volume   222.15810873
_cell_formula_units_Z   4
loop_
 _symmetry_equiv_pos_site_id
 _symmetry_equiv_pos_as_xyz
  1  'x, y, z'
loop_
 _atom_site_type_symbol
 _atom_site_label
 _atom_site_symmetry_multiplicity
 _atom_site_fract_x
 _atom_site_fract_y
 _atom_site_fract_z
 _atom_site_occupancy
  Yb  Yb0  1  0.25000000  0.48784700  0.68477300  1
  Yb  Yb1  1  0.25000000  0.98784700  0.81522700  1
  Yb  Yb2  1  0.75000000  0.51215300  0.31522700  1
  Yb  Yb3  1  0.75000000  0.01215300  0.18477300  1
  Si  Si4  1  0.25000000  0.83216900  0.42272800  1
  Si  Si5  1  0.25000000  0.33216900  0.07727200  1
  Si  Si6  1  0.75000000  0.16783100  0.57727200  1
  Si  Si7  1  0.75000000  0.66783100  0.92272800  1
  Pt  Pt8  1  0.25000000  0.19584600  0.39501000  1
  Pt  Pt9  1  0.25000000  0.69584600  0.10499000  1
  Pt  Pt10  1  0.75000000  0.80415400  0.60499000  1
  Pt  Pt11  1  0.75000000  0.30415400  0.89501000  1
