# generated using pymatgen
data_GdTl(MoO4)2
_symmetry_space_group_name_H-M   'P 1'
_cell_length_a   5.19091200
_cell_length_b   8.25158500
_cell_length_c   18.81076000
_cell_angle_alpha   90.00000000
_cell_angle_beta   90.00000000
_cell_angle_gamma   90.00000000
_symmetry_Int_Tables_number   1
_chemical_formula_structural   GdTl(MoO4)2
_chemical_formula_sum   'Gd4 Tl4 Mo8 O32'
_cell_volume   805.72601578
_cell_formula_units_Z   4
loop_
 _symmetry_equiv_pos_site_id
 _symmetry_equiv_pos_as_xyz
  1  'x, y, z'
loop_
 _atom_site_type_symbol
 _atom_site_label
 _atom_site_symmetry_multiplicity
 _atom_site_fract_x
 _atom_site_fract_y
 _atom_site_fract_z
 _atom_site_occupancy
  Gd  Gd0  1  0.00000000  0.75000000  0.00660700  1
  Gd  Gd1  1  0.00000000  0.25000000  0.99339300  1
  Gd  Gd2  1  0.50000000  0.25000000  0.49339300  1
  Gd  Gd3  1  0.50000000  0.75000000  0.50660700  1
  Tl  Tl4  1  0.00000000  0.75000000  0.76968200  1
  Tl  Tl5  1  0.00000000  0.25000000  0.23031800  1
  Tl  Tl6  1  0.50000000  0.25000000  0.73031800  1
  Tl  Tl7  1  0.50000000  0.75000000  0.26968200  1
  Mo  Mo8  1  0.02235000  0.51632400  0.39942700  1
  Mo  Mo9  1  0.97765000  0.48367600  0.60057300  1
  Mo  Mo10  1  0.47765000  0.01632400  0.10057300  1
  Mo  Mo11  1  0.97765000  0.98367600  0.39942700  1
  Mo  Mo12  1  0.52235000  0.98367600  0.89942700  1
  Mo  Mo13  1  0.02235000  0.01632400  0.60057300  1
  Mo  Mo14  1  0.52235000  0.48367600  0.10057300  1
  Mo  Mo15  1  0.47765000  0.51632400  0.89942700  1
  O  O16  1  0.10163000  0.97550100  0.31262200  1
  O  O17  1  0.89837000  0.02449900  0.68737800  1
  O  O18  1  0.39837000  0.47550100  0.18737800  1
  O  O19  1  0.89837000  0.52449900  0.31262200  1
  O  O20  1  0.60163000  0.52449900  0.81262200  1
  O  O21  1  0.10163000  0.47550100  0.68737800  1
  O  O22  1  0.60163000  0.02449900  0.18737800  1
  O  O23  1  0.39837000  0.97550100  0.81262200  1
  O  O24  1  0.27202000  0.84111800  0.09874800  1
  O  O25  1  0.72798000  0.15888200  0.90125200  1
  O  O26  1  0.22798000  0.34111800  0.40125200  1
  O  O27  1  0.72798000  0.65888200  0.09874800  1
  O  O28  1  0.77202000  0.65888200  0.59874800  1
  O  O29  1  0.27202000  0.34111800  0.90125200  1
  O  O30  1  0.77202000  0.15888200  0.40125200  1
  O  O31  1  0.22798000  0.84111800  0.59874800  1
  O  O32  1  0.25116600  0.50406100  0.03597400  1
  O  O33  1  0.74883400  0.49593900  0.96402600  1
  O  O34  1  0.24883400  0.00406100  0.46402600  1
  O  O35  1  0.74883400  0.99593900  0.03597400  1
  O  O36  1  0.75116600  0.99593900  0.53597400  1
  O  O37  1  0.25116600  0.00406100  0.96402600  1
  O  O38  1  0.75116600  0.49593900  0.46402600  1
  O  O39  1  0.24883400  0.50406100  0.53597400  1
  O  O40  1  0.24066800  0.68810600  0.40891300  1
  O  O41  1  0.75933200  0.31189400  0.59108700  1
  O  O42  1  0.25933200  0.18810600  0.09108700  1
  O  O43  1  0.75933200  0.81189400  0.40891300  1
  O  O44  1  0.74066800  0.81189400  0.90891300  1
  O  O45  1  0.24066800  0.18810600  0.59108700  1
  O  O46  1  0.74066800  0.31189400  0.09108700  1
  O  O47  1  0.25933200  0.68810600  0.90891300  1
