# generated using pymatgen
data_Gd2C
_symmetry_space_group_name_H-M   'P 1'
_cell_length_a   6.48485310
_cell_length_b   6.48485310
_cell_length_c   6.48485288
_cell_angle_alpha   32.65656985
_cell_angle_beta   32.65656985
_cell_angle_gamma   32.65657310
_symmetry_Int_Tables_number   1
_chemical_formula_structural   Gd2C
_chemical_formula_sum   'Gd2 C1'
_cell_volume   70.62452972
_cell_formula_units_Z   1
loop_
 _symmetry_equiv_pos_site_id
 _symmetry_equiv_pos_as_xyz
  1  'x, y, z'
loop_
 _atom_site_type_symbol
 _atom_site_label
 _atom_site_symmetry_multiplicity
 _atom_site_fract_x
 _atom_site_fract_y
 _atom_site_fract_z
 _atom_site_occupancy
  Gd  Gd0  1  0.24005500  0.24005500  0.24005500  1
  Gd  Gd1  1  0.75994500  0.75994500  0.75994500  1
  C  C2  1  0.50000000  0.50000000  0.50000000  1
