# generated using pymatgen
data_AlSb2(SeCl2)2
_symmetry_space_group_name_H-M   'P 1'
_cell_length_a   9.42794200
_cell_length_b   11.58600765
_cell_length_c   11.92810668
_cell_angle_alpha   67.99259759
_cell_angle_beta   78.15824562
_cell_angle_gamma   72.81011373
_symmetry_Int_Tables_number   1
_chemical_formula_structural   AlSb2(SeCl2)2
_chemical_formula_sum   'Al4 Sb8 Se8 Cl16'
_cell_volume   1147.45324980
_cell_formula_units_Z   4
loop_
 _symmetry_equiv_pos_site_id
 _symmetry_equiv_pos_as_xyz
  1  'x, y, z'
loop_
 _atom_site_type_symbol
 _atom_site_label
 _atom_site_symmetry_multiplicity
 _atom_site_fract_x
 _atom_site_fract_y
 _atom_site_fract_z
 _atom_site_occupancy
  Al  Al0  1  0.81188200  0.31817700  0.54330800  1
  Al  Al1  1  0.18811800  0.68182300  0.45669200  1
  Al  Al2  1  0.89246800  0.81608200  0.02273500  1
  Al  Al3  1  0.10753200  0.18391800  0.97726500  1
  Sb  Sb4  1  0.34517700  0.98766300  0.42895400  1
  Sb  Sb5  1  0.65482300  0.01233700  0.57104600  1
  Sb  Sb6  1  0.55986300  0.62985200  0.66581200  1
  Sb  Sb7  1  0.44013700  0.37014800  0.33418800  1
  Sb  Sb8  1  0.56453800  0.85322200  0.82399500  1
  Sb  Sb9  1  0.43546200  0.14677800  0.17600500  1
  Sb  Sb10  1  0.70581000  0.44108700  0.00589000  1
  Sb  Sb11  1  0.29419000  0.55891300  0.99411000  1
  Se  Se12  1  0.62279000  0.85132000  0.46721200  1
  Se  Se13  1  0.37721000  0.14868000  0.53278800  1
  Se  Se14  1  0.34942200  0.78402900  0.76397900  1
  Se  Se15  1  0.65057800  0.21597100  0.23602100  1
  Se  Se16  1  0.75992200  0.65268000  0.77894500  1
  Se  Se17  1  0.24007800  0.34732000  0.22105500  1
  Se  Se18  1  0.51129100  0.40131600  0.90170900  1
  Se  Se19  1  0.48870900  0.59868400  0.09829100  1
  Cl  Cl20  1  0.73587500  0.44592900  0.37051000  1
  Cl  Cl21  1  0.26412500  0.55407100  0.62949000  1
  Cl  Cl22  1  0.62399000  0.24382600  0.65638700  1
  Cl  Cl23  1  0.37601000  0.75617400  0.34361300  1
  Cl  Cl24  1  0.87528300  0.42495200  0.63075800  1
  Cl  Cl25  1  0.12471700  0.57504800  0.36924200  1
  Cl  Cl26  1  0.98966200  0.16176800  0.51986000  1
  Cl  Cl27  1  0.01033800  0.83823200  0.48014000  1
  Cl  Cl28  1  0.89234300  0.61669000  0.07043100  1
  Cl  Cl29  1  0.10765700  0.38331000  0.92956900  1
  Cl  Cl30  1  0.87526900  0.90654300  0.82896900  1
  Cl  Cl31  1  0.12473100  0.09345700  0.17103100  1
  Cl  Cl32  1  0.10568100  0.81942400  0.05859800  1
  Cl  Cl33  1  0.89431900  0.18057600  0.94140200  1
  Cl  Cl34  1  0.70522600  0.90276700  0.12493500  1
  Cl  Cl35  1  0.29477400  0.09723300  0.87506500  1
