# generated using pymatgen
data_Sr2Zn5Si3
_symmetry_space_group_name_H-M   'P 1'
_cell_length_a   4.27123000
_cell_length_b   4.27123000
_cell_length_c   10.69125500
_cell_angle_alpha   90.00000000
_cell_angle_beta   90.00000000
_cell_angle_gamma   90.00000000
_symmetry_Int_Tables_number   1
_chemical_formula_structural   Sr2Zn5Si3
_chemical_formula_sum   'Sr2 Zn5 Si3'
_cell_volume   195.04490255
_cell_formula_units_Z   1
loop_
 _symmetry_equiv_pos_site_id
 _symmetry_equiv_pos_as_xyz
  1  'x, y, z'
loop_
 _atom_site_type_symbol
 _atom_site_label
 _atom_site_symmetry_multiplicity
 _atom_site_fract_x
 _atom_site_fract_y
 _atom_site_fract_z
 _atom_site_occupancy
  Sr  Sr0  1  0.00000000  0.00000000  0.99555900  1
  Sr  Sr1  1  0.50000000  0.50000000  0.50266900  1
  Zn  Zn2  1  0.00000000  0.50000000  0.25351400  1
  Zn  Zn3  1  0.50000000  0.00000000  0.74841200  1
  Zn  Zn4  1  0.50000000  0.00000000  0.25351400  1
  Zn  Zn5  1  0.00000000  0.50000000  0.74841200  1
  Zn  Zn6  1  0.50000000  0.50000000  0.11366300  1
  Si  Si7  1  0.00000000  0.00000000  0.61406900  1
  Si  Si8  1  0.00000000  0.00000000  0.38844100  1
  Si  Si9  1  0.50000000  0.50000000  0.88174800  1
