# generated using pymatgen
data_RbSb2PO8
_symmetry_space_group_name_H-M   'P 1'
_cell_length_a   7.30036261
_cell_length_b   7.30036261
_cell_length_c   15.26586699
_cell_angle_alpha   84.28487889
_cell_angle_beta   84.28487889
_cell_angle_gamma   59.36292363
_symmetry_Int_Tables_number   1
_chemical_formula_structural   RbSb2PO8
_chemical_formula_sum   'Rb4 Sb8 P4 O32'
_cell_volume   695.41684688
_cell_formula_units_Z   4
loop_
 _symmetry_equiv_pos_site_id
 _symmetry_equiv_pos_as_xyz
  1  'x, y, z'
loop_
 _atom_site_type_symbol
 _atom_site_label
 _atom_site_symmetry_multiplicity
 _atom_site_fract_x
 _atom_site_fract_y
 _atom_site_fract_z
 _atom_site_occupancy
  Rb  Rb0  1  0.68128300  0.92269600  0.92039100  1
  Rb  Rb1  1  0.92269600  0.68128300  0.42039100  1
  Rb  Rb2  1  0.74081500  0.98003700  0.64693000  1
  Rb  Rb3  1  0.98003700  0.74081500  0.14693000  1
  Sb  Sb4  1  0.21123400  0.95673900  0.78540900  1
  Sb  Sb5  1  0.95673900  0.21123400  0.28540900  1
  Sb  Sb6  1  0.37757000  0.64223300  0.59538000  1
  Sb  Sb7  1  0.64223300  0.37757000  0.09538000  1
  Sb  Sb8  1  0.70864300  0.45396000  0.77859900  1
  Sb  Sb9  1  0.45396000  0.70864300  0.27859900  1
  Sb  Sb10  1  0.02480300  0.28785700  0.96852500  1
  Sb  Sb11  1  0.28785700  0.02480300  0.46852500  1
  P  P12  1  0.11999600  0.34486600  0.63800100  1
  P  P13  1  0.34486600  0.11999600  0.13800100  1
  P  P14  1  0.32176100  0.54478100  0.92574000  1
  P  P15  1  0.54478100  0.32176100  0.42574000  1
  O  O16  1  0.39573100  0.49250800  0.35727700  1
  O  O17  1  0.49250700  0.39573100  0.85727700  1
  O  O18  1  0.17720700  0.81099800  0.69193900  1
  O  O19  1  0.81099800  0.17720700  0.19193900  1
  O  O20  1  0.84983900  0.49062100  0.87362400  1
  O  O21  1  0.49062100  0.84983900  0.37362400  1
  O  O22  1  0.16208700  0.76157300  0.88006700  1
  O  O23  1  0.76157300  0.16208700  0.38006700  1
  O  O24  1  0.52599000  0.76983400  0.77957400  1
  O  O25  1  0.76983400  0.52599000  0.27957400  1
  O  O26  1  0.42714500  0.58159300  0.00022100  1
  O  O27  1  0.58159300  0.42714500  0.50022100  1
  O  O28  1  0.21369500  0.48216900  0.59612900  1
  O  O29  1  0.48216900  0.21369500  0.09612900  1
  O  O30  1  0.16853800  0.27187600  0.20443100  1
  O  O31  1  0.27187600  0.16853800  0.70443100  1
  O  O32  1  0.49806300  0.83265800  0.55918600  1
  O  O33  1  0.83265800  0.49806300  0.05918600  1
  O  O34  1  0.89513600  0.13869700  0.78511900  1
  O  O35  1  0.13869700  0.89513600  0.28511900  1
  O  O36  1  0.18762100  0.44748600  0.96842900  1
  O  O37  1  0.44748600  0.18762100  0.46842900  1
  O  O38  1  0.90598400  0.50383800  0.68565500  1
  O  O39  1  0.50383800  0.90598400  0.18565500  1
  O  O40  1  0.83691300  0.16565100  0.00552400  1
  O  O41  1  0.16565100  0.83691300  0.50552400  1
  O  O42  1  0.09058000  0.24208800  0.38549700  1
  O  O43  1  0.24208800  0.09058000  0.88549700  1
  O  O44  1  0.58241000  0.42251800  0.67566700  1
  O  O45  1  0.42251800  0.58241000  0.17566700  1
  O  O46  1  0.07981600  0.24178000  0.56336900  1
  O  O47  1  0.24178000  0.07981600  0.06336900  1
