# generated using pymatgen
data_TiGeIr
_symmetry_space_group_name_H-M   'P 1'
_cell_length_a   3.98532600
_cell_length_b   6.31743100
_cell_length_c   7.43087000
_cell_angle_alpha   90.00000000
_cell_angle_beta   90.00000000
_cell_angle_gamma   90.00000000
_symmetry_Int_Tables_number   1
_chemical_formula_structural   TiGeIr
_chemical_formula_sum   'Ti4 Ge4 Ir4'
_cell_volume   187.08717760
_cell_formula_units_Z   4
loop_
 _symmetry_equiv_pos_site_id
 _symmetry_equiv_pos_as_xyz
  1  'x, y, z'
loop_
 _atom_site_type_symbol
 _atom_site_label
 _atom_site_symmetry_multiplicity
 _atom_site_fract_x
 _atom_site_fract_y
 _atom_site_fract_z
 _atom_site_occupancy
  Ti  Ti0  1  0.25000000  0.02714900  0.31477500  1
  Ti  Ti1  1  0.25000000  0.52714900  0.18522500  1
  Ti  Ti2  1  0.75000000  0.97285100  0.68522500  1
  Ti  Ti3  1  0.75000000  0.47285100  0.81477500  1
  Ge  Ge4  1  0.25000000  0.26104800  0.62351400  1
  Ge  Ge5  1  0.25000000  0.76104800  0.87648600  1
  Ge  Ge6  1  0.75000000  0.73895200  0.37648600  1
  Ge  Ge7  1  0.75000000  0.23895200  0.12351400  1
  Ir  Ir8  1  0.25000000  0.15588600  0.94046700  1
  Ir  Ir9  1  0.25000000  0.65588600  0.55953300  1
  Ir  Ir10  1  0.75000000  0.84411400  0.05953300  1
  Ir  Ir11  1  0.75000000  0.34411400  0.44046700  1
