# generated using pymatgen
data_Mn2P2O7
_symmetry_space_group_name_H-M   'P 1'
_cell_length_a   4.60445801
_cell_length_b   6.71539742
_cell_length_c   8.70576970
_cell_angle_alpha   90.00000597
_cell_angle_beta   90.00000421
_cell_angle_gamma   102.71889128
_symmetry_Int_Tables_number   1
_chemical_formula_structural   Mn2P2O7
_chemical_formula_sum   'Mn4 P4 O14'
_cell_volume   262.58370288
_cell_formula_units_Z   2
loop_
 _symmetry_equiv_pos_site_id
 _symmetry_equiv_pos_as_xyz
  1  'x, y, z'
loop_
 _atom_site_type_symbol
 _atom_site_label
 _atom_site_symmetry_multiplicity
 _atom_site_fract_x
 _atom_site_fract_y
 _atom_site_fract_z
 _atom_site_occupancy
  Mn  Mn0  1  0.50000000  0.00000000  0.69038700  1
  Mn  Mn1  1  0.50000000  0.50000000  0.80961300  1
  Mn  Mn2  1  0.50000000  0.50000000  0.19038700  1
  Mn  Mn3  1  0.50000000  0.00000000  0.30961300  1
  P  P4  1  0.90829400  0.21566800  0.00000000  1
  P  P5  1  0.90829400  0.71566800  0.50000000  1
  P  P6  1  0.09170600  0.78433200  0.00000000  1
  P  P7  1  0.09170600  0.28433200  0.50000000  1
  O  O8  1  0.00000000  0.00000000  0.00000000  1
  O  O9  1  0.00000000  0.50000000  0.50000000  1
  O  O10  1  0.79351000  0.62759600  0.00000000  1
  O  O11  1  0.79351000  0.12759600  0.50000000  1
  O  O12  1  0.20649000  0.37240400  0.00000000  1
  O  O13  1  0.20649000  0.87240400  0.50000000  1
  O  O14  1  0.27411200  0.77539800  0.85324400  1
  O  O15  1  0.27411200  0.27539800  0.35324400  1
  O  O16  1  0.72588800  0.22460200  0.85324400  1
  O  O17  1  0.72588800  0.72460200  0.35324400  1
  O  O18  1  0.72588800  0.22460200  0.14675600  1
  O  O19  1  0.72588800  0.72460200  0.64675600  1
  O  O20  1  0.27411200  0.77539800  0.14675600  1
  O  O21  1  0.27411200  0.27539800  0.64675600  1
