# generated using pymatgen
data_Cs2U(PdSe2)3
_symmetry_space_group_name_H-M   'P 1'
_cell_length_a   11.99834183
_cell_length_b   10.22352154
_cell_length_c   9.56607472
_cell_angle_alpha   74.56118397
_cell_angle_beta   55.21824229
_cell_angle_gamma   50.22057374
_symmetry_Int_Tables_number   1
_chemical_formula_structural   Cs2U(PdSe2)3
_chemical_formula_sum   'Cs4 U2 Pd6 Se12'
_cell_volume   731.54359916
_cell_formula_units_Z   2
loop_
 _symmetry_equiv_pos_site_id
 _symmetry_equiv_pos_as_xyz
  1  'x, y, z'
loop_
 _atom_site_type_symbol
 _atom_site_label
 _atom_site_symmetry_multiplicity
 _atom_site_fract_x
 _atom_site_fract_y
 _atom_site_fract_z
 _atom_site_occupancy
  Cs  Cs0  1  0.75000000  0.75000000  0.75000000  1
  Cs  Cs1  1  0.25000000  0.25000000  0.25000000  1
  Cs  Cs2  1  0.30340300  0.69659700  0.30340300  1
  Cs  Cs3  1  0.69659700  0.30340300  0.69659700  1
  U  U4  1  0.83283700  0.83283700  0.16716300  1
  U  U5  1  0.16716300  0.16716300  0.83283700  1
  Pd  Pd6  1  0.50470300  0.17366200  0.49529700  1
  Pd  Pd7  1  0.82633800  0.49529700  0.17366200  1
  Pd  Pd8  1  0.49529700  0.82633800  0.50470300  1
  Pd  Pd9  1  0.17366200  0.50470300  0.82633800  1
  Pd  Pd10  1  0.83025600  0.16974400  0.16974400  1
  Pd  Pd11  1  0.16974400  0.83025600  0.83025600  1
  Se  Se12  1  0.80841800  0.59897900  0.40102100  1
  Se  Se13  1  0.19158200  0.40102100  0.59897900  1
  Se  Se14  1  0.40102100  0.19158200  0.80841800  1
  Se  Se15  1  0.59897900  0.80841800  0.19158200  1
  Se  Se16  1  0.81848700  0.97850800  0.39480900  1
  Se  Se17  1  0.80819600  0.39480900  0.97850800  1
  Se  Se18  1  0.39480900  0.80819600  0.81848700  1
  Se  Se19  1  0.97850800  0.81848700  0.80819600  1
  Se  Se20  1  0.18151300  0.02149200  0.60519100  1
  Se  Se21  1  0.19180400  0.60519100  0.02149200  1
  Se  Se22  1  0.60519100  0.19180400  0.18151300  1
  Se  Se23  1  0.02149200  0.18151300  0.19180400  1
