# generated using pymatgen
data_HfSnIr
_symmetry_space_group_name_H-M   'P 1'
_cell_length_a   7.35829937
_cell_length_b   7.35829937
_cell_length_c   3.70748200
_cell_angle_alpha   90.00000000
_cell_angle_beta   90.00000000
_cell_angle_gamma   119.99999433
_symmetry_Int_Tables_number   1
_chemical_formula_structural   HfSnIr
_chemical_formula_sum   'Hf3 Sn3 Ir3'
_cell_volume   173.84596439
_cell_formula_units_Z   3
loop_
 _symmetry_equiv_pos_site_id
 _symmetry_equiv_pos_as_xyz
  1  'x, y, z'
loop_
 _atom_site_type_symbol
 _atom_site_label
 _atom_site_symmetry_multiplicity
 _atom_site_fract_x
 _atom_site_fract_y
 _atom_site_fract_z
 _atom_site_occupancy
  Hf  Hf0  1  0.39544200  0.39544200  0.50000000  1
  Hf  Hf1  1  0.60455800  0.00000000  0.50000000  1
  Hf  Hf2  1  0.00000000  0.60455800  0.50000000  1
  Sn  Sn3  1  0.73258200  0.73258200  0.00000000  1
  Sn  Sn4  1  0.26741800  0.00000000  0.00000000  1
  Sn  Sn5  1  0.00000000  0.26741800  0.00000000  1
  Ir  Ir6  1  0.66666700  0.33333300  0.00000000  1
  Ir  Ir7  1  0.33333300  0.66666700  0.00000000  1
  Ir  Ir8  1  0.00000000  0.00000000  0.50000000  1
