# generated using pymatgen
data_Ba5Mg18Ge13
_symmetry_space_group_name_H-M   'P 1'
_cell_length_a   14.73761613
_cell_length_b   14.73761613
_cell_length_c   4.54146100
_cell_angle_alpha   90.00000000
_cell_angle_beta   90.00000000
_cell_angle_gamma   120.00000059
_symmetry_Int_Tables_number   1
_chemical_formula_structural   Ba5Mg18Ge13
_chemical_formula_sum   'Ba5 Mg18 Ge13'
_cell_volume   854.24156434
_cell_formula_units_Z   1
loop_
 _symmetry_equiv_pos_site_id
 _symmetry_equiv_pos_as_xyz
  1  'x, y, z'
loop_
 _atom_site_type_symbol
 _atom_site_label
 _atom_site_symmetry_multiplicity
 _atom_site_fract_x
 _atom_site_fract_y
 _atom_site_fract_z
 _atom_site_occupancy
  Ba  Ba0  1  0.33333300  0.66666700  0.99990000  1
  Ba  Ba1  1  0.66666700  0.33333300  0.99990000  1
  Ba  Ba2  1  0.81766500  0.00000000  0.49642100  1
  Ba  Ba3  1  0.00000000  0.81766500  0.49642100  1
  Ba  Ba4  1  0.18233500  0.18233500  0.49642100  1
  Mg  Mg5  1  0.44204800  0.00000000  0.00023500  1
  Mg  Mg6  1  0.00000000  0.44204800  0.00023500  1
  Mg  Mg7  1  0.55795200  0.55795200  0.00023500  1
  Mg  Mg8  1  0.51621900  0.87713300  0.49988300  1
  Mg  Mg9  1  0.12286700  0.63908700  0.49988300  1
  Mg  Mg10  1  0.36091300  0.48378100  0.49988300  1
  Mg  Mg11  1  0.63908700  0.12286700  0.49988300  1
  Mg  Mg12  1  0.48378100  0.36091300  0.49988300  1
  Mg  Mg13  1  0.87713300  0.51621900  0.49988300  1
  Mg  Mg14  1  0.82361900  0.19762200  0.99974800  1
  Mg  Mg15  1  0.80237800  0.62599700  0.99974800  1
  Mg  Mg16  1  0.37400300  0.17638100  0.99974800  1
  Mg  Mg17  1  0.62599700  0.80237800  0.99974800  1
  Mg  Mg18  1  0.17638100  0.37400300  0.99974800  1
  Mg  Mg19  1  0.19762200  0.82361900  0.99974800  1
  Mg  Mg20  1  0.28022900  0.00000000  0.50047900  1
  Mg  Mg21  1  0.00000000  0.28022900  0.50047900  1
  Mg  Mg22  1  0.71977100  0.71977100  0.50047900  1
  Ge  Ge23  1  0.63068100  0.00000000  0.99911800  1
  Ge  Ge24  1  0.00000000  0.63068100  0.99911800  1
  Ge  Ge25  1  0.36931900  0.36931900  0.99911800  1
  Ge  Ge26  1  0.52190700  0.68964300  0.49998900  1
  Ge  Ge27  1  0.31035700  0.83226400  0.49998900  1
  Ge  Ge28  1  0.16773600  0.47809300  0.49998900  1
  Ge  Ge29  1  0.83226400  0.31035700  0.49998900  1
  Ge  Ge30  1  0.47809300  0.16773600  0.49998900  1
  Ge  Ge31  1  0.68964300  0.52190700  0.49998900  1
  Ge  Ge32  1  0.17277600  0.00000000  0.00274300  1
  Ge  Ge33  1  0.00000000  0.17277600  0.00274300  1
  Ge  Ge34  1  0.82722400  0.82722400  0.00274300  1
  Ge  Ge35  1  0.00000000  0.00000000  0.91180600  1
