# generated using pymatgen
data_Ho2B6Rh
_symmetry_space_group_name_H-M   'P 1'
_cell_length_a   3.65620600
_cell_length_b   9.17164200
_cell_length_c   11.49246400
_cell_angle_alpha   90.00000000
_cell_angle_beta   90.00000000
_cell_angle_gamma   90.00000000
_symmetry_Int_Tables_number   1
_chemical_formula_structural   Ho2B6Rh
_chemical_formula_sum   'Ho8 B24 Rh4'
_cell_volume   385.38153607
_cell_formula_units_Z   4
loop_
 _symmetry_equiv_pos_site_id
 _symmetry_equiv_pos_as_xyz
  1  'x, y, z'
loop_
 _atom_site_type_symbol
 _atom_site_label
 _atom_site_symmetry_multiplicity
 _atom_site_fract_x
 _atom_site_fract_y
 _atom_site_fract_z
 _atom_site_occupancy
  Ho  Ho0  1  0.50000000  0.32271500  0.41317100  1
  Ho  Ho1  1  0.50000000  0.67728500  0.58682900  1
  Ho  Ho2  1  0.50000000  0.17728500  0.91317100  1
  Ho  Ho3  1  0.50000000  0.82271500  0.08682900  1
  Ho  Ho4  1  0.50000000  0.44489100  0.12606400  1
  Ho  Ho5  1  0.50000000  0.55510900  0.87393600  1
  Ho  Ho6  1  0.50000000  0.05510900  0.62606400  1
  Ho  Ho7  1  0.50000000  0.94489100  0.37393600  1
  B  B8  1  0.00000000  0.11134000  0.46950200  1
  B  B9  1  0.00000000  0.88866000  0.53049800  1
  B  B10  1  0.00000000  0.38866000  0.96950200  1
  B  B11  1  0.00000000  0.61134000  0.03049800  1
  B  B12  1  0.00000000  0.13375000  0.31553700  1
  B  B13  1  0.00000000  0.86625000  0.68446300  1
  B  B14  1  0.00000000  0.36625000  0.81553700  1
  B  B15  1  0.00000000  0.63375000  0.18446300  1
  B  B16  1  0.00000000  0.05337600  0.06617200  1
  B  B17  1  0.00000000  0.94662400  0.93382800  1
  B  B18  1  0.00000000  0.44662400  0.56617200  1
  B  B19  1  0.00000000  0.55337600  0.43382800  1
  B  B20  1  0.00000000  0.48360400  0.28788800  1
  B  B21  1  0.00000000  0.51639600  0.71211200  1
  B  B22  1  0.00000000  0.01639600  0.78788800  1
  B  B23  1  0.00000000  0.98360400  0.21211200  1
  B  B24  1  0.00000000  0.25016500  0.07932000  1
  B  B25  1  0.00000000  0.74983500  0.92068000  1
  B  B26  1  0.00000000  0.24983500  0.57932000  1
  B  B27  1  0.00000000  0.75016500  0.42068000  1
  B  B28  1  0.00000000  0.29458000  0.23465900  1
  B  B29  1  0.00000000  0.70542000  0.76534100  1
  B  B30  1  0.00000000  0.20542000  0.73465900  1
  B  B31  1  0.00000000  0.79458000  0.26534100  1
  Rh  Rh32  1  0.50000000  0.13976700  0.17830600  1
  Rh  Rh33  1  0.50000000  0.86023300  0.82169400  1
  Rh  Rh34  1  0.50000000  0.36023300  0.67830600  1
  Rh  Rh35  1  0.50000000  0.63976700  0.32169400  1
