# generated using pymatgen
data_Sc5IrCl9
_symmetry_space_group_name_H-M   'P 1'
_cell_length_a   11.76551708
_cell_length_b   11.76551708
_cell_length_c   22.57313764
_cell_angle_alpha   105.10618878
_cell_angle_beta   105.10618878
_cell_angle_gamma   90.00000000
_symmetry_Int_Tables_number   1
_chemical_formula_structural   Sc5IrCl9
_chemical_formula_sum   'Sc40 Ir8 Cl72'
_cell_volume   2904.77557011
_cell_formula_units_Z   8
loop_
 _symmetry_equiv_pos_site_id
 _symmetry_equiv_pos_as_xyz
  1  'x, y, z'
loop_
 _atom_site_type_symbol
 _atom_site_label
 _atom_site_symmetry_multiplicity
 _atom_site_fract_x
 _atom_site_fract_y
 _atom_site_fract_z
 _atom_site_occupancy
  Sc  Sc0  1  0.48020541  0.35920737  0.31118902  1
  Sc  Sc1  1  0.83098362  0.45198165  0.31118902  1
  Sc  Sc2  1  0.85920737  0.33098362  0.81118902  1
  Sc  Sc3  1  0.95198165  0.98020541  0.81118902  1
  Sc  Sc4  1  0.51979459  0.64079263  0.68881098  1
  Sc  Sc5  1  0.16901638  0.54801835  0.68881098  1
  Sc  Sc6  1  0.14079263  0.66901638  0.18881098  1
  Sc  Sc7  1  0.04801835  0.01979459  0.18881098  1
  Sc  Sc8  1  0.10491318  0.58954290  0.32359215  1
  Sc  Sc9  1  0.21867897  0.23404926  0.32359215  1
  Sc  Sc10  1  0.08954290  0.71867897  0.82359215  1
  Sc  Sc11  1  0.73404926  0.60491318  0.82359215  1
  Sc  Sc12  1  0.89508682  0.41045710  0.67640785  1
  Sc  Sc13  1  0.78132103  0.76595074  0.67640785  1
  Sc  Sc14  1  0.91045710  0.28132103  0.17640785  1
  Sc  Sc15  1  0.26595074  0.39508682  0.17640785  1
  Sc  Sc16  1  0.39316480  0.63324092  0.30866602  1
  Sc  Sc17  1  0.91550122  0.17542509  0.30866602  1
  Sc  Sc18  1  0.13324092  0.41550122  0.80866602  1
  Sc  Sc19  1  0.67542509  0.89316480  0.80866602  1
  Sc  Sc20  1  0.60683520  0.36675908  0.69133398  1
  Sc  Sc21  1  0.08449878  0.82457491  0.69133398  1
  Sc  Sc22  1  0.86675908  0.58449878  0.19133398  1
  Sc  Sc23  1  0.32457491  0.10683520  0.19133398  1
  Sc  Sc24  1  0.35420382  0.50798741  0.42370625  1
  Sc  Sc25  1  0.06950242  0.41571883  0.42370625  1
  Sc  Sc26  1  0.00798741  0.56950242  0.92370625  1
  Sc  Sc27  1  0.91571883  0.85420382  0.92370625  1
  Sc  Sc28  1  0.64579618  0.49201259  0.57629375  1
  Sc  Sc29  1  0.93049758  0.58428117  0.57629375  1
  Sc  Sc30  1  0.99201259  0.43049758  0.07629375  1
  Sc  Sc31  1  0.08428117  0.14579618  0.07629375  1
  Sc  Sc32  1  0.56706468  0.91752677  0.43472692  1
  Sc  Sc33  1  0.86766224  0.01720015  0.43472692  1
  Sc  Sc34  1  0.41752677  0.36766224  0.93472692  1
  Sc  Sc35  1  0.51720015  0.06706468  0.93472692  1
  Sc  Sc36  1  0.43293532  0.08247323  0.56527308  1
  Sc  Sc37  1  0.13233776  0.98279985  0.56527308  1
  Sc  Sc38  1  0.58247323  0.63233776  0.06527308  1
  Sc  Sc39  1  0.48279985  0.93293532  0.06527308  1
  Ir  Ir40  1  0.27335090  0.43982728  0.30117008  1
  Ir  Ir41  1  0.02781918  0.36134280  0.30117008  1
  Ir  Ir42  1  0.93982728  0.52781918  0.80117008  1
  Ir  Ir43  1  0.86134280  0.77335090  0.80117008  1
  Ir  Ir44  1  0.72664910  0.56017272  0.69882992  1
  Ir  Ir45  1  0.97218082  0.63865720  0.69882992  1
  Ir  Ir46  1  0.06017272  0.47218082  0.19882992  1
  Ir  Ir47  1  0.13865720  0.22664910  0.19882992  1
  Cl  Cl48  1  0.46070863  0.28093983  0.18917281  1
  Cl  Cl49  1  0.72846418  0.40823298  0.18917281  1
  Cl  Cl50  1  0.78093983  0.22846418  0.68917281  1
  Cl  Cl51  1  0.90823298  0.96070863  0.68917281  1
  Cl  Cl52  1  0.53929137  0.71906017  0.81082719  1
  Cl  Cl53  1  0.27153582  0.59176702  0.81082719  1
  Cl  Cl54  1  0.21906017  0.77153582  0.31082719  1
  Cl  Cl55  1  0.09176702  0.03929137  0.31082719  1
  Cl  Cl56  1  0.17991676  0.62296629  0.45126817  1
  Cl  Cl57  1  0.27135141  0.32830187  0.45126817  1
  Cl  Cl58  1  0.12296629  0.77135141  0.95126817  1
  Cl  Cl59  1  0.82830187  0.67991676  0.95126817  1
  Cl  Cl60  1  0.82008324  0.37703371  0.54873183  1
  Cl  Cl61  1  0.72864859  0.67169813  0.54873183  1
  Cl  Cl62  1  0.87703371  0.22864859  0.04873183  1
  Cl  Cl63  1  0.17169813  0.32008324  0.04873183  1
  Cl  Cl64  1  0.55169973  0.41624350  0.43699552  1
  Cl  Cl65  1  0.88529579  0.52075202  0.43699552  1
  Cl  Cl66  1  0.91624350  0.38529579  0.93699552  1
  Cl  Cl67  1  0.02075202  0.05169973  0.93699552  1
  Cl  Cl68  1  0.44830027  0.58375650  0.56300448  1
  Cl  Cl69  1  0.11470421  0.47924798  0.56300448  1
  Cl  Cl70  1  0.08375650  0.61470421  0.06300448  1
  Cl  Cl71  1  0.97924798  0.94830027  0.06300448  1
  Cl  Cl72  1  0.42612432  0.14564378  0.31243847  1
  Cl  Cl73  1  0.88631415  0.66679469  0.31243847  1
  Cl  Cl74  1  0.64564378  0.38631415  0.81243847  1
  Cl  Cl75  1  0.16679469  0.92612432  0.81243847  1
  Cl  Cl76  1  0.57387568  0.85435622  0.68756153  1
  Cl  Cl77  1  0.11368585  0.33320531  0.68756153  1
  Cl  Cl78  1  0.35435622  0.61368585  0.18756153  1
  Cl  Cl79  1  0.83320531  0.07387568  0.18756153  1
  Cl  Cl80  1  0.50798381  0.84023714  0.32029846  1
  Cl  Cl81  1  0.81231465  0.98006132  0.32029846  1
  Cl  Cl82  1  0.34023714  0.31231465  0.82029846  1
  Cl  Cl83  1  0.48006132  0.00798381  0.82029846  1
  Cl  Cl84  1  0.49201619  0.15976286  0.67970154  1
  Cl  Cl85  1  0.18768535  0.01993868  0.67970154  1
  Cl  Cl86  1  0.65976286  0.68768535  0.17970154  1
  Cl  Cl87  1  0.51993868  0.99201619  0.17970154  1
  Cl  Cl88  1  0.46363194  0.71612543  0.43254446  1
  Cl  Cl89  1  0.96891251  0.21641902  0.43254446  1
  Cl  Cl90  1  0.21612543  0.46891251  0.93254446  1
  Cl  Cl91  1  0.71641902  0.96363194  0.93254446  1
  Cl  Cl92  1  0.53636806  0.28387457  0.56745554  1
  Cl  Cl93  1  0.03108749  0.78358098  0.56745554  1
  Cl  Cl94  1  0.78387457  0.53108749  0.06745554  1
  Cl  Cl95  1  0.28358098  0.03636806  0.06745554  1
  Cl  Cl96  1  0.59907712  0.54322674  0.31532094  1
  Cl  Cl97  1  0.71624382  0.27209420  0.31532094  1
  Cl  Cl98  1  0.04322674  0.21624382  0.81532094  1
  Cl  Cl99  1  0.77209420  0.09907712  0.81532094  1
  Cl  Cl100  1  0.40092288  0.45677326  0.68467906  1
  Cl  Cl101  1  0.28375618  0.72790580  0.68467906  1
  Cl  Cl102  1  0.95677326  0.78375618  0.18467906  1
  Cl  Cl103  1  0.22790580  0.90092288  0.18467906  1
  Cl  Cl104  1  0.38783683  0.02660662  0.44399119  1
  Cl  Cl105  1  0.05615436  0.91738457  0.44399119  1
  Cl  Cl106  1  0.52660662  0.55615436  0.94399119  1
  Cl  Cl107  1  0.41738457  0.88783683  0.94399119  1
  Cl  Cl108  1  0.61216317  0.97339338  0.55600881  1
  Cl  Cl109  1  0.94384564  0.08261543  0.55600881  1
  Cl  Cl110  1  0.47339338  0.44384564  0.05600881  1
  Cl  Cl111  1  0.58261543  0.11216317  0.05600881  1
  Cl  Cl112  1  0.76521794  0.83653942  0.44063036  1
  Cl  Cl113  1  0.67541242  0.10409093  0.44063036  1
  Cl  Cl114  1  0.33653942  0.17541242  0.94063036  1
  Cl  Cl115  1  0.60409093  0.26521794  0.94063036  1
  Cl  Cl116  1  0.23478206  0.16346058  0.55936964  1
  Cl  Cl117  1  0.32458758  0.89590907  0.55936964  1
  Cl  Cl118  1  0.66346058  0.82458758  0.05936964  1
  Cl  Cl119  1  0.39590907  0.73478206  0.05936964  1
