# generated using pymatgen
data_Sr2Sn(HO)8
_symmetry_space_group_name_H-M   'P 1'
_cell_length_a   6.13662341
_cell_length_b   6.19042031
_cell_length_c   11.30040500
_cell_angle_alpha   90.00000000
_cell_angle_beta   90.00000000
_cell_angle_gamma   113.75634727
_symmetry_Int_Tables_number   1
_chemical_formula_structural   Sr2Sn(HO)8
_chemical_formula_sum   'Sr4 Sn2 H16 O16'
_cell_volume   392.90843730
_cell_formula_units_Z   2
loop_
 _symmetry_equiv_pos_site_id
 _symmetry_equiv_pos_as_xyz
  1  'x, y, z'
loop_
 _atom_site_type_symbol
 _atom_site_label
 _atom_site_symmetry_multiplicity
 _atom_site_fract_x
 _atom_site_fract_y
 _atom_site_fract_z
 _atom_site_occupancy
  Sr  Sr0  1  0.72638800  0.39005500  0.87034600  1
  Sr  Sr1  1  0.27361200  0.10994500  0.37034600  1
  Sr  Sr2  1  0.27361200  0.60994500  0.12965400  1
  Sr  Sr3  1  0.72638800  0.89005500  0.62965400  1
  Sn  Sn4  1  0.00000000  0.50000000  0.50000000  1
  Sn  Sn5  1  0.00000000  0.00000000  0.00000000  1
  H  H6  1  0.14105700  0.72620400  0.69693600  1
  H  H7  1  0.85894300  0.77379600  0.19693600  1
  H  H8  1  0.85894300  0.27379600  0.30306400  1
  H  H9  1  0.14105700  0.22620400  0.80306400  1
  H  H10  1  0.24547000  0.32778300  0.62097300  1
  H  H11  1  0.75453000  0.17221700  0.12097300  1
  H  H12  1  0.75453000  0.67221700  0.37902700  1
  H  H13  1  0.24547000  0.82778300  0.87902700  1
  H  H14  1  0.58468300  0.31385100  0.58446500  1
  H  H15  1  0.41531700  0.18614900  0.08446500  1
  H  H16  1  0.41531700  0.68614900  0.41553500  1
  H  H17  1  0.58468300  0.81385100  0.91553500  1
  H  H18  1  0.36704900  0.55334300  0.76191700  1
  H  H19  1  0.63295100  0.94665700  0.26191700  1
  H  H20  1  0.63295100  0.44665700  0.23808300  1
  H  H21  1  0.36704900  0.05334300  0.73808300  1
  O  O22  1  0.97941500  0.62414300  0.67115800  1
  O  O23  1  0.02058500  0.87585700  0.17115800  1
  O  O24  1  0.02058500  0.37585700  0.32884200  1
  O  O25  1  0.97941500  0.12414300  0.82884200  1
  O  O26  1  0.11999500  0.24588400  0.55969100  1
  O  O27  1  0.88000500  0.25411600  0.05969100  1
  O  O28  1  0.88000500  0.75411600  0.44030900  1
  O  O29  1  0.11999500  0.74588400  0.94030900  1
  O  O30  1  0.65049100  0.24947900  0.52168000  1
  O  O31  1  0.34950900  0.25052100  0.02168000  1
  O  O32  1  0.34950900  0.75052100  0.47832000  1
  O  O33  1  0.65049100  0.74947900  0.97832000  1
  O  O34  1  0.45565000  0.47170800  0.72441800  1
  O  O35  1  0.54435000  0.02829200  0.22441800  1
  O  O36  1  0.54435000  0.52829200  0.27558200  1
  O  O37  1  0.45565000  0.97170800  0.77558200  1
