# generated using pymatgen
data_RbAg2SbS4
_symmetry_space_group_name_H-M   'P 1'
_cell_length_a   6.74775727
_cell_length_b   6.74775727
_cell_length_c   16.95756400
_cell_angle_alpha   90.00000000
_cell_angle_beta   90.00000000
_cell_angle_gamma   119.99999281
_symmetry_Int_Tables_number   1
_chemical_formula_structural   RbAg2SbS4
_chemical_formula_sum   'Rb3 Ag6 Sb3 S12'
_cell_volume   668.67183558
_cell_formula_units_Z   3
loop_
 _symmetry_equiv_pos_site_id
 _symmetry_equiv_pos_as_xyz
  1  'x, y, z'
loop_
 _atom_site_type_symbol
 _atom_site_label
 _atom_site_symmetry_multiplicity
 _atom_site_fract_x
 _atom_site_fract_y
 _atom_site_fract_z
 _atom_site_occupancy
  Rb  Rb0  1  0.00000000  0.55919200  0.83333300  1
  Rb  Rb1  1  0.55919200  0.00000000  0.16666700  1
  Rb  Rb2  1  0.44080800  0.44080800  0.50000000  1
  Ag  Ag3  1  0.90708600  0.59381200  0.07231400  1
  Ag  Ag4  1  0.68672600  0.09291400  0.40564800  1
  Ag  Ag5  1  0.40618800  0.31327400  0.73898100  1
  Ag  Ag6  1  0.09291400  0.68672600  0.59435200  1
  Ag  Ag7  1  0.59381200  0.90708600  0.92768600  1
  Ag  Ag8  1  0.31327400  0.40618800  0.26101900  1
  Sb  Sb9  1  0.72107200  0.00000000  0.66666700  1
  Sb  Sb10  1  0.00000000  0.72107200  0.33333300  1
  Sb  Sb11  1  0.27892800  0.27892800  0.00000000  1
  S  S12  1  0.66898400  0.76353500  0.32758400  1
  S  S13  1  0.23646500  0.90544900  0.99425100  1
  S  S14  1  0.09455100  0.33101600  0.66091700  1
  S  S15  1  0.90544900  0.23646500  0.00574900  1
  S  S16  1  0.33101600  0.09455100  0.33908300  1
  S  S17  1  0.76353500  0.66898400  0.67241600  1
  S  S18  1  0.97301400  0.49953800  0.44669100  1
  S  S19  1  0.49953800  0.97301400  0.55330900  1
  S  S20  1  0.52652400  0.02698600  0.78002400  1
  S  S21  1  0.47347600  0.50046200  0.88664300  1
  S  S22  1  0.02698600  0.52652400  0.21997600  1
  S  S23  1  0.50046200  0.47347600  0.11335700  1
