# generated using pymatgen
data_Sc8B8As3Rh20
_symmetry_space_group_name_H-M   'P 1'
_cell_length_a   3.16520700
_cell_length_b   9.20335200
_cell_length_c   18.40849615
_cell_angle_alpha   89.99257055
_cell_angle_beta   90.00000000
_cell_angle_gamma   90.00000000
_symmetry_Int_Tables_number   1
_chemical_formula_structural   Sc8B8As3Rh20
_chemical_formula_sum   'Sc8 B8 As3 Rh20'
_cell_volume   536.24895365
_cell_formula_units_Z   1
loop_
 _symmetry_equiv_pos_site_id
 _symmetry_equiv_pos_as_xyz
  1  'x, y, z'
loop_
 _atom_site_type_symbol
 _atom_site_label
 _atom_site_symmetry_multiplicity
 _atom_site_fract_x
 _atom_site_fract_y
 _atom_site_fract_z
 _atom_site_occupancy
  Sc  Sc0  1  0.00000000  0.67267700  0.33914600  1
  Sc  Sc1  1  0.00000000  0.67449200  0.83427100  1
  Sc  Sc2  1  0.00000000  0.32732300  0.66085400  1
  Sc  Sc3  1  0.00000000  0.32550800  0.16572900  1
  Sc  Sc4  1  0.00000000  0.82551600  0.58581200  1
  Sc  Sc5  1  0.00000000  0.82542900  0.08768000  1
  Sc  Sc6  1  0.00000000  0.17448400  0.41418800  1
  Sc  Sc7  1  0.00000000  0.17457100  0.91232000  1
  B  B8  1  0.00000000  0.86047300  0.44278600  1
  B  B9  1  0.00000000  0.87732100  0.93789100  1
  B  B10  1  0.00000000  0.13952700  0.55721400  1
  B  B11  1  0.00000000  0.12267900  0.06210900  1
  B  B12  1  0.00000000  0.61656200  0.67936900  1
  B  B13  1  0.00000000  0.62198100  0.19010600  1
  B  B14  1  0.00000000  0.38343800  0.32063100  1
  B  B15  1  0.00000000  0.37801900  0.80989400  1
  As  As16  1  0.00000000  0.50000000  0.00000000  1
  As  As17  1  0.00000000  0.99886600  0.74693800  1
  As  As18  1  0.00000000  0.00113400  0.25306200  1
  Rh  Rh19  1  0.50000000  0.00000000  0.50000000  1
  Rh  Rh20  1  0.50000000  0.00000000  0.00000000  1
  Rh  Rh21  1  0.50000000  0.49886700  0.74863000  1
  Rh  Rh22  1  0.50000000  0.50113300  0.25137000  1
  Rh  Rh23  1  0.50000000  0.43172900  0.39689100  1
  Rh  Rh24  1  0.50000000  0.42892600  0.89211800  1
  Rh  Rh25  1  0.50000000  0.56827100  0.60310900  1
  Rh  Rh26  1  0.50000000  0.57107400  0.10788200  1
  Rh  Rh27  1  0.50000000  0.07537500  0.64145700  1
  Rh  Rh28  1  0.50000000  0.07238000  0.14236000  1
  Rh  Rh29  1  0.50000000  0.92462500  0.35854300  1
  Rh  Rh30  1  0.50000000  0.92762000  0.85764000  1
  Rh  Rh31  1  0.50000000  0.29314000  0.53415200  1
  Rh  Rh32  1  0.50000000  0.28420100  0.03655700  1
  Rh  Rh33  1  0.50000000  0.70686000  0.46584800  1
  Rh  Rh34  1  0.50000000  0.71579900  0.96344300  1
  Rh  Rh35  1  0.50000000  0.78268500  0.71220100  1
  Rh  Rh36  1  0.50000000  0.78510800  0.21321900  1
  Rh  Rh37  1  0.50000000  0.21731500  0.28779900  1
  Rh  Rh38  1  0.50000000  0.21489200  0.78678100  1
