# generated using pymatgen
data_KReN2
_symmetry_space_group_name_H-M   'P 1'
_cell_length_a   6.21445000
_cell_length_b   7.83257300
_cell_length_c   12.24407700
_cell_angle_alpha   90.00000000
_cell_angle_beta   90.00000000
_cell_angle_gamma   90.00000000
_symmetry_Int_Tables_number   1
_chemical_formula_structural   KReN2
_chemical_formula_sum   'K8 Re8 N16'
_cell_volume   595.98207986
_cell_formula_units_Z   8
loop_
 _symmetry_equiv_pos_site_id
 _symmetry_equiv_pos_as_xyz
  1  'x, y, z'
loop_
 _atom_site_type_symbol
 _atom_site_label
 _atom_site_symmetry_multiplicity
 _atom_site_fract_x
 _atom_site_fract_y
 _atom_site_fract_z
 _atom_site_occupancy
  K  K0  1  0.25000000  0.13395700  0.00000000  1
  K  K1  1  0.75000000  0.86604300  0.50000000  1
  K  K2  1  0.75000000  0.86604300  0.00000000  1
  K  K3  1  0.25000000  0.13395700  0.50000000  1
  K  K4  1  0.44097200  0.38774900  0.75000000  1
  K  K5  1  0.94097200  0.61225100  0.75000000  1
  K  K6  1  0.55902800  0.61225100  0.25000000  1
  K  K7  1  0.05902800  0.38774900  0.25000000  1
  Re  Re8  1  0.75000000  0.36609000  0.00000000  1
  Re  Re9  1  0.25000000  0.63391000  0.50000000  1
  Re  Re10  1  0.25000000  0.63391000  0.00000000  1
  Re  Re11  1  0.75000000  0.36609000  0.50000000  1
  Re  Re12  1  0.87617700  0.10965400  0.75000000  1
  Re  Re13  1  0.37617700  0.89034600  0.75000000  1
  Re  Re14  1  0.12382300  0.89034600  0.25000000  1
  Re  Re15  1  0.62382300  0.10965400  0.25000000  1
  N  N16  1  0.18179000  0.07812800  0.75000000  1
  N  N17  1  0.68179000  0.92187200  0.75000000  1
  N  N18  1  0.81821000  0.92187200  0.25000000  1
  N  N19  1  0.31821000  0.07812800  0.25000000  1
  N  N20  1  0.80361300  0.22693400  0.62314500  1
  N  N21  1  0.30361300  0.77306600  0.87685500  1
  N  N22  1  0.19638700  0.77306600  0.12314500  1
  N  N23  1  0.69638700  0.22693400  0.37685500  1
  N  N24  1  0.19638700  0.77306600  0.37685500  1
  N  N25  1  0.69638700  0.22693400  0.12314500  1
  N  N26  1  0.80361300  0.22693400  0.87685500  1
  N  N27  1  0.30361300  0.77306600  0.62314500  1
  N  N28  1  0.50000000  0.50000000  0.50000000  1
  N  N29  1  0.00000000  0.50000000  0.00000000  1
  N  N30  1  0.50000000  0.50000000  0.00000000  1
  N  N31  1  0.00000000  0.50000000  0.50000000  1
