# generated using pymatgen
data_Na2Si2Se5
_symmetry_space_group_name_H-M   'P 1'
_cell_length_a   9.55505493
_cell_length_b   9.55505493
_cell_length_c   11.11321000
_cell_angle_alpha   90.00000000
_cell_angle_beta   90.00000000
_cell_angle_gamma   90.63316646
_symmetry_Int_Tables_number   1
_chemical_formula_structural   Na2Si2Se5
_chemical_formula_sum   'Na8 Si8 Se20'
_cell_volume   1014.56383780
_cell_formula_units_Z   4
loop_
 _symmetry_equiv_pos_site_id
 _symmetry_equiv_pos_as_xyz
  1  'x, y, z'
loop_
 _atom_site_type_symbol
 _atom_site_label
 _atom_site_symmetry_multiplicity
 _atom_site_fract_x
 _atom_site_fract_y
 _atom_site_fract_z
 _atom_site_occupancy
  Na  Na0  1  0.57625800  0.08145700  0.75000000  1
  Na  Na1  1  0.42374200  0.91854300  0.25000000  1
  Na  Na2  1  0.91854300  0.42374200  0.75000000  1
  Na  Na3  1  0.08145700  0.57625800  0.25000000  1
  Na  Na4  1  0.14823600  0.14823600  0.50000000  1
  Na  Na5  1  0.85176400  0.85176400  0.00000000  1
  Na  Na6  1  0.85176400  0.85176400  0.50000000  1
  Na  Na7  1  0.14823600  0.14823600  0.00000000  1
  Si  Si8  1  0.58350800  0.68831400  0.75000000  1
  Si  Si9  1  0.41649200  0.31168600  0.25000000  1
  Si  Si10  1  0.31168600  0.41649200  0.75000000  1
  Si  Si11  1  0.68831400  0.58350800  0.25000000  1
  Si  Si12  1  0.25374100  0.74625900  0.91575100  1
  Si  Si13  1  0.74625900  0.25374100  0.41575100  1
  Si  Si14  1  0.25374100  0.74625900  0.58424900  1
  Si  Si15  1  0.74625900  0.25374100  0.08424900  1
  Se  Se16  1  0.73090500  0.81297800  0.25000000  1
  Se  Se17  1  0.26909500  0.18702200  0.75000000  1
  Se  Se18  1  0.18702200  0.26909500  0.25000000  1
  Se  Se19  1  0.81297800  0.73090500  0.75000000  1
  Se  Se20  1  0.15932400  0.84067600  0.08040600  1
  Se  Se21  1  0.84067600  0.15932400  0.58040600  1
  Se  Se22  1  0.15932400  0.84067600  0.41959400  1
  Se  Se23  1  0.84067600  0.15932400  0.91959400  1
  Se  Se24  1  0.15154900  0.84845100  0.75000000  1
  Se  Se25  1  0.84845100  0.15154900  0.25000000  1
  Se  Se26  1  0.50752300  0.20572400  0.07937000  1
  Se  Se27  1  0.49247700  0.79427600  0.57937000  1
  Se  Se28  1  0.79427600  0.49247700  0.42063000  1
  Se  Se29  1  0.20572400  0.50752300  0.92063000  1
  Se  Se30  1  0.49247700  0.79427600  0.92063000  1
  Se  Se31  1  0.50752300  0.20572400  0.42063000  1
  Se  Se32  1  0.20572400  0.50752300  0.57937000  1
  Se  Se33  1  0.79427600  0.49247700  0.07937000  1
  Se  Se34  1  0.54976000  0.45024000  0.75000000  1
  Se  Se35  1  0.45024000  0.54976000  0.25000000  1
