# generated using pymatgen
data_Mn2Tl2(SO4)3
_symmetry_space_group_name_H-M   'P 1'
_cell_length_a   10.38258900
_cell_length_b   10.38258900
_cell_length_c   10.38258900
_cell_angle_alpha   90.00000000
_cell_angle_beta   90.00000000
_cell_angle_gamma   90.00000000
_symmetry_Int_Tables_number   1
_chemical_formula_structural   Mn2Tl2(SO4)3
_chemical_formula_sum   'Mn8 Tl8 S12 O48'
_cell_volume   1119.22393150
_cell_formula_units_Z   4
loop_
 _symmetry_equiv_pos_site_id
 _symmetry_equiv_pos_as_xyz
  1  'x, y, z'
loop_
 _atom_site_type_symbol
 _atom_site_label
 _atom_site_symmetry_multiplicity
 _atom_site_fract_x
 _atom_site_fract_y
 _atom_site_fract_z
 _atom_site_occupancy
  Mn  Mn0  1  0.33494500  0.33494500  0.33494500  1
  Mn  Mn1  1  0.16505500  0.66505500  0.83494500  1
  Mn  Mn2  1  0.66505500  0.83494500  0.16505500  1
  Mn  Mn3  1  0.83494500  0.16505500  0.66505500  1
  Mn  Mn4  1  0.59832700  0.59832700  0.59832700  1
  Mn  Mn5  1  0.90167300  0.40167300  0.09832700  1
  Mn  Mn6  1  0.40167300  0.09832700  0.90167300  1
  Mn  Mn7  1  0.09832700  0.90167300  0.40167300  1
  Tl  Tl8  1  0.04827600  0.04827600  0.04827600  1
  Tl  Tl9  1  0.45172400  0.95172400  0.54827600  1
  Tl  Tl10  1  0.95172400  0.54827600  0.45172400  1
  Tl  Tl11  1  0.54827600  0.45172400  0.95172400  1
  Tl  Tl12  1  0.81703500  0.81703500  0.81703500  1
  Tl  Tl13  1  0.68296500  0.18296500  0.31703500  1
  Tl  Tl14  1  0.18296500  0.31703500  0.68296500  1
  Tl  Tl15  1  0.31703500  0.68296500  0.18296500  1
  S  S16  1  0.01789800  0.21629900  0.37588200  1
  S  S17  1  0.48210200  0.78370100  0.87588200  1
  S  S18  1  0.98210200  0.71629900  0.12411800  1
  S  S19  1  0.37588200  0.01789800  0.21629900  1
  S  S20  1  0.51789800  0.28370100  0.62411800  1
  S  S21  1  0.87588200  0.48210200  0.78370100  1
  S  S22  1  0.12411800  0.98210200  0.71629900  1
  S  S23  1  0.62411800  0.51789800  0.28370100  1
  S  S24  1  0.21629900  0.37588200  0.01789800  1
  S  S25  1  0.71629900  0.12411800  0.98210200  1
  S  S26  1  0.28370100  0.62411800  0.51789800  1
  S  S27  1  0.78370100  0.87588200  0.48210200  1
  O  O28  1  0.00889800  0.08003000  0.32991800  1
  O  O29  1  0.49110200  0.91997000  0.82991800  1
  O  O30  1  0.99110200  0.58003000  0.17008200  1
  O  O31  1  0.32991800  0.00889800  0.08003000  1
  O  O32  1  0.50889800  0.41997000  0.67008200  1
  O  O33  1  0.82991800  0.49110200  0.91997000  1
  O  O34  1  0.17008200  0.99110200  0.58003000  1
  O  O35  1  0.67008200  0.50889800  0.41997000  1
  O  O36  1  0.08003000  0.32991800  0.00889800  1
  O  O37  1  0.58003000  0.17008200  0.99110200  1
  O  O38  1  0.41997000  0.67008200  0.50889800  1
  O  O39  1  0.91997000  0.82991800  0.49110200  1
  O  O40  1  0.26585000  0.50284100  0.44294400  1
  O  O41  1  0.23415000  0.49715900  0.94294400  1
  O  O42  1  0.73415000  0.00284100  0.05705600  1
  O  O43  1  0.44294400  0.26585000  0.50284100  1
  O  O44  1  0.76585000  0.99715900  0.55705600  1
  O  O45  1  0.94294400  0.23415000  0.49715900  1
  O  O46  1  0.05705600  0.73415000  0.00284100  1
  O  O47  1  0.55705600  0.76585000  0.99715900  1
  O  O48  1  0.50284100  0.44294400  0.26585000  1
  O  O49  1  0.00284100  0.05705600  0.73415000  1
  O  O50  1  0.99715900  0.55705600  0.76585000  1
  O  O51  1  0.49715900  0.94294400  0.23415000  1
  O  O52  1  0.03998300  0.80177400  0.22353600  1
  O  O53  1  0.46001700  0.19822600  0.72353600  1
  O  O54  1  0.96001700  0.30177400  0.27646400  1
  O  O55  1  0.22353600  0.03998300  0.80177400  1
  O  O56  1  0.53998300  0.69822600  0.77646400  1
  O  O57  1  0.72353600  0.46001700  0.19822600  1
  O  O58  1  0.27646400  0.96001700  0.30177400  1
  O  O59  1  0.77646400  0.53998300  0.69822600  1
  O  O60  1  0.80177400  0.22353600  0.03998300  1
  O  O61  1  0.30177400  0.27646400  0.96001700  1
  O  O62  1  0.69822600  0.77646400  0.53998300  1
  O  O63  1  0.19822600  0.72353600  0.46001700  1
  O  O64  1  0.15406000  0.25175200  0.40171300  1
  O  O65  1  0.34594000  0.74824800  0.90171300  1
  O  O66  1  0.84594000  0.75175200  0.09828700  1
  O  O67  1  0.40171300  0.15406000  0.25175200  1
  O  O68  1  0.65406000  0.24824800  0.59828700  1
  O  O69  1  0.90171300  0.34594000  0.74824800  1
  O  O70  1  0.09828700  0.84594000  0.75175200  1
  O  O71  1  0.59828700  0.65406000  0.24824800  1
  O  O72  1  0.25175200  0.40171300  0.15406000  1
  O  O73  1  0.75175200  0.09828700  0.84594000  1
  O  O74  1  0.24824800  0.59828700  0.65406000  1
  O  O75  1  0.74824800  0.90171300  0.34594000  1
