# generated using pymatgen
data_CaHfTlF7
_symmetry_space_group_name_H-M   'P 1'
_cell_length_a   6.63535962
_cell_length_b   6.63535962
_cell_length_c   8.60434900
_cell_angle_alpha   90.00000000
_cell_angle_beta   90.00000000
_cell_angle_gamma   116.76337588
_symmetry_Int_Tables_number   1
_chemical_formula_structural   CaHfTlF7
_chemical_formula_sum   'Ca2 Hf2 Tl2 F14'
_cell_volume   338.24941041
_cell_formula_units_Z   2
loop_
 _symmetry_equiv_pos_site_id
 _symmetry_equiv_pos_as_xyz
  1  'x, y, z'
loop_
 _atom_site_type_symbol
 _atom_site_label
 _atom_site_symmetry_multiplicity
 _atom_site_fract_x
 _atom_site_fract_y
 _atom_site_fract_z
 _atom_site_occupancy
  Ca  Ca0  1  0.30948500  0.69051500  0.75000000  1
  Ca  Ca1  1  0.69051500  0.30948500  0.25000000  1
  Hf  Hf2  1  0.69305700  0.30694300  0.75000000  1
  Hf  Hf3  1  0.30694300  0.69305700  0.25000000  1
  Tl  Tl4  1  0.00000000  0.00000000  0.00000000  1
  Tl  Tl5  1  0.00000000  0.00000000  0.50000000  1
  F  F6  1  0.35113300  0.06626100  0.75000000  1
  F  F7  1  0.64886700  0.93373900  0.25000000  1
  F  F8  1  0.93373900  0.64886700  0.75000000  1
  F  F9  1  0.06626100  0.35113300  0.25000000  1
  F  F10  1  0.51235100  0.48764900  0.75000000  1
  F  F11  1  0.48764900  0.51235100  0.25000000  1
  F  F12  1  0.70279800  0.29720200  0.98414700  1
  F  F13  1  0.29720200  0.70279800  0.01585300  1
  F  F14  1  0.29720200  0.70279800  0.48414700  1
  F  F15  1  0.70279800  0.29720200  0.51585300  1
  F  F16  1  0.67117500  0.97948700  0.75000000  1
  F  F17  1  0.32882500  0.02051300  0.25000000  1
  F  F18  1  0.02051300  0.32882500  0.75000000  1
  F  F19  1  0.97948700  0.67117500  0.25000000  1
