# generated using pymatgen
data_RbNbCl6
_symmetry_space_group_name_H-M   'P 1'
_cell_length_a   7.02721679
_cell_length_b   7.02721679
_cell_length_c   12.62970908
_cell_angle_alpha   79.27420667
_cell_angle_beta   79.27420667
_cell_angle_gamma   55.40981998
_symmetry_Int_Tables_number   1
_chemical_formula_structural   RbNbCl6
_chemical_formula_sum   'Rb2 Nb2 Cl12'
_cell_volume   501.96045113
_cell_formula_units_Z   2
loop_
 _symmetry_equiv_pos_site_id
 _symmetry_equiv_pos_as_xyz
  1  'x, y, z'
loop_
 _atom_site_type_symbol
 _atom_site_label
 _atom_site_symmetry_multiplicity
 _atom_site_fract_x
 _atom_site_fract_y
 _atom_site_fract_z
 _atom_site_occupancy
  Rb  Rb0  1  0.88120500  0.11879500  0.75000000  1
  Rb  Rb1  1  0.11879500  0.88120500  0.25000000  1
  Nb  Nb2  1  0.50000000  0.00000000  0.50000000  1
  Nb  Nb3  1  0.00000000  0.50000000  0.00000000  1
  Cl  Cl4  1  0.46333700  0.70111900  0.60295500  1
  Cl  Cl5  1  0.53666300  0.29888100  0.39704500  1
  Cl  Cl6  1  0.29888100  0.53666300  0.89704500  1
  Cl  Cl7  1  0.70111900  0.46333700  0.10295500  1
  Cl  Cl8  1  0.37096800  0.19977000  0.65779500  1
  Cl  Cl9  1  0.62903200  0.80023000  0.34220500  1
  Cl  Cl10  1  0.80023000  0.62903200  0.84220500  1
  Cl  Cl11  1  0.19977000  0.37096800  0.15779500  1
  Cl  Cl12  1  0.79585000  0.89259000  0.03998400  1
  Cl  Cl13  1  0.20415000  0.10741000  0.96001600  1
  Cl  Cl14  1  0.10741000  0.20415000  0.46001600  1
  Cl  Cl15  1  0.89259000  0.79585000  0.53998400  1
