# generated using pymatgen
data_Er2B6Rh
_symmetry_space_group_name_H-M   'P 1'
_cell_length_a   3.64074600
_cell_length_b   9.14592500
_cell_length_c   11.46686900
_cell_angle_alpha   90.00000000
_cell_angle_beta   90.00000000
_cell_angle_gamma   90.00000000
_symmetry_Int_Tables_number   1
_chemical_formula_structural   Er2B6Rh
_chemical_formula_sum   'Er8 B24 Rh4'
_cell_volume   381.82368769
_cell_formula_units_Z   4
loop_
 _symmetry_equiv_pos_site_id
 _symmetry_equiv_pos_as_xyz
  1  'x, y, z'
loop_
 _atom_site_type_symbol
 _atom_site_label
 _atom_site_symmetry_multiplicity
 _atom_site_fract_x
 _atom_site_fract_y
 _atom_site_fract_z
 _atom_site_occupancy
  Er  Er0  1  0.50000000  0.32226200  0.41331000  1
  Er  Er1  1  0.50000000  0.67773800  0.58669000  1
  Er  Er2  1  0.50000000  0.17773800  0.91331000  1
  Er  Er3  1  0.50000000  0.82226200  0.08669000  1
  Er  Er4  1  0.50000000  0.44483200  0.12608000  1
  Er  Er5  1  0.50000000  0.55516800  0.87392000  1
  Er  Er6  1  0.50000000  0.05516800  0.62608000  1
  Er  Er7  1  0.50000000  0.94483200  0.37392000  1
  B  B8  1  0.00000000  0.11052100  0.46967300  1
  B  B9  1  0.00000000  0.88947900  0.53032700  1
  B  B10  1  0.00000000  0.38947900  0.96967300  1
  B  B11  1  0.00000000  0.61052100  0.03032700  1
  B  B12  1  0.00000000  0.13368400  0.31558600  1
  B  B13  1  0.00000000  0.86631600  0.68441400  1
  B  B14  1  0.00000000  0.36631600  0.81558600  1
  B  B15  1  0.00000000  0.63368400  0.18441400  1
  B  B16  1  0.00000000  0.05351400  0.06594000  1
  B  B17  1  0.00000000  0.94648600  0.93406000  1
  B  B18  1  0.00000000  0.44648600  0.56594000  1
  B  B19  1  0.00000000  0.55351400  0.43406000  1
  B  B20  1  0.00000000  0.48346700  0.28787900  1
  B  B21  1  0.00000000  0.51653300  0.71212100  1
  B  B22  1  0.00000000  0.01653300  0.78787900  1
  B  B23  1  0.00000000  0.98346700  0.21212100  1
  B  B24  1  0.00000000  0.25067000  0.07937800  1
  B  B25  1  0.00000000  0.74933000  0.92062200  1
  B  B26  1  0.00000000  0.24933000  0.57937800  1
  B  B27  1  0.00000000  0.75067000  0.42062200  1
  B  B28  1  0.00000000  0.29467000  0.23480500  1
  B  B29  1  0.00000000  0.70533000  0.76519500  1
  B  B30  1  0.00000000  0.20533000  0.73480500  1
  B  B31  1  0.00000000  0.79467000  0.26519500  1
  Rh  Rh32  1  0.50000000  0.13988300  0.17827300  1
  Rh  Rh33  1  0.50000000  0.86011700  0.82172700  1
  Rh  Rh34  1  0.50000000  0.36011700  0.67827300  1
  Rh  Rh35  1  0.50000000  0.63988300  0.32172700  1
