# generated using pymatgen
data_Ti2NbAl
_symmetry_space_group_name_H-M   'P 1'
_cell_length_a   5.63817977
_cell_length_b   5.63817977
_cell_length_c   4.67509100
_cell_angle_alpha   90.00000000
_cell_angle_beta   90.00000000
_cell_angle_gamma   114.97252074
_symmetry_Int_Tables_number   1
_chemical_formula_structural   Ti2NbAl
_chemical_formula_sum   'Ti4 Nb2 Al2'
_cell_volume   134.72267104
_cell_formula_units_Z   2
loop_
 _symmetry_equiv_pos_site_id
 _symmetry_equiv_pos_as_xyz
  1  'x, y, z'
loop_
 _atom_site_type_symbol
 _atom_site_label
 _atom_site_symmetry_multiplicity
 _atom_site_fract_x
 _atom_site_fract_y
 _atom_site_fract_z
 _atom_site_occupancy
  Ti  Ti0  1  0.86243100  0.66883100  0.75000000  1
  Ti  Ti1  1  0.66883100  0.86243100  0.25000000  1
  Ti  Ti2  1  0.13756900  0.33116900  0.25000000  1
  Ti  Ti3  1  0.33116900  0.13756900  0.75000000  1
  Nb  Nb4  1  0.36267800  0.63732200  0.75000000  1
  Nb  Nb5  1  0.63732200  0.36267800  0.25000000  1
  Al  Al6  1  0.83499600  0.16500400  0.75000000  1
  Al  Al7  1  0.16500400  0.83499600  0.25000000  1
