# generated using pymatgen
data_Ba2Ca(PdO2)3
_symmetry_space_group_name_H-M   'P 1'
_cell_length_a   9.57608326
_cell_length_b   8.82222610
_cell_length_c   7.31242536
_cell_angle_alpha   72.12539991
_cell_angle_beta   61.25962733
_cell_angle_gamma   46.61497276
_symmetry_Int_Tables_number   1
_chemical_formula_structural   Ba2Ca(PdO2)3
_chemical_formula_sum   'Ba4 Ca2 Pd6 O12'
_cell_volume   393.39379948
_cell_formula_units_Z   2
loop_
 _symmetry_equiv_pos_site_id
 _symmetry_equiv_pos_as_xyz
  1  'x, y, z'
loop_
 _atom_site_type_symbol
 _atom_site_label
 _atom_site_symmetry_multiplicity
 _atom_site_fract_x
 _atom_site_fract_y
 _atom_site_fract_z
 _atom_site_occupancy
  Ba  Ba0  1  0.75000000  0.75000000  0.75000000  1
  Ba  Ba1  1  0.25000000  0.25000000  0.25000000  1
  Ba  Ba2  1  0.23298000  0.76702000  0.23298000  1
  Ba  Ba3  1  0.76702000  0.23298000  0.76702000  1
  Ca  Ca4  1  0.67063000  0.67063000  0.32937000  1
  Ca  Ca5  1  0.32937000  0.32937000  0.67063000  1
  Pd  Pd6  1  0.68993000  0.00646600  0.31007000  1
  Pd  Pd7  1  0.99353400  0.31007000  0.00646600  1
  Pd  Pd8  1  0.00646600  0.68993000  0.99353400  1
  Pd  Pd9  1  0.31007000  0.99353400  0.68993000  1
  Pd  Pd10  1  0.32534000  0.67466000  0.67466000  1
  Pd  Pd11  1  0.67466000  0.32534000  0.32534000  1
  O  O12  1  0.32800000  0.46876000  0.90580400  1
  O  O13  1  0.29743600  0.90580400  0.46876000  1
  O  O14  1  0.90580400  0.29743600  0.32800000  1
  O  O15  1  0.46876000  0.32800000  0.29743600  1
  O  O16  1  0.67200000  0.53124000  0.09419600  1
  O  O17  1  0.70256400  0.09419600  0.53124000  1
  O  O18  1  0.68727800  0.92210900  0.07789100  1
  O  O19  1  0.53124000  0.67200000  0.70256400  1
  O  O20  1  0.92210900  0.68727800  0.31272200  1
  O  O21  1  0.07789100  0.31272200  0.68727800  1
  O  O22  1  0.31272200  0.07789100  0.92210900  1
  O  O23  1  0.09419600  0.70256400  0.67200000  1
