# generated using pymatgen
data_TaP
_symmetry_space_group_name_H-M   'P 1'
_cell_length_a   6.17162035
_cell_length_b   6.17162035
_cell_length_c   6.17162035
_cell_angle_alpha   148.59917488
_cell_angle_beta   148.59917488
_cell_angle_gamma   45.00163619
_symmetry_Int_Tables_number   1
_chemical_formula_structural   TaP
_chemical_formula_sum   'Ta2 P2'
_cell_volume   63.61355139
_cell_formula_units_Z   2
loop_
 _symmetry_equiv_pos_site_id
 _symmetry_equiv_pos_as_xyz
  1  'x, y, z'
loop_
 _atom_site_type_symbol
 _atom_site_label
 _atom_site_symmetry_multiplicity
 _atom_site_fract_x
 _atom_site_fract_y
 _atom_site_fract_z
 _atom_site_occupancy
  Ta  Ta0  1  0.74924500  0.24924500  0.50000000  1
  Ta  Ta1  1  0.99924500  0.99924500  0.00000000  1
  P  P2  1  0.16675500  0.66675500  0.50000000  1
  P  P3  1  0.41675500  0.41675500  0.00000000  1
