# generated using pymatgen
data_Ba2V(SiO4)2
_symmetry_space_group_name_H-M   'P 1'
_cell_length_a   8.60498400
_cell_length_b   8.60498400
_cell_length_c   5.33279300
_cell_angle_alpha   90.00000000
_cell_angle_beta   90.00000000
_cell_angle_gamma   90.00000000
_symmetry_Int_Tables_number   1
_chemical_formula_structural   Ba2V(SiO4)2
_chemical_formula_sum   'Ba4 V2 Si4 O16'
_cell_volume   394.87065536
_cell_formula_units_Z   2
loop_
 _symmetry_equiv_pos_site_id
 _symmetry_equiv_pos_as_xyz
  1  'x, y, z'
loop_
 _atom_site_type_symbol
 _atom_site_label
 _atom_site_symmetry_multiplicity
 _atom_site_fract_x
 _atom_site_fract_y
 _atom_site_fract_z
 _atom_site_occupancy
  Ba  Ba0  1  0.17166500  0.67166500  0.99565400  1
  Ba  Ba1  1  0.67166500  0.82833500  0.99565400  1
  Ba  Ba2  1  0.32833500  0.17166500  0.99565400  1
  Ba  Ba3  1  0.82833500  0.32833500  0.99565400  1
  V  V4  1  0.50000000  0.50000000  0.53865400  1
  V  V5  1  0.00000000  0.00000000  0.53865400  1
  Si  Si6  1  0.37052700  0.87052700  0.51956100  1
  Si  Si7  1  0.87052700  0.62947300  0.51956100  1
  Si  Si8  1  0.12947300  0.37052700  0.51956100  1
  Si  Si9  1  0.62947300  0.12947300  0.51956100  1
  O  O10  1  0.50000000  0.50000000  0.22559200  1
  O  O11  1  0.00000000  0.00000000  0.22559200  1
  O  O12  1  0.79357400  0.07739900  0.65285100  1
  O  O13  1  0.20642600  0.92260100  0.65285100  1
  O  O14  1  0.92260100  0.79357400  0.65285100  1
  O  O15  1  0.07739900  0.20642600  0.65285100  1
  O  O16  1  0.42260100  0.70642600  0.65285100  1
  O  O17  1  0.70642600  0.57739900  0.65285100  1
  O  O18  1  0.29357400  0.42260100  0.65285100  1
  O  O19  1  0.57739900  0.29357400  0.65285100  1
  O  O20  1  0.50000000  0.00000000  0.63120800  1
  O  O21  1  0.00000000  0.50000000  0.63120800  1
  O  O22  1  0.62918500  0.12918500  0.21770600  1
  O  O23  1  0.12918500  0.37081500  0.21770600  1
  O  O24  1  0.87081500  0.62918500  0.21770600  1
  O  O25  1  0.37081500  0.87081500  0.21770600  1
