# generated using pymatgen
data_Pr3TaO7
_symmetry_space_group_name_H-M   'P 1'
_cell_length_a   6.73269204
_cell_length_b   6.73269204
_cell_length_c   7.76880800
_cell_angle_alpha   90.00000000
_cell_angle_beta   90.00000000
_cell_angle_gamma   111.08223323
_symmetry_Int_Tables_number   1
_chemical_formula_structural   Pr3TaO7
_chemical_formula_sum   'Pr6 Ta2 O14'
_cell_volume   328.58205615
_cell_formula_units_Z   2
loop_
 _symmetry_equiv_pos_site_id
 _symmetry_equiv_pos_as_xyz
  1  'x, y, z'
loop_
 _atom_site_type_symbol
 _atom_site_label
 _atom_site_symmetry_multiplicity
 _atom_site_fract_x
 _atom_site_fract_y
 _atom_site_fract_z
 _atom_site_occupancy
  Pr  Pr0  1  0.00000000  0.00000000  0.00000000  1
  Pr  Pr1  1  0.00000000  0.00000000  0.50000000  1
  Pr  Pr2  1  0.47885800  0.93231200  0.75000000  1
  Pr  Pr3  1  0.52114200  0.06768800  0.25000000  1
  Pr  Pr4  1  0.93231200  0.47885800  0.75000000  1
  Pr  Pr5  1  0.06768800  0.52114200  0.25000000  1
  Ta  Ta6  1  0.50000000  0.50000000  0.00000000  1
  Ta  Ta7  1  0.50000000  0.50000000  0.50000000  1
  O  O8  1  0.56482700  0.56482700  0.75000000  1
  O  O9  1  0.43517300  0.43517300  0.25000000  1
  O  O10  1  0.84691000  0.10926500  0.75000000  1
  O  O11  1  0.15309000  0.89073500  0.25000000  1
  O  O12  1  0.10926500  0.84691000  0.75000000  1
  O  O13  1  0.89073500  0.15309000  0.25000000  1
  O  O14  1  0.43927900  0.18804300  0.96696900  1
  O  O15  1  0.56072100  0.81195700  0.46696900  1
  O  O16  1  0.18804300  0.43927900  0.96696900  1
  O  O17  1  0.81195700  0.56072100  0.46696900  1
  O  O18  1  0.43927900  0.18804300  0.53303100  1
  O  O19  1  0.56072100  0.81195700  0.03303100  1
  O  O20  1  0.81195700  0.56072100  0.03303100  1
  O  O21  1  0.18804300  0.43927900  0.53303100  1
