# generated using pymatgen
data_Bi2Pd3PtO8
_symmetry_space_group_name_H-M   'P 1'
_cell_length_a   5.82803051
_cell_length_b   6.19069120
_cell_length_c   6.51582179
_cell_angle_alpha   114.94327956
_cell_angle_beta   95.51734390
_cell_angle_gamma   111.87348201
_symmetry_Int_Tables_number   1
_chemical_formula_structural   Bi2Pd3PtO8
_chemical_formula_sum   'Bi2 Pd3 Pt1 O8'
_cell_volume   188.64171525
_cell_formula_units_Z   1
loop_
 _symmetry_equiv_pos_site_id
 _symmetry_equiv_pos_as_xyz
  1  'x, y, z'
loop_
 _atom_site_type_symbol
 _atom_site_label
 _atom_site_symmetry_multiplicity
 _atom_site_fract_x
 _atom_site_fract_y
 _atom_site_fract_z
 _atom_site_occupancy
  Bi  Bi0  1  0.86226100  0.23802900  0.64480500  1
  Bi  Bi1  1  0.13773900  0.76197100  0.35519500  1
  Pd  Pd2  1  0.50000000  0.50000000  0.50000000  1
  Pd  Pd3  1  0.50000000  0.00000000  0.00000000  1
  Pd  Pd4  1  0.00000000  0.00000000  0.00000000  1
  Pt  Pt5  1  0.50000000  0.50000000  0.00000000  1
  O  O6  1  0.64581700  0.39865700  0.22639500  1
  O  O7  1  0.35418300  0.60134300  0.77360500  1
  O  O8  1  0.87460300  0.64502600  0.99121600  1
  O  O9  1  0.12539700  0.35497400  0.00878400  1
  O  O10  1  0.51721600  0.86344600  0.24198100  1
  O  O11  1  0.48278400  0.13655400  0.75801900  1
  O  O12  1  0.83886400  0.86088100  0.64296800  1
  O  O13  1  0.16113600  0.13911900  0.35703200  1
