# generated using pymatgen
data_Ce5AgPb3
_symmetry_space_group_name_H-M   'P 1'
_cell_length_a   9.70887081
_cell_length_b   9.70887081
_cell_length_c   6.62016200
_cell_angle_alpha   90.00000000
_cell_angle_beta   90.00000000
_cell_angle_gamma   120.00000554
_symmetry_Int_Tables_number   1
_chemical_formula_structural   Ce5AgPb3
_chemical_formula_sum   'Ce10 Ag2 Pb6'
_cell_volume   540.42654051
_cell_formula_units_Z   2
loop_
 _symmetry_equiv_pos_site_id
 _symmetry_equiv_pos_as_xyz
  1  'x, y, z'
loop_
 _atom_site_type_symbol
 _atom_site_label
 _atom_site_symmetry_multiplicity
 _atom_site_fract_x
 _atom_site_fract_y
 _atom_site_fract_z
 _atom_site_occupancy
  Ce  Ce0  1  0.66666700  0.33333300  0.50000000  1
  Ce  Ce1  1  0.33333300  0.66666700  0.50000000  1
  Ce  Ce2  1  0.33333300  0.66666700  0.00000000  1
  Ce  Ce3  1  0.66666700  0.33333300  0.00000000  1
  Ce  Ce4  1  0.71671800  0.71671800  0.25000000  1
  Ce  Ce5  1  0.28328200  0.00000000  0.25000000  1
  Ce  Ce6  1  0.00000000  0.28328200  0.25000000  1
  Ce  Ce7  1  0.28328200  0.28328200  0.75000000  1
  Ce  Ce8  1  0.71671800  0.00000000  0.75000000  1
  Ce  Ce9  1  0.00000000  0.71671800  0.75000000  1
  Ag  Ag10  1  0.00000000  0.00000000  0.50000000  1
  Ag  Ag11  1  0.00000000  0.00000000  0.00000000  1
  Pb  Pb12  1  0.37178500  0.37178500  0.25000000  1
  Pb  Pb13  1  0.62821500  0.00000000  0.25000000  1
  Pb  Pb14  1  0.00000000  0.62821500  0.25000000  1
  Pb  Pb15  1  0.62821500  0.62821500  0.75000000  1
  Pb  Pb16  1  0.37178500  0.00000000  0.75000000  1
  Pb  Pb17  1  0.00000000  0.37178500  0.75000000  1
