# generated using pymatgen
data_NaSO3F
_symmetry_space_group_name_H-M   'P 1'
_cell_length_a   5.56825450
_cell_length_b   5.56825450
_cell_length_c   6.79288400
_cell_angle_alpha   90.00000000
_cell_angle_beta   90.00000000
_cell_angle_gamma   120.00000598
_symmetry_Int_Tables_number   1
_chemical_formula_structural   NaSO3F
_chemical_formula_sum   'Na2 S2 O6 F2'
_cell_volume   182.39921202
_cell_formula_units_Z   2
loop_
 _symmetry_equiv_pos_site_id
 _symmetry_equiv_pos_as_xyz
  1  'x, y, z'
loop_
 _atom_site_type_symbol
 _atom_site_label
 _atom_site_symmetry_multiplicity
 _atom_site_fract_x
 _atom_site_fract_y
 _atom_site_fract_z
 _atom_site_occupancy
  Na  Na0  1  0.00000000  0.00000000  0.50000000  1
  Na  Na1  1  0.00000000  0.00000000  0.00000000  1
  S  S2  1  0.33333300  0.66666700  0.28987900  1
  S  S3  1  0.66666700  0.33333300  0.71012100  1
  O  O4  1  0.18601100  0.81398900  0.24436000  1
  O  O5  1  0.18601100  0.37202200  0.24436000  1
  O  O6  1  0.62797800  0.81398900  0.24436000  1
  O  O7  1  0.81398900  0.18601100  0.75564000  1
  O  O8  1  0.81398900  0.62797800  0.75564000  1
  O  O9  1  0.37202200  0.18601100  0.75564000  1
  F  F10  1  0.33333300  0.66666700  0.52938600  1
  F  F11  1  0.66666700  0.33333300  0.47061400  1
