# generated using pymatgen
data_SrLaVO4
_symmetry_space_group_name_H-M   'P 1'
_cell_length_a   5.54832114
_cell_length_b   8.90032222
_cell_length_c   8.90027612
_cell_angle_alpha   79.24404720
_cell_angle_beta   71.83760228
_cell_angle_gamma   71.84037994
_symmetry_Int_Tables_number   1
_chemical_formula_structural   SrLaVO4
_chemical_formula_sum   'Sr4 La4 V4 O16'
_cell_volume   394.86012709
_cell_formula_units_Z   4
loop_
 _symmetry_equiv_pos_site_id
 _symmetry_equiv_pos_as_xyz
  1  'x, y, z'
loop_
 _atom_site_type_symbol
 _atom_site_label
 _atom_site_symmetry_multiplicity
 _atom_site_fract_x
 _atom_site_fract_y
 _atom_site_fract_z
 _atom_site_occupancy
  Sr  Sr0  1  0.35680000  0.64888400  0.63738500  1
  Sr  Sr1  1  0.85668000  0.38768400  0.89904800  1
  Sr  Sr2  1  0.35650700  0.14902000  0.13770300  1
  Sr  Sr3  1  0.85688900  0.88741100  0.39886200  1
  La  La4  1  0.14268300  0.61688300  0.09716900  1
  La  La5  1  0.64314300  0.34716600  0.36688600  1
  La  La6  1  0.14268400  0.11589100  0.59799700  1
  La  La7  1  0.64337200  0.84800200  0.86587500  1
  V  V8  1  0.49723900  0.25301100  0.75250700  1
  V  V9  1  0.99723300  0.00251200  0.00297700  1
  V  V10  1  0.49760300  0.75275900  0.25201400  1
  V  V11  1  0.99760600  0.50201700  0.50278100  1
  O  O12  1  0.16505800  0.80729400  0.86113600  1
  O  O13  1  0.66650800  0.61245800  0.05574800  1
  O  O14  1  0.16556900  0.30571200  0.36246400  1
  O  O15  1  0.66653500  0.11121100  0.55724000  1
  O  O16  1  0.32670400  0.40564500  0.94081800  1
  O  O17  1  0.82709900  0.19069000  0.15571400  1
  O  O18  1  0.32697200  0.90482200  0.44112100  1
  O  O19  1  0.82716700  0.69110900  0.65488000  1
  O  O20  1  0.74046600  0.88455800  0.13430000  1
  O  O21  1  0.26989500  0.60508200  0.35505800  1
  O  O22  1  0.74057000  0.38434200  0.63450600  1
  O  O23  1  0.26895800  0.10600000  0.85596500  1
  O  O24  1  0.24083100  0.88425500  0.13404200  1
  O  O25  1  0.76977000  0.60520700  0.35521400  1
  O  O26  1  0.24075600  0.38409400  0.63432600  1
  O  O27  1  0.76870600  0.10628100  0.85626600  1
