# generated using pymatgen
data_NaSe2
_symmetry_space_group_name_H-M   'P 1'
_cell_length_a   9.56580503
_cell_length_b   9.56580503
_cell_length_c   9.56580503
_cell_angle_alpha   114.88093765
_cell_angle_beta   114.88093765
_cell_angle_gamma   99.12169668
_symmetry_Int_Tables_number   1
_chemical_formula_structural   NaSe2
_chemical_formula_sum   'Na8 Se16'
_cell_volume   657.77355524
_cell_formula_units_Z   8
loop_
 _symmetry_equiv_pos_site_id
 _symmetry_equiv_pos_as_xyz
  1  'x, y, z'
loop_
 _atom_site_type_symbol
 _atom_site_label
 _atom_site_symmetry_multiplicity
 _atom_site_fract_x
 _atom_site_fract_y
 _atom_site_fract_z
 _atom_site_occupancy
  Na  Na0  1  0.87500000  0.87228600  0.49728600  1
  Na  Na1  1  0.12771400  0.62500000  0.00271400  1
  Na  Na2  1  0.62228600  0.12500000  0.99728600  1
  Na  Na3  1  0.37500000  0.37771400  0.50271400  1
  Na  Na4  1  0.93964200  0.43964200  0.50000000  1
  Na  Na5  1  0.56035800  0.06035800  0.50000000  1
  Na  Na6  1  0.81035800  0.81035800  0.00000000  1
  Na  Na7  1  0.18964200  0.18964200  0.00000000  1
  Se  Se8  1  0.52532500  0.54333300  0.26050400  1
  Se  Se9  1  0.45666700  0.71717100  0.98199200  1
  Se  Se10  1  0.73517900  0.47467500  0.01800800  1
  Se  Se11  1  0.46717100  0.70666700  0.48199200  1
  Se  Se12  1  0.22467500  0.98517900  0.51800800  1
  Se  Se13  1  0.28282900  0.26482100  0.73949600  1
  Se  Se14  1  0.29333300  0.77532500  0.76050400  1
  Se  Se15  1  0.01482100  0.53282900  0.23949600  1
  Se  Se16  1  0.02475800  0.27203400  0.20939800  1
  Se  Se17  1  0.06263700  0.81536000  0.79060200  1
  Se  Se18  1  0.02203400  0.27475800  0.70939800  1
  Se  Se19  1  0.18464000  0.97524200  0.24727700  1
  Se  Se20  1  0.72796600  0.93736300  0.75272300  1
  Se  Se21  1  0.72524200  0.43464000  0.74727700  1
  Se  Se22  1  0.68736300  0.97796600  0.25272300  1
  Se  Se23  1  0.56536000  0.31263700  0.29060200  1
