# generated using pymatgen
data_SbTePd
_symmetry_space_group_name_H-M   'P 1'
_cell_length_a   6.64136400
_cell_length_b   6.64136400
_cell_length_c   6.64136400
_cell_angle_alpha   90.00000000
_cell_angle_beta   90.00000000
_cell_angle_gamma   90.00000000
_symmetry_Int_Tables_number   1
_chemical_formula_structural   SbTePd
_chemical_formula_sum   'Sb4 Te4 Pd4'
_cell_volume   292.93539571
_cell_formula_units_Z   4
loop_
 _symmetry_equiv_pos_site_id
 _symmetry_equiv_pos_as_xyz
  1  'x, y, z'
loop_
 _atom_site_type_symbol
 _atom_site_label
 _atom_site_symmetry_multiplicity
 _atom_site_fract_x
 _atom_site_fract_y
 _atom_site_fract_z
 _atom_site_occupancy
  Sb  Sb0  1  0.62724000  0.62724000  0.62724000  1
  Sb  Sb1  1  0.87276000  0.37276000  0.12724000  1
  Sb  Sb2  1  0.12724000  0.87276000  0.37276000  1
  Sb  Sb3  1  0.37276000  0.12724000  0.87276000  1
  Te  Te4  1  0.37405200  0.37405200  0.37405200  1
  Te  Te5  1  0.12594800  0.62594800  0.87405200  1
  Te  Te6  1  0.87405200  0.12594800  0.62594800  1
  Te  Te7  1  0.62594800  0.87405200  0.12594800  1
  Pd  Pd8  1  0.00393400  0.00393400  0.00393400  1
  Pd  Pd9  1  0.49606600  0.99606600  0.50393400  1
  Pd  Pd10  1  0.50393400  0.49606600  0.99606600  1
  Pd  Pd11  1  0.99606600  0.50393400  0.49606600  1
