# generated using pymatgen
data_Ta2Au
_symmetry_space_group_name_H-M   'P 1'
_cell_length_a   10.11484800
_cell_length_b   10.11484800
_cell_length_c   5.23534200
_cell_angle_alpha   90.00000000
_cell_angle_beta   90.00000000
_cell_angle_gamma   90.00000000
_symmetry_Int_Tables_number   1
_chemical_formula_structural   Ta2Au
_chemical_formula_sum   'Ta20 Au10'
_cell_volume   535.62862565
_cell_formula_units_Z   10
loop_
 _symmetry_equiv_pos_site_id
 _symmetry_equiv_pos_as_xyz
  1  'x, y, z'
loop_
 _atom_site_type_symbol
 _atom_site_label
 _atom_site_symmetry_multiplicity
 _atom_site_fract_x
 _atom_site_fract_y
 _atom_site_fract_z
 _atom_site_occupancy
  Ta  Ta0  1  0.89665500  0.10334500  0.50000000  1
  Ta  Ta1  1  0.10334500  0.89665500  0.50000000  1
  Ta  Ta2  1  0.39665500  0.39665500  0.00000000  1
  Ta  Ta3  1  0.60334500  0.60334500  0.00000000  1
  Ta  Ta4  1  0.96531700  0.37103300  0.50000000  1
  Ta  Ta5  1  0.03468300  0.62896700  0.50000000  1
  Ta  Ta6  1  0.46531700  0.12896700  0.00000000  1
  Ta  Ta7  1  0.53468300  0.87103300  0.00000000  1
  Ta  Ta8  1  0.37103300  0.96531700  0.50000000  1
  Ta  Ta9  1  0.62896700  0.03468300  0.50000000  1
  Ta  Ta10  1  0.12896700  0.46531700  0.00000000  1
  Ta  Ta11  1  0.87103300  0.53468300  0.00000000  1
  Ta  Ta12  1  0.68327200  0.31672800  0.25020000  1
  Ta  Ta13  1  0.31672800  0.68327200  0.25020000  1
  Ta  Ta14  1  0.18327200  0.18327200  0.75020000  1
  Ta  Ta15  1  0.81672800  0.81672800  0.75020000  1
  Ta  Ta16  1  0.31672800  0.68327200  0.74980000  1
  Ta  Ta17  1  0.68327200  0.31672800  0.74980000  1
  Ta  Ta18  1  0.81672800  0.81672800  0.24980000  1
  Ta  Ta19  1  0.18327200  0.18327200  0.24980000  1
  Au  Au20  1  0.50000000  0.50000000  0.50000000  1
  Au  Au21  1  0.00000000  0.00000000  0.00000000  1
  Au  Au22  1  0.23294100  0.43666600  0.50000000  1
  Au  Au23  1  0.76705900  0.56333400  0.50000000  1
  Au  Au24  1  0.73294100  0.06333400  0.00000000  1
  Au  Au25  1  0.26705900  0.93666600  0.00000000  1
  Au  Au26  1  0.43666600  0.23294100  0.50000000  1
  Au  Au27  1  0.56333400  0.76705900  0.50000000  1
  Au  Au28  1  0.06333400  0.73294100  0.00000000  1
  Au  Au29  1  0.93666600  0.26705900  0.00000000  1
