# generated using pymatgen
data_Rb2TiV3(PO6)3
_symmetry_space_group_name_H-M   'P 1'
_cell_length_a   13.78954141
_cell_length_b   13.78954141
_cell_length_c   9.63748100
_cell_angle_alpha   90.00000000
_cell_angle_beta   90.00000000
_cell_angle_gamma   119.99999718
_symmetry_Int_Tables_number   1
_chemical_formula_structural   Rb2TiV3(PO6)3
_chemical_formula_sum   'Rb8 Ti4 V12 P12 O72'
_cell_volume   1587.06175361
_cell_formula_units_Z   4
loop_
 _symmetry_equiv_pos_site_id
 _symmetry_equiv_pos_as_xyz
  1  'x, y, z'
loop_
 _atom_site_type_symbol
 _atom_site_label
 _atom_site_symmetry_multiplicity
 _atom_site_fract_x
 _atom_site_fract_y
 _atom_site_fract_z
 _atom_site_occupancy
  Rb  Rb0  1  0.00000000  0.50000000  0.51488700  1
  Rb  Rb1  1  0.50000000  0.00000000  0.51488700  1
  Rb  Rb2  1  0.50000000  0.50000000  0.51488700  1
  Rb  Rb3  1  0.50000000  0.50000000  0.01488700  1
  Rb  Rb4  1  0.50000000  0.00000000  0.01488700  1
  Rb  Rb5  1  0.00000000  0.50000000  0.01488700  1
  Rb  Rb6  1  0.00000000  0.00000000  0.07424000  1
  Rb  Rb7  1  0.00000000  0.00000000  0.57424000  1
  Ti  Ti8  1  0.33333300  0.66666700  0.50918400  1
  Ti  Ti9  1  0.66666700  0.33333300  0.50918400  1
  Ti  Ti10  1  0.66666700  0.33333300  0.00918400  1
  Ti  Ti11  1  0.33333300  0.66666700  0.00918400  1
  V  V12  1  0.76632300  0.73547200  0.30668700  1
  V  V13  1  0.96915000  0.23367700  0.30668700  1
  V  V14  1  0.26452800  0.03085000  0.30668700  1
  V  V15  1  0.23367700  0.26452800  0.30668700  1
  V  V16  1  0.03085000  0.76632300  0.30668700  1
  V  V17  1  0.73547200  0.96915000  0.30668700  1
  V  V18  1  0.03085000  0.26452800  0.80668700  1
  V  V19  1  0.73547200  0.76632300  0.80668700  1
  V  V20  1  0.23367700  0.96915000  0.80668700  1
  V  V21  1  0.96915000  0.73547200  0.80668700  1
  V  V22  1  0.26452800  0.23367700  0.80668700  1
  V  V23  1  0.76632300  0.03085000  0.80668700  1
  P  P24  1  0.52405400  0.71697100  0.25845000  1
  P  P25  1  0.19291700  0.47594600  0.25845000  1
  P  P26  1  0.28302900  0.80708300  0.25845000  1
  P  P27  1  0.47594600  0.28302900  0.25845000  1
  P  P28  1  0.80708300  0.52405400  0.25845000  1
  P  P29  1  0.71697100  0.19291700  0.25845000  1
  P  P30  1  0.80708300  0.28302900  0.75845000  1
  P  P31  1  0.71697100  0.52405400  0.75845000  1
  P  P32  1  0.47594600  0.19291700  0.75845000  1
  P  P33  1  0.19291700  0.71697100  0.75845000  1
  P  P34  1  0.28302900  0.47594600  0.75845000  1
  P  P35  1  0.52405400  0.80708300  0.75845000  1
  O  O36  1  0.45156400  0.67224500  0.39144100  1
  O  O37  1  0.22068100  0.54843600  0.39144100  1
  O  O38  1  0.32775500  0.77931900  0.39144100  1
  O  O39  1  0.54843600  0.32775500  0.39144100  1
  O  O40  1  0.77931900  0.45156400  0.39144100  1
  O  O41  1  0.67224500  0.22068100  0.39144100  1
  O  O42  1  0.77931900  0.32775500  0.89144100  1
  O  O43  1  0.67224500  0.45156400  0.89144100  1
  O  O44  1  0.54843600  0.22068100  0.89144100  1
  O  O45  1  0.22068100  0.67224500  0.89144100  1
  O  O46  1  0.32775500  0.54843600  0.89144100  1
  O  O47  1  0.45156400  0.77931900  0.89144100  1
  O  O48  1  0.78499100  0.87198700  0.26197100  1
  O  O49  1  0.08699600  0.21500900  0.26197100  1
  O  O50  1  0.12801300  0.91300400  0.26197100  1
  O  O51  1  0.21500900  0.12801300  0.26197100  1
  O  O52  1  0.91300400  0.78499100  0.26197100  1
  O  O53  1  0.87198700  0.08699600  0.26197100  1
  O  O54  1  0.91300400  0.12801300  0.76197100  1
  O  O55  1  0.87198700  0.78499100  0.76197100  1
  O  O56  1  0.21500900  0.08699600  0.76197100  1
  O  O57  1  0.08699600  0.87198700  0.76197100  1
  O  O58  1  0.12801300  0.21500900  0.76197100  1
  O  O59  1  0.78499100  0.91300400  0.76197100  1
  O  O60  1  0.44933400  0.66789800  0.12850800  1
  O  O61  1  0.21856400  0.55066600  0.12850800  1
  O  O62  1  0.33210200  0.78143600  0.12850800  1
  O  O63  1  0.55066600  0.33210200  0.12850800  1
  O  O64  1  0.78143600  0.44933400  0.12850800  1
  O  O65  1  0.66789800  0.21856400  0.12850800  1
  O  O66  1  0.78143600  0.33210200  0.62850800  1
  O  O67  1  0.66789800  0.44933400  0.62850800  1
  O  O68  1  0.55066600  0.21856400  0.62850800  1
  O  O69  1  0.21856400  0.66789800  0.62850800  1
  O  O70  1  0.33210200  0.55066600  0.62850800  1
  O  O71  1  0.44933400  0.78143600  0.62850800  1
  O  O72  1  0.60534500  0.66924300  0.25910400  1
  O  O73  1  0.06389700  0.39465500  0.25910400  1
  O  O74  1  0.33075700  0.93610300  0.25910400  1
  O  O75  1  0.39465500  0.33075700  0.25910400  1
  O  O76  1  0.93610300  0.60534500  0.25910400  1
  O  O77  1  0.66924300  0.06389700  0.25910400  1
  O  O78  1  0.93610300  0.33075700  0.75910400  1
  O  O79  1  0.66924300  0.60534500  0.75910400  1
  O  O80  1  0.39465500  0.06389700  0.75910400  1
  O  O81  1  0.06389700  0.66924300  0.75910400  1
  O  O82  1  0.33075700  0.39465500  0.75910400  1
  O  O83  1  0.60534500  0.93610300  0.75910400  1
  O  O84  1  0.58507200  0.84639800  0.25415600  1
  O  O85  1  0.26132600  0.41492800  0.25415600  1
  O  O86  1  0.15360200  0.73867400  0.25415600  1
  O  O87  1  0.41492800  0.15360200  0.25415600  1
  O  O88  1  0.73867400  0.58507200  0.25415600  1
  O  O89  1  0.84639800  0.26132600  0.25415600  1
  O  O90  1  0.73867400  0.15360200  0.75415600  1
  O  O91  1  0.84639800  0.58507200  0.75415600  1
  O  O92  1  0.41492800  0.26132600  0.75415600  1
  O  O93  1  0.26132600  0.84639800  0.75415600  1
  O  O94  1  0.15360200  0.41492800  0.75415600  1
  O  O95  1  0.58507200  0.73867400  0.75415600  1
  O  O96  1  0.76125500  0.73274400  0.47493200  1
  O  O97  1  0.97148900  0.23874500  0.47493200  1
  O  O98  1  0.26725600  0.02851100  0.47493200  1
  O  O99  1  0.23874500  0.26725600  0.47493200  1
  O  O100  1  0.02851100  0.76125500  0.47493200  1
  O  O101  1  0.73274400  0.97148900  0.47493200  1
  O  O102  1  0.02851100  0.26725600  0.97493200  1
  O  O103  1  0.73274400  0.76125500  0.97493200  1
  O  O104  1  0.23874500  0.97148900  0.97493200  1
  O  O105  1  0.97148900  0.73274400  0.97493200  1
  O  O106  1  0.26725600  0.23874500  0.97493200  1
  O  O107  1  0.76125500  0.02851100  0.97493200  1
