# generated using pymatgen
data_Er2(Ga3Ru)3
_symmetry_space_group_name_H-M   'P 1'
_cell_length_a   7.47061476
_cell_length_b   7.47061476
_cell_length_c   9.69421400
_cell_angle_alpha   90.00000000
_cell_angle_beta   90.00000000
_cell_angle_gamma   119.51935945
_symmetry_Int_Tables_number   1
_chemical_formula_structural   Er2(Ga3Ru)3
_chemical_formula_sum   'Er4 Ga18 Ru6'
_cell_volume   470.80276632
_cell_formula_units_Z   2
loop_
 _symmetry_equiv_pos_site_id
 _symmetry_equiv_pos_as_xyz
  1  'x, y, z'
loop_
 _atom_site_type_symbol
 _atom_site_label
 _atom_site_symmetry_multiplicity
 _atom_site_fract_x
 _atom_site_fract_y
 _atom_site_fract_z
 _atom_site_occupancy
  Er  Er0  1  0.99691000  0.66905600  0.25000000  1
  Er  Er1  1  0.00309000  0.33094400  0.75000000  1
  Er  Er2  1  0.66905600  0.99691000  0.25000000  1
  Er  Er3  1  0.33094400  0.00309000  0.75000000  1
  Ga  Ga4  1  0.12521300  0.12521300  0.25000000  1
  Ga  Ga5  1  0.87478700  0.87478700  0.75000000  1
  Ga  Ga6  1  0.00470400  0.33517200  0.07611100  1
  Ga  Ga7  1  0.99529600  0.66482800  0.92388900  1
  Ga  Ga8  1  0.99529600  0.66482800  0.57611100  1
  Ga  Ga9  1  0.33517200  0.00470400  0.42388900  1
  Ga  Ga10  1  0.00470400  0.33517200  0.42388900  1
  Ga  Ga11  1  0.66482800  0.99529600  0.57611100  1
  Ga  Ga12  1  0.66482800  0.99529600  0.92388900  1
  Ga  Ga13  1  0.33517200  0.00470400  0.07611100  1
  Ga  Ga14  1  0.33661300  0.33661300  0.56039700  1
  Ga  Ga15  1  0.66338700  0.66338700  0.43960300  1
  Ga  Ga16  1  0.66338700  0.66338700  0.06039700  1
  Ga  Ga17  1  0.33661300  0.33661300  0.93960300  1
  Ga  Ga18  1  0.33663100  0.54787500  0.25000000  1
  Ga  Ga19  1  0.66336900  0.45212500  0.75000000  1
  Ga  Ga20  1  0.54787500  0.33663100  0.25000000  1
  Ga  Ga21  1  0.45212500  0.66336900  0.75000000  1
  Ru  Ru22  1  0.67408700  0.32591300  0.00000000  1
  Ru  Ru23  1  0.32591300  0.67408700  0.00000000  1
  Ru  Ru24  1  0.32591300  0.67408700  0.50000000  1
  Ru  Ru25  1  0.67408700  0.32591300  0.50000000  1
  Ru  Ru26  1  0.00000000  0.00000000  0.00000000  1
  Ru  Ru27  1  0.00000000  0.00000000  0.50000000  1
