# generated using pymatgen
data_CaTa2O6
_symmetry_space_group_name_H-M   'P 1'
_cell_length_a   5.42205800
_cell_length_b   7.58058400
_cell_length_c   11.21282300
_cell_angle_alpha   90.00000000
_cell_angle_beta   90.00000000
_cell_angle_gamma   90.00000000
_symmetry_Int_Tables_number   1
_chemical_formula_structural   CaTa2O6
_chemical_formula_sum   'Ca4 Ta8 O24'
_cell_volume   460.87355621
_cell_formula_units_Z   4
loop_
 _symmetry_equiv_pos_site_id
 _symmetry_equiv_pos_as_xyz
  1  'x, y, z'
loop_
 _atom_site_type_symbol
 _atom_site_label
 _atom_site_symmetry_multiplicity
 _atom_site_fract_x
 _atom_site_fract_y
 _atom_site_fract_z
 _atom_site_occupancy
  Ca  Ca0  1  0.45748000  0.75000000  0.04121500  1
  Ca  Ca1  1  0.95748000  0.25000000  0.45878500  1
  Ca  Ca2  1  0.54252000  0.25000000  0.95878500  1
  Ca  Ca3  1  0.04252000  0.75000000  0.54121500  1
  Ta  Ta4  1  0.53683600  0.49451400  0.64091300  1
  Ta  Ta5  1  0.03683600  0.50548600  0.85908700  1
  Ta  Ta6  1  0.46316400  0.99451400  0.35908700  1
  Ta  Ta7  1  0.96316400  0.00548600  0.14091300  1
  Ta  Ta8  1  0.03683600  0.99451400  0.85908700  1
  Ta  Ta9  1  0.53683600  0.00548600  0.64091300  1
  Ta  Ta10  1  0.96316400  0.49451400  0.14091300  1
  Ta  Ta11  1  0.46316400  0.50548600  0.35908700  1
  O  O12  1  0.66042000  0.25000000  0.62220200  1
  O  O13  1  0.16042000  0.75000000  0.87779800  1
  O  O14  1  0.33958000  0.75000000  0.37779800  1
  O  O15  1  0.83958000  0.25000000  0.12220200  1
  O  O16  1  0.44858300  0.75000000  0.64424700  1
  O  O17  1  0.94858300  0.25000000  0.85575300  1
  O  O18  1  0.55141700  0.25000000  0.35575300  1
  O  O19  1  0.05141700  0.75000000  0.14424700  1
  O  O20  1  0.13243500  0.44009100  0.28674000  1
  O  O21  1  0.63243500  0.55990900  0.21326000  1
  O  O22  1  0.86756500  0.94009100  0.71326000  1
  O  O23  1  0.36756500  0.05990900  0.78674000  1
  O  O24  1  0.77067900  0.95976300  0.97633600  1
  O  O25  1  0.27067900  0.04023700  0.52366400  1
  O  O26  1  0.22932100  0.45976300  0.02366400  1
  O  O27  1  0.72932100  0.54023700  0.47633600  1
  O  O28  1  0.22932100  0.04023700  0.02366400  1
  O  O29  1  0.72932100  0.95976300  0.47633600  1
  O  O30  1  0.77067900  0.54023700  0.97633600  1
  O  O31  1  0.27067900  0.45976300  0.52366400  1
  O  O32  1  0.63243500  0.94009100  0.21326000  1
  O  O33  1  0.13243500  0.05990900  0.28674000  1
  O  O34  1  0.36756500  0.44009100  0.78674000  1
  O  O35  1  0.86756500  0.55990900  0.71326000  1
