# generated using pymatgen
data_CaDy2(GeO3)4
_symmetry_space_group_name_H-M   'P 1'
_cell_length_a   10.11461039
_cell_length_b   10.11461039
_cell_length_c   5.11217000
_cell_angle_alpha   90.00000000
_cell_angle_beta   90.00000000
_cell_angle_gamma   90.11491026
_symmetry_Int_Tables_number   1
_chemical_formula_structural   CaDy2(GeO3)4
_chemical_formula_sum   'Ca2 Dy4 Ge8 O24'
_cell_volume   523.00125526
_cell_formula_units_Z   2
loop_
 _symmetry_equiv_pos_site_id
 _symmetry_equiv_pos_as_xyz
  1  'x, y, z'
loop_
 _atom_site_type_symbol
 _atom_site_label
 _atom_site_symmetry_multiplicity
 _atom_site_fract_x
 _atom_site_fract_y
 _atom_site_fract_z
 _atom_site_occupancy
  Ca  Ca0  1  0.50000000  0.50000000  0.50000000  1
  Ca  Ca1  1  0.00000000  0.00000000  0.50000000  1
  Dy  Dy2  1  0.00000000  0.50000000  0.50000000  1
  Dy  Dy3  1  0.50000000  0.00000000  0.50000000  1
  Dy  Dy4  1  0.75000000  0.75000000  0.50000000  1
  Dy  Dy5  1  0.25000000  0.25000000  0.50000000  1
  Ge  Ge6  1  0.75116500  0.02107000  0.99881300  1
  Ge  Ge7  1  0.24883500  0.97893000  0.00118700  1
  Ge  Ge8  1  0.25116500  0.52107000  0.00118700  1
  Ge  Ge9  1  0.74883500  0.47893000  0.99881300  1
  Ge  Ge10  1  0.02107000  0.75116500  0.00118700  1
  Ge  Ge11  1  0.97893000  0.24883500  0.99881300  1
  Ge  Ge12  1  0.52107000  0.25116500  0.99881300  1
  Ge  Ge13  1  0.47893000  0.74883500  0.00118700  1
  O  O14  1  0.87094800  0.12905200  0.15673000  1
  O  O15  1  0.37491600  0.87491600  0.16179800  1
  O  O16  1  0.12508400  0.62508400  0.16179800  1
  O  O17  1  0.62905200  0.37094800  0.15673000  1
  O  O18  1  0.12905200  0.87094800  0.84327000  1
  O  O19  1  0.62508400  0.12508400  0.83820200  1
  O  O20  1  0.87491600  0.37491600  0.83820200  1
  O  O21  1  0.37094800  0.62905200  0.84327000  1
  O  O22  1  0.56620300  0.67682500  0.25539100  1
  O  O23  1  0.05989400  0.32769900  0.25804500  1
  O  O24  1  0.44010600  0.17230100  0.25804500  1
  O  O25  1  0.93379700  0.82317500  0.25539100  1
  O  O26  1  0.43379700  0.32317500  0.74460900  1
  O  O27  1  0.94010600  0.67230100  0.74195500  1
  O  O28  1  0.55989400  0.82769900  0.74195500  1
  O  O29  1  0.06620300  0.17682500  0.74460900  1
  O  O30  1  0.67682500  0.56620300  0.74460900  1
  O  O31  1  0.32769900  0.05989400  0.74195500  1
  O  O32  1  0.17230100  0.44010600  0.74195500  1
  O  O33  1  0.82317500  0.93379700  0.74460900  1
  O  O34  1  0.32317500  0.43379700  0.25539100  1
  O  O35  1  0.67230100  0.94010600  0.25804500  1
  O  O36  1  0.82769900  0.55989400  0.25804500  1
  O  O37  1  0.17682500  0.06620300  0.25539100  1
