# generated using pymatgen
data_Hf7Cu10
_symmetry_space_group_name_H-M   'P 1'
_cell_length_a   7.84117929
_cell_length_b   7.84117929
_cell_length_c   9.34560900
_cell_angle_alpha   90.00000000
_cell_angle_beta   90.00000000
_cell_angle_gamma   107.16066587
_symmetry_Int_Tables_number   1
_chemical_formula_structural   Hf7Cu10
_chemical_formula_sum   'Hf14 Cu20'
_cell_volume   549.02547454
_cell_formula_units_Z   2
loop_
 _symmetry_equiv_pos_site_id
 _symmetry_equiv_pos_as_xyz
  1  'x, y, z'
loop_
 _atom_site_type_symbol
 _atom_site_label
 _atom_site_symmetry_multiplicity
 _atom_site_fract_x
 _atom_site_fract_y
 _atom_site_fract_z
 _atom_site_occupancy
  Hf  Hf0  1  0.68961600  0.31038400  0.00000000  1
  Hf  Hf1  1  0.31038400  0.68961600  0.00000000  1
  Hf  Hf2  1  0.81038400  0.18961600  0.50000000  1
  Hf  Hf3  1  0.18961600  0.81038400  0.50000000  1
  Hf  Hf4  1  0.00000000  0.00000000  0.00000000  1
  Hf  Hf5  1  0.50000000  0.50000000  0.50000000  1
  Hf  Hf6  1  0.01025100  0.51025100  0.25000000  1
  Hf  Hf7  1  0.98974900  0.48974900  0.75000000  1
  Hf  Hf8  1  0.48974900  0.98974900  0.75000000  1
  Hf  Hf9  1  0.51025100  0.01025100  0.25000000  1
  Hf  Hf10  1  0.31049000  0.31049000  0.19126600  1
  Hf  Hf11  1  0.68951000  0.68951000  0.80873400  1
  Hf  Hf12  1  0.18951000  0.18951000  0.69126600  1
  Hf  Hf13  1  0.81049000  0.81049000  0.30873400  1
  Cu  Cu14  1  0.86806600  0.15942700  0.20487500  1
  Cu  Cu15  1  0.13193400  0.84057300  0.79512500  1
  Cu  Cu16  1  0.63193400  0.34057300  0.70487500  1
  Cu  Cu17  1  0.65942700  0.36806600  0.29512500  1
  Cu  Cu18  1  0.36806600  0.65942700  0.29512500  1
  Cu  Cu19  1  0.34057300  0.63193400  0.70487500  1
  Cu  Cu20  1  0.84057300  0.13193400  0.79512500  1
  Cu  Cu21  1  0.15942700  0.86806600  0.20487500  1
  Cu  Cu22  1  0.94259800  0.64996800  0.00680400  1
  Cu  Cu23  1  0.05740200  0.35003200  0.99319600  1
  Cu  Cu24  1  0.55740200  0.85003200  0.50680400  1
  Cu  Cu25  1  0.14996800  0.44259800  0.49319600  1
  Cu  Cu26  1  0.44259800  0.14996800  0.49319600  1
  Cu  Cu27  1  0.85003200  0.55740200  0.50680400  1
  Cu  Cu28  1  0.35003200  0.05740200  0.99319600  1
  Cu  Cu29  1  0.64996800  0.94259800  0.00680400  1
  Cu  Cu30  1  0.10432700  0.10432700  0.39709600  1
  Cu  Cu31  1  0.89567300  0.89567300  0.60290400  1
  Cu  Cu32  1  0.39567300  0.39567300  0.89709600  1
  Cu  Cu33  1  0.60432700  0.60432700  0.10290400  1
