# generated using pymatgen
data_DySbRh
_symmetry_space_group_name_H-M   'P 1'
_cell_length_a   4.61207200
_cell_length_b   7.18115900
_cell_length_c   7.76639600
_cell_angle_alpha   90.00000000
_cell_angle_beta   90.00000000
_cell_angle_gamma   90.00000000
_symmetry_Int_Tables_number   1
_chemical_formula_structural   DySbRh
_chemical_formula_sum   'Dy4 Sb4 Rh4'
_cell_volume   257.22320911
_cell_formula_units_Z   4
loop_
 _symmetry_equiv_pos_site_id
 _symmetry_equiv_pos_as_xyz
  1  'x, y, z'
loop_
 _atom_site_type_symbol
 _atom_site_label
 _atom_site_symmetry_multiplicity
 _atom_site_fract_x
 _atom_site_fract_y
 _atom_site_fract_z
 _atom_site_occupancy
  Dy  Dy0  1  0.25000000  0.51041500  0.20053300  1
  Dy  Dy1  1  0.75000000  0.48958500  0.79946700  1
  Dy  Dy2  1  0.75000000  0.98958500  0.70053300  1
  Dy  Dy3  1  0.25000000  0.01041500  0.29946700  1
  Sb  Sb4  1  0.25000000  0.69102900  0.59264400  1
  Sb  Sb5  1  0.75000000  0.30897100  0.40735600  1
  Sb  Sb6  1  0.75000000  0.80897100  0.09264400  1
  Sb  Sb7  1  0.25000000  0.19102900  0.90735600  1
  Rh  Rh8  1  0.25000000  0.80125600  0.92246600  1
  Rh  Rh9  1  0.75000000  0.19874400  0.07753400  1
  Rh  Rh10  1  0.75000000  0.69874400  0.42246600  1
  Rh  Rh11  1  0.25000000  0.30125600  0.57753400  1
