# generated using pymatgen
data_TbPaO4
_symmetry_space_group_name_H-M   'P 1'
_cell_length_a   6.60747286
_cell_length_b   6.60747286
_cell_length_c   6.60747286
_cell_angle_alpha   131.71172475
_cell_angle_beta   131.71172475
_cell_angle_gamma   70.68470913
_symmetry_Int_Tables_number   1
_chemical_formula_structural   TbPaO4
_chemical_formula_sum   'Tb2 Pa2 O8'
_cell_volume   157.47799781
_cell_formula_units_Z   2
loop_
 _symmetry_equiv_pos_site_id
 _symmetry_equiv_pos_as_xyz
  1  'x, y, z'
loop_
 _atom_site_type_symbol
 _atom_site_label
 _atom_site_symmetry_multiplicity
 _atom_site_fract_x
 _atom_site_fract_y
 _atom_site_fract_z
 _atom_site_occupancy
  Tb  Tb0  1  0.00000000  0.00000000  0.00000000  1
  Tb  Tb1  1  0.75000000  0.25000000  0.50000000  1
  Pa  Pa2  1  0.50000000  0.50000000  0.00000000  1
  Pa  Pa3  1  0.25000000  0.75000000  0.50000000  1
  O  O4  1  0.37500000  0.38657600  0.51157600  1
  O  O5  1  0.87500000  0.86342400  0.48842400  1
  O  O6  1  0.13657600  0.12500000  0.51157600  1
  O  O7  1  0.61342400  0.12500000  0.98842400  1
  O  O8  1  0.87500000  0.38657600  0.01157600  1
  O  O9  1  0.61342400  0.62500000  0.48842400  1
  O  O10  1  0.37500000  0.86342400  0.98842400  1
  O  O11  1  0.13657600  0.62500000  0.01157600  1
