# generated using pymatgen
data_U2NiP2(HO)24
_symmetry_space_group_name_H-M   'P 1'
_cell_length_a   7.01947400
_cell_length_b   7.05401568
_cell_length_c   11.28415875
_cell_angle_alpha   81.05008094
_cell_angle_beta   82.83864925
_cell_angle_gamma   88.75933928
_symmetry_Int_Tables_number   1
_chemical_formula_structural   U2NiP2(HO)24
_chemical_formula_sum   'U2 Ni1 P2 H24 O24'
_cell_volume   547.63059069
_cell_formula_units_Z   1
loop_
 _symmetry_equiv_pos_site_id
 _symmetry_equiv_pos_as_xyz
  1  'x, y, z'
loop_
 _atom_site_type_symbol
 _atom_site_label
 _atom_site_symmetry_multiplicity
 _atom_site_fract_x
 _atom_site_fract_y
 _atom_site_fract_z
 _atom_site_occupancy
  U  U0  1  0.26372500  0.26893600  0.92560000  1
  U  U1  1  0.73627500  0.73106400  0.07440000  1
  Ni  Ni2  1  0.00000000  0.50000000  0.50000000  1
  P  P3  1  0.74986500  0.24815600  0.99902900  1
  P  P4  1  0.25013500  0.75184400  0.00097100  1
  H  H5  1  0.86327100  0.84687700  0.41179700  1
  H  H6  1  0.13672900  0.15312300  0.58820300  1
  H  H7  1  0.25306100  0.78453500  0.45987900  1
  H  H8  1  0.74693900  0.21546500  0.54012100  1
  H  H9  1  0.74710200  0.56899400  0.68783900  1
  H  H10  1  0.25289800  0.43100600  0.31216100  1
  H  H11  1  0.74018900  0.68262500  0.39014800  1
  H  H12  1  0.25981100  0.31737500  0.60985200  1
  H  H13  1  0.13488200  0.93264400  0.76537400  1
  H  H14  1  0.86511800  0.06735600  0.23462600  1
  H  H15  1  0.14936000  0.77766900  0.59507900  1
  H  H16  1  0.85064000  0.22233100  0.40492100  1
  H  H17  1  0.44666700  0.67021300  0.77539000  1
  H  H18  1  0.55333300  0.32978700  0.22461000  1
  H  H19  1  0.65247000  0.12679700  0.74870900  1
  H  H20  1  0.34753000  0.87320300  0.25129100  1
  H  H21  1  0.93723700  0.96212700  0.70948900  1
  H  H22  1  0.06276300  0.03787300  0.29051100  1
  H  H23  1  0.44893700  0.69551200  0.63467400  1
  H  H24  1  0.55106300  0.30448800  0.36532600  1
  H  H25  1  0.62485700  0.93928200  0.69102500  1
  H  H26  1  0.37514300  0.06071800  0.30897500  1
  H  H27  1  0.91015900  0.44043800  0.75095900  1
  H  H28  1  0.08984100  0.55956200  0.24904100  1
  O  O29  1  0.93985600  0.29759200  0.91456000  1
  O  O30  1  0.06014400  0.70240800  0.08544000  1
  O  O31  1  0.58912100  0.23691500  0.91806500  1
  O  O32  1  0.41087900  0.76308500  0.08193500  1
  O  O33  1  0.30353400  0.31468600  0.76035800  1
  O  O34  1  0.69646600  0.68531400  0.23964200  1
  O  O35  1  0.76647000  0.05441600  0.08398100  1
  O  O36  1  0.23353000  0.94558400  0.91601900  1
  O  O37  1  0.70281600  0.40520300  0.08080900  1
  O  O38  1  0.29718400  0.59479700  0.91919100  1
  O  O39  1  0.22683500  0.22875300  0.08939100  1
  O  O40  1  0.77316500  0.77124700  0.91060900  1
  O  O41  1  0.86498600  0.49177500  0.67357100  1
  O  O42  1  0.13501400  0.50822500  0.32642900  1
  O  O43  1  0.21018200  0.69571100  0.53586700  1
  O  O44  1  0.78981800  0.30428900  0.46413300  1
  O  O45  1  0.81032300  0.72033700  0.45331000  1
  O  O46  1  0.18967700  0.27966300  0.54669000  1
  O  O47  1  0.52847600  0.71119600  0.69776300  1
  O  O48  1  0.47152400  0.28880400  0.30223700  1
  O  O49  1  0.07735100  0.94127800  0.68933700  1
  O  O50  1  0.92264900  0.05872200  0.31066300  1
  O  O51  1  0.70176900  0.05949200  0.68178300  1
  O  O52  1  0.29823100  0.94050800  0.31821700  1
