# generated using pymatgen
data_YAgS2
_symmetry_space_group_name_H-M   'P 1'
_cell_length_a   7.66057200
_cell_length_b   7.66785900
_cell_length_c   12.85392438
_cell_angle_alpha   89.90579166
_cell_angle_beta   90.00000000
_cell_angle_gamma   90.00000000
_symmetry_Int_Tables_number   1
_chemical_formula_structural   YAgS2
_chemical_formula_sum   'Y8 Ag8 S16'
_cell_volume   755.04088743
_cell_formula_units_Z   8
loop_
 _symmetry_equiv_pos_site_id
 _symmetry_equiv_pos_as_xyz
  1  'x, y, z'
loop_
 _atom_site_type_symbol
 _atom_site_label
 _atom_site_symmetry_multiplicity
 _atom_site_fract_x
 _atom_site_fract_y
 _atom_site_fract_z
 _atom_site_occupancy
  Y  Y0  1  0.27446700  0.50265300  0.25344600  1
  Y  Y1  1  0.77446700  0.49734700  0.74655400  1
  Y  Y2  1  0.02711400  0.24596000  0.50463800  1
  Y  Y3  1  0.52711400  0.75404000  0.49536200  1
  Y  Y4  1  0.28304400  0.99576700  0.75290700  1
  Y  Y5  1  0.78304400  0.00423300  0.24709300  1
  Y  Y6  1  0.52888400  0.25258600  0.00331800  1
  Y  Y7  1  0.02888400  0.74741400  0.99668200  1
  Ag  Ag8  1  0.28016500  0.99654700  0.29485700  1
  Ag  Ag9  1  0.78016500  0.00345300  0.70514300  1
  Ag  Ag10  1  0.52992800  0.25448600  0.53790300  1
  Ag  Ag11  1  0.02992800  0.74551400  0.46209700  1
  Ag  Ag12  1  0.78068300  0.49564500  0.19400500  1
  Ag  Ag13  1  0.28068300  0.50435500  0.80599500  1
  Ag  Ag14  1  0.02921500  0.24488800  0.03533700  1
  Ag  Ag15  1  0.52921500  0.75511200  0.96466300  1
  S  S16  1  0.55065900  0.27441700  0.21871000  1
  S  S17  1  0.05065900  0.72558300  0.78129000  1
  S  S18  1  0.25334700  0.47521600  0.03803000  1
  S  S19  1  0.75334700  0.52478400  0.96197000  1
  S  S20  1  0.30421000  0.02593700  0.53813500  1
  S  S21  1  0.80421000  0.97406300  0.46186500  1
  S  S22  1  0.05469700  0.22632500  0.28975100  1
  S  S23  1  0.55469700  0.77367500  0.71024900  1
  S  S24  1  0.25806600  0.51953300  0.46902200  1
  S  S25  1  0.75806600  0.48046700  0.53097800  1
  S  S26  1  0.00849100  0.22746400  0.72054700  1
  S  S27  1  0.50849100  0.77253600  0.27945300  1
  S  S28  1  0.79967100  0.02107500  0.03069500  1
  S  S29  1  0.29967100  0.97892500  0.96930500  1
  S  S30  1  0.00415900  0.72729800  0.21134000  1
  S  S31  1  0.50415900  0.27270200  0.78866000  1
