# generated using pymatgen
data_LiGdGe
_symmetry_space_group_name_H-M   'P 1'
_cell_length_a   7.15159753
_cell_length_b   7.15159753
_cell_length_c   4.30508100
_cell_angle_alpha   90.00000000
_cell_angle_beta   90.00000000
_cell_angle_gamma   119.99999563
_symmetry_Int_Tables_number   1
_chemical_formula_structural   LiGdGe
_chemical_formula_sum   'Li3 Gd3 Ge3'
_cell_volume   190.68569281
_cell_formula_units_Z   3
loop_
 _symmetry_equiv_pos_site_id
 _symmetry_equiv_pos_as_xyz
  1  'x, y, z'
loop_
 _atom_site_type_symbol
 _atom_site_label
 _atom_site_symmetry_multiplicity
 _atom_site_fract_x
 _atom_site_fract_y
 _atom_site_fract_z
 _atom_site_occupancy
  Li  Li0  1  0.23274500  0.00000000  0.50000000  1
  Li  Li1  1  0.76725500  0.76725500  0.50000000  1
  Li  Li2  1  0.00000000  0.23274500  0.50000000  1
  Gd  Gd3  1  0.00000000  0.57738200  0.00000000  1
  Gd  Gd4  1  0.57738200  0.00000000  0.00000000  1
  Gd  Gd5  1  0.42261800  0.42261800  0.00000000  1
  Ge  Ge6  1  0.33333300  0.66666700  0.50000000  1
  Ge  Ge7  1  0.66666700  0.33333300  0.50000000  1
  Ge  Ge8  1  0.00000000  0.00000000  0.00000000  1
