# generated using pymatgen
data_KYbP2O7
_symmetry_space_group_name_H-M   'P 1'
_cell_length_a   11.23027300
_cell_length_b   7.60098400
_cell_length_c   8.72351078
_cell_angle_alpha   74.86376413
_cell_angle_beta   90.00000000
_cell_angle_gamma   90.00000000
_symmetry_Int_Tables_number   1
_chemical_formula_structural   KYbP2O7
_chemical_formula_sum   'K4 Yb4 P8 O28'
_cell_volume   718.81511067
_cell_formula_units_Z   4
loop_
 _symmetry_equiv_pos_site_id
 _symmetry_equiv_pos_as_xyz
  1  'x, y, z'
loop_
 _atom_site_type_symbol
 _atom_site_label
 _atom_site_symmetry_multiplicity
 _atom_site_fract_x
 _atom_site_fract_y
 _atom_site_fract_z
 _atom_site_occupancy
  K  K0  1  0.82687600  0.81586000  0.06714500  1
  K  K1  1  0.32687600  0.18414000  0.43285500  1
  K  K2  1  0.17312400  0.18414000  0.93285500  1
  K  K3  1  0.67312400  0.81586000  0.56714500  1
  Yb  Yb4  1  0.59259900  0.22616900  0.75742600  1
  Yb  Yb5  1  0.09259900  0.77383100  0.74257400  1
  Yb  Yb6  1  0.40740100  0.77383100  0.24257400  1
  Yb  Yb7  1  0.90740100  0.22616900  0.25742600  1
  P  P8  1  0.85147700  0.44403000  0.82038000  1
  P  P9  1  0.35147700  0.55597000  0.67962000  1
  P  P10  1  0.14852300  0.55597000  0.17962000  1
  P  P11  1  0.64852300  0.44403000  0.32038000  1
  P  P12  1  0.89422600  0.12514900  0.69938600  1
  P  P13  1  0.39422600  0.87485100  0.80061400  1
  P  P14  1  0.10577400  0.87485100  0.30061400  1
  P  P15  1  0.60577400  0.12514900  0.19938600  1
  O  O16  1  0.71812000  0.45964400  0.78502300  1
  O  O17  1  0.21812000  0.54035600  0.71497700  1
  O  O18  1  0.28188000  0.54035600  0.21497700  1
  O  O19  1  0.78188000  0.45964400  0.28502300  1
  O  O20  1  0.91143200  0.63067800  0.78022000  1
  O  O21  1  0.41143200  0.36932200  0.71978000  1
  O  O22  1  0.08856800  0.36932200  0.21978000  1
  O  O23  1  0.58856800  0.63067800  0.28022000  1
  O  O24  1  0.87989300  0.33310700  0.98901300  1
  O  O25  1  0.37989300  0.66689300  0.51098700  1
  O  O26  1  0.12010700  0.66689300  0.01098700  1
  O  O27  1  0.62010700  0.33310700  0.48901300  1
  O  O28  1  0.91199300  0.33798800  0.69853800  1
  O  O29  1  0.41199300  0.66201200  0.80146200  1
  O  O30  1  0.08800700  0.66201200  0.30146200  1
  O  O31  1  0.58800700  0.33798800  0.19853800  1
  O  O32  1  0.59398900  0.11590800  0.02719700  1
  O  O33  1  0.09398900  0.88409200  0.47280300  1
  O  O34  1  0.40601100  0.88409200  0.97280300  1
  O  O35  1  0.90601100  0.11590800  0.52719700  1
  O  O36  1  0.73003400  0.06369400  0.26447900  1
  O  O37  1  0.23003400  0.93630600  0.23552100  1
  O  O38  1  0.26996600  0.93630600  0.73552100  1
  O  O39  1  0.76996600  0.06369400  0.76447900  1
  O  O40  1  0.50555600  0.01854500  0.30117700  1
  O  O41  1  0.00555600  0.98145500  0.19882300  1
  O  O42  1  0.49444400  0.98145500  0.69882300  1
  O  O43  1  0.99444400  0.01854500  0.80117700  1
