# generated using pymatgen
data_Tm3(In2Co)2
_symmetry_space_group_name_H-M   'P 1'
_cell_length_a   7.92322824
_cell_length_b   7.92322824
_cell_length_c   3.53426400
_cell_angle_alpha   90.00000000
_cell_angle_beta   90.00000000
_cell_angle_gamma   120.00000197
_symmetry_Int_Tables_number   1
_chemical_formula_structural   Tm3(In2Co)2
_chemical_formula_sum   'Tm3 In4 Co2'
_cell_volume   192.14714803
_cell_formula_units_Z   1
loop_
 _symmetry_equiv_pos_site_id
 _symmetry_equiv_pos_as_xyz
  1  'x, y, z'
loop_
 _atom_site_type_symbol
 _atom_site_label
 _atom_site_symmetry_multiplicity
 _atom_site_fract_x
 _atom_site_fract_y
 _atom_site_fract_z
 _atom_site_occupancy
  Tm  Tm0  1  0.29056100  0.24835600  0.50000000  1
  Tm  Tm1  1  0.75164400  0.04220400  0.50000000  1
  Tm  Tm2  1  0.95779600  0.70943900  0.50000000  1
  In  In3  1  0.07456400  0.41133900  0.00000000  1
  In  In4  1  0.58866100  0.66322500  0.00000000  1
  In  In5  1  0.33677500  0.92543600  0.00000000  1
  In  In6  1  0.66666700  0.33333300  0.00000000  1
  Co  Co7  1  0.33333300  0.66666700  0.50000000  1
  Co  Co8  1  0.00000000  0.00000000  0.00000000  1
