# generated using pymatgen
data_Pr3IrBr3
_symmetry_space_group_name_H-M   'P 1'
_cell_length_a   10.57397099
_cell_length_b   10.57397099
_cell_length_c   10.57397099
_cell_angle_alpha   109.47122063
_cell_angle_beta   109.47122063
_cell_angle_gamma   109.47122063
_symmetry_Int_Tables_number   1
_chemical_formula_structural   Pr3IrBr3
_chemical_formula_sum   'Pr12 Ir4 Br12'
_cell_volume   910.10699745
_cell_formula_units_Z   4
loop_
 _symmetry_equiv_pos_site_id
 _symmetry_equiv_pos_as_xyz
  1  'x, y, z'
loop_
 _atom_site_type_symbol
 _atom_site_label
 _atom_site_symmetry_multiplicity
 _atom_site_fract_x
 _atom_site_fract_y
 _atom_site_fract_z
 _atom_site_occupancy
  Pr  Pr0  1  0.46745600  0.48372800  0.23372800  1
  Pr  Pr1  1  0.75000000  0.23372800  0.26627200  1
  Pr  Pr2  1  0.75000000  0.01627200  0.48372800  1
  Pr  Pr3  1  0.23372800  0.46745600  0.48372800  1
  Pr  Pr4  1  0.26627200  0.75000000  0.23372800  1
  Pr  Pr5  1  0.03254400  0.26627200  0.01627200  1
  Pr  Pr6  1  0.01627200  0.03254400  0.26627200  1
  Pr  Pr7  1  0.48372800  0.75000000  0.01627200  1
  Pr  Pr8  1  0.48372800  0.23372800  0.46745600  1
  Pr  Pr9  1  0.01627200  0.48372800  0.75000000  1
  Pr  Pr10  1  0.26627200  0.01627200  0.03254400  1
  Pr  Pr11  1  0.23372800  0.26627200  0.75000000  1
  Ir  Ir12  1  0.25000000  0.25000000  0.25000000  1
  Ir  Ir13  1  0.50000000  0.00000000  0.25000000  1
  Ir  Ir14  1  0.00000000  0.25000000  0.50000000  1
  Ir  Ir15  1  0.25000000  0.50000000  0.00000000  1
  Br  Br16  1  0.25000000  0.75512500  0.74487500  1
  Br  Br17  1  0.51025100  0.50512500  0.75512500  1
  Br  Br18  1  0.98974900  0.74487500  0.99487500  1
  Br  Br19  1  0.74487500  0.25000000  0.75512500  1
  Br  Br20  1  0.99487500  0.98974900  0.74487500  1
  Br  Br21  1  0.25000000  0.99487500  0.50512500  1
  Br  Br22  1  0.75512500  0.51025100  0.50512500  1
  Br  Br23  1  0.50512500  0.25000000  0.99487500  1
  Br  Br24  1  0.75512500  0.74487500  0.25000000  1
  Br  Br25  1  0.74487500  0.99487500  0.98974900  1
  Br  Br26  1  0.99487500  0.50512500  0.25000000  1
  Br  Br27  1  0.50512500  0.75512500  0.51025100  1
