# generated using pymatgen
data_BaN6
_symmetry_space_group_name_H-M   'P 1'
_cell_length_a   4.44218300
_cell_length_b   5.52777300
_cell_length_c   9.80652432
_cell_angle_alpha   80.93699727
_cell_angle_beta   90.00000000
_cell_angle_gamma   90.00000000
_symmetry_Int_Tables_number   1
_chemical_formula_structural   BaN6
_chemical_formula_sum   'Ba2 N12'
_cell_volume   237.79667451
_cell_formula_units_Z   2
loop_
 _symmetry_equiv_pos_site_id
 _symmetry_equiv_pos_as_xyz
  1  'x, y, z'
loop_
 _atom_site_type_symbol
 _atom_site_label
 _atom_site_symmetry_multiplicity
 _atom_site_fract_x
 _atom_site_fract_y
 _atom_site_fract_z
 _atom_site_occupancy
  Ba  Ba0  1  0.75000000  0.17064500  0.78122800  1
  Ba  Ba1  1  0.25000000  0.82935500  0.21877200  1
  N  N2  1  0.75000000  0.70809000  0.66189300  1
  N  N3  1  0.25000000  0.29191000  0.33810700  1
  N  N4  1  0.25000000  0.85913800  0.90374700  1
  N  N5  1  0.75000000  0.14086200  0.09625300  1
  N  N6  1  0.25000000  0.64895200  0.88999700  1
  N  N7  1  0.75000000  0.35104800  0.11000300  1
  N  N8  1  0.25000000  0.44015600  0.87845800  1
  N  N9  1  0.75000000  0.55984400  0.12154200  1
  N  N10  1  0.25000000  0.22115300  0.58314900  1
  N  N11  1  0.75000000  0.77884700  0.41685100  1
  N  N12  1  0.25000000  0.25645100  0.46054400  1
  N  N13  1  0.75000000  0.74354900  0.53945600  1
