# generated using pymatgen
data_Ba20Ga5Ru7O44
_symmetry_space_group_name_H-M   'P 1'
_cell_length_a   5.89772500
_cell_length_b   11.26774517
_cell_length_c   19.09295495
_cell_angle_alpha   90.23340675
_cell_angle_beta   90.00000000
_cell_angle_gamma   90.00000000
_symmetry_Int_Tables_number   1
_chemical_formula_structural   Ba20Ga5Ru7O44
_chemical_formula_sum   'Ba20 Ga5 Ru7 O44'
_cell_volume   1268.79389153
_cell_formula_units_Z   1
loop_
 _symmetry_equiv_pos_site_id
 _symmetry_equiv_pos_as_xyz
  1  'x, y, z'
loop_
 _atom_site_type_symbol
 _atom_site_label
 _atom_site_symmetry_multiplicity
 _atom_site_fract_x
 _atom_site_fract_y
 _atom_site_fract_z
 _atom_site_occupancy
  Ba  Ba0  1  0.25000000  0.12967700  0.74530800  1
  Ba  Ba1  1  0.25000000  0.36920700  0.25335100  1
  Ba  Ba2  1  0.75000000  0.86985700  0.24999400  1
  Ba  Ba3  1  0.75000000  0.62976400  0.74895800  1
  Ba  Ba4  1  0.25000000  0.45101700  0.66723900  1
  Ba  Ba5  1  0.25000000  0.04767500  0.17078500  1
  Ba  Ba6  1  0.75000000  0.54540900  0.33006000  1
  Ba  Ba7  1  0.75000000  0.95538700  0.83016300  1
  Ba  Ba8  1  0.25000000  0.89267700  0.97346200  1
  Ba  Ba9  1  0.25000000  0.59879700  0.47325900  1
  Ba  Ba10  1  0.75000000  0.10495600  0.02649600  1
  Ba  Ba11  1  0.75000000  0.38467100  0.52542200  1
  Ba  Ba12  1  0.25000000  0.81579600  0.63652900  1
  Ba  Ba13  1  0.25000000  0.69081700  0.13795800  1
  Ba  Ba14  1  0.75000000  0.19221100  0.36367700  1
  Ba  Ba15  1  0.75000000  0.30815800  0.86177900  1
  Ba  Ba16  1  0.25000000  0.52812400  0.93268800  1
  Ba  Ba17  1  0.25000000  0.98057300  0.43782700  1
  Ba  Ba18  1  0.75000000  0.47332100  0.06759100  1
  Ba  Ba19  1  0.75000000  0.03642400  0.56705500  1
  Ga  Ga20  1  0.25000000  0.76150000  0.80991000  1
  Ga  Ga21  1  0.25000000  0.73887200  0.31156900  1
  Ga  Ga22  1  0.75000000  0.23809600  0.18840600  1
  Ga  Ga23  1  0.75000000  0.26355500  0.68930700  1
  Ga  Ga24  1  0.25000000  0.19786200  0.56757000  1
  Ru  Ru25  1  0.25000000  0.20893900  0.93626000  1
  Ru  Ru26  1  0.25000000  0.29328600  0.43311300  1
  Ru  Ru27  1  0.75000000  0.79312000  0.06758600  1
  Ru  Ru28  1  0.75000000  0.70644300  0.56664300  1
  Ru  Ru29  1  0.25000000  0.29440600  0.05915200  1
  Ru  Ru30  1  0.75000000  0.79616200  0.43815500  1
  Ru  Ru31  1  0.75000000  0.70340500  0.93758200  1
  O  O32  1  0.25000000  0.03391900  0.59088700  1
  O  O33  1  0.25000000  0.45672500  0.08874200  1
  O  O34  1  0.75000000  0.95767400  0.40983500  1
  O  O35  1  0.75000000  0.53884400  0.91244800  1
  O  O36  1  0.25000000  0.30637300  0.85250200  1
  O  O37  1  0.25000000  0.19023800  0.34944100  1
  O  O38  1  0.75000000  0.69071200  0.15063500  1
  O  O39  1  0.75000000  0.80831100  0.64883000  1
  O  O40  1  0.25000000  0.90986900  0.77112200  1
  O  O41  1  0.25000000  0.59115200  0.27057300  1
  O  O42  1  0.75000000  0.08975800  0.22790800  1
  O  O43  1  0.75000000  0.41082900  0.73198300  1
  O  O44  1  0.25000000  0.63680700  0.74903200  1
  O  O45  1  0.25000000  0.86041400  0.24873500  1
  O  O46  1  0.75000000  0.36158200  0.25038900  1
  O  O47  1  0.75000000  0.14054200  0.75252200  1
  O  O48  1  0.25000000  0.37648100  0.52759600  1
  O  O49  1  0.25000000  0.11758600  0.03023400  1
  O  O50  1  0.75000000  0.62198600  0.47092300  1
  O  O51  1  0.75000000  0.87949800  0.97062800  1
  O  O52  1  0.01351700  0.32389400  0.98407100  1
  O  O53  1  0.47876800  0.18295100  0.48277000  1
  O  O54  1  0.51738900  0.67902200  0.01485500  1
  O  O55  1  0.97884100  0.81935400  0.51443400  1
  O  O56  1  0.98261100  0.67902200  0.01485500  1
  O  O57  1  0.52115900  0.81935400  0.51443400  1
  O  O58  1  0.48648300  0.32389400  0.98407100  1
  O  O59  1  0.02123200  0.18295100  0.48277000  1
  O  O60  1  0.01559900  0.10674900  0.90209700  1
  O  O61  1  0.48596700  0.39695800  0.39918800  1
  O  O62  1  0.51098500  0.89421000  0.09962300  1
  O  O63  1  0.98538400  0.60642500  0.59950900  1
  O  O64  1  0.98901500  0.89421000  0.09962300  1
  O  O65  1  0.51461600  0.60642500  0.59950900  1
  O  O66  1  0.48440100  0.10674900  0.90209700  1
  O  O67  1  0.01403300  0.39695800  0.39918800  1
  O  O68  1  0.00587200  0.24959600  0.63295800  1
  O  O69  1  0.49051300  0.25159400  0.13207800  1
  O  O70  1  0.51083500  0.75096700  0.36688000  1
  O  O71  1  0.99110400  0.74854900  0.86662800  1
  O  O72  1  0.98916500  0.75096700  0.36688000  1
  O  O73  1  0.50889600  0.74854900  0.86662800  1
  O  O74  1  0.49412800  0.24959600  0.63295800  1
  O  O75  1  0.00948700  0.25159400  0.13207800  1
