# generated using pymatgen
data_U8CoS17
_symmetry_space_group_name_H-M   'P 1'
_cell_length_a   7.76235360
_cell_length_b   7.76235360
_cell_length_c   10.24306853
_cell_angle_alpha   80.26681924
_cell_angle_beta   80.26681924
_cell_angle_gamma   64.36169178
_symmetry_Int_Tables_number   1
_chemical_formula_structural   U8CoS17
_chemical_formula_sum   'U8 Co1 S17'
_cell_volume   545.20780041
_cell_formula_units_Z   1
loop_
 _symmetry_equiv_pos_site_id
 _symmetry_equiv_pos_as_xyz
  1  'x, y, z'
loop_
 _atom_site_type_symbol
 _atom_site_label
 _atom_site_symmetry_multiplicity
 _atom_site_fract_x
 _atom_site_fract_y
 _atom_site_fract_z
 _atom_site_occupancy
  U  U0  1  0.18210500  0.69868500  0.70369100  1
  U  U1  1  0.69868500  0.18210500  0.70369100  1
  U  U2  1  0.81789500  0.30131500  0.29630900  1
  U  U3  1  0.30131500  0.81789500  0.29630900  1
  U  U4  1  0.20212200  0.20212200  0.54652700  1
  U  U5  1  0.79787800  0.79787800  0.45347300  1
  U  U6  1  0.68235700  0.68235700  0.98346100  1
  U  U7  1  0.31764300  0.31764300  0.01653900  1
  Co  Co8  1  0.00000000  0.00000000  0.00000000  1
  S  S9  1  0.81992000  0.43349800  0.53458900  1
  S  S10  1  0.43349800  0.81992000  0.53458900  1
  S  S11  1  0.18008000  0.56650200  0.46541100  1
  S  S12  1  0.56650200  0.18008000  0.46541100  1
  S  S13  1  0.05533100  0.68024800  0.97192000  1
  S  S14  1  0.68024800  0.05533100  0.97192000  1
  S  S15  1  0.94466900  0.31975200  0.02808000  1
  S  S16  1  0.31975200  0.94466900  0.02808000  1
  S  S17  1  0.05497900  0.05497900  0.77852200  1
  S  S18  1  0.94502100  0.94502100  0.22147800  1
  S  S19  1  0.21250900  0.21250900  0.27936100  1
  S  S20  1  0.78749100  0.78749100  0.72063900  1
  S  S21  1  0.30022800  0.30022800  0.75699700  1
  S  S22  1  0.69977200  0.69977200  0.24300300  1
  S  S23  1  0.52136000  0.52136000  0.83038000  1
  S  S24  1  0.47864000  0.47864000  0.16962000  1
  S  S25  1  0.00000000  0.00000000  0.50000000  1
