# generated using pymatgen
data_Sm3Ga2Sn3
_symmetry_space_group_name_H-M   'P 1'
_cell_length_a   6.40135494
_cell_length_b   6.40135494
_cell_length_c   10.14552200
_cell_angle_alpha   90.00000000
_cell_angle_beta   90.00000000
_cell_angle_gamma   102.32421219
_symmetry_Int_Tables_number   1
_chemical_formula_structural   Sm3Ga2Sn3
_chemical_formula_sum   'Sm6 Ga4 Sn6'
_cell_volume   406.15610042
_cell_formula_units_Z   2
loop_
 _symmetry_equiv_pos_site_id
 _symmetry_equiv_pos_as_xyz
  1  'x, y, z'
loop_
 _atom_site_type_symbol
 _atom_site_label
 _atom_site_symmetry_multiplicity
 _atom_site_fract_x
 _atom_site_fract_y
 _atom_site_fract_z
 _atom_site_occupancy
  Sm  Sm0  1  0.63664900  0.63664900  0.25000000  1
  Sm  Sm1  1  0.36335100  0.36335100  0.75000000  1
  Sm  Sm2  1  0.79815600  0.20184400  0.00000000  1
  Sm  Sm3  1  0.20184400  0.79815600  0.00000000  1
  Sm  Sm4  1  0.20184400  0.79815600  0.50000000  1
  Sm  Sm5  1  0.79815600  0.20184400  0.50000000  1
  Ga  Ga6  1  0.31508700  0.31508700  0.04292900  1
  Ga  Ga7  1  0.68491300  0.68491300  0.95707100  1
  Ga  Ga8  1  0.68491300  0.68491300  0.54292900  1
  Ga  Ga9  1  0.31508700  0.31508700  0.45707100  1
  Sn  Sn10  1  0.08707800  0.49594800  0.25000000  1
  Sn  Sn11  1  0.91292200  0.50405200  0.75000000  1
  Sn  Sn12  1  0.49594800  0.08707800  0.25000000  1
  Sn  Sn13  1  0.50405200  0.91292200  0.75000000  1
  Sn  Sn14  1  0.02373000  0.02373000  0.25000000  1
  Sn  Sn15  1  0.97627000  0.97627000  0.75000000  1
