# generated using pymatgen
data_Pr(PdO2)2
_symmetry_space_group_name_H-M   'P 1'
_cell_length_a   6.66430251
_cell_length_b   6.66430251
_cell_length_c   6.66430251
_cell_angle_alpha   126.80409629
_cell_angle_beta   126.80409629
_cell_angle_gamma   78.57051987
_symmetry_Int_Tables_number   1
_chemical_formula_structural   Pr(PdO2)2
_chemical_formula_sum   'Pr2 Pd4 O8'
_cell_volume   183.69343180
_cell_formula_units_Z   2
loop_
 _symmetry_equiv_pos_site_id
 _symmetry_equiv_pos_as_xyz
  1  'x, y, z'
loop_
 _atom_site_type_symbol
 _atom_site_label
 _atom_site_symmetry_multiplicity
 _atom_site_fract_x
 _atom_site_fract_y
 _atom_site_fract_z
 _atom_site_occupancy
  Pr  Pr0  1  0.00000000  0.00000000  0.00000000  1
  Pr  Pr1  1  0.75000000  0.25000000  0.50000000  1
  Pd  Pd2  1  0.37500000  0.62500000  0.75000000  1
  Pd  Pd3  1  0.37500000  0.12500000  0.75000000  1
  Pd  Pd4  1  0.37500000  0.62500000  0.25000000  1
  Pd  Pd5  1  0.87500000  0.62500000  0.25000000  1
  O  O6  1  0.00182400  0.95167800  0.35245300  1
  O  O7  1  0.70167800  0.84922500  0.44985400  1
  O  O8  1  0.39937000  0.25182400  0.55014600  1
  O  O9  1  0.59922500  0.64937000  0.64754700  1
  O  O10  1  0.74817600  0.29832200  0.14754700  1
  O  O11  1  0.04832200  0.40077500  0.05014600  1
  O  O12  1  0.15077500  0.60063000  0.85245300  1
  O  O13  1  0.35063000  0.99817600  0.94985400  1
