# generated using pymatgen
data_Zr3N2O3
_symmetry_space_group_name_H-M   'P 1'
_cell_length_a   5.72850484
_cell_length_b   5.72850484
_cell_length_c   10.74853232
_cell_angle_alpha   89.68661660
_cell_angle_beta   89.68661660
_cell_angle_gamma   41.87573831
_symmetry_Int_Tables_number   1
_chemical_formula_structural   Zr3N2O3
_chemical_formula_sum   'Zr6 N4 O6'
_cell_volume   235.44356572
_cell_formula_units_Z   2
loop_
 _symmetry_equiv_pos_site_id
 _symmetry_equiv_pos_as_xyz
  1  'x, y, z'
loop_
 _atom_site_type_symbol
 _atom_site_label
 _atom_site_symmetry_multiplicity
 _atom_site_fract_x
 _atom_site_fract_y
 _atom_site_fract_z
 _atom_site_occupancy
  Zr  Zr0  1  0.85540300  0.85540300  0.56564100  1
  Zr  Zr1  1  0.85400000  0.85400000  0.93710500  1
  Zr  Zr2  1  0.80666800  0.80666800  0.24821000  1
  Zr  Zr3  1  0.19303400  0.19303400  0.75632900  1
  Zr  Zr4  1  0.14162600  0.14162600  0.05881300  1
  Zr  Zr5  1  0.13746900  0.13746900  0.43740300  1
  N  N6  1  0.70124800  0.70124800  0.42653600  1
  N  N7  1  0.69807600  0.69807600  0.08057700  1
  N  N8  1  0.76415100  0.76415100  0.74476200  1
  N  N9  1  0.29815800  0.29815800  0.92561300  1
  O  O10  1  0.95456600  0.95456600  0.11727700  1
  O  O11  1  0.95699400  0.95699400  0.38142100  1
  O  O12  1  0.04627900  0.04627900  0.61298000  1
  O  O13  1  0.04436700  0.04436700  0.88393900  1
  O  O14  1  0.30498900  0.30498900  0.57127900  1
  O  O15  1  0.24297400  0.24297400  0.25211500  1
