# generated using pymatgen
data_P
_symmetry_space_group_name_H-M   'P 1'
_cell_length_a   7.85748000
_cell_length_b   12.14707620
_cell_length_c   13.04870569
_cell_angle_alpha   102.66942805
_cell_angle_beta   106.71627095
_cell_angle_gamma   101.97555176
_symmetry_Int_Tables_number   1
_chemical_formula_structural   P
_chemical_formula_sum   P42
_cell_volume   1113.90600537
_cell_formula_units_Z   42
loop_
 _symmetry_equiv_pos_site_id
 _symmetry_equiv_pos_as_xyz
  1  'x, y, z'
loop_
 _atom_site_type_symbol
 _atom_site_label
 _atom_site_symmetry_multiplicity
 _atom_site_fract_x
 _atom_site_fract_y
 _atom_site_fract_z
 _atom_site_occupancy
  P  P0  1  0.27566500  0.66640400  0.84896500  1
  P  P1  1  0.72433500  0.33359600  0.15103500  1
  P  P2  1  0.03294300  0.51870300  0.72840400  1
  P  P3  1  0.96705700  0.48129700  0.27159600  1
  P  P4  1  0.02345500  0.41404100  0.84767200  1
  P  P5  1  0.97654500  0.58595900  0.15232800  1
  P  P6  1  0.77966800  0.27180900  0.72549400  1
  P  P7  1  0.22033200  0.72819100  0.27450600  1
  P  P8  1  0.73918000  0.15170200  0.82651300  1
  P  P9  1  0.26082000  0.84829800  0.17348700  1
  P  P10  1  0.48316000  0.01970800  0.70221800  1
  P  P11  1  0.51684000  0.98029200  0.29778200  1
  P  P12  1  0.51374400  0.92408600  0.82890100  1
  P  P13  1  0.48625600  0.07591400  0.17109900  1
  P  P14  1  0.27679700  0.76668500  0.72763300  1
  P  P15  1  0.72320300  0.23331500  0.27236700  1
  P  P16  1  0.44810100  0.51963400  0.66870500  1
  P  P17  1  0.55189900  0.48036600  0.33129500  1
  P  P18  1  0.14861900  0.42052800  0.60752500  1
  P  P19  1  0.85138100  0.57947200  0.39247500  1
  P  P20  1  0.19380900  0.26695900  0.66629100  1
  P  P21  1  0.80619100  0.73304100  0.33370900  1
  P  P22  1  0.89278400  0.17560800  0.60042300  1
  P  P23  1  0.10721600  0.82439200  0.39957700  1
  P  P24  1  0.88956500  0.00595200  0.63610200  1
  P  P25  1  0.11043500  0.99404800  0.36389800  1
  P  P26  1  0.58582400  0.91892900  0.57214700  1
  P  P27  1  0.41417600  0.08107100  0.42785300  1
  P  P28  1  0.66708200  0.77823700  0.64037100  1
  P  P29  1  0.33291800  0.22176300  0.35962900  1
  P  P30  1  0.38568000  0.66456200  0.60312900  1
  P  P31  1  0.61432000  0.33543800  0.39687100  1
  P  P32  1  0.52441600  0.60857500  0.84981600  1
  P  P33  1  0.47558400  0.39142500  0.15018400  1
  P  P34  1  0.23596800  0.32033700  0.84755400  1
  P  P35  1  0.76403200  0.67966300  0.15244600  1
  P  P36  1  0.94406400  0.04882000  0.82058200  1
  P  P37  1  0.05593600  0.95118000  0.17941800  1
  P  P38  1  0.77047900  0.87251000  0.82385900  1
  P  P39  1  0.22952100  0.12749000  0.17614100  1
  P  P40  1  0.51555900  0.45515900  0.91911300  1
  P  P41  1  0.48444100  0.54484100  0.08088700  1
