# generated using pymatgen
data_YbCu5Sn
_symmetry_space_group_name_H-M   'P 1'
_cell_length_a   5.05121700
_cell_length_b   8.21589000
_cell_length_c   10.46067400
_cell_angle_alpha   90.00000000
_cell_angle_beta   90.00000000
_cell_angle_gamma   90.00000000
_symmetry_Int_Tables_number   1
_chemical_formula_structural   YbCu5Sn
_chemical_formula_sum   'Yb4 Cu20 Sn4'
_cell_volume   434.12051543
_cell_formula_units_Z   4
loop_
 _symmetry_equiv_pos_site_id
 _symmetry_equiv_pos_as_xyz
  1  'x, y, z'
loop_
 _atom_site_type_symbol
 _atom_site_label
 _atom_site_symmetry_multiplicity
 _atom_site_fract_x
 _atom_site_fract_y
 _atom_site_fract_z
 _atom_site_occupancy
  Yb  Yb0  1  0.25000000  0.75508400  0.06208800  1
  Yb  Yb1  1  0.75000000  0.24491600  0.93791200  1
  Yb  Yb2  1  0.75000000  0.74491600  0.56208800  1
  Yb  Yb3  1  0.25000000  0.25508400  0.43791200  1
  Cu  Cu4  1  0.25000000  0.81488600  0.74799300  1
  Cu  Cu5  1  0.75000000  0.18511400  0.25200700  1
  Cu  Cu6  1  0.75000000  0.68511400  0.24799300  1
  Cu  Cu7  1  0.25000000  0.31488600  0.75200700  1
  Cu  Cu8  1  0.50111300  0.56511000  0.81247300  1
  Cu  Cu9  1  0.49888700  0.43489000  0.18752700  1
  Cu  Cu10  1  0.49888700  0.93489000  0.31247300  1
  Cu  Cu11  1  0.00111300  0.43489000  0.18752700  1
  Cu  Cu12  1  0.50111300  0.06511000  0.68752700  1
  Cu  Cu13  1  0.99888700  0.56511000  0.81247300  1
  Cu  Cu14  1  0.99888700  0.06511000  0.68752700  1
  Cu  Cu15  1  0.00111300  0.93489000  0.31247300  1
  Cu  Cu16  1  0.25000000  0.91071500  0.51807300  1
  Cu  Cu17  1  0.75000000  0.08928500  0.48192700  1
  Cu  Cu18  1  0.75000000  0.58928500  0.01807300  1
  Cu  Cu19  1  0.25000000  0.41071500  0.98192700  1
  Cu  Cu20  1  0.25000000  0.55934000  0.60139400  1
  Cu  Cu21  1  0.75000000  0.44066000  0.39860600  1
  Cu  Cu22  1  0.75000000  0.94066000  0.10139400  1
  Cu  Cu23  1  0.25000000  0.05934000  0.89860600  1
  Sn  Sn24  1  0.25000000  0.64089900  0.35991400  1
  Sn  Sn25  1  0.75000000  0.35910100  0.64008600  1
  Sn  Sn26  1  0.75000000  0.85910100  0.85991400  1
  Sn  Sn27  1  0.25000000  0.14089900  0.14008600  1
