# generated using pymatgen
data_Ga40Mo8Au
_symmetry_space_group_name_H-M   'P 1'
_cell_length_a   9.59798076
_cell_length_b   9.59798076
_cell_length_c   9.59798017
_cell_angle_alpha   94.76219048
_cell_angle_beta   94.76219048
_cell_angle_gamma   94.76219528
_symmetry_Int_Tables_number   1
_chemical_formula_structural   Ga40Mo8Au
_chemical_formula_sum   'Ga40 Mo8 Au1'
_cell_volume   874.47752788
_cell_formula_units_Z   1
loop_
 _symmetry_equiv_pos_site_id
 _symmetry_equiv_pos_as_xyz
  1  'x, y, z'
loop_
 _atom_site_type_symbol
 _atom_site_label
 _atom_site_symmetry_multiplicity
 _atom_site_fract_x
 _atom_site_fract_y
 _atom_site_fract_z
 _atom_site_occupancy
  Ga  Ga0  1  0.50000000  0.50000000  0.50000000  1
  Ga  Ga1  1  0.00000000  0.50000000  0.50000000  1
  Ga  Ga2  1  0.50000000  0.00000000  0.50000000  1
  Ga  Ga3  1  0.50000000  0.50000000  0.00000000  1
  Ga  Ga4  1  0.26596500  0.63446700  0.61135700  1
  Ga  Ga5  1  0.61135700  0.26596500  0.63446700  1
  Ga  Ga6  1  0.63446700  0.61135700  0.26596500  1
  Ga  Ga7  1  0.73403500  0.36553300  0.38864300  1
  Ga  Ga8  1  0.38864300  0.73403500  0.36553300  1
  Ga  Ga9  1  0.36553300  0.38864300  0.73403500  1
  Ga  Ga10  1  0.67508000  0.77902900  0.53762500  1
  Ga  Ga11  1  0.53762500  0.67508000  0.77902900  1
  Ga  Ga12  1  0.77902900  0.53762500  0.67508000  1
  Ga  Ga13  1  0.32492000  0.22097100  0.46237500  1
  Ga  Ga14  1  0.46237500  0.32492000  0.22097100  1
  Ga  Ga15  1  0.22097100  0.46237500  0.32492000  1
  Ga  Ga16  1  0.77867200  0.07438300  0.44955200  1
  Ga  Ga17  1  0.44955200  0.77867200  0.07438300  1
  Ga  Ga18  1  0.07438300  0.44955200  0.77867200  1
  Ga  Ga19  1  0.22132800  0.92561700  0.55044800  1
  Ga  Ga20  1  0.55044800  0.22132800  0.92561700  1
  Ga  Ga21  1  0.92561700  0.55044800  0.22132800  1
  Ga  Ga22  1  0.96835000  0.78676500  0.59952200  1
  Ga  Ga23  1  0.59952200  0.96835000  0.78676500  1
  Ga  Ga24  1  0.78676500  0.59952200  0.96835000  1
  Ga  Ga25  1  0.03165000  0.21323500  0.40047800  1
  Ga  Ga26  1  0.40047800  0.03165000  0.21323500  1
  Ga  Ga27  1  0.21323500  0.40047800  0.03165000  1
  Ga  Ga28  1  0.05526100  0.74148200  0.87422600  1
  Ga  Ga29  1  0.87422600  0.05526100  0.74148200  1
  Ga  Ga30  1  0.74148200  0.87422600  0.05526100  1
  Ga  Ga31  1  0.94473900  0.25851800  0.12577400  1
  Ga  Ga32  1  0.12577400  0.94473900  0.25851800  1
  Ga  Ga33  1  0.25851800  0.12577400  0.94473900  1
  Ga  Ga34  1  0.12517000  0.17663100  0.67904800  1
  Ga  Ga35  1  0.67904800  0.12517000  0.17663100  1
  Ga  Ga36  1  0.17663100  0.67904800  0.12517000  1
  Ga  Ga37  1  0.87483000  0.82336900  0.32095200  1
  Ga  Ga38  1  0.32095200  0.87483000  0.82336900  1
  Ga  Ga39  1  0.82336900  0.32095200  0.87483000  1
  Mo  Mo40  1  0.79959100  0.79959100  0.79959100  1
  Mo  Mo41  1  0.20040900  0.20040900  0.20040900  1
  Mo  Mo42  1  0.29114000  0.61256300  0.88781400  1
  Mo  Mo43  1  0.88781400  0.29114000  0.61256300  1
  Mo  Mo44  1  0.61256300  0.88781400  0.29114000  1
  Mo  Mo45  1  0.70886000  0.38743700  0.11218600  1
  Mo  Mo46  1  0.11218600  0.70886000  0.38743700  1
  Mo  Mo47  1  0.38743700  0.11218600  0.70886000  1
  Au  Au48  1  0.00000000  0.00000000  0.00000000  1
