# generated using pymatgen
data_Cr5B3
_symmetry_space_group_name_H-M   'P 1'
_cell_length_a   6.29318578
_cell_length_b   6.29318578
_cell_length_c   6.29318578
_cell_angle_alpha   128.77687806
_cell_angle_beta   128.77687806
_cell_angle_gamma   75.36985222
_symmetry_Int_Tables_number   1
_chemical_formula_structural   Cr5B3
_chemical_formula_sum   'Cr10 B6'
_cell_volume   147.42282145
_cell_formula_units_Z   2
loop_
 _symmetry_equiv_pos_site_id
 _symmetry_equiv_pos_as_xyz
  1  'x, y, z'
loop_
 _atom_site_type_symbol
 _atom_site_label
 _atom_site_symmetry_multiplicity
 _atom_site_fract_x
 _atom_site_fract_y
 _atom_site_fract_z
 _atom_site_occupancy
  Cr  Cr0  1  0.68286700  0.18286700  0.15771800  1
  Cr  Cr1  1  0.97485100  0.47485100  0.15771800  1
  Cr  Cr2  1  0.50000000  0.50000000  0.00000000  1
  Cr  Cr3  1  0.00000000  0.00000000  0.00000000  1
  Cr  Cr4  1  0.02514900  0.52514900  0.84228200  1
  Cr  Cr5  1  0.52514900  0.68286700  0.50000000  1
  Cr  Cr6  1  0.18286700  0.02514900  0.50000000  1
  Cr  Cr7  1  0.47485100  0.31713300  0.50000000  1
  Cr  Cr8  1  0.81713300  0.97485100  0.50000000  1
  Cr  Cr9  1  0.31713300  0.81713300  0.84228200  1
  B  B10  1  0.38218200  0.88218200  0.26436400  1
  B  B11  1  0.88218200  0.61781800  0.50000000  1
  B  B12  1  0.11781800  0.38218200  0.50000000  1
  B  B13  1  0.61781800  0.11781800  0.73563600  1
  B  B14  1  0.25000000  0.25000000  0.00000000  1
  B  B15  1  0.75000000  0.75000000  0.00000000  1
