# generated using pymatgen
data_KGe2(PO4)3
_symmetry_space_group_name_H-M   'P 1'
_cell_length_a   8.95146308
_cell_length_b   8.95146308
_cell_length_c   8.95146382
_cell_angle_alpha   54.02689292
_cell_angle_beta   54.02689292
_cell_angle_gamma   54.02689451
_symmetry_Int_Tables_number   1
_chemical_formula_structural   KGe2(PO4)3
_chemical_formula_sum   'K2 Ge4 P6 O24'
_cell_volume   436.43175868
_cell_formula_units_Z   2
loop_
 _symmetry_equiv_pos_site_id
 _symmetry_equiv_pos_as_xyz
  1  'x, y, z'
loop_
 _atom_site_type_symbol
 _atom_site_label
 _atom_site_symmetry_multiplicity
 _atom_site_fract_x
 _atom_site_fract_y
 _atom_site_fract_z
 _atom_site_occupancy
  K  K0  1  0.00000000  0.00000000  0.00000000  1
  K  K1  1  0.50000000  0.50000000  0.50000000  1
  Ge  Ge2  1  0.14797800  0.14797800  0.14797800  1
  Ge  Ge3  1  0.85202200  0.85202200  0.85202200  1
  Ge  Ge4  1  0.34718700  0.34718700  0.34718700  1
  Ge  Ge5  1  0.65281300  0.65281300  0.65281300  1
  P  P6  1  0.25165000  0.53390700  0.96616100  1
  P  P7  1  0.53390700  0.96616100  0.25165000  1
  P  P8  1  0.96616100  0.25165000  0.53390700  1
  P  P9  1  0.74835000  0.46609300  0.03383900  1
  P  P10  1  0.46609300  0.03383900  0.74835000  1
  P  P11  1  0.03383900  0.74835000  0.46609300  1
  O  O12  1  0.81302900  0.46359400  0.52810900  1
  O  O13  1  0.46359400  0.52810900  0.81302900  1
  O  O14  1  0.52810900  0.81302900  0.46359400  1
  O  O15  1  0.18697100  0.53640600  0.47189100  1
  O  O16  1  0.53640600  0.47189100  0.18697100  1
  O  O17  1  0.47189100  0.18697100  0.53640600  1
  O  O18  1  0.90484800  0.26789300  0.11208100  1
  O  O19  1  0.26789300  0.11208100  0.90484800  1
  O  O20  1  0.11208100  0.90484800  0.26789300  1
  O  O21  1  0.09515200  0.73210700  0.88791900  1
  O  O22  1  0.73210700  0.88791900  0.09515200  1
  O  O23  1  0.88791900  0.09515200  0.73210700  1
  O  O24  1  0.01633400  0.76806000  0.63614300  1
  O  O25  1  0.63614300  0.01633400  0.76806000  1
  O  O26  1  0.76806000  0.63614300  0.01633400  1
  O  O27  1  0.98366600  0.23194000  0.36385600  1
  O  O28  1  0.36385700  0.98366600  0.23194000  1
  O  O29  1  0.23194000  0.36385600  0.98366600  1
  O  O30  1  0.52186100  0.16479000  0.21498800  1
  O  O31  1  0.21498800  0.52186100  0.16479000  1
  O  O32  1  0.16479000  0.21498800  0.52186100  1
  O  O33  1  0.47813900  0.83521000  0.78501200  1
  O  O34  1  0.78501200  0.47813900  0.83521000  1
  O  O35  1  0.83521000  0.78501200  0.47813900  1
