# generated using pymatgen
data_Tb2CuPt
_symmetry_space_group_name_H-M   'P 1'
_cell_length_a   4.46176600
_cell_length_b   5.53330400
_cell_length_c   7.17641900
_cell_angle_alpha   90.00000000
_cell_angle_beta   90.00000000
_cell_angle_gamma   90.00000000
_symmetry_Int_Tables_number   1
_chemical_formula_structural   Tb2CuPt
_chemical_formula_sum   'Tb4 Cu2 Pt2'
_cell_volume   177.17364013
_cell_formula_units_Z   2
loop_
 _symmetry_equiv_pos_site_id
 _symmetry_equiv_pos_as_xyz
  1  'x, y, z'
loop_
 _atom_site_type_symbol
 _atom_site_label
 _atom_site_symmetry_multiplicity
 _atom_site_fract_x
 _atom_site_fract_y
 _atom_site_fract_z
 _atom_site_occupancy
  Tb  Tb0  1  0.00000000  0.11350000  0.68483500  1
  Tb  Tb1  1  0.00000000  0.88650000  0.18483500  1
  Tb  Tb2  1  0.50000000  0.39533700  0.31493800  1
  Tb  Tb3  1  0.50000000  0.60466300  0.81493800  1
  Cu  Cu4  1  0.50000000  0.89293200  0.46437800  1
  Cu  Cu5  1  0.50000000  0.10706800  0.96437800  1
  Pt  Pt6  1  0.00000000  0.61361900  0.53585000  1
  Pt  Pt7  1  0.00000000  0.38638100  0.03585000  1
