# generated using pymatgen
data_LiMnVF6
_symmetry_space_group_name_H-M   'P 1'
_cell_length_a   8.85586743
_cell_length_b   8.85586743
_cell_length_c   4.73795400
_cell_angle_alpha   90.00000000
_cell_angle_beta   90.00000000
_cell_angle_gamma   119.99999573
_symmetry_Int_Tables_number   1
_chemical_formula_structural   LiMnVF6
_chemical_formula_sum   'Li3 Mn3 V3 F18'
_cell_volume   321.79826883
_cell_formula_units_Z   3
loop_
 _symmetry_equiv_pos_site_id
 _symmetry_equiv_pos_as_xyz
  1  'x, y, z'
loop_
 _atom_site_type_symbol
 _atom_site_label
 _atom_site_symmetry_multiplicity
 _atom_site_fract_x
 _atom_site_fract_y
 _atom_site_fract_z
 _atom_site_occupancy
  Li  Li0  1  0.00000000  0.00000000  0.00000000  1
  Li  Li1  1  0.33333300  0.66666700  0.50131000  1
  Li  Li2  1  0.66666700  0.33333300  0.49869000  1
  Mn  Mn3  1  0.35398800  0.35398800  0.00000000  1
  Mn  Mn4  1  0.00000000  0.64601200  0.00000000  1
  Mn  Mn5  1  0.64601200  0.00000000  0.00000000  1
  V  V6  1  0.68564900  0.68564900  0.50000000  1
  V  V7  1  0.00000000  0.31435100  0.50000000  1
  V  V8  1  0.31435100  0.00000000  0.50000000  1
  F  F9  1  0.53088200  0.10927300  0.72925600  1
  F  F10  1  0.57839100  0.46911800  0.72925600  1
  F  F11  1  0.89072700  0.42160900  0.72925600  1
  F  F12  1  0.42160900  0.89072700  0.27074400  1
  F  F13  1  0.46911800  0.57839100  0.27074400  1
  F  F14  1  0.10927300  0.53088200  0.27074400  1
  F  F15  1  0.21972700  0.78065600  0.72465700  1
  F  F16  1  0.56093000  0.78027300  0.72465700  1
  F  F17  1  0.21934400  0.43907000  0.72465700  1
  F  F18  1  0.43907000  0.21934400  0.27534300  1
  F  F19  1  0.78027300  0.56093000  0.27534300  1
  F  F20  1  0.78065600  0.21972700  0.27534300  1
  F  F21  1  0.22110700  0.10823400  0.75676600  1
  F  F22  1  0.88712700  0.77889300  0.75676600  1
  F  F23  1  0.89176600  0.11287300  0.75676600  1
  F  F24  1  0.11287300  0.89176600  0.24323400  1
  F  F25  1  0.77889300  0.88712700  0.24323400  1
  F  F26  1  0.10823400  0.22110700  0.24323400  1
