# generated using pymatgen
data_Dy14Ag51
_symmetry_space_group_name_H-M   'P 1'
_cell_length_a   12.80120275
_cell_length_b   12.80120275
_cell_length_c   9.39580000
_cell_angle_alpha   90.00000000
_cell_angle_beta   90.00000000
_cell_angle_gamma   120.00000389
_symmetry_Int_Tables_number   1
_chemical_formula_structural   Dy14Ag51
_chemical_formula_sum   'Dy14 Ag51'
_cell_volume   1333.41682552
_cell_formula_units_Z   1
loop_
 _symmetry_equiv_pos_site_id
 _symmetry_equiv_pos_as_xyz
  1  'x, y, z'
loop_
 _atom_site_type_symbol
 _atom_site_label
 _atom_site_symmetry_multiplicity
 _atom_site_fract_x
 _atom_site_fract_y
 _atom_site_fract_z
 _atom_site_occupancy
  Dy  Dy0  1  0.13380800  0.47092100  0.50000000  1
  Dy  Dy1  1  0.52907900  0.66288700  0.50000000  1
  Dy  Dy2  1  0.33711300  0.86619200  0.50000000  1
  Dy  Dy3  1  0.19922900  0.19449300  0.50000000  1
  Dy  Dy4  1  0.80550700  0.00473600  0.50000000  1
  Dy  Dy5  1  0.99526400  0.80077100  0.50000000  1
  Dy  Dy6  1  0.77953300  0.71906700  0.00000000  1
  Dy  Dy7  1  0.28093300  0.06046500  0.00000000  1
  Dy  Dy8  1  0.93953500  0.22046700  0.00000000  1
  Dy  Dy9  1  0.54937400  0.93318000  0.00000000  1
  Dy  Dy10  1  0.06682000  0.61619400  0.00000000  1
  Dy  Dy11  1  0.38380600  0.45062600  0.00000000  1
  Dy  Dy12  1  0.66666700  0.33333300  0.30719300  1
  Dy  Dy13  1  0.66666700  0.33333300  0.69280700  1
  Ag  Ag14  1  0.15986500  0.44849400  0.15231000  1
  Ag  Ag15  1  0.55150600  0.71137200  0.15231000  1
  Ag  Ag16  1  0.28862800  0.84013500  0.15231000  1
  Ag  Ag17  1  0.17127100  0.21750900  0.15183500  1
  Ag  Ag18  1  0.78249100  0.95376200  0.15183500  1
  Ag  Ag19  1  0.04623800  0.82872900  0.15183500  1
  Ag  Ag20  1  0.17127100  0.21750900  0.84816500  1
  Ag  Ag21  1  0.78249100  0.95376200  0.84816500  1
  Ag  Ag22  1  0.04623800  0.82872900  0.84816500  1
  Ag  Ag23  1  0.15986500  0.44849400  0.84769000  1
  Ag  Ag24  1  0.55150600  0.71137200  0.84769000  1
  Ag  Ag25  1  0.28862800  0.84013500  0.84769000  1
  Ag  Ag26  1  0.33333300  0.66666700  0.00000000  1
  Ag  Ag27  1  0.00000000  0.00000000  0.00000000  1
  Ag  Ag28  1  0.33333300  0.66666700  0.30446000  1
  Ag  Ag29  1  0.00000000  0.00000000  0.30388800  1
  Ag  Ag30  1  0.00000000  0.00000000  0.69611200  1
  Ag  Ag31  1  0.33333300  0.66666700  0.69554000  1
  Ag  Ag32  1  0.77197500  0.77243000  0.33262300  1
  Ag  Ag33  1  0.22757000  0.99954500  0.33262300  1
  Ag  Ag34  1  0.00045500  0.22802500  0.33262300  1
  Ag  Ag35  1  0.56097000  0.89322100  0.33323500  1
  Ag  Ag36  1  0.10677900  0.66774900  0.33323500  1
  Ag  Ag37  1  0.33225100  0.43903000  0.33323500  1
  Ag  Ag38  1  0.56097000  0.89322100  0.66676500  1
  Ag  Ag39  1  0.10677900  0.66774900  0.66676500  1
  Ag  Ag40  1  0.33225100  0.43903000  0.66676500  1
  Ag  Ag41  1  0.77197500  0.77243000  0.66737700  1
  Ag  Ag42  1  0.22757000  0.99954500  0.66737700  1
  Ag  Ag43  1  0.00045500  0.22802500  0.66737700  1
  Ag  Ag44  1  0.85868700  0.60191700  0.23830800  1
  Ag  Ag45  1  0.39808300  0.25677000  0.23830800  1
  Ag  Ag46  1  0.74323000  0.14131300  0.23830800  1
  Ag  Ag47  1  0.47653400  0.06925600  0.23226800  1
  Ag  Ag48  1  0.93074400  0.40727900  0.23226800  1
  Ag  Ag49  1  0.59272100  0.52346600  0.23226800  1
  Ag  Ag50  1  0.47653400  0.06925600  0.76773200  1
  Ag  Ag51  1  0.93074400  0.40727900  0.76773200  1
  Ag  Ag52  1  0.59272100  0.52346600  0.76773200  1
  Ag  Ag53  1  0.85868700  0.60191700  0.76169200  1
  Ag  Ag54  1  0.39808300  0.25677000  0.76169200  1
  Ag  Ag55  1  0.74323000  0.14131300  0.76169200  1
  Ag  Ag56  1  0.72640300  0.57101000  0.50000000  1
  Ag  Ag57  1  0.42899000  0.15539300  0.50000000  1
  Ag  Ag58  1  0.84460700  0.27359700  0.50000000  1
  Ag  Ag59  1  0.60621000  0.09486800  0.50000000  1
  Ag  Ag60  1  0.90513200  0.51134200  0.50000000  1
  Ag  Ag61  1  0.48865800  0.39379000  0.50000000  1
  Ag  Ag62  1  0.80186400  0.44813000  0.00000000  1
  Ag  Ag63  1  0.55187000  0.35373400  0.00000000  1
  Ag  Ag64  1  0.64626600  0.19813600  0.00000000  1
