# generated using pymatgen
data_HfMn2
_symmetry_space_group_name_H-M   'P 1'
_cell_length_a   4.89560003
_cell_length_b   4.89560003
_cell_length_c   8.16242300
_cell_angle_alpha   90.00000000
_cell_angle_beta   90.00000000
_cell_angle_gamma   120.00000039
_symmetry_Int_Tables_number   1
_chemical_formula_structural   HfMn2
_chemical_formula_sum   'Hf4 Mn8'
_cell_volume   169.41879354
_cell_formula_units_Z   4
loop_
 _symmetry_equiv_pos_site_id
 _symmetry_equiv_pos_as_xyz
  1  'x, y, z'
loop_
 _atom_site_type_symbol
 _atom_site_label
 _atom_site_symmetry_multiplicity
 _atom_site_fract_x
 _atom_site_fract_y
 _atom_site_fract_z
 _atom_site_occupancy
  Hf  Hf0  1  0.33333300  0.66666700  0.43608600  1
  Hf  Hf1  1  0.66666700  0.33333300  0.93608600  1
  Hf  Hf2  1  0.66666700  0.33333300  0.56391400  1
  Hf  Hf3  1  0.33333300  0.66666700  0.06391400  1
  Mn  Mn4  1  0.17066200  0.34132400  0.75000000  1
  Mn  Mn5  1  0.82933800  0.17066200  0.25000000  1
  Mn  Mn6  1  0.34132400  0.17066200  0.25000000  1
  Mn  Mn7  1  0.65867600  0.82933800  0.75000000  1
  Mn  Mn8  1  0.00000000  0.00000000  0.00000000  1
  Mn  Mn9  1  0.00000000  0.00000000  0.50000000  1
  Mn  Mn10  1  0.82933800  0.65867600  0.25000000  1
  Mn  Mn11  1  0.17066200  0.82933800  0.75000000  1
