# generated using pymatgen
data_LiMnCrO4
_symmetry_space_group_name_H-M   'P 1'
_cell_length_a   5.91695266
_cell_length_b   5.91695266
_cell_length_c   5.91695266
_cell_angle_alpha   120.58872895
_cell_angle_beta   119.23259621
_cell_angle_gamma   90.15880814
_symmetry_Int_Tables_number   1
_chemical_formula_structural   LiMnCrO4
_chemical_formula_sum   'Li2 Mn2 Cr2 O8'
_cell_volume   146.65191713
_cell_formula_units_Z   2
loop_
 _symmetry_equiv_pos_site_id
 _symmetry_equiv_pos_as_xyz
  1  'x, y, z'
loop_
 _atom_site_type_symbol
 _atom_site_label
 _atom_site_symmetry_multiplicity
 _atom_site_fract_x
 _atom_site_fract_y
 _atom_site_fract_z
 _atom_site_occupancy
  Li  Li0  1  0.86870700  0.11870700  0.75000000  1
  Li  Li1  1  0.13129300  0.88129300  0.25000000  1
  Mn  Mn2  1  0.50000000  0.50000000  0.50000000  1
  Mn  Mn3  1  0.50000000  0.00000000  0.00000000  1
  Cr  Cr4  1  0.50000000  0.50000000  0.00000000  1
  Cr  Cr5  1  0.00000000  0.50000000  0.50000000  1
  O  O6  1  0.71030300  0.74267000  0.96763400  1
  O  O7  1  0.27503600  0.74267000  0.53236600  1
  O  O8  1  0.26900000  0.29034800  0.52134900  1
  O  O9  1  0.26900000  0.74765100  0.97865100  1
  O  O10  1  0.73100000  0.70965200  0.47865100  1
  O  O11  1  0.73100000  0.25234900  0.02134900  1
  O  O12  1  0.72496400  0.25733000  0.46763400  1
  O  O13  1  0.28969700  0.25733000  0.03236600  1
