# generated using pymatgen
data_BaIBr
_symmetry_space_group_name_H-M   'P 1'
_cell_length_a   5.15096600
_cell_length_b   8.85333000
_cell_length_c   10.25150200
_cell_angle_alpha   90.00000000
_cell_angle_beta   90.00000000
_cell_angle_gamma   90.00000000
_symmetry_Int_Tables_number   1
_chemical_formula_structural   BaIBr
_chemical_formula_sum   'Ba4 I4 Br4'
_cell_volume   467.50131463
_cell_formula_units_Z   4
loop_
 _symmetry_equiv_pos_site_id
 _symmetry_equiv_pos_as_xyz
  1  'x, y, z'
loop_
 _atom_site_type_symbol
 _atom_site_label
 _atom_site_symmetry_multiplicity
 _atom_site_fract_x
 _atom_site_fract_y
 _atom_site_fract_z
 _atom_site_occupancy
  Ba  Ba0  1  0.25000000  0.72859800  0.62479800  1
  Ba  Ba1  1  0.75000000  0.27140200  0.37520200  1
  Ba  Ba2  1  0.75000000  0.77140200  0.12479800  1
  Ba  Ba3  1  0.25000000  0.22859800  0.87520200  1
  I  I4  1  0.25000000  0.47160800  0.16790500  1
  I  I5  1  0.75000000  0.52839200  0.83209500  1
  I  I6  1  0.75000000  0.02839200  0.66790500  1
  I  I7  1  0.25000000  0.97160800  0.33209500  1
  Br  Br8  1  0.25000000  0.85650100  0.93322200  1
  Br  Br9  1  0.75000000  0.14349900  0.06677800  1
  Br  Br10  1  0.75000000  0.64349900  0.43322200  1
  Br  Br11  1  0.25000000  0.35650100  0.56677800  1
