# generated using pymatgen
data_Na4ReN3
_symmetry_space_group_name_H-M   'P 1'
_cell_length_a   6.28895427
_cell_length_b   6.28895427
_cell_length_c   8.93019510
_cell_angle_alpha   68.27536834
_cell_angle_beta   68.27536834
_cell_angle_gamma   57.99332246
_symmetry_Int_Tables_number   1
_chemical_formula_structural   Na4ReN3
_chemical_formula_sum   'Na8 Re2 N6'
_cell_volume   271.36479735
_cell_formula_units_Z   2
loop_
 _symmetry_equiv_pos_site_id
 _symmetry_equiv_pos_as_xyz
  1  'x, y, z'
loop_
 _atom_site_type_symbol
 _atom_site_label
 _atom_site_symmetry_multiplicity
 _atom_site_fract_x
 _atom_site_fract_y
 _atom_site_fract_z
 _atom_site_occupancy
  Na  Na0  1  0.37404100  0.00306200  0.86462700  1
  Na  Na1  1  0.56398400  0.20558800  0.47295500  1
  Na  Na2  1  0.46703700  0.74264300  0.54306500  1
  Na  Na3  1  0.74264300  0.46703700  0.04306500  1
  Na  Na4  1  0.63114700  0.95987800  0.13850900  1
  Na  Na5  1  0.95987800  0.63114700  0.63850900  1
  Na  Na6  1  0.20558800  0.56398400  0.97295500  1
  Na  Na7  1  0.00306200  0.37404100  0.36462700  1
  Re  Re8  1  0.15561300  0.86417700  0.24998700  1
  Re  Re9  1  0.86417700  0.15561300  0.74998700  1
  N  N10  1  0.45484100  0.62408800  0.31149300  1
  N  N11  1  0.62408800  0.45484100  0.81149300  1
  N  N12  1  0.86063600  0.83092000  0.35419500  1
  N  N13  1  0.83092000  0.86063600  0.85419500  1
  N  N14  1  0.14738500  0.17336200  0.13306800  1
  N  N15  1  0.17336200  0.14738500  0.63306800  1
