# generated using pymatgen
data_SmHCO4
_symmetry_space_group_name_H-M   'P 1'
_cell_length_a   4.94942700
_cell_length_b   7.24396900
_cell_length_c   8.60690000
_cell_angle_alpha   90.00000000
_cell_angle_beta   90.00000000
_cell_angle_gamma   90.00000000
_symmetry_Int_Tables_number   1
_chemical_formula_structural   SmHCO4
_chemical_formula_sum   'Sm4 H4 C4 O16'
_cell_volume   308.58745262
_cell_formula_units_Z   4
loop_
 _symmetry_equiv_pos_site_id
 _symmetry_equiv_pos_as_xyz
  1  'x, y, z'
loop_
 _atom_site_type_symbol
 _atom_site_label
 _atom_site_symmetry_multiplicity
 _atom_site_fract_x
 _atom_site_fract_y
 _atom_site_fract_z
 _atom_site_occupancy
  Sm  Sm0  1  0.74806000  0.14055500  0.16328400  1
  Sm  Sm1  1  0.75194000  0.64055500  0.33671600  1
  Sm  Sm2  1  0.24806000  0.85944500  0.83671600  1
  Sm  Sm3  1  0.25194000  0.35944500  0.66328400  1
  H  H4  1  0.86057700  0.00299800  0.47030200  1
  H  H5  1  0.63942300  0.50299800  0.02969800  1
  H  H6  1  0.36057700  0.99700200  0.52969800  1
  H  H7  1  0.13942300  0.49700200  0.97030200  1
  C  C8  1  0.24926000  0.30191700  0.32432700  1
  C  C9  1  0.25074000  0.80191700  0.17567300  1
  C  C10  1  0.74926000  0.69808300  0.67567300  1
  C  C11  1  0.75074000  0.19808300  0.82432700  1
  O  O12  1  0.25055300  0.20446600  0.19931700  1
  O  O13  1  0.24944700  0.70446600  0.30068300  1
  O  O14  1  0.75055300  0.79553400  0.80068300  1
  O  O15  1  0.74944700  0.29553400  0.69931700  1
  O  O16  1  0.74474300  0.95860400  0.38598400  1
  O  O17  1  0.75525700  0.45860400  0.11401600  1
  O  O18  1  0.24474300  0.04139600  0.61401600  1
  O  O19  1  0.25525700  0.54139600  0.88598400  1
  O  O20  1  0.02134800  0.34728200  0.38918100  1
  O  O21  1  0.47865200  0.84728300  0.11081900  1
  O  O22  1  0.52134800  0.65271700  0.61081900  1
  O  O23  1  0.97865200  0.15271800  0.88918100  1
  O  O24  1  0.97391400  0.65348900  0.60756900  1
  O  O25  1  0.52608600  0.15348900  0.89243100  1
  O  O26  1  0.47391400  0.34651100  0.39243100  1
  O  O27  1  0.02608600  0.84651100  0.10756900  1
