# generated using pymatgen
data_Ta2Ni
_symmetry_space_group_name_H-M   'P 1'
_cell_length_a   5.03258768
_cell_length_b   5.03258768
_cell_length_c   5.03258768
_cell_angle_alpha   103.53903838
_cell_angle_beta   103.53903838
_cell_angle_gamma   122.12609465
_symmetry_Int_Tables_number   1
_chemical_formula_structural   Ta2Ni
_chemical_formula_sum   'Ta4 Ni2'
_cell_volume   94.46689639
_cell_formula_units_Z   2
loop_
 _symmetry_equiv_pos_site_id
 _symmetry_equiv_pos_as_xyz
  1  'x, y, z'
loop_
 _atom_site_type_symbol
 _atom_site_label
 _atom_site_symmetry_multiplicity
 _atom_site_fract_x
 _atom_site_fract_y
 _atom_site_fract_z
 _atom_site_occupancy
  Ta  Ta0  1  0.15867000  0.65867000  0.81734000  1
  Ta  Ta1  1  0.34133000  0.15867000  0.50000000  1
  Ta  Ta2  1  0.65867000  0.84133000  0.50000000  1
  Ta  Ta3  1  0.84133000  0.34133000  0.18266000  1
  Ni  Ni4  1  0.25000000  0.25000000  0.00000000  1
  Ni  Ni5  1  0.75000000  0.75000000  0.00000000  1
