# generated using pymatgen
data_Yb5Co19P12
_symmetry_space_group_name_H-M   'P 1'
_cell_length_a   11.94918049
_cell_length_b   11.94918049
_cell_length_c   3.64485400
_cell_angle_alpha   90.00000000
_cell_angle_beta   90.00000000
_cell_angle_gamma   120.00000271
_symmetry_Int_Tables_number   1
_chemical_formula_structural   Yb5Co19P12
_chemical_formula_sum   'Yb5 Co19 P12'
_cell_volume   450.69941953
_cell_formula_units_Z   1
loop_
 _symmetry_equiv_pos_site_id
 _symmetry_equiv_pos_as_xyz
  1  'x, y, z'
loop_
 _atom_site_type_symbol
 _atom_site_label
 _atom_site_symmetry_multiplicity
 _atom_site_fract_x
 _atom_site_fract_y
 _atom_site_fract_z
 _atom_site_occupancy
  Yb  Yb0  1  0.66666700  0.33333300  0.50000000  1
  Yb  Yb1  1  0.33333300  0.66666700  0.50000000  1
  Yb  Yb2  1  0.18455800  0.18455800  0.00000000  1
  Yb  Yb3  1  0.81544200  0.00000000  0.00000000  1
  Yb  Yb4  1  0.00000000  0.81544200  0.00000000  1
  Co  Co5  1  0.82069800  0.19849100  0.50000000  1
  Co  Co6  1  0.80150900  0.62220700  0.50000000  1
  Co  Co7  1  0.37779300  0.17930200  0.50000000  1
  Co  Co8  1  0.19849100  0.82069800  0.50000000  1
  Co  Co9  1  0.62220700  0.80150900  0.50000000  1
  Co  Co10  1  0.17930200  0.37779300  0.50000000  1
  Co  Co11  1  0.55241900  0.55241900  0.50000000  1
  Co  Co12  1  0.44758100  0.00000000  0.50000000  1
  Co  Co13  1  0.00000000  0.44758100  0.50000000  1
  Co  Co14  1  0.64260600  0.12531000  0.00000000  1
  Co  Co15  1  0.87469000  0.51729600  0.00000000  1
  Co  Co16  1  0.48270400  0.35739400  0.00000000  1
  Co  Co17  1  0.12531000  0.64260600  0.00000000  1
  Co  Co18  1  0.51729600  0.87469000  0.00000000  1
  Co  Co19  1  0.35739400  0.48270400  0.00000000  1
  Co  Co20  1  0.71513700  0.71513700  0.00000000  1
  Co  Co21  1  0.28486300  0.00000000  0.00000000  1
  Co  Co22  1  0.00000000  0.28486300  0.00000000  1
  Co  Co23  1  0.00000000  0.00000000  0.50000000  1
  P  P24  1  0.36870600  0.36870600  0.50000000  1
  P  P25  1  0.63129400  0.00000000  0.50000000  1
  P  P26  1  0.00000000  0.63129400  0.50000000  1
  P  P27  1  0.83463600  0.31508200  0.00000000  1
  P  P28  1  0.68491800  0.51955400  0.00000000  1
  P  P29  1  0.48044600  0.16536400  0.00000000  1
  P  P30  1  0.31508200  0.83463600  0.00000000  1
  P  P31  1  0.51955400  0.68491800  0.00000000  1
  P  P32  1  0.16536400  0.48044600  0.00000000  1
  P  P33  1  0.81816700  0.81816700  0.50000000  1
  P  P34  1  0.18183300  0.00000000  0.50000000  1
  P  P35  1  0.00000000  0.18183300  0.50000000  1
