# generated using pymatgen
data_YGa3Ru
_symmetry_space_group_name_H-M   'P 1'
_cell_length_a   6.46352200
_cell_length_b   6.46352200
_cell_length_c   6.46352200
_cell_angle_alpha   90.00000000
_cell_angle_beta   90.00000000
_cell_angle_gamma   90.00000000
_symmetry_Int_Tables_number   1
_chemical_formula_structural   YGa3Ru
_chemical_formula_sum   'Y3 Ga9 Ru3'
_cell_volume   270.02731253
_cell_formula_units_Z   3
loop_
 _symmetry_equiv_pos_site_id
 _symmetry_equiv_pos_as_xyz
  1  'x, y, z'
loop_
 _atom_site_type_symbol
 _atom_site_label
 _atom_site_symmetry_multiplicity
 _atom_site_fract_x
 _atom_site_fract_y
 _atom_site_fract_z
 _atom_site_occupancy
  Y  Y0  1  0.50000000  0.50000000  0.00000000  1
  Y  Y1  1  0.50000000  0.00000000  0.50000000  1
  Y  Y2  1  0.00000000  0.50000000  0.50000000  1
  Ga  Ga3  1  0.50000000  0.50000000  0.50000000  1
  Ga  Ga4  1  0.20878900  0.20878900  0.79121100  1
  Ga  Ga5  1  0.20878900  0.79121100  0.20878900  1
  Ga  Ga6  1  0.79121100  0.20878900  0.20878900  1
  Ga  Ga7  1  0.79121100  0.79121100  0.79121100  1
  Ga  Ga8  1  0.79121100  0.79121100  0.20878900  1
  Ga  Ga9  1  0.79121100  0.20878900  0.79121100  1
  Ga  Ga10  1  0.20878900  0.79121100  0.79121100  1
  Ga  Ga11  1  0.20878900  0.20878900  0.20878900  1
  Ru  Ru12  1  0.00000000  0.00000000  0.50000000  1
  Ru  Ru13  1  0.00000000  0.50000000  0.00000000  1
  Ru  Ru14  1  0.50000000  0.00000000  0.00000000  1
