# generated using pymatgen
data_Na2Se2O7
_symmetry_space_group_name_H-M   'P 1'
_cell_length_a   7.16101000
_cell_length_b   7.21239799
_cell_length_c   7.27590248
_cell_angle_alpha   64.90766397
_cell_angle_beta   83.33074648
_cell_angle_gamma   83.14870338
_symmetry_Int_Tables_number   1
_chemical_formula_structural   Na2Se2O7
_chemical_formula_sum   'Na4 Se4 O14'
_cell_volume   336.99235021
_cell_formula_units_Z   2
loop_
 _symmetry_equiv_pos_site_id
 _symmetry_equiv_pos_as_xyz
  1  'x, y, z'
loop_
 _atom_site_type_symbol
 _atom_site_label
 _atom_site_symmetry_multiplicity
 _atom_site_fract_x
 _atom_site_fract_y
 _atom_site_fract_z
 _atom_site_occupancy
  Na  Na0  1  0.34856800  0.73350500  0.39377500  1
  Na  Na1  1  0.65143200  0.26649500  0.60622500  1
  Na  Na2  1  0.08926300  0.27611100  0.23469100  1
  Na  Na3  1  0.91073700  0.72388900  0.76530900  1
  Se  Se4  1  0.14412400  0.24309500  0.72615100  1
  Se  Se5  1  0.85587600  0.75690500  0.27384900  1
  Se  Se6  1  0.39033800  0.80131500  0.86482100  1
  Se  Se7  1  0.60966200  0.19868500  0.13517900  1
  O  O8  1  0.04743700  0.35551000  0.87251800  1
  O  O9  1  0.95256300  0.64449000  0.12748200  1
  O  O10  1  0.31527900  0.36186800  0.55954300  1
  O  O11  1  0.68472100  0.63813200  0.44045700  1
  O  O12  1  0.99259900  0.17316700  0.61612900  1
  O  O13  1  0.00740100  0.82683300  0.38387100  1
  O  O14  1  0.26056800  0.75217600  0.72110700  1
  O  O15  1  0.73943200  0.24782400  0.27889300  1
  O  O16  1  0.59120800  0.89752400  0.74950600  1
  O  O17  1  0.40879200  0.10247600  0.25049400  1
  O  O18  1  0.39900300  0.63543000  0.10295200  1
  O  O19  1  0.60099700  0.36457000  0.89704800  1
  O  O20  1  0.25154500  0.01241100  0.91660900  1
  O  O21  1  0.74845500  0.98758900  0.08339100  1
