# generated using pymatgen
data_LaTeAs
_symmetry_space_group_name_H-M   'P 1'
_cell_length_a   4.20633700
_cell_length_b   7.89170100
_cell_length_c   10.42277000
_cell_angle_alpha   90.00000000
_cell_angle_beta   90.00000000
_cell_angle_gamma   90.00000000
_symmetry_Int_Tables_number   1
_chemical_formula_structural   LaTeAs
_chemical_formula_sum   'La4 Te4 As4'
_cell_volume   345.98545431
_cell_formula_units_Z   4
loop_
 _symmetry_equiv_pos_site_id
 _symmetry_equiv_pos_as_xyz
  1  'x, y, z'
loop_
 _atom_site_type_symbol
 _atom_site_label
 _atom_site_symmetry_multiplicity
 _atom_site_fract_x
 _atom_site_fract_y
 _atom_site_fract_z
 _atom_site_occupancy
  La  La0  1  0.25000000  0.22357400  0.65569100  1
  La  La1  1  0.75000000  0.77642600  0.34430900  1
  La  La2  1  0.25000000  0.72357400  0.84430900  1
  La  La3  1  0.75000000  0.27642600  0.15569100  1
  Te  Te4  1  0.25000000  0.59372000  0.15074100  1
  Te  Te5  1  0.75000000  0.90628000  0.65074100  1
  Te  Te6  1  0.25000000  0.09372000  0.34925900  1
  Te  Te7  1  0.75000000  0.40628000  0.84925900  1
  As  As8  1  0.75000000  0.90987800  0.03867600  1
  As  As9  1  0.25000000  0.59012200  0.53867600  1
  As  As10  1  0.75000000  0.40987800  0.46132400  1
  As  As11  1  0.25000000  0.09012200  0.96132400  1
