# generated using pymatgen
data_BiPbIO2
_symmetry_space_group_name_H-M   'P 1'
_cell_length_a   7.51551144
_cell_length_b   7.51551144
_cell_length_c   7.51551144
_cell_angle_alpha   148.55200332
_cell_angle_beta   148.55200332
_cell_angle_gamma   45.07115435
_symmetry_Int_Tables_number   1
_chemical_formula_structural   BiPbIO2
_chemical_formula_sum   'Bi1 Pb1 I1 O2'
_cell_volume   115.18327577
_cell_formula_units_Z   1
loop_
 _symmetry_equiv_pos_site_id
 _symmetry_equiv_pos_as_xyz
  1  'x, y, z'
loop_
 _atom_site_type_symbol
 _atom_site_label
 _atom_site_symmetry_multiplicity
 _atom_site_fract_x
 _atom_site_fract_y
 _atom_site_fract_z
 _atom_site_occupancy
  Bi  Bi0  1  0.33422200  0.33422200  0.00000000  1
  Pb  Pb1  1  0.65956800  0.65956800  0.00000000  1
  I  I2  1  0.99334700  0.99334700  0.00000000  1
  O  O3  1  0.75643100  0.25643100  0.50000000  1
  O  O4  1  0.25643100  0.75643100  0.50000000  1
