# generated using pymatgen
data_RbNb3(PO5)3
_symmetry_space_group_name_H-M   'P 1'
_cell_length_a   15.02458100
_cell_length_b   6.55845600
_cell_length_c   15.05646055
_cell_angle_alpha   64.24650963
_cell_angle_beta   90.00000000
_cell_angle_gamma   90.00000000
_symmetry_Int_Tables_number   1
_chemical_formula_structural   RbNb3(PO5)3
_chemical_formula_sum   'Rb4 Nb12 P12 O60'
_cell_volume   1336.26754605
_cell_formula_units_Z   4
loop_
 _symmetry_equiv_pos_site_id
 _symmetry_equiv_pos_as_xyz
  1  'x, y, z'
loop_
 _atom_site_type_symbol
 _atom_site_label
 _atom_site_symmetry_multiplicity
 _atom_site_fract_x
 _atom_site_fract_y
 _atom_site_fract_z
 _atom_site_occupancy
  Rb  Rb0  1  0.17312000  0.94617000  0.51018000  1
  Rb  Rb1  1  0.67312000  0.05383000  0.98982000  1
  Rb  Rb2  1  0.82688000  0.05383000  0.48982000  1
  Rb  Rb3  1  0.32688000  0.94617000  0.01018000  1
  Nb  Nb4  1  0.11280000  0.56167400  0.93779300  1
  Nb  Nb5  1  0.88720000  0.43832600  0.06220700  1
  Nb  Nb6  1  0.38720000  0.56167400  0.43779300  1
  Nb  Nb7  1  0.61280000  0.43832600  0.56220700  1
  Nb  Nb8  1  0.22568600  0.30783600  0.19115300  1
  Nb  Nb9  1  0.77431400  0.69216400  0.80884700  1
  Nb  Nb10  1  0.27431400  0.30783600  0.69115300  1
  Nb  Nb11  1  0.72568600  0.69216400  0.30884700  1
  Nb  Nb12  1  0.52437000  0.64194400  0.85859600  1
  Nb  Nb13  1  0.47563000  0.35805600  0.14140400  1
  Nb  Nb14  1  0.97563000  0.64194400  0.35859600  1
  Nb  Nb15  1  0.02437000  0.35805600  0.64140400  1
  P  P16  1  0.29675600  0.72872100  0.77111100  1
  P  P17  1  0.70324400  0.27127900  0.22888900  1
  P  P18  1  0.20324400  0.72872100  0.27111100  1
  P  P19  1  0.79675600  0.27127900  0.72888900  1
  P  P20  1  0.11939000  0.12651800  0.87346500  1
  P  P21  1  0.88061000  0.87348200  0.12653500  1
  P  P22  1  0.38061000  0.12651800  0.37346500  1
  P  P23  1  0.61939000  0.87348200  0.62653500  1
  P  P24  1  0.99456700  0.79212200  0.70785900  1
  P  P25  1  0.00543300  0.20787800  0.29214100  1
  P  P26  1  0.50543300  0.79212200  0.20785900  1
  P  P27  1  0.49456700  0.20787800  0.79214100  1
  O  O28  1  0.50000000  0.50000000  0.00000000  1
  O  O29  1  0.00000000  0.50000000  0.50000000  1
  O  O30  1  0.10545100  0.23121700  0.26865400  1
  O  O31  1  0.89454900  0.76878300  0.73134600  1
  O  O32  1  0.39454900  0.23121700  0.76865400  1
  O  O33  1  0.60545100  0.76878300  0.23134600  1
  O  O34  1  0.11281900  0.25048300  0.94016100  1
  O  O35  1  0.88696600  0.13057800  0.05980000  1
  O  O36  1  0.38696600  0.86942200  0.44020000  1
  O  O37  1  0.61281900  0.74951700  0.55983900  1
  O  O38  1  0.88718100  0.74951700  0.05983900  1
  O  O39  1  0.11303400  0.86942200  0.94020000  1
  O  O40  1  0.61303400  0.13057800  0.55980000  1
  O  O41  1  0.38718100  0.25048300  0.44016100  1
  O  O42  1  0.23318200  0.64042700  0.86007800  1
  O  O43  1  0.76681800  0.35957300  0.13992200  1
  O  O44  1  0.26681800  0.64042700  0.36007800  1
  O  O45  1  0.73318200  0.35957300  0.63992200  1
  O  O46  1  0.05244900  0.69945300  0.80057500  1
  O  O47  1  0.94755100  0.30054700  0.19942500  1
  O  O48  1  0.44755100  0.69945300  0.30057500  1
  O  O49  1  0.55244900  0.30054700  0.69942500  1
  O  O50  1  0.22096100  0.98438800  0.20382600  1
  O  O51  1  0.77895000  0.39205300  0.79629800  1
  O  O52  1  0.27895000  0.60794700  0.70370200  1
  O  O53  1  0.72096100  0.01561200  0.29617400  1
  O  O54  1  0.77903900  0.01561200  0.79617400  1
  O  O55  1  0.22105000  0.60794700  0.20370200  1
  O  O56  1  0.72105000  0.39205300  0.29629800  1
  O  O57  1  0.27903900  0.98438800  0.70382600  1
  O  O58  1  0.34774800  0.36594600  0.13497300  1
  O  O59  1  0.65225200  0.63405400  0.86502700  1
  O  O60  1  0.15225200  0.36594600  0.63497300  1
  O  O61  1  0.84774800  0.63405400  0.36502700  1
  O  O62  1  0.00000000  0.50000000  0.00000000  1
  O  O63  1  0.50000000  0.50000000  0.50000000  1
  O  O64  1  0.39222700  0.68893200  0.81133000  1
  O  O65  1  0.60777300  0.31106800  0.18867000  1
  O  O66  1  0.10777300  0.68893200  0.31133000  1
  O  O67  1  0.89222700  0.31106800  0.68867000  1
  O  O68  1  0.17538800  0.43731200  0.06321200  1
  O  O69  1  0.82461200  0.56268800  0.93678800  1
  O  O70  1  0.32461200  0.43731200  0.56321200  1
  O  O71  1  0.67538800  0.56268800  0.43678800  1
  O  O72  1  0.01793600  0.67145700  0.64190500  1
  O  O73  1  0.98222000  0.95548100  0.35821000  1
  O  O74  1  0.48222000  0.04451900  0.14179000  1
  O  O75  1  0.51793600  0.32854300  0.85809500  1
  O  O76  1  0.98206400  0.32854300  0.35809500  1
  O  O77  1  0.01778000  0.04451900  0.64179000  1
  O  O78  1  0.51778000  0.95548100  0.85821000  1
  O  O79  1  0.48206400  0.67145700  0.14190500  1
  O  O80  1  0.28555800  0.17046800  0.32942100  1
  O  O81  1  0.71444200  0.82953200  0.67057900  1
  O  O82  1  0.21444200  0.17046800  0.82942100  1
  O  O83  1  0.78555800  0.82953200  0.17057900  1
  O  O84  1  0.04567400  0.20422800  0.79572400  1
  O  O85  1  0.95432600  0.79577200  0.20427600  1
  O  O86  1  0.45432600  0.20422800  0.29572400  1
  O  O87  1  0.54567400  0.79577200  0.70427600  1
