# generated using pymatgen
data_SmNi3
_symmetry_space_group_name_H-M   'P 1'
_cell_length_a   8.69435032
_cell_length_b   8.69435032
_cell_length_c   8.69435023
_cell_angle_alpha   33.50227809
_cell_angle_beta   33.50227809
_cell_angle_gamma   33.50228048
_symmetry_Int_Tables_number   1
_chemical_formula_structural   SmNi3
_chemical_formula_sum   'Sm3 Ni9'
_cell_volume   178.33896682
_cell_formula_units_Z   3
loop_
 _symmetry_equiv_pos_site_id
 _symmetry_equiv_pos_as_xyz
  1  'x, y, z'
loop_
 _atom_site_type_symbol
 _atom_site_label
 _atom_site_symmetry_multiplicity
 _atom_site_fract_x
 _atom_site_fract_y
 _atom_site_fract_z
 _atom_site_occupancy
  Sm  Sm0  1  0.86108600  0.86108600  0.86108600  1
  Sm  Sm1  1  0.13891400  0.13891400  0.13891400  1
  Sm  Sm2  1  0.00000000  0.00000000  0.00000000  1
  Ni  Ni3  1  0.41922700  0.91779000  0.41922700  1
  Ni  Ni4  1  0.41922700  0.41922700  0.91779000  1
  Ni  Ni5  1  0.91779000  0.41922700  0.41922700  1
  Ni  Ni6  1  0.58077300  0.08221000  0.58077300  1
  Ni  Ni7  1  0.58077300  0.58077300  0.08221000  1
  Ni  Ni8  1  0.08221000  0.58077300  0.58077300  1
  Ni  Ni9  1  0.66706000  0.66706000  0.66706000  1
  Ni  Ni10  1  0.33294000  0.33294000  0.33294000  1
  Ni  Ni11  1  0.50000000  0.50000000  0.50000000  1
