# generated using pymatgen
data_NiGeH12(OF)6
_symmetry_space_group_name_H-M   'P 1'
_cell_length_a   6.50969498
_cell_length_b   6.50969462
_cell_length_c   6.50969490
_cell_angle_alpha   96.78709749
_cell_angle_beta   96.78709877
_cell_angle_gamma   96.78709597
_symmetry_Int_Tables_number   1
_chemical_formula_structural   NiGeH12(OF)6
_chemical_formula_sum   'Ni1 Ge1 H12 O6 F6'
_cell_volume   269.54909632
_cell_formula_units_Z   1
loop_
 _symmetry_equiv_pos_site_id
 _symmetry_equiv_pos_as_xyz
  1  'x, y, z'
loop_
 _atom_site_type_symbol
 _atom_site_label
 _atom_site_symmetry_multiplicity
 _atom_site_fract_x
 _atom_site_fract_y
 _atom_site_fract_z
 _atom_site_occupancy
  Ni  Ni0  1  0.00000000  0.00000000  0.00000000  1
  Ge  Ge1  1  0.50000000  0.50000000  0.50000000  1
  H  H2  1  0.05602100  0.20056700  0.39262900  1
  H  H3  1  0.18334300  0.81269300  0.69771100  1
  H  H4  1  0.18730700  0.30228900  0.81665700  1
  H  H5  1  0.20056700  0.39262900  0.05602100  1
  H  H6  1  0.30228900  0.81665700  0.18730700  1
  H  H7  1  0.39262900  0.05602100  0.20056700  1
  H  H8  1  0.60737100  0.94397900  0.79943300  1
  H  H9  1  0.69771100  0.18334300  0.81269300  1
  H  H10  1  0.79943300  0.60737100  0.94397900  1
  H  H11  1  0.81269300  0.69771100  0.18334300  1
  H  H12  1  0.81665700  0.18730700  0.30228900  1
  H  H13  1  0.94397900  0.79943300  0.60737100  1
  O  O14  1  0.05808100  0.88197800  0.70638400  1
  O  O15  1  0.11802200  0.29361600  0.94191900  1
  O  O16  1  0.29361600  0.94191900  0.11802200  1
  O  O17  1  0.70638400  0.05808100  0.88197800  1
  O  O18  1  0.88197800  0.70638400  0.05808100  1
  O  O19  1  0.94191900  0.11802200  0.29361600  1
  F  F20  1  0.26498200  0.34914500  0.56353000  1
  F  F21  1  0.34914500  0.56353000  0.26498200  1
  F  F22  1  0.43647000  0.73501800  0.65085500  1
  F  F23  1  0.56353000  0.26498200  0.34914500  1
  F  F24  1  0.65085500  0.43647000  0.73501800  1
  F  F25  1  0.73501800  0.65085500  0.43647000  1
