# generated using pymatgen
data_Er3Ga2
_symmetry_space_group_name_H-M   'P 1'
_cell_length_a   10.97886586
_cell_length_b   10.97886586
_cell_length_c   10.97886586
_cell_angle_alpha   116.76552467
_cell_angle_beta   116.76552467
_cell_angle_gamma   95.69997029
_symmetry_Int_Tables_number   1
_chemical_formula_structural   Er3Ga2
_chemical_formula_sum   'Er24 Ga16'
_cell_volume   976.26273035
_cell_formula_units_Z   8
loop_
 _symmetry_equiv_pos_site_id
 _symmetry_equiv_pos_as_xyz
  1  'x, y, z'
loop_
 _atom_site_type_symbol
 _atom_site_label
 _atom_site_symmetry_multiplicity
 _atom_site_fract_x
 _atom_site_fract_y
 _atom_site_fract_z
 _atom_site_occupancy
  Er  Er0  1  0.14781000  0.64781000  0.50000000  1
  Er  Er1  1  0.64781000  0.14781000  0.50000000  1
  Er  Er2  1  0.85219000  0.35219000  0.50000000  1
  Er  Er3  1  0.35219000  0.85219000  0.50000000  1
  Er  Er4  1  0.66840000  0.16840000  0.83679900  1
  Er  Er5  1  0.33160000  0.83160000  0.16320100  1
  Er  Er6  1  0.16840000  0.33160000  0.50000000  1
  Er  Er7  1  0.83160000  0.66840000  0.50000000  1
  Er  Er8  1  0.06854600  0.93340500  0.26973700  1
  Er  Er9  1  0.66366800  0.79880900  0.73026300  1
  Er  Er10  1  0.56854600  0.29880900  0.13514100  1
  Er  Er11  1  0.16366800  0.43340500  0.86485900  1
  Er  Er12  1  0.79880900  0.06854600  0.13514100  1
  Er  Er13  1  0.93340500  0.66366800  0.86485900  1
  Er  Er14  1  0.43340500  0.56854600  0.26973700  1
  Er  Er15  1  0.29880900  0.16366800  0.73026300  1
  Er  Er16  1  0.93145400  0.06659500  0.73026300  1
  Er  Er17  1  0.33633200  0.20119100  0.26973700  1
  Er  Er18  1  0.43145400  0.70119100  0.86485900  1
  Er  Er19  1  0.83633200  0.56659500  0.13514100  1
  Er  Er20  1  0.20119100  0.93145400  0.86485900  1
  Er  Er21  1  0.06659500  0.33633200  0.13514100  1
  Er  Er22  1  0.56659500  0.43145400  0.73026300  1
  Er  Er23  1  0.70119100  0.83633200  0.26973700  1
  Ga  Ga24  1  0.75000000  0.75000000  0.00000000  1
  Ga  Ga25  1  0.25000000  0.25000000  0.00000000  1
  Ga  Ga26  1  0.00000000  0.00000000  0.00000000  1
  Ga  Ga27  1  0.50000000  0.50000000  0.00000000  1
  Ga  Ga28  1  0.11565200  0.61565200  0.73130500  1
  Ga  Ga29  1  0.88434800  0.38434800  0.26869500  1
  Ga  Ga30  1  0.61565200  0.88434800  0.50000000  1
  Ga  Ga31  1  0.38434800  0.11565200  0.50000000  1
  Ga  Ga32  1  0.87963800  0.37963800  0.85523700  1
  Ga  Ga33  1  0.52440100  0.02440100  0.14476300  1
  Ga  Ga34  1  0.37963800  0.52440100  0.50000000  1
  Ga  Ga35  1  0.02440100  0.87963800  0.50000000  1
  Ga  Ga36  1  0.12036200  0.62036200  0.14476300  1
  Ga  Ga37  1  0.47559900  0.97559900  0.85523700  1
  Ga  Ga38  1  0.62036200  0.47559900  0.50000000  1
  Ga  Ga39  1  0.97559900  0.12036200  0.50000000  1
