# generated using pymatgen
data_Tm2CdCu2
_symmetry_space_group_name_H-M   'P 1'
_cell_length_a   3.58778600
_cell_length_b   7.49834500
_cell_length_c   7.49834500
_cell_angle_alpha   90.00000000
_cell_angle_beta   90.00000000
_cell_angle_gamma   90.00000000
_symmetry_Int_Tables_number   1
_chemical_formula_structural   Tm2CdCu2
_chemical_formula_sum   'Tm4 Cd2 Cu4'
_cell_volume   201.72390554
_cell_formula_units_Z   2
loop_
 _symmetry_equiv_pos_site_id
 _symmetry_equiv_pos_as_xyz
  1  'x, y, z'
loop_
 _atom_site_type_symbol
 _atom_site_label
 _atom_site_symmetry_multiplicity
 _atom_site_fract_x
 _atom_site_fract_y
 _atom_site_fract_z
 _atom_site_occupancy
  Tm  Tm0  1  0.50000000  0.17576200  0.67576200  1
  Tm  Tm1  1  0.50000000  0.82423800  0.32423800  1
  Tm  Tm2  1  0.50000000  0.32423800  0.17576200  1
  Tm  Tm3  1  0.50000000  0.67576200  0.82423800  1
  Cd  Cd4  1  0.00000000  0.00000000  0.00000000  1
  Cd  Cd5  1  0.00000000  0.50000000  0.50000000  1
  Cu  Cu6  1  0.00000000  0.61746500  0.11746500  1
  Cu  Cu7  1  0.00000000  0.38253500  0.88253500  1
  Cu  Cu8  1  0.00000000  0.88253500  0.61746500  1
  Cu  Cu9  1  0.00000000  0.11746500  0.38253500  1
