# generated using pymatgen
data_EuAgSn
_symmetry_space_group_name_H-M   'P 1'
_cell_length_a   6.23729351
_cell_length_b   6.23729351
_cell_length_c   7.81271448
_cell_angle_alpha   51.72257643
_cell_angle_beta   51.72257643
_cell_angle_gamma   46.36229827
_symmetry_Int_Tables_number   1
_chemical_formula_structural   EuAgSn
_chemical_formula_sum   'Eu2 Ag2 Sn2'
_cell_volume   162.52386076
_cell_formula_units_Z   2
loop_
 _symmetry_equiv_pos_site_id
 _symmetry_equiv_pos_as_xyz
  1  'x, y, z'
loop_
 _atom_site_type_symbol
 _atom_site_label
 _atom_site_symmetry_multiplicity
 _atom_site_fract_x
 _atom_site_fract_y
 _atom_site_fract_z
 _atom_site_occupancy
  Eu  Eu0  1  0.53549400  0.53549400  0.71134700  1
  Eu  Eu1  1  0.46450600  0.46450600  0.28865300  1
  Ag  Ag2  1  0.16466500  0.16466500  0.28892200  1
  Ag  Ag3  1  0.83533500  0.83533500  0.71107800  1
  Sn  Sn4  1  0.83314800  0.83314800  0.11874900  1
  Sn  Sn5  1  0.16685200  0.16685200  0.88125100  1
