# generated using pymatgen
data_BaLa(SbSe3)2
_symmetry_space_group_name_H-M   'P 1'
_cell_length_a   15.46137000
_cell_length_b   4.43027300
_cell_length_c   17.10164472
_cell_angle_alpha   87.19043483
_cell_angle_beta   90.00000000
_cell_angle_gamma   90.00000000
_symmetry_Int_Tables_number   1
_chemical_formula_structural   BaLa(SbSe3)2
_chemical_formula_sum   'Ba4 La4 Sb8 Se24'
_cell_volume   1170.02190404
_cell_formula_units_Z   4
loop_
 _symmetry_equiv_pos_site_id
 _symmetry_equiv_pos_as_xyz
  1  'x, y, z'
loop_
 _atom_site_type_symbol
 _atom_site_label
 _atom_site_symmetry_multiplicity
 _atom_site_fract_x
 _atom_site_fract_y
 _atom_site_fract_z
 _atom_site_occupancy
  Ba  Ba0  1  0.29065200  0.73860000  0.67223800  1
  Ba  Ba1  1  0.79065200  0.26140000  0.82776200  1
  Ba  Ba2  1  0.70934800  0.26140000  0.32776200  1
  Ba  Ba3  1  0.20934800  0.73860000  0.17223800  1
  La  La4  1  0.12692600  0.70620100  0.90698500  1
  La  La5  1  0.62692600  0.29379900  0.59301500  1
  La  La6  1  0.87307400  0.29379900  0.09301500  1
  La  La7  1  0.37307400  0.70620100  0.40698500  1
  Sb  Sb8  1  0.36952200  0.29633000  0.97349600  1
  Sb  Sb9  1  0.86952200  0.70367000  0.52650400  1
  Sb  Sb10  1  0.63047800  0.70367000  0.02650400  1
  Sb  Sb11  1  0.13047800  0.29633000  0.47349600  1
  Sb  Sb12  1  0.02705600  0.26923600  0.69671000  1
  Sb  Sb13  1  0.52705600  0.73076400  0.80329000  1
  Sb  Sb14  1  0.97294400  0.73076400  0.30329000  1
  Sb  Sb15  1  0.47294400  0.26923600  0.19671000  1
  Se  Se16  1  0.98724200  0.17440800  0.94151400  1
  Se  Se17  1  0.48724200  0.82559200  0.55848600  1
  Se  Se18  1  0.01275800  0.82559200  0.05848600  1
  Se  Se19  1  0.51275800  0.17440800  0.44151400  1
  Se  Se20  1  0.32865500  0.75074300  0.87248700  1
  Se  Se21  1  0.82865500  0.24925700  0.62751300  1
  Se  Se22  1  0.67134500  0.24925700  0.12751300  1
  Se  Se23  1  0.17134500  0.75074300  0.37248700  1
  Se  Se24  1  0.20714800  0.23268800  0.02174700  1
  Se  Se25  1  0.70714800  0.76731200  0.47825300  1
  Se  Se26  1  0.79285200  0.76731200  0.97825300  1
  Se  Se27  1  0.29285200  0.23268800  0.52174700  1
  Se  Se28  1  0.58713200  0.30096800  0.91072400  1
  Se  Se29  1  0.08713200  0.69903200  0.58927600  1
  Se  Se30  1  0.41286800  0.69903200  0.08927600  1
  Se  Se31  1  0.91286800  0.30096800  0.41072400  1
  Se  Se32  1  0.17421800  0.22177500  0.77983500  1
  Se  Se33  1  0.67421800  0.77822500  0.72016500  1
  Se  Se34  1  0.82578200  0.77822500  0.22016500  1
  Se  Se35  1  0.32578200  0.22177500  0.27983500  1
  Se  Se36  1  0.96800000  0.67155900  0.79534600  1
  Se  Se37  1  0.46800000  0.32844100  0.70465400  1
  Se  Se38  1  0.03200000  0.32844100  0.20465400  1
  Se  Se39  1  0.53200000  0.67155900  0.29534600  1
