# generated using pymatgen
data_RbHo2Cl7
_symmetry_space_group_name_H-M   'P 1'
_cell_length_a   6.98844900
_cell_length_b   12.65622100
_cell_length_c   13.42490900
_cell_angle_alpha   90.00000000
_cell_angle_beta   90.00000000
_cell_angle_gamma   90.00000000
_symmetry_Int_Tables_number   1
_chemical_formula_structural   RbHo2Cl7
_chemical_formula_sum   'Rb4 Ho8 Cl28'
_cell_volume   1187.39769205
_cell_formula_units_Z   4
loop_
 _symmetry_equiv_pos_site_id
 _symmetry_equiv_pos_as_xyz
  1  'x, y, z'
loop_
 _atom_site_type_symbol
 _atom_site_label
 _atom_site_symmetry_multiplicity
 _atom_site_fract_x
 _atom_site_fract_y
 _atom_site_fract_z
 _atom_site_occupancy
  Rb  Rb0  1  0.25000000  0.80429500  0.04154500  1
  Rb  Rb1  1  0.75000000  0.19570500  0.95845500  1
  Rb  Rb2  1  0.75000000  0.30429500  0.45845500  1
  Rb  Rb3  1  0.25000000  0.69570500  0.54154500  1
  Ho  Ho4  1  0.25000000  0.46016600  0.23707900  1
  Ho  Ho5  1  0.75000000  0.53983400  0.76292100  1
  Ho  Ho6  1  0.75000000  0.96016600  0.26292100  1
  Ho  Ho7  1  0.25000000  0.03983400  0.73707900  1
  Ho  Ho8  1  0.25000000  0.15725300  0.24990200  1
  Ho  Ho9  1  0.75000000  0.84274700  0.75009800  1
  Ho  Ho10  1  0.75000000  0.65725300  0.25009800  1
  Ho  Ho11  1  0.25000000  0.34274700  0.74990200  1
  Cl  Cl12  1  0.01092800  0.30680500  0.17540600  1
  Cl  Cl13  1  0.98907200  0.69319500  0.82459400  1
  Cl  Cl14  1  0.98907200  0.80680500  0.32459400  1
  Cl  Cl15  1  0.51092800  0.69319500  0.82459400  1
  Cl  Cl16  1  0.01092800  0.19319500  0.67540600  1
  Cl  Cl17  1  0.48907200  0.30680500  0.17540600  1
  Cl  Cl18  1  0.48907200  0.19319500  0.67540600  1
  Cl  Cl19  1  0.51092800  0.80680500  0.32459400  1
  Cl  Cl20  1  0.01045400  0.57761200  0.12254900  1
  Cl  Cl21  1  0.98954600  0.42238800  0.87745100  1
  Cl  Cl22  1  0.98954600  0.07761200  0.37745100  1
  Cl  Cl23  1  0.51045400  0.42238800  0.87745100  1
  Cl  Cl24  1  0.01045400  0.92238800  0.62254900  1
  Cl  Cl25  1  0.48954600  0.57761200  0.12254900  1
  Cl  Cl26  1  0.48954600  0.92238800  0.62254900  1
  Cl  Cl27  1  0.51045400  0.07761200  0.37745100  1
  Cl  Cl28  1  0.00953900  0.03974900  0.13389600  1
  Cl  Cl29  1  0.99046100  0.96025100  0.86610400  1
  Cl  Cl30  1  0.99046100  0.53974900  0.36610400  1
  Cl  Cl31  1  0.50953900  0.96025100  0.86610400  1
  Cl  Cl32  1  0.00953900  0.46025100  0.63389600  1
  Cl  Cl33  1  0.49046100  0.03974900  0.13389600  1
  Cl  Cl34  1  0.49046100  0.46025100  0.63389600  1
  Cl  Cl35  1  0.50953900  0.53974900  0.36610400  1
  Cl  Cl36  1  0.25000000  0.31181200  0.39060100  1
  Cl  Cl37  1  0.75000000  0.68818800  0.60939900  1
  Cl  Cl38  1  0.75000000  0.81181200  0.10939900  1
  Cl  Cl39  1  0.25000000  0.18818800  0.89060100  1
