# generated using pymatgen
data_ErUTe6
_symmetry_space_group_name_H-M   'P 1'
_cell_length_a   13.11725556
_cell_length_b   13.11725556
_cell_length_c   4.35533300
_cell_angle_alpha   90.00000000
_cell_angle_beta   90.00000000
_cell_angle_gamma   160.85565873
_symmetry_Int_Tables_number   1
_chemical_formula_structural   ErUTe6
_chemical_formula_sum   'Er1 U1 Te6'
_cell_volume   245.76145330
_cell_formula_units_Z   1
loop_
 _symmetry_equiv_pos_site_id
 _symmetry_equiv_pos_as_xyz
  1  'x, y, z'
loop_
 _atom_site_type_symbol
 _atom_site_label
 _atom_site_symmetry_multiplicity
 _atom_site_fract_x
 _atom_site_fract_y
 _atom_site_fract_z
 _atom_site_occupancy
  Er  Er0  1  0.83075300  0.16924700  0.50000000  1
  U  U1  1  0.16895600  0.83104400  0.00000000  1
  Te  Te2  1  0.57653300  0.42346700  0.00000000  1
  Te  Te3  1  0.42379700  0.57620300  0.50000000  1
  Te  Te4  1  0.29347500  0.70652500  0.00000000  1
  Te  Te5  1  0.70587900  0.29412100  0.50000000  1
  Te  Te6  1  0.92404800  0.07595200  0.00000000  1
  Te  Te7  1  0.07655800  0.92344200  0.50000000  1
