# generated using pymatgen
data_CeSi3Pt
_symmetry_space_group_name_H-M   'P 1'
_cell_length_a   5.67839313
_cell_length_b   5.67839313
_cell_length_c   5.67839313
_cell_angle_alpha   135.30652719
_cell_angle_beta   135.30652719
_cell_angle_gamma   65.05429686
_symmetry_Int_Tables_number   1
_chemical_formula_structural   CeSi3Pt
_chemical_formula_sum   'Ce1 Si3 Pt1'
_cell_volume   89.26539397
_cell_formula_units_Z   1
loop_
 _symmetry_equiv_pos_site_id
 _symmetry_equiv_pos_as_xyz
  1  'x, y, z'
loop_
 _atom_site_type_symbol
 _atom_site_label
 _atom_site_symmetry_multiplicity
 _atom_site_fract_x
 _atom_site_fract_y
 _atom_site_fract_z
 _atom_site_occupancy
  Ce  Ce0  1  0.60045700  0.60045700  0.00000000  1
  Si  Si1  1  0.86480200  0.36480200  0.50000000  1
  Si  Si2  1  0.36480200  0.86480200  0.50000000  1
  Si  Si3  1  0.99927700  0.99927700  0.00000000  1
  Pt  Pt4  1  0.25076100  0.25076100  0.00000000  1
