# generated using pymatgen
data_Sr2Ge2Se5
_symmetry_space_group_name_H-M   'P 1'
_cell_length_a   12.46774500
_cell_length_b   8.60553000
_cell_length_c   12.24798937
_cell_angle_alpha   49.43061813
_cell_angle_beta   90.00000000
_cell_angle_gamma   90.00000000
_symmetry_Int_Tables_number   1
_chemical_formula_structural   Sr2Ge2Se5
_chemical_formula_sum   'Sr8 Ge8 Se20'
_cell_volume   998.21969312
_cell_formula_units_Z   4
loop_
 _symmetry_equiv_pos_site_id
 _symmetry_equiv_pos_as_xyz
  1  'x, y, z'
loop_
 _atom_site_type_symbol
 _atom_site_label
 _atom_site_symmetry_multiplicity
 _atom_site_fract_x
 _atom_site_fract_y
 _atom_site_fract_z
 _atom_site_occupancy
  Sr  Sr0  1  0.19872800  0.53524500  0.52404000  1
  Sr  Sr1  1  0.69872800  0.46475500  0.97596000  1
  Sr  Sr2  1  0.80127200  0.46475500  0.47596000  1
  Sr  Sr3  1  0.30127200  0.53524500  0.02404000  1
  Sr  Sr4  1  0.33795300  0.01164200  0.53289000  1
  Sr  Sr5  1  0.83795300  0.98835800  0.96711000  1
  Sr  Sr6  1  0.66204700  0.98835800  0.46711000  1
  Sr  Sr7  1  0.16204700  0.01164200  0.03289000  1
  Ge  Ge8  1  0.98091100  0.51536900  0.18740400  1
  Ge  Ge9  1  0.01908900  0.48463100  0.81259600  1
  Ge  Ge10  1  0.51908900  0.51536900  0.68740400  1
  Ge  Ge11  1  0.48091100  0.48463100  0.31259600  1
  Ge  Ge12  1  0.44970700  0.15868000  0.83601400  1
  Ge  Ge13  1  0.94970700  0.84132000  0.66398600  1
  Ge  Ge14  1  0.55029300  0.84132000  0.16398600  1
  Ge  Ge15  1  0.05029300  0.15868000  0.33601400  1
  Se  Se16  1  0.40959200  0.09674000  0.06016500  1
  Se  Se17  1  0.90959200  0.90326000  0.43983500  1
  Se  Se18  1  0.59040800  0.90326000  0.93983500  1
  Se  Se19  1  0.09040800  0.09674000  0.56016500  1
  Se  Se20  1  0.20561600  0.06274100  0.28033400  1
  Se  Se21  1  0.29438400  0.06274100  0.78033400  1
  Se  Se22  1  0.70561600  0.93725900  0.21966600  1
  Se  Se23  1  0.79438400  0.93725900  0.71966600  1
  Se  Se24  1  0.44163400  0.74937400  0.45729200  1
  Se  Se25  1  0.94163400  0.25062600  0.04270800  1
  Se  Se26  1  0.55836600  0.25062600  0.54270800  1
  Se  Se27  1  0.05836600  0.74937400  0.95729200  1
  Se  Se28  1  0.50895600  0.32554900  0.21165400  1
  Se  Se29  1  0.00895600  0.67445100  0.28834600  1
  Se  Se30  1  0.49104400  0.67445100  0.78834600  1
  Se  Se31  1  0.99104400  0.32554900  0.71165400  1
  Se  Se32  1  0.21190300  0.51508300  0.79690600  1
  Se  Se33  1  0.71190300  0.48491700  0.70309400  1
  Se  Se34  1  0.78809700  0.48491700  0.20309400  1
  Se  Se35  1  0.28809700  0.51508300  0.29690600  1
