# generated using pymatgen
data_K8Zr6BeBr20
_symmetry_space_group_name_H-M   'P 1'
_cell_length_a   11.74991560
_cell_length_b   11.74991560
_cell_length_c   11.74991560
_cell_angle_alpha   60.00000000
_cell_angle_beta   60.00000000
_cell_angle_gamma   60.00000000
_symmetry_Int_Tables_number   1
_chemical_formula_structural   K8Zr6BeBr20
_chemical_formula_sum   'K8 Zr6 Be1 Br20'
_cell_volume   1147.06820914
_cell_formula_units_Z   1
loop_
 _symmetry_equiv_pos_site_id
 _symmetry_equiv_pos_as_xyz
  1  'x, y, z'
loop_
 _atom_site_type_symbol
 _atom_site_label
 _atom_site_symmetry_multiplicity
 _atom_site_fract_x
 _atom_site_fract_y
 _atom_site_fract_z
 _atom_site_occupancy
  K  K0  1  0.35950600  0.35950600  0.35950600  1
  K  K1  1  0.64049400  0.64049400  0.64049400  1
  K  K2  1  0.35950600  0.35950600  0.92148100  1
  K  K3  1  0.35950600  0.92148100  0.35950600  1
  K  K4  1  0.64049400  0.64049400  0.07851900  1
  K  K5  1  0.64049400  0.07851900  0.64049400  1
  K  K6  1  0.92148100  0.35950600  0.35950600  1
  K  K7  1  0.07851900  0.64049400  0.64049400  1
  Zr  Zr8  1  0.85551000  0.14449000  0.14449000  1
  Zr  Zr9  1  0.14449000  0.85551000  0.85551000  1
  Zr  Zr10  1  0.14449000  0.85551000  0.14449000  1
  Zr  Zr11  1  0.85551000  0.14449000  0.85551000  1
  Zr  Zr12  1  0.14449000  0.14449000  0.85551000  1
  Zr  Zr13  1  0.85551000  0.85551000  0.14449000  1
  Be  Be14  1  0.00000000  0.00000000  0.00000000  1
  Br  Br15  1  0.32913200  0.00000000  0.00000000  1
  Br  Br16  1  0.67086800  0.00000000  0.00000000  1
  Br  Br17  1  0.00000000  0.32913200  0.67086800  1
  Br  Br18  1  0.00000000  0.67086800  0.32913200  1
  Br  Br19  1  0.00000000  0.32913200  0.00000000  1
  Br  Br20  1  0.67086800  0.00000000  0.32913200  1
  Br  Br21  1  0.00000000  0.67086800  0.00000000  1
  Br  Br22  1  0.32913200  0.00000000  0.67086800  1
  Br  Br23  1  0.00000000  0.00000000  0.32913200  1
  Br  Br24  1  0.00000000  0.00000000  0.67086800  1
  Br  Br25  1  0.67086800  0.32913200  0.00000000  1
  Br  Br26  1  0.32913200  0.67086800  0.00000000  1
  Br  Br27  1  0.68190100  0.31809900  0.31809900  1
  Br  Br28  1  0.31809900  0.68190100  0.68190100  1
  Br  Br29  1  0.31809900  0.68190100  0.31809900  1
  Br  Br30  1  0.68190100  0.31809900  0.68190100  1
  Br  Br31  1  0.31809900  0.31809900  0.68190100  1
  Br  Br32  1  0.68190100  0.68190100  0.31809900  1
  Br  Br33  1  0.25000000  0.25000000  0.25000000  1
  Br  Br34  1  0.75000000  0.75000000  0.75000000  1
