# generated using pymatgen
data_Mg2H32Ru2Cl10O17
_symmetry_space_group_name_H-M   'P 1'
_cell_length_a   16.59874800
_cell_length_b   8.44331800
_cell_length_c   10.70619193
_cell_angle_alpha   83.47263879
_cell_angle_beta   90.00000000
_cell_angle_gamma   90.00000000
_symmetry_Int_Tables_number   1
_chemical_formula_structural   Mg2H32Ru2Cl10O17
_chemical_formula_sum   'Mg4 H64 Ru4 Cl20 O34'
_cell_volume   1490.73038607
_cell_formula_units_Z   2
loop_
 _symmetry_equiv_pos_site_id
 _symmetry_equiv_pos_as_xyz
  1  'x, y, z'
loop_
 _atom_site_type_symbol
 _atom_site_label
 _atom_site_symmetry_multiplicity
 _atom_site_fract_x
 _atom_site_fract_y
 _atom_site_fract_z
 _atom_site_occupancy
  Mg  Mg0  1  0.18889400  0.99100700  0.25543500  1
  Mg  Mg1  1  0.68889400  0.00899300  0.24456500  1
  Mg  Mg2  1  0.81110600  0.00899300  0.74456500  1
  Mg  Mg3  1  0.31110600  0.99100700  0.75543500  1
  H  H4  1  0.34296500  0.91341300  0.20986200  1
  H  H5  1  0.84296500  0.08658700  0.29013800  1
  H  H6  1  0.65703500  0.08658700  0.79013800  1
  H  H7  1  0.15703500  0.91341300  0.70986200  1
  H  H8  1  0.32346200  0.07437200  0.12015800  1
  H  H9  1  0.82346200  0.92562800  0.37984200  1
  H  H10  1  0.67653800  0.92562800  0.87984200  1
  H  H11  1  0.17653800  0.07437200  0.62015800  1
  H  H12  1  0.25377200  0.73906500  0.42307900  1
  H  H13  1  0.75377200  0.26093500  0.07692100  1
  H  H14  1  0.74622800  0.26093500  0.57692100  1
  H  H15  1  0.24622800  0.73906500  0.92307900  1
  H  H16  1  0.22128200  0.87552900  0.49830700  1
  H  H17  1  0.72128200  0.12447100  0.00169300  1
  H  H18  1  0.77871800  0.12447100  0.50169300  1
  H  H19  1  0.27871800  0.87552900  0.99830700  1
  H  H20  1  0.09936500  0.79675700  0.11372200  1
  H  H21  1  0.59936500  0.20324300  0.38627800  1
  H  H22  1  0.90063500  0.20324300  0.88627800  1
  H  H23  1  0.40063500  0.79675700  0.61372200  1
  H  H24  1  0.15772800  0.68246700  0.19168800  1
  H  H25  1  0.65772800  0.31753300  0.30831200  1
  H  H26  1  0.84227200  0.31753300  0.80831200  1
  H  H27  1  0.34227200  0.68246700  0.69168800  1
  H  H28  1  0.05299900  0.91852000  0.38300700  1
  H  H29  1  0.55299900  0.08148000  0.11699300  1
  H  H30  1  0.94700100  0.08148000  0.61699300  1
  H  H31  1  0.44700100  0.91852000  0.88300700  1
  H  H32  1  0.03694800  0.07899200  0.29124500  1
  H  H33  1  0.53694800  0.92100800  0.20875500  1
  H  H34  1  0.96305200  0.92100800  0.70875500  1
  H  H35  1  0.46305200  0.07899200  0.79124500  1
  H  H36  1  0.11140200  0.13239500  0.03168300  1
  H  H37  1  0.61140200  0.86760500  0.46831700  1
  H  H38  1  0.88859800  0.86760500  0.96831700  1
  H  H39  1  0.38859800  0.13239500  0.53168300  1
  H  H40  1  0.15592100  0.25848300  0.10020100  1
  H  H41  1  0.65592100  0.74151700  0.39979900  1
  H  H42  1  0.84407900  0.74151700  0.89979900  1
  H  H43  1  0.34407900  0.25848300  0.60020100  1
  H  H44  1  0.28972600  0.21882600  0.33672100  1
  H  H45  1  0.78972600  0.78117400  0.16327900  1
  H  H46  1  0.71027400  0.78117400  0.66327900  1
  H  H47  1  0.21027400  0.21882600  0.83672100  1
  H  H48  1  0.20360700  0.23051200  0.40002400  1
  H  H49  1  0.70360700  0.76948800  0.09997600  1
  H  H50  1  0.79639300  0.76948800  0.59997600  1
  H  H51  1  0.29639300  0.23051200  0.90002400  1
  H  H52  1  0.41200000  0.24884800  0.02950000  1
  H  H53  1  0.91200000  0.75115200  0.47050000  1
  H  H54  1  0.58800000  0.75115200  0.97050000  1
  H  H55  1  0.08800000  0.24884800  0.52950000  1
  H  H56  1  0.34077500  0.33843400  0.08518500  1
  H  H57  1  0.84077500  0.66156600  0.41481500  1
  H  H58  1  0.65922500  0.66156600  0.91481500  1
  H  H59  1  0.15922500  0.33843400  0.58518500  1
  H  H60  1  0.54759500  0.30589400  0.97053500  1
  H  H61  1  0.04759500  0.69410600  0.52946500  1
  H  H62  1  0.45240500  0.69410600  0.02946500  1
  H  H63  1  0.95240500  0.30589400  0.47053500  1
  H  H64  1  0.52967000  0.34406800  0.10741100  1
  H  H65  1  0.02967000  0.65593200  0.39258900  1
  H  H66  1  0.47033000  0.65593200  0.89258900  1
  H  H67  1  0.97033000  0.34406800  0.60741100  1
  Ru  Ru68  1  0.44000300  0.52872400  0.36021400  1
  Ru  Ru69  1  0.94000300  0.47127600  0.13978600  1
  Ru  Ru70  1  0.55999700  0.47127600  0.63978600  1
  Ru  Ru71  1  0.05999700  0.52872400  0.86021400  1
  Cl  Cl72  1  0.55473000  0.54596300  0.22493500  1
  Cl  Cl73  1  0.05473000  0.45403700  0.27506500  1
  Cl  Cl74  1  0.44527000  0.45403700  0.77506500  1
  Cl  Cl75  1  0.94527000  0.54596300  0.72493500  1
  Cl  Cl76  1  0.43244500  0.24928500  0.34058000  1
  Cl  Cl77  1  0.93244500  0.75071500  0.15942000  1
  Cl  Cl78  1  0.56755500  0.75071500  0.65942000  1
  Cl  Cl79  1  0.06755500  0.24928500  0.84058000  1
  Cl  Cl80  1  0.43909100  0.81474100  0.35744600  1
  Cl  Cl81  1  0.93909100  0.18525900  0.14255400  1
  Cl  Cl82  1  0.56090900  0.18525900  0.64255400  1
  Cl  Cl83  1  0.06090900  0.81474100  0.85744600  1
  Cl  Cl84  1  0.35927200  0.57237800  0.17715800  1
  Cl  Cl85  1  0.85927200  0.42762200  0.32284200  1
  Cl  Cl86  1  0.64072800  0.42762200  0.82284200  1
  Cl  Cl87  1  0.14072800  0.57237800  0.67715800  1
  Cl  Cl88  1  0.31590500  0.51067600  0.47682100  1
  Cl  Cl89  1  0.81590500  0.48932400  0.02317900  1
  Cl  Cl90  1  0.68409500  0.48932400  0.52317900  1
  Cl  Cl91  1  0.18409500  0.51067600  0.97682100  1
  O  O92  1  0.30014500  0.96958500  0.15875600  1
  O  O93  1  0.80014500  0.03041500  0.34124400  1
  O  O94  1  0.69985500  0.03041500  0.84124400  1
  O  O95  1  0.19985500  0.96958500  0.65875600  1
  O  O96  1  0.22279500  0.83935300  0.41396700  1
  O  O97  1  0.72279500  0.16064700  0.08603300  1
  O  O98  1  0.77720500  0.16064700  0.58603300  1
  O  O99  1  0.27720500  0.83935300  0.91396700  1
  O  O100  1  0.14724500  0.79557500  0.16686200  1
  O  O101  1  0.64724500  0.20442500  0.33313800  1
  O  O102  1  0.85275500  0.20442500  0.83313800  1
  O  O103  1  0.35275500  0.79557500  0.66686200  1
  O  O104  1  0.07804800  0.01931900  0.34318200  1
  O  O105  1  0.57804800  0.98068100  0.15681800  1
  O  O106  1  0.92195200  0.98068100  0.65681800  1
  O  O107  1  0.42195200  0.01931900  0.84318200  1
  O  O108  1  0.14846100  0.14293800  0.10151600  1
  O  O109  1  0.64846100  0.85706200  0.39848400  1
  O  O110  1  0.85153900  0.85706200  0.89848400  1
  O  O111  1  0.35153900  0.14293800  0.60151600  1
  O  O112  1  0.23264100  0.19344400  0.32723900  1
  O  O113  1  0.73264100  0.80655600  0.17276100  1
  O  O114  1  0.76735900  0.80655600  0.67276100  1
  O  O115  1  0.26735900  0.19344400  0.82723900  1
  O  O116  1  0.35228600  0.24582000  0.04007200  1
  O  O117  1  0.85228600  0.75418000  0.45992800  1
  O  O118  1  0.64771400  0.75418000  0.95992800  1
  O  O119  1  0.14771400  0.24582000  0.54007200  1
  O  O120  1  0.51904300  0.26473500  0.04814500  1
  O  O121  1  0.01904300  0.73526500  0.45185500  1
  O  O122  1  0.48095700  0.73526500  0.95185500  1
  O  O123  1  0.98095700  0.26473500  0.54814500  1
  O  O124  1  0.50000000  0.50000000  0.50000000  1
  O  O125  1  0.00000000  0.50000000  0.00000000  1
