# generated using pymatgen
data_Np
_symmetry_space_group_name_H-M   'P 1'
_cell_length_a   4.66657300
_cell_length_b   4.79610700
_cell_length_c   6.58657100
_cell_angle_alpha   90.00000000
_cell_angle_beta   90.00000000
_cell_angle_gamma   90.00000000
_symmetry_Int_Tables_number   1
_chemical_formula_structural   Np
_chemical_formula_sum   Np8
_cell_volume   147.41657105
_cell_formula_units_Z   8
loop_
 _symmetry_equiv_pos_site_id
 _symmetry_equiv_pos_as_xyz
  1  'x, y, z'
loop_
 _atom_site_type_symbol
 _atom_site_label
 _atom_site_symmetry_multiplicity
 _atom_site_fract_x
 _atom_site_fract_y
 _atom_site_fract_z
 _atom_site_occupancy
  Np  Np0  1  0.25000000  0.21779800  0.04481600  1
  Np  Np1  1  0.75000000  0.78220200  0.95518400  1
  Np  Np2  1  0.75000000  0.71779800  0.45518400  1
  Np  Np3  1  0.25000000  0.28220200  0.54481600  1
  Np  Np4  1  0.25000000  0.86006900  0.31800900  1
  Np  Np5  1  0.75000000  0.13993100  0.68199100  1
  Np  Np6  1  0.75000000  0.36006900  0.18199100  1
  Np  Np7  1  0.25000000  0.63993100  0.81800900  1
