# generated using pymatgen
data_MnO2
_symmetry_space_group_name_H-M   'P 1'
_cell_length_a   2.92510505
_cell_length_b   7.16540627
_cell_length_c   7.16410455
_cell_angle_alpha   87.57482287
_cell_angle_beta   78.24361042
_cell_angle_gamma   78.25127452
_symmetry_Int_Tables_number   1
_chemical_formula_structural   MnO2
_chemical_formula_sum   'Mn4 O8'
_cell_volume   143.92681012
_cell_formula_units_Z   4
loop_
 _symmetry_equiv_pos_site_id
 _symmetry_equiv_pos_as_xyz
  1  'x, y, z'
loop_
 _atom_site_type_symbol
 _atom_site_label
 _atom_site_symmetry_multiplicity
 _atom_site_fract_x
 _atom_site_fract_y
 _atom_site_fract_z
 _atom_site_occupancy
  Mn  Mn0  1  0.65172000  0.18310400  0.51669700  1
  Mn  Mn1  1  0.16706000  0.48647000  0.18332200  1
  Mn  Mn2  1  0.83409900  0.51632700  0.81977300  1
  Mn  Mn3  1  0.34942000  0.81968200  0.48609300  1
  O  O4  1  0.83605100  0.70925900  0.62356700  1
  O  O5  1  0.45753100  0.37852200  0.71010900  1
  O  O6  1  0.54363200  0.62395900  0.29333300  1
  O  O7  1  0.16429300  0.29433000  0.38007700  1
  O  O8  1  0.15664700  0.04946900  0.64082000  1
  O  O9  1  0.79547100  0.36193400  0.05023300  1
  O  O10  1  0.84460100  0.95326400  0.36162400  1
  O  O11  1  0.20565500  0.64084100  0.95301200  1
