# generated using pymatgen
data_Tm3(CuSi)4
_symmetry_space_group_name_H-M   'P 1'
_cell_length_a   7.77399020
_cell_length_b   7.77399020
_cell_length_c   7.77399020
_cell_angle_alpha   149.50175829
_cell_angle_beta   130.65487501
_cell_angle_gamma   59.12639891
_symmetry_Int_Tables_number   1
_chemical_formula_structural   Tm3(CuSi)4
_chemical_formula_sum   'Tm3 Cu4 Si4'
_cell_volume   179.46753739
_cell_formula_units_Z   1
loop_
 _symmetry_equiv_pos_site_id
 _symmetry_equiv_pos_as_xyz
  1  'x, y, z'
loop_
 _atom_site_type_symbol
 _atom_site_label
 _atom_site_symmetry_multiplicity
 _atom_site_fract_x
 _atom_site_fract_y
 _atom_site_fract_z
 _atom_site_occupancy
  Tm  Tm0  1  0.37127900  0.87127900  0.50000000  1
  Tm  Tm1  1  0.62872100  0.12872100  0.50000000  1
  Tm  Tm2  1  0.00000000  0.00000000  0.00000000  1
  Cu  Cu3  1  0.63926100  0.33083800  0.30842300  1
  Cu  Cu4  1  0.36073900  0.66916200  0.69157700  1
  Cu  Cu5  1  0.02241400  0.33083800  0.69157700  1
  Cu  Cu6  1  0.97758600  0.66916200  0.30842300  1
  Si  Si7  1  0.21608300  0.21608300  0.00000000  1
  Si  Si8  1  0.78391700  0.78391700  0.00000000  1
  Si  Si9  1  0.68565600  0.50000000  0.18565600  1
  Si  Si10  1  0.31434400  0.50000000  0.81434400  1
