# generated using pymatgen
data_Ba3Tm(BO3)3
_symmetry_space_group_name_H-M   'P 1'
_cell_length_a   9.47006846
_cell_length_b   9.47006846
_cell_length_c   17.94914600
_cell_angle_alpha   90.00000000
_cell_angle_beta   90.00000000
_cell_angle_gamma   120.00000325
_symmetry_Int_Tables_number   1
_chemical_formula_structural   Ba3Tm(BO3)3
_chemical_formula_sum   'Ba18 Tm6 B18 O54'
_cell_volume   1394.05736504
_cell_formula_units_Z   6
loop_
 _symmetry_equiv_pos_site_id
 _symmetry_equiv_pos_as_xyz
  1  'x, y, z'
loop_
 _atom_site_type_symbol
 _atom_site_label
 _atom_site_symmetry_multiplicity
 _atom_site_fract_x
 _atom_site_fract_y
 _atom_site_fract_z
 _atom_site_occupancy
  Ba  Ba0  1  0.68228600  0.68228600  0.86871200  1
  Ba  Ba1  1  0.00000000  0.68228600  0.36871200  1
  Ba  Ba2  1  0.68228600  0.00000000  0.36871200  1
  Ba  Ba3  1  0.31771400  0.00000000  0.86871200  1
  Ba  Ba4  1  0.00000000  0.31771400  0.86871200  1
  Ba  Ba5  1  0.31771400  0.31771400  0.36871200  1
  Ba  Ba6  1  0.65191200  0.65191200  0.62825700  1
  Ba  Ba7  1  0.00000000  0.65191200  0.12825700  1
  Ba  Ba8  1  0.65191200  0.00000000  0.12825700  1
  Ba  Ba9  1  0.34808800  0.00000000  0.62825700  1
  Ba  Ba10  1  0.00000000  0.34808800  0.62825700  1
  Ba  Ba11  1  0.34808800  0.34808800  0.12825700  1
  Ba  Ba12  1  0.33333300  0.66666700  0.27559100  1
  Ba  Ba13  1  0.66666700  0.33333300  0.77559100  1
  Ba  Ba14  1  0.33333300  0.66666700  0.77559100  1
  Ba  Ba15  1  0.66666700  0.33333300  0.27559100  1
  Ba  Ba16  1  0.00000000  0.00000000  0.71516800  1
  Ba  Ba17  1  0.00000000  0.00000000  0.21516800  1
  Tm  Tm18  1  0.33333300  0.66666700  0.99544300  1
  Tm  Tm19  1  0.66666700  0.33333300  0.49544300  1
  Tm  Tm20  1  0.33333300  0.66666700  0.49544300  1
  Tm  Tm21  1  0.66666700  0.33333300  0.99544300  1
  Tm  Tm22  1  0.00000000  0.00000000  0.50144100  1
  Tm  Tm23  1  0.00000000  0.00000000  0.00144100  1
  B  B24  1  0.66020000  0.66020000  0.42090400  1
  B  B25  1  0.00000000  0.66020000  0.92090400  1
  B  B26  1  0.66020000  0.00000000  0.92090400  1
  B  B27  1  0.33980000  0.00000000  0.42090400  1
  B  B28  1  0.00000000  0.33980000  0.42090400  1
  B  B29  1  0.33980000  0.33980000  0.92090400  1
  B  B30  1  0.66740600  0.66740600  0.24754700  1
  B  B31  1  0.00000000  0.66740600  0.74754700  1
  B  B32  1  0.66740600  0.00000000  0.74754700  1
  B  B33  1  0.33259400  0.00000000  0.24754700  1
  B  B34  1  0.00000000  0.33259400  0.24754700  1
  B  B35  1  0.33259400  0.33259400  0.74754700  1
  B  B36  1  0.67335700  0.67335700  0.07100500  1
  B  B37  1  0.00000000  0.67335700  0.57100500  1
  B  B38  1  0.67335700  0.00000000  0.57100500  1
  B  B39  1  0.32664300  0.00000000  0.07100500  1
  B  B40  1  0.00000000  0.32664300  0.07100500  1
  B  B41  1  0.32664300  0.32664300  0.57100500  1
  O  O42  1  0.80665200  0.80665200  0.43041400  1
  O  O43  1  0.00000000  0.80665200  0.93041400  1
  O  O44  1  0.80665200  0.00000000  0.93041400  1
  O  O45  1  0.19334800  0.00000000  0.43041400  1
  O  O46  1  0.00000000  0.19334800  0.43041400  1
  O  O47  1  0.19334800  0.19334800  0.93041400  1
  O  O48  1  0.66126800  0.14727300  0.91574400  1
  O  O49  1  0.85272700  0.51399500  0.91574400  1
  O  O50  1  0.48600500  0.33873200  0.91574400  1
  O  O51  1  0.51399500  0.66126800  0.41574400  1
  O  O52  1  0.33873200  0.85272700  0.41574400  1
  O  O53  1  0.14727300  0.48600500  0.41574400  1
  O  O54  1  0.66126800  0.51399500  0.41574400  1
  O  O55  1  0.14727300  0.66126800  0.91574400  1
  O  O56  1  0.51399500  0.85272700  0.91574400  1
  O  O57  1  0.48600500  0.14727300  0.41574400  1
  O  O58  1  0.85272700  0.33873200  0.41574400  1
  O  O59  1  0.33873200  0.48600500  0.91574400  1
  O  O60  1  0.52008400  0.52008400  0.24738200  1
  O  O61  1  0.00000000  0.52008400  0.74738200  1
  O  O62  1  0.52008400  0.00000000  0.74738200  1
  O  O63  1  0.47991600  0.00000000  0.24738200  1
  O  O64  1  0.00000000  0.47991600  0.24738200  1
  O  O65  1  0.47991600  0.47991600  0.74738200  1
  O  O66  1  0.81460700  0.14732600  0.74797800  1
  O  O67  1  0.85267400  0.66728100  0.74797800  1
  O  O68  1  0.33271900  0.18539300  0.74797800  1
  O  O69  1  0.66728100  0.81460700  0.24797800  1
  O  O70  1  0.18539300  0.85267400  0.24797800  1
  O  O71  1  0.14732600  0.33271900  0.24797800  1
  O  O72  1  0.81460700  0.66728100  0.24797800  1
  O  O73  1  0.14732600  0.81460700  0.74797800  1
  O  O74  1  0.66728100  0.85267400  0.74797800  1
  O  O75  1  0.33271900  0.14732600  0.24797800  1
  O  O76  1  0.85267400  0.18539300  0.24797800  1
  O  O77  1  0.18539300  0.33271900  0.74797800  1
  O  O78  1  0.67352900  0.14669900  0.56642400  1
  O  O79  1  0.85330100  0.52683000  0.56642400  1
  O  O80  1  0.47317000  0.32647100  0.56642400  1
  O  O81  1  0.52683000  0.67352900  0.06642400  1
  O  O82  1  0.32647100  0.85330100  0.06642400  1
  O  O83  1  0.14669900  0.47317000  0.06642400  1
  O  O84  1  0.67352900  0.52683000  0.06642400  1
  O  O85  1  0.14669900  0.67352900  0.56642400  1
  O  O86  1  0.52683000  0.85330100  0.56642400  1
  O  O87  1  0.47317000  0.14669900  0.06642400  1
  O  O88  1  0.85330100  0.32647100  0.06642400  1
  O  O89  1  0.32647100  0.47317000  0.56642400  1
  O  O90  1  0.81911300  0.81911300  0.08059400  1
  O  O91  1  0.00000000  0.81911300  0.58059400  1
  O  O92  1  0.81911300  0.00000000  0.58059400  1
  O  O93  1  0.18088700  0.00000000  0.08059400  1
  O  O94  1  0.00000000  0.18088700  0.08059400  1
  O  O95  1  0.18088700  0.18088700  0.58059400  1
