# generated using pymatgen
data_NiSO4
_symmetry_space_group_name_H-M   'P 1'
_cell_length_a   5.19912159
_cell_length_b   7.95577384
_cell_length_c   6.44633300
_cell_angle_alpha   90.00000000
_cell_angle_beta   90.00000000
_cell_angle_gamma   90.00000069
_symmetry_Int_Tables_number   1
_chemical_formula_structural   NiSO4
_chemical_formula_sum   'Ni4 S4 O16'
_cell_volume   266.63990118
_cell_formula_units_Z   4
loop_
 _symmetry_equiv_pos_site_id
 _symmetry_equiv_pos_as_xyz
  1  'x, y, z'
loop_
 _atom_site_type_symbol
 _atom_site_label
 _atom_site_symmetry_multiplicity
 _atom_site_fract_x
 _atom_site_fract_y
 _atom_site_fract_z
 _atom_site_occupancy
  Ni  Ni0  1  0.50000000  0.50000000  0.50000000  1
  Ni  Ni1  1  0.50000000  0.50000000  0.00000000  1
  Ni  Ni2  1  0.00000000  0.00000000  0.50000000  1
  Ni  Ni3  1  0.00000000  0.00000000  0.00000000  1
  S  S4  1  0.50000000  0.84939200  0.25000000  1
  S  S5  1  0.00000000  0.34939200  0.25000000  1
  S  S6  1  0.50000000  0.15060800  0.75000000  1
  S  S7  1  0.00000000  0.65060800  0.75000000  1
  O  O8  1  0.26452400  0.03770300  0.75000000  1
  O  O9  1  0.76452400  0.53770300  0.75000000  1
  O  O10  1  0.73547600  0.96229700  0.25000000  1
  O  O11  1  0.23547600  0.46229700  0.25000000  1
  O  O12  1  0.26452400  0.96229700  0.25000000  1
  O  O13  1  0.76452400  0.46229700  0.25000000  1
  O  O14  1  0.73547600  0.03770300  0.75000000  1
  O  O15  1  0.23547600  0.53770300  0.75000000  1
  O  O16  1  0.50000000  0.24999900  0.94096500  1
  O  O17  1  0.00000000  0.74999900  0.94096500  1
  O  O18  1  0.50000000  0.75000100  0.44096500  1
  O  O19  1  0.00000000  0.25000100  0.44096500  1
  O  O20  1  0.50000000  0.75000100  0.05903500  1
  O  O21  1  0.00000000  0.25000100  0.05903500  1
  O  O22  1  0.50000000  0.24999900  0.55903500  1
  O  O23  1  0.00000000  0.74999900  0.55903500  1
