# generated using pymatgen
data_TmZnRh
_symmetry_space_group_name_H-M   'P 1'
_cell_length_a   4.01870000
_cell_length_b   6.88742200
_cell_length_c   8.01865600
_cell_angle_alpha   90.00000000
_cell_angle_beta   90.00000000
_cell_angle_gamma   90.00000000
_symmetry_Int_Tables_number   1
_chemical_formula_structural   TmZnRh
_chemical_formula_sum   'Tm4 Zn4 Rh4'
_cell_volume   221.94423211
_cell_formula_units_Z   4
loop_
 _symmetry_equiv_pos_site_id
 _symmetry_equiv_pos_as_xyz
  1  'x, y, z'
loop_
 _atom_site_type_symbol
 _atom_site_label
 _atom_site_symmetry_multiplicity
 _atom_site_fract_x
 _atom_site_fract_y
 _atom_site_fract_z
 _atom_site_occupancy
  Tm  Tm0  1  0.25000000  0.53535700  0.18365600  1
  Tm  Tm1  1  0.75000000  0.46464300  0.81634400  1
  Tm  Tm2  1  0.75000000  0.96464300  0.68365600  1
  Tm  Tm3  1  0.25000000  0.03535700  0.31634400  1
  Zn  Zn4  1  0.25000000  0.63950300  0.56511300  1
  Zn  Zn5  1  0.75000000  0.36049700  0.43488700  1
  Zn  Zn6  1  0.75000000  0.86049700  0.06511300  1
  Zn  Zn7  1  0.25000000  0.13950300  0.93488700  1
  Rh  Rh8  1  0.25000000  0.75543500  0.87826200  1
  Rh  Rh9  1  0.75000000  0.24456500  0.12173800  1
  Rh  Rh10  1  0.75000000  0.74456500  0.37826200  1
  Rh  Rh11  1  0.25000000  0.25543500  0.62173800  1
