# generated using pymatgen
data_SrLaCrO4
_symmetry_space_group_name_H-M   'P 1'
_cell_length_a   5.54950978
_cell_length_b   13.07362324
_cell_length_c   5.54949493
_cell_angle_alpha   77.74806235
_cell_angle_beta   89.99920425
_cell_angle_gamma   102.25204932
_symmetry_Int_Tables_number   1
_chemical_formula_structural   SrLaCrO4
_chemical_formula_sum   'Sr4 La4 Cr4 O16'
_cell_volume   384.06816897
_cell_formula_units_Z   4
loop_
 _symmetry_equiv_pos_site_id
 _symmetry_equiv_pos_as_xyz
  1  'x, y, z'
loop_
 _atom_site_type_symbol
 _atom_site_label
 _atom_site_symmetry_multiplicity
 _atom_site_fract_x
 _atom_site_fract_y
 _atom_site_fract_z
 _atom_site_occupancy
  Sr  Sr0  1  0.32088300  0.64205900  0.67912300  1
  Sr  Sr1  1  0.07082700  0.14206800  0.42917400  1
  Sr  Sr2  1  0.82088800  0.64206600  0.17911500  1
  Sr  Sr3  1  0.57083000  0.14207300  0.92916900  1
  La  La4  1  0.92965100  0.85905900  0.57035000  1
  La  La5  1  0.67963700  0.35905100  0.32036200  1
  La  La6  1  0.42965700  0.85906600  0.07034400  1
  La  La7  1  0.17963200  0.35904600  0.82036500  1
  Cr  Cr8  1  0.50119000  0.00233900  0.49882100  1
  Cr  Cr9  1  0.25117500  0.50234800  0.24881300  1
  Cr  Cr10  1  0.75116500  0.50234800  0.74882600  1
  Cr  Cr11  1  0.00119700  0.00235100  0.99881600  1
  O  O12  1  0.41815900  0.83622900  0.58183700  1
  O  O13  1  0.16819300  0.33638600  0.33181200  1
  O  O14  1  0.91816200  0.83623200  0.08183600  1
  O  O15  1  0.66819600  0.33638800  0.83180700  1
  O  O16  1  0.83529900  0.67075600  0.66470100  1
  O  O17  1  0.58575000  0.17107300  0.41425200  1
  O  O18  1  0.33529900  0.67075700  0.16470200  1
  O  O19  1  0.08574700  0.17107100  0.91425400  1
  O  O20  1  0.24725900  0.99468500  0.75275000  1
  O  O21  1  0.99736800  0.49462900  0.50262300  1
  O  O22  1  0.74724900  0.99468400  0.25275700  1
  O  O23  1  0.49736200  0.49462700  0.00263100  1
  O  O24  1  0.24724400  0.99468100  0.25275800  1
  O  O25  1  0.99738100  0.49462100  0.00263200  1
  O  O26  1  0.74723400  0.99467900  0.75274900  1
  O  O27  1  0.49736800  0.49462100  0.50262300  1
