# generated using pymatgen
data_Tb2(Al3Ir)3
_symmetry_space_group_name_H-M   'P 1'
_cell_length_a   7.54770172
_cell_length_b   7.54770172
_cell_length_c   9.47956000
_cell_angle_alpha   90.00000000
_cell_angle_beta   90.00000000
_cell_angle_gamma   119.50558385
_symmetry_Int_Tables_number   1
_chemical_formula_structural   Tb2(Al3Ir)3
_chemical_formula_sum   'Tb4 Al18 Ir6'
_cell_volume   469.99199819
_cell_formula_units_Z   2
loop_
 _symmetry_equiv_pos_site_id
 _symmetry_equiv_pos_as_xyz
  1  'x, y, z'
loop_
 _atom_site_type_symbol
 _atom_site_label
 _atom_site_symmetry_multiplicity
 _atom_site_fract_x
 _atom_site_fract_y
 _atom_site_fract_z
 _atom_site_occupancy
  Tb  Tb0  1  0.99523100  0.66914000  0.25000000  1
  Tb  Tb1  1  0.00476900  0.33086000  0.75000000  1
  Tb  Tb2  1  0.66914000  0.99523100  0.25000000  1
  Tb  Tb3  1  0.33086000  0.00476900  0.75000000  1
  Al  Al4  1  0.12742700  0.12742700  0.25000000  1
  Al  Al5  1  0.87257300  0.87257300  0.75000000  1
  Al  Al6  1  0.00171100  0.33452500  0.07353600  1
  Al  Al7  1  0.99828900  0.66547500  0.92646400  1
  Al  Al8  1  0.99828900  0.66547500  0.57353600  1
  Al  Al9  1  0.33452500  0.00171100  0.42646400  1
  Al  Al10  1  0.00171100  0.33452500  0.42646400  1
  Al  Al11  1  0.66547500  0.99828900  0.57353600  1
  Al  Al12  1  0.66547500  0.99828900  0.92646400  1
  Al  Al13  1  0.33452500  0.00171100  0.07353600  1
  Al  Al14  1  0.33395500  0.33395500  0.55356600  1
  Al  Al15  1  0.66604500  0.66604500  0.44643400  1
  Al  Al16  1  0.66604500  0.66604500  0.05356600  1
  Al  Al17  1  0.33395500  0.33395500  0.94643400  1
  Al  Al18  1  0.33789500  0.54600600  0.25000000  1
  Al  Al19  1  0.66210500  0.45399400  0.75000000  1
  Al  Al20  1  0.54600600  0.33789500  0.25000000  1
  Al  Al21  1  0.45399400  0.66210500  0.75000000  1
  Ir  Ir22  1  0.67164800  0.32835200  0.00000000  1
  Ir  Ir23  1  0.32835200  0.67164800  0.00000000  1
  Ir  Ir24  1  0.32835200  0.67164800  0.50000000  1
  Ir  Ir25  1  0.67164800  0.32835200  0.50000000  1
  Ir  Ir26  1  0.00000000  0.00000000  0.00000000  1
  Ir  Ir27  1  0.00000000  0.00000000  0.50000000  1
