# generated using pymatgen
data_Na4Sr2TiP4
_symmetry_space_group_name_H-M   'P 1'
_cell_length_a   9.39513816
_cell_length_b   9.39513816
_cell_length_c   7.43955524
_cell_angle_alpha   89.73174555
_cell_angle_beta   89.73174555
_cell_angle_gamma   120.31017944
_symmetry_Int_Tables_number   1
_chemical_formula_structural   Na4Sr2TiP4
_chemical_formula_sum   'Na8 Sr4 Ti2 P8'
_cell_volume   566.89000997
_cell_formula_units_Z   2
loop_
 _symmetry_equiv_pos_site_id
 _symmetry_equiv_pos_as_xyz
  1  'x, y, z'
loop_
 _atom_site_type_symbol
 _atom_site_label
 _atom_site_symmetry_multiplicity
 _atom_site_fract_x
 _atom_site_fract_y
 _atom_site_fract_z
 _atom_site_occupancy
  Na  Na0  1  0.47005600  0.93701900  0.38762700  1
  Na  Na1  1  0.93701900  0.47005600  0.88762700  1
  Na  Na2  1  0.86946700  0.73225100  0.20752800  1
  Na  Na3  1  0.27613500  0.12828500  0.23150000  1
  Na  Na4  1  0.85432000  0.13200700  0.22332000  1
  Na  Na5  1  0.12828500  0.27613500  0.73150000  1
  Na  Na6  1  0.73225100  0.86946700  0.70752800  1
  Na  Na7  1  0.13200700  0.85432000  0.72332000  1
  Sr  Sr8  1  0.05677800  0.53421000  0.39147400  1
  Sr  Sr9  1  0.47809800  0.53674900  0.38965300  1
  Sr  Sr10  1  0.53421000  0.05677800  0.89147400  1
  Sr  Sr11  1  0.53674900  0.47809800  0.88965300  1
  Ti  Ti12  1  0.66246200  0.32651400  0.49805200  1
  Ti  Ti13  1  0.32651400  0.66246200  0.99805200  1
  P  P14  1  0.66514600  0.33722800  0.17507200  1
  P  P15  1  0.33722800  0.66514600  0.67507200  1
  P  P16  1  0.19518200  0.38504700  0.11163700  1
  P  P17  1  0.61438500  0.80582400  0.09393300  1
  P  P18  1  0.19442500  0.80742500  0.09973900  1
  P  P19  1  0.80582400  0.61438500  0.59393300  1
  P  P20  1  0.38504700  0.19518200  0.61163700  1
  P  P21  1  0.80742500  0.19442500  0.59973900  1
