# generated using pymatgen
data_TlPd3
_symmetry_space_group_name_H-M   'P 1'
_cell_length_a   8.41721821
_cell_length_b   8.41721821
_cell_length_c   8.41721821
_cell_angle_alpha   151.33595315
_cell_angle_beta   151.33595315
_cell_angle_gamma   40.98383347
_symmetry_Int_Tables_number   1
_chemical_formula_structural   TlPd3
_chemical_formula_sum   'Tl2 Pd6'
_cell_volume   136.92068220
_cell_formula_units_Z   2
loop_
 _symmetry_equiv_pos_site_id
 _symmetry_equiv_pos_as_xyz
  1  'x, y, z'
loop_
 _atom_site_type_symbol
 _atom_site_label
 _atom_site_symmetry_multiplicity
 _atom_site_fract_x
 _atom_site_fract_y
 _atom_site_fract_z
 _atom_site_occupancy
  Tl  Tl0  1  0.87509000  0.87509000  0.00000000  1
  Tl  Tl1  1  0.12491000  0.12491000  0.00000000  1
  Pd  Pd2  1  0.00000000  0.50000000  0.50000000  1
  Pd  Pd3  1  0.50000000  0.00000000  0.50000000  1
  Pd  Pd4  1  0.75000000  0.25000000  0.50000000  1
  Pd  Pd5  1  0.25000000  0.75000000  0.50000000  1
  Pd  Pd6  1  0.62637000  0.62637000  0.00000000  1
  Pd  Pd7  1  0.37363000  0.37363000  0.00000000  1
