# generated using pymatgen
data_Cs2AsH3SeO8
_symmetry_space_group_name_H-M   'P 1'
_cell_length_a   8.16281100
_cell_length_b   8.19730368
_cell_length_c   8.22818401
_cell_angle_alpha   87.67020163
_cell_angle_beta   89.43614702
_cell_angle_gamma   78.45746760
_symmetry_Int_Tables_number   1
_chemical_formula_structural   Cs2AsH3SeO8
_chemical_formula_sum   'Cs4 As2 H6 Se2 O16'
_cell_volume   538.99154242
_cell_formula_units_Z   2
loop_
 _symmetry_equiv_pos_site_id
 _symmetry_equiv_pos_as_xyz
  1  'x, y, z'
loop_
 _atom_site_type_symbol
 _atom_site_label
 _atom_site_symmetry_multiplicity
 _atom_site_fract_x
 _atom_site_fract_y
 _atom_site_fract_z
 _atom_site_occupancy
  Cs  Cs0  1  0.11798100  0.76803400  0.83220900  1
  Cs  Cs1  1  0.60794300  0.27629400  0.66660100  1
  Cs  Cs2  1  0.88201900  0.23196600  0.16779100  1
  Cs  Cs3  1  0.39205700  0.72370600  0.33339900  1
  As  As4  1  0.60240800  0.74971400  0.82328900  1
  As  As5  1  0.39759200  0.25028600  0.17671100  1
  H  H6  1  0.50000000  0.00000000  0.00000000  1
  H  H7  1  0.00000000  0.50000000  0.50000000  1
  H  H8  1  0.76363500  0.62072500  0.04215000  1
  H  H9  1  0.27172400  0.12540500  0.39601900  1
  H  H10  1  0.23636500  0.37927500  0.95785000  1
  H  H11  1  0.72827600  0.87459500  0.60398100  1
  Se  Se12  1  0.11294300  0.24707500  0.67450300  1
  Se  Se13  1  0.88705700  0.75292500  0.32549700  1
  O  O14  1  0.49638000  0.65883400  0.69426100  1
  O  O15  1  0.99402800  0.16442800  0.80518000  1
  O  O16  1  0.50362000  0.34116600  0.30573900  1
  O  O17  1  0.00597200  0.83557200  0.19482000  1
  O  O18  1  0.75540200  0.59458700  0.92354600  1
  O  O19  1  0.24993200  0.09735200  0.58453900  1
  O  O20  1  0.24459800  0.40541300  0.07645400  1
  O  O21  1  0.75006800  0.90264800  0.41546100  1
  O  O22  1  0.48388000  0.85962500  0.97185000  1
  O  O23  1  0.98472300  0.35607700  0.52458700  1
  O  O24  1  0.51612000  0.14037500  0.02815000  1
  O  O25  1  0.01527700  0.64392300  0.47541300  1
  O  O26  1  0.72230300  0.88363200  0.72826300  1
  O  O27  1  0.21423600  0.37993900  0.75958600  1
  O  O28  1  0.27769700  0.11636800  0.27173700  1
  O  O29  1  0.78576400  0.62006100  0.24041400  1
