# generated using pymatgen
data_DyCrO4
_symmetry_space_group_name_H-M   'P 1'
_cell_length_a   5.99283683
_cell_length_b   5.99283683
_cell_length_c   5.99283683
_cell_angle_alpha   105.98812969
_cell_angle_beta   105.98812969
_cell_angle_gamma   116.68746899
_symmetry_Int_Tables_number   1
_chemical_formula_structural   DyCrO4
_chemical_formula_sum   'Dy2 Cr2 O8'
_cell_volume   163.68725850
_cell_formula_units_Z   2
loop_
 _symmetry_equiv_pos_site_id
 _symmetry_equiv_pos_as_xyz
  1  'x, y, z'
loop_
 _atom_site_type_symbol
 _atom_site_label
 _atom_site_symmetry_multiplicity
 _atom_site_fract_x
 _atom_site_fract_y
 _atom_site_fract_z
 _atom_site_occupancy
  Dy  Dy0  1  0.75000000  0.25000000  0.50000000  1
  Dy  Dy1  1  0.50000000  0.50000000  0.00000000  1
  Cr  Cr2  1  0.25000000  0.75000000  0.50000000  1
  Cr  Cr3  1  0.00000000  0.00000000  0.00000000  1
  O  O4  1  0.82525100  0.00931700  0.18406600  1
  O  O5  1  0.89118400  0.57525100  0.31593400  1
  O  O6  1  0.25931700  0.57525100  0.68406600  1
  O  O7  1  0.82525100  0.64118400  0.81593400  1
  O  O8  1  0.35881600  0.17474900  0.18406600  1
  O  O9  1  0.42474900  0.74068300  0.31593400  1
  O  O10  1  0.42474900  0.10881600  0.68406600  1
  O  O11  1  0.99068300  0.17474900  0.81593400  1
