# generated using pymatgen
data_KGd2CuS4
_symmetry_space_group_name_H-M   'P 1'
_cell_length_a   7.12085016
_cell_length_b   7.12085016
_cell_length_c   13.81212700
_cell_angle_alpha   90.00000000
_cell_angle_beta   90.00000000
_cell_angle_gamma   147.38310892
_symmetry_Int_Tables_number   1
_chemical_formula_structural   KGd2CuS4
_chemical_formula_sum   'K2 Gd4 Cu2 S8'
_cell_volume   377.50997301
_cell_formula_units_Z   2
loop_
 _symmetry_equiv_pos_site_id
 _symmetry_equiv_pos_as_xyz
  1  'x, y, z'
loop_
 _atom_site_type_symbol
 _atom_site_label
 _atom_site_symmetry_multiplicity
 _atom_site_fract_x
 _atom_site_fract_y
 _atom_site_fract_z
 _atom_site_occupancy
  K  K0  1  0.39156500  0.60843500  0.25000000  1
  K  K1  1  0.60843500  0.39156500  0.75000000  1
  Gd  Gd2  1  0.86586600  0.13413400  0.93780200  1
  Gd  Gd3  1  0.13413400  0.86586600  0.06219800  1
  Gd  Gd4  1  0.13413400  0.86586600  0.43780200  1
  Gd  Gd5  1  0.86586600  0.13413400  0.56219800  1
  Cu  Cu6  1  0.66294500  0.33705500  0.25000000  1
  Cu  Cu7  1  0.33705500  0.66294500  0.75000000  1
  S  S8  1  0.76212300  0.23787700  0.38798600  1
  S  S9  1  0.23787700  0.76212300  0.61201400  1
  S  S10  1  0.50000000  0.50000000  0.00000000  1
  S  S11  1  0.50000000  0.50000000  0.50000000  1
  S  S12  1  0.76212300  0.23787700  0.11201400  1
  S  S13  1  0.23787700  0.76212300  0.88798600  1
  S  S14  1  0.92944800  0.07055200  0.75000000  1
  S  S15  1  0.07055200  0.92944800  0.25000000  1
