# generated using pymatgen
data_Mg149Hg
_symmetry_space_group_name_H-M   'P 1'
_cell_length_a   15.91724485
_cell_length_b   15.91725287
_cell_length_c   15.59855780
_cell_angle_alpha   90.00000164
_cell_angle_beta   90.00000528
_cell_angle_gamma   120.00104061
_symmetry_Int_Tables_number   1
_chemical_formula_structural   Mg149Hg
_chemical_formula_sum   'Mg149 Hg1'
_cell_volume   3422.52427366
_cell_formula_units_Z   1
loop_
 _symmetry_equiv_pos_site_id
 _symmetry_equiv_pos_as_xyz
  1  'x, y, z'
loop_
 _atom_site_type_symbol
 _atom_site_label
 _atom_site_symmetry_multiplicity
 _atom_site_fract_x
 _atom_site_fract_y
 _atom_site_fract_z
 _atom_site_occupancy
  Mg  Mg0  1  0.80199728  0.00102540  0.00000022  1
  Mg  Mg1  1  0.19902835  0.00102506  0.99999998  1
  Mg  Mg2  1  0.19902700  0.19800192  0.99999939  1
  Mg  Mg3  1  0.99897533  0.19800256  0.00000033  1
  Mg  Mg4  1  0.39944308  0.19972133  0.99999979  1
  Mg  Mg5  1  0.80027926  0.19972225  0.99999998  1
  Mg  Mg6  1  0.59993548  0.19987065  0.99999974  1
  Mg  Mg7  1  0.19935914  0.39871661  0.00000017  1
  Mg  Mg8  1  0.39976808  0.39978735  0.00000034  1
  Mg  Mg9  1  0.00001986  0.39978878  0.99999952  1
  Mg  Mg10  1  0.80012970  0.40006502  0.00000019  1
  Mg  Mg11  1  0.59993494  0.40006454  0.00000033  1
  Mg  Mg12  1  0.19989689  0.59994844  0.99999960  1
  Mg  Mg13  1  0.40005144  0.59994856  0.99999958  1
  Mg  Mg14  1  0.60021181  0.60023087  0.00000046  1
  Mg  Mg15  1  0.00001925  0.60023168  0.00000023  1
  Mg  Mg16  1  0.80027864  0.60055714  0.99999971  1
  Mg  Mg17  1  0.40005145  0.80010242  0.00000031  1
  Mg  Mg18  1  0.60128286  0.80064097  0.00000024  1
  Mg  Mg19  1  0.19935851  0.80064160  0.00000036  1
  Mg  Mg20  1  0.99897516  0.80097364  0.99999960  1
  Mg  Mg21  1  0.80199738  0.80097338  0.00000055  1
  Mg  Mg22  1  0.60021166  0.99997989  0.99999985  1
  Mg  Mg23  1  0.39976809  0.99998036  0.99999978  1
  Mg  Mg24  1  0.06614744  0.13229514  0.16553402  1
  Mg  Mg25  1  0.86770546  0.93385295  0.16553419  1
  Mg  Mg26  1  0.06614722  0.93385246  0.16553414  1
  Mg  Mg27  1  0.06632090  0.33258391  0.16621574  1
  Mg  Mg28  1  0.26626285  0.33258410  0.16621588  1
  Mg  Mg29  1  0.66741527  0.73373662  0.16621577  1
  Mg  Mg30  1  0.06632084  0.73373696  0.16621526  1
  Mg  Mg31  1  0.66741596  0.93367850  0.16621595  1
  Mg  Mg32  1  0.26626294  0.93367918  0.16621621  1
  Mg  Mg33  1  0.26652756  0.53305439  0.16648917  1
  Mg  Mg34  1  0.46694605  0.73347301  0.16648862  1
  Mg  Mg35  1  0.26652749  0.73347287  0.16648916  1
  Mg  Mg36  1  0.06669501  0.53334792  0.16649198  1
  Mg  Mg37  1  0.46665231  0.53334747  0.16649258  1
  Mg  Mg38  1  0.46665243  0.93330468  0.16649211  1
  Mg  Mg39  1  0.46687332  0.13336216  0.16656046  1
  Mg  Mg40  1  0.66648894  0.13336257  0.16656090  1
  Mg  Mg41  1  0.86663685  0.33350972  0.16656026  1
  Mg  Mg42  1  0.46687298  0.33351063  0.16656120  1
  Mg  Mg43  1  0.86663728  0.53312712  0.16656076  1
  Mg  Mg44  1  0.66648916  0.53312668  0.16656065  1
  Mg  Mg45  1  0.66666707  0.33333329  0.16667664  1
  Mg  Mg46  1  0.86625837  0.13374117  0.16720204  1
  Mg  Mg47  1  0.26748294  0.13374141  0.16720149  1
  Mg  Mg48  1  0.86625885  0.73251796  0.16720124  1
  Mg  Mg49  1  0.99999997  0.00000019  0.33258449  1
  Mg  Mg50  1  0.19992506  0.39984916  0.33308719  1
  Mg  Mg51  1  0.60015053  0.80007540  0.33308656  1
  Mg  Mg52  1  0.19992386  0.80007545  0.33308662  1
  Mg  Mg53  1  0.39982719  0.99998016  0.33313656  1
  Mg  Mg54  1  0.60015418  0.99998081  0.33313663  1
  Mg  Mg55  1  0.00002019  0.39984630  0.33313646  1
  Mg  Mg56  1  0.39982672  0.39984634  0.33313670  1
  Mg  Mg57  1  0.60015398  0.60017381  0.33313660  1
  Mg  Mg58  1  0.00001967  0.60017380  0.33313697  1
  Mg  Mg59  1  0.19970029  0.99992735  0.33322723  1
  Mg  Mg60  1  0.80022748  0.99992717  0.33322776  1
  Mg  Mg61  1  0.00007316  0.19977252  0.33322736  1
  Mg  Mg62  1  0.19969984  0.19977277  0.33322741  1
  Mg  Mg63  1  0.80022735  0.80030002  0.33322752  1
  Mg  Mg64  1  0.00007301  0.80029999  0.33322735  1
  Mg  Mg65  1  0.60000512  0.20000999  0.33328288  1
  Mg  Mg66  1  0.79999037  0.39999545  0.33328229  1
  Mg  Mg67  1  0.60000606  0.39999560  0.33328282  1
  Mg  Mg68  1  0.39998444  0.60001595  0.33330232  1
  Mg  Mg69  1  0.20003235  0.60001555  0.33330192  1
  Mg  Mg70  1  0.39998438  0.79996718  0.33330221  1
  Mg  Mg71  1  0.79998676  0.20001233  0.33339905  1
  Mg  Mg72  1  0.40002556  0.20001252  0.33339842  1
  Mg  Mg73  1  0.79998718  0.59997527  0.33339985  1
  Mg  Mg74  1  0.06660771  0.13321433  0.49999995  1
  Mg  Mg75  1  0.26658072  0.13329072  0.49999998  1
  Mg  Mg76  1  0.86670962  0.13329082  0.49999981  1
  Mg  Mg77  1  0.46672370  0.13328645  0.49999945  1
  Mg  Mg78  1  0.66656287  0.13328557  0.50000046  1
  Mg  Mg79  1  0.26669780  0.33322750  0.49999995  1
  Mg  Mg80  1  0.06652973  0.33322794  0.50000024  1
  Mg  Mg81  1  0.66666699  0.33333265  0.49999969  1
  Mg  Mg82  1  0.46672328  0.33343753  0.50000002  1
  Mg  Mg83  1  0.86671354  0.33343640  0.50000023  1
  Mg  Mg84  1  0.26658485  0.53317023  0.50000028  1
  Mg  Mg85  1  0.06657786  0.53328868  0.49999995  1
  Mg  Mg86  1  0.46671116  0.53328880  0.49999974  1
  Mg  Mg87  1  0.66656284  0.53327616  0.49999984  1
  Mg  Mg88  1  0.86671465  0.53327669  0.50000003  1
  Mg  Mg89  1  0.66677275  0.73330283  0.49999985  1
  Mg  Mg90  1  0.06652997  0.73330265  0.50000015  1
  Mg  Mg91  1  0.46682992  0.73341507  0.50000000  1
  Mg  Mg92  1  0.26658490  0.73341501  0.50000009  1
  Mg  Mg93  1  0.86671012  0.73341935  0.49999999  1
  Mg  Mg94  1  0.66677278  0.93347032  0.50000005  1
  Mg  Mg95  1  0.26669766  0.93347020  0.50000028  1
  Mg  Mg96  1  0.06660737  0.93339312  0.50000022  1
  Mg  Mg97  1  0.86678598  0.93339311  0.49999960  1
  Mg  Mg98  1  0.46671084  0.93342223  0.49999978  1
  Mg  Mg99  1  0.79998709  0.20001222  0.66660091  1
  Mg  Mg100  1  0.40002528  0.20001216  0.66660073  1
  Mg  Mg101  1  0.79998718  0.59997476  0.66660085  1
  Mg  Mg102  1  0.39998388  0.60001521  0.66669805  1
  Mg  Mg103  1  0.20003193  0.60001506  0.66669771  1
  Mg  Mg104  1  0.39998492  0.79996752  0.66669785  1
  Mg  Mg105  1  0.60000496  0.20000916  0.66671672  1
  Mg  Mg106  1  0.79999003  0.39999454  0.66671613  1
  Mg  Mg107  1  0.60000545  0.39999551  0.66671674  1
  Mg  Mg108  1  0.19970060  0.99992707  0.66677168  1
  Mg  Mg109  1  0.80022758  0.99992731  0.66677229  1
  Mg  Mg110  1  0.00007257  0.19977308  0.66677149  1
  Mg  Mg111  1  0.19970062  0.19977384  0.66677152  1
  Mg  Mg112  1  0.80022731  0.80029996  0.66677169  1
  Mg  Mg113  1  0.00007247  0.80029982  0.66677159  1
  Mg  Mg114  1  0.39982608  0.99997965  0.66686233  1
  Mg  Mg115  1  0.60015442  0.99998099  0.66686306  1
  Mg  Mg116  1  0.00001987  0.39984515  0.66686316  1
  Mg  Mg117  1  0.39982668  0.39984604  0.66686306  1
  Mg  Mg118  1  0.60015461  0.60017380  0.66686315  1
  Mg  Mg119  1  0.00001988  0.60017434  0.66686349  1
  Mg  Mg120  1  0.19992447  0.39984901  0.66691292  1
  Mg  Mg121  1  0.60015145  0.80007573  0.66691368  1
  Mg  Mg122  1  0.19992391  0.80007466  0.66691316  1
  Mg  Mg123  1  0.00000026  0.99999963  0.66741616  1
  Mg  Mg124  1  0.86625822  0.13374132  0.83279860  1
  Mg  Mg125  1  0.26748270  0.13374098  0.83279840  1
  Mg  Mg126  1  0.86625909  0.73251757  0.83279853  1
  Mg  Mg127  1  0.66666682  0.33333296  0.83332314  1
  Mg  Mg128  1  0.46687256  0.13336195  0.83343933  1
  Mg  Mg129  1  0.66648870  0.13336171  0.83343931  1
  Mg  Mg130  1  0.86663720  0.33351037  0.83343884  1
  Mg  Mg131  1  0.46687265  0.33351039  0.83343847  1
  Mg  Mg132  1  0.86663796  0.53312725  0.83343773  1
  Mg  Mg133  1  0.66648895  0.53312673  0.83343843  1
  Mg  Mg134  1  0.06669508  0.53334775  0.83350727  1
  Mg  Mg135  1  0.46665263  0.53334777  0.83350763  1
  Mg  Mg136  1  0.46665250  0.93330485  0.83350755  1
  Mg  Mg137  1  0.26652768  0.53305400  0.83351068  1
  Mg  Mg138  1  0.46694519  0.73347302  0.83351042  1
  Mg  Mg139  1  0.26652711  0.73347279  0.83351023  1
  Mg  Mg140  1  0.06632185  0.33258408  0.83378539  1
  Mg  Mg141  1  0.26626263  0.33258334  0.83378475  1
  Mg  Mg142  1  0.66741585  0.73373714  0.83378477  1
  Mg  Mg143  1  0.06632156  0.73373798  0.83378434  1
  Mg  Mg144  1  0.66741626  0.93367836  0.83378494  1
  Mg  Mg145  1  0.26626196  0.93367852  0.83378416  1
  Mg  Mg146  1  0.06614716  0.13229461  0.83446555  1
  Mg  Mg147  1  0.86770568  0.93385289  0.83446572  1
  Mg  Mg148  1  0.06614700  0.93385272  0.83446622  1
  Hg  Hg149  1  0.00000006  0.99999999  1.00000000  1
