# generated using pymatgen
data_SbH3S(O2F3)2
_symmetry_space_group_name_H-M   'P 1'
_cell_length_a   5.29020100
_cell_length_b   8.17959717
_cell_length_c   10.02623015
_cell_angle_alpha   87.13876014
_cell_angle_beta   75.38917182
_cell_angle_gamma   88.95433354
_symmetry_Int_Tables_number   1
_chemical_formula_structural   SbH3S(O2F3)2
_chemical_formula_sum   'Sb2 H6 S2 O8 F12'
_cell_volume   419.29147967
_cell_formula_units_Z   2
loop_
 _symmetry_equiv_pos_site_id
 _symmetry_equiv_pos_as_xyz
  1  'x, y, z'
loop_
 _atom_site_type_symbol
 _atom_site_label
 _atom_site_symmetry_multiplicity
 _atom_site_fract_x
 _atom_site_fract_y
 _atom_site_fract_z
 _atom_site_occupancy
  Sb  Sb0  1  0.86579600  0.74715900  0.68347000  1
  Sb  Sb1  1  0.13420400  0.25284100  0.31653000  1
  H  H2  1  0.39708000  0.74100300  0.41044100  1
  H  H3  1  0.60292000  0.25899700  0.58955900  1
  H  H4  1  0.79986500  0.54361200  0.17353500  1
  H  H5  1  0.20013500  0.45638800  0.82646500  1
  H  H6  1  0.81683100  0.97980500  0.18035400  1
  H  H7  1  0.18316900  0.02019500  0.81964600  1
  S  S8  1  0.57022800  0.76756500  0.19080800  1
  S  S9  1  0.42977200  0.23243500  0.80919200  1
  O  O10  1  0.57526800  0.75946200  0.34367400  1
  O  O11  1  0.42473200  0.24053800  0.65632600  1
  O  O12  1  0.66689800  0.60275500  0.13053000  1
  O  O13  1  0.33310200  0.39724500  0.86947000  1
  O  O14  1  0.79694400  0.88233700  0.12439200  1
  O  O15  1  0.20305600  0.11766300  0.87560800  1
  O  O16  1  0.32574600  0.80800400  0.16412700  1
  O  O17  1  0.67425400  0.19199600  0.83587300  1
  F  F18  1  0.13220500  0.70583100  0.51609100  1
  F  F19  1  0.86779500  0.29416900  0.48390900  1
  F  F20  1  0.99773600  0.55709700  0.77063400  1
  F  F21  1  0.00226400  0.44290300  0.22936600  1
  F  F22  1  0.12416900  0.87519700  0.74015500  1
  F  F23  1  0.87583100  0.12480300  0.25984500  1
  F  F24  1  0.63769200  0.60548900  0.62505800  1
  F  F25  1  0.36230800  0.39451100  0.37494200  1
  F  F26  1  0.61847800  0.78585600  0.85271700  1
  F  F27  1  0.38152200  0.21414400  0.14728300  1
  F  F28  1  0.74649100  0.93385600  0.59612700  1
  F  F29  1  0.25350900  0.06614400  0.40387300  1
