# generated using pymatgen
data_LiSi2B
_symmetry_space_group_name_H-M   'P 1'
_cell_length_a   6.84045100
_cell_length_b   6.84045100
_cell_length_c   8.85456200
_cell_angle_alpha   90.00000000
_cell_angle_beta   90.00000000
_cell_angle_gamma   90.00000000
_symmetry_Int_Tables_number   1
_chemical_formula_structural   LiSi2B
_chemical_formula_sum   'Li8 Si16 B8'
_cell_volume   414.32062752
_cell_formula_units_Z   8
loop_
 _symmetry_equiv_pos_site_id
 _symmetry_equiv_pos_as_xyz
  1  'x, y, z'
loop_
 _atom_site_type_symbol
 _atom_site_label
 _atom_site_symmetry_multiplicity
 _atom_site_fract_x
 _atom_site_fract_y
 _atom_site_fract_z
 _atom_site_occupancy
  Li  Li0  1  0.25401100  0.50000000  0.17309700  1
  Li  Li1  1  0.74598900  0.50000000  0.17309700  1
  Li  Li2  1  0.00000000  0.75401100  0.67309700  1
  Li  Li3  1  0.00000000  0.24598900  0.67309700  1
  Li  Li4  1  0.24598900  0.00000000  0.32690300  1
  Li  Li5  1  0.75401100  0.00000000  0.32690300  1
  Li  Li6  1  0.50000000  0.74598900  0.82690300  1
  Li  Li7  1  0.50000000  0.25401100  0.82690300  1
  Si  Si8  1  0.81953100  0.50000000  0.88647000  1
  Si  Si9  1  0.18046900  0.50000000  0.88647000  1
  Si  Si10  1  0.00000000  0.31953100  0.38647000  1
  Si  Si11  1  0.00000000  0.68046900  0.38647000  1
  Si  Si12  1  0.68046900  0.00000000  0.61353000  1
  Si  Si13  1  0.31953100  0.00000000  0.61353000  1
  Si  Si14  1  0.50000000  0.18046900  0.11353000  1
  Si  Si15  1  0.50000000  0.81953100  0.11353000  1
  Si  Si16  1  0.31666400  0.50000000  0.62978400  1
  Si  Si17  1  0.68333600  0.50000000  0.62978400  1
  Si  Si18  1  0.00000000  0.81666400  0.12978400  1
  Si  Si19  1  0.00000000  0.18333600  0.12978400  1
  Si  Si20  1  0.18333600  0.00000000  0.87021600  1
  Si  Si21  1  0.81666400  0.00000000  0.87021600  1
  Si  Si22  1  0.50000000  0.68333600  0.37021600  1
  Si  Si23  1  0.50000000  0.31666400  0.37021600  1
  B  B24  1  0.24174800  0.75825200  0.00000000  1
  B  B25  1  0.75825200  0.75825200  0.00000000  1
  B  B26  1  0.24174800  0.24174800  0.00000000  1
  B  B27  1  0.75825200  0.24174800  0.00000000  1
  B  B28  1  0.25825200  0.74174800  0.50000000  1
  B  B29  1  0.74174800  0.74174800  0.50000000  1
  B  B30  1  0.25825200  0.25825200  0.50000000  1
  B  B31  1  0.74174800  0.25825200  0.50000000  1
