# generated using pymatgen
data_LiTm6B3O14
_symmetry_space_group_name_H-M   'P 1'
_cell_length_a   8.29766320
_cell_length_b   8.76420959
_cell_length_c   15.38903500
_cell_angle_alpha   90.00000000
_cell_angle_beta   90.00000000
_cell_angle_gamma   91.76511450
_symmetry_Int_Tables_number   1
_chemical_formula_structural   LiTm6B3O14
_chemical_formula_sum   'Li4 Tm24 B12 O56'
_cell_volume   1118.59744662
_cell_formula_units_Z   4
loop_
 _symmetry_equiv_pos_site_id
 _symmetry_equiv_pos_as_xyz
  1  'x, y, z'
loop_
 _atom_site_type_symbol
 _atom_site_label
 _atom_site_symmetry_multiplicity
 _atom_site_fract_x
 _atom_site_fract_y
 _atom_site_fract_z
 _atom_site_occupancy
  Li  Li0  1  0.68132200  0.56147000  0.39574300  1
  Li  Li1  1  0.31867800  0.43853000  0.60425700  1
  Li  Li2  1  0.81867800  0.93853000  0.89574300  1
  Li  Li3  1  0.18132200  0.06147000  0.10425700  1
  Tm  Tm4  1  0.14301800  0.69256500  0.17805800  1
  Tm  Tm5  1  0.85698200  0.30743500  0.82194200  1
  Tm  Tm6  1  0.35698200  0.80743500  0.67805800  1
  Tm  Tm7  1  0.64301800  0.19256500  0.32194200  1
  Tm  Tm8  1  0.96056800  0.94330900  0.67336000  1
  Tm  Tm9  1  0.03943200  0.05669100  0.32664000  1
  Tm  Tm10  1  0.53943200  0.55669100  0.17336000  1
  Tm  Tm11  1  0.46056800  0.44330900  0.82664000  1
  Tm  Tm12  1  0.72565000  0.57490300  0.64419600  1
  Tm  Tm13  1  0.27435000  0.42509700  0.35580400  1
  Tm  Tm14  1  0.77435000  0.92509700  0.14419600  1
  Tm  Tm15  1  0.22565000  0.07490300  0.85580400  1
  Tm  Tm16  1  0.05116500  0.71756600  0.48684200  1
  Tm  Tm17  1  0.94883500  0.28243400  0.51315800  1
  Tm  Tm18  1  0.44883500  0.78243400  0.98684200  1
  Tm  Tm19  1  0.55116500  0.21756600  0.01315800  1
  Tm  Tm20  1  0.69907700  0.93933200  0.49646500  1
  Tm  Tm21  1  0.30092300  0.06066800  0.50353500  1
  Tm  Tm22  1  0.80092300  0.56066800  0.99646500  1
  Tm  Tm23  1  0.19907700  0.43933200  0.00353500  1
  Tm  Tm24  1  0.42134900  0.83587200  0.33365100  1
  Tm  Tm25  1  0.57865100  0.16412800  0.66634900  1
  Tm  Tm26  1  0.07865100  0.66412800  0.83365100  1
  Tm  Tm27  1  0.92134900  0.33587200  0.16634900  1
  B  B28  1  0.42921500  0.97236600  0.17268000  1
  B  B29  1  0.57078500  0.02763400  0.82732000  1
  B  B30  1  0.07078500  0.52763400  0.67268000  1
  B  B31  1  0.92921500  0.47236600  0.32732000  1
  B  B32  1  0.06450400  0.85384300  0.00030100  1
  B  B33  1  0.93549600  0.14615700  0.99969900  1
  B  B34  1  0.43549600  0.64615700  0.50030100  1
  B  B35  1  0.56450400  0.35384300  0.49969900  1
  B  B36  1  0.82052100  0.77817400  0.30738700  1
  B  B37  1  0.17947900  0.22182600  0.69261300  1
  B  B38  1  0.67947900  0.72182600  0.80738700  1
  B  B39  1  0.32052100  0.27817400  0.19261300  1
  O  O40  1  0.94135600  0.82318900  0.24856800  1
  O  O41  1  0.05864400  0.17681100  0.75143200  1
  O  O42  1  0.55864400  0.67681100  0.74856800  1
  O  O43  1  0.44135600  0.32318900  0.25143200  1
  O  O44  1  0.71163700  0.40822100  0.53379000  1
  O  O45  1  0.28836300  0.59177900  0.46621000  1
  O  O46  1  0.78836300  0.09177900  0.03379000  1
  O  O47  1  0.21163700  0.90822100  0.96621000  1
  O  O48  1  0.84291100  0.77828300  0.57961000  1
  O  O49  1  0.15708900  0.22171700  0.42039000  1
  O  O50  1  0.65708900  0.72171700  0.07961000  1
  O  O51  1  0.34291100  0.27828300  0.92039000  1
  O  O52  1  0.02748400  0.88080200  0.08630300  1
  O  O53  1  0.97251600  0.11919800  0.91369700  1
  O  O54  1  0.47251600  0.61919800  0.58630300  1
  O  O55  1  0.52748400  0.38080200  0.41369700  1
  O  O56  1  0.46614400  0.99145900  0.08645700  1
  O  O57  1  0.53385600  0.00854100  0.91354300  1
  O  O58  1  0.03385600  0.50854100  0.58645700  1
  O  O59  1  0.96614400  0.49145900  0.41354300  1
  O  O60  1  0.28196200  0.92080800  0.20526600  1
  O  O61  1  0.71803800  0.07919200  0.79473400  1
  O  O62  1  0.21803800  0.57919200  0.70526600  1
  O  O63  1  0.78196200  0.42080800  0.29473400  1
  O  O64  1  0.45749400  0.27473200  0.55232500  1
  O  O65  1  0.54250600  0.72526800  0.44767500  1
  O  O66  1  0.04250600  0.22526800  0.05232500  1
  O  O67  1  0.95749400  0.77473200  0.94767500  1
  O  O68  1  0.19271600  0.89491000  0.40177200  1
  O  O69  1  0.80728400  0.10509000  0.59822800  1
  O  O70  1  0.30728400  0.60509000  0.90177200  1
  O  O71  1  0.69271600  0.39491000  0.09822800  1
  O  O72  1  0.00912500  0.53694600  0.08955700  1
  O  O73  1  0.99087500  0.46305400  0.91044300  1
  O  O74  1  0.49087500  0.96305400  0.58955700  1
  O  O75  1  0.50912500  0.03694600  0.41044300  1
  O  O76  1  0.16212800  0.87543400  0.58515200  1
  O  O77  1  0.83787200  0.12456600  0.41484800  1
  O  O78  1  0.33787200  0.62456600  0.08515200  1
  O  O79  1  0.66212800  0.37543400  0.91484800  1
  O  O80  1  0.15322700  0.87728300  0.76823600  1
  O  O81  1  0.84677300  0.12271700  0.23176400  1
  O  O82  1  0.34677300  0.62271700  0.26823600  1
  O  O83  1  0.65322700  0.37728300  0.73176400  1
  O  O84  1  0.82661500  0.77401200  0.77477900  1
  O  O85  1  0.17338500  0.22598800  0.22522100  1
  O  O86  1  0.67338500  0.72598800  0.27477900  1
  O  O87  1  0.32661500  0.27401200  0.72522100  1
  O  O88  1  0.85167000  0.79979700  0.39488900  1
  O  O89  1  0.14833000  0.20020300  0.60511100  1
  O  O90  1  0.64833000  0.70020300  0.89488900  1
  O  O91  1  0.35167000  0.29979700  0.10511100  1
  O  O92  1  0.55115300  0.99746400  0.23313400  1
  O  O93  1  0.44884700  0.00253600  0.76686600  1
  O  O94  1  0.94884700  0.50253600  0.73313400  1
  O  O95  1  0.05115300  0.49746400  0.26686600  1
