# generated using pymatgen
data_PrAl5Ni2
_symmetry_space_group_name_H-M   'P 1'
_cell_length_a   6.29800949
_cell_length_b   6.29800949
_cell_length_c   6.29800949
_cell_angle_alpha   142.99556288
_cell_angle_beta   111.90841710
_cell_angle_gamma   80.11256943
_symmetry_Int_Tables_number   1
_chemical_formula_structural   PrAl5Ni2
_chemical_formula_sum   'Pr1 Al5 Ni2'
_cell_volume   135.88391245
_cell_formula_units_Z   1
loop_
 _symmetry_equiv_pos_site_id
 _symmetry_equiv_pos_as_xyz
  1  'x, y, z'
loop_
 _atom_site_type_symbol
 _atom_site_label
 _atom_site_symmetry_multiplicity
 _atom_site_fract_x
 _atom_site_fract_y
 _atom_site_fract_z
 _atom_site_occupancy
  Pr  Pr0  1  0.00000000  0.00000000  0.00000000  1
  Al  Al1  1  0.50000000  0.00000000  0.50000000  1
  Al  Al2  1  0.15148800  0.34137000  0.81011900  1
  Al  Al3  1  0.84851200  0.65863000  0.18988100  1
  Al  Al4  1  0.46874900  0.65863000  0.81011900  1
  Al  Al5  1  0.53125100  0.34137000  0.18988100  1
  Ni  Ni6  1  0.73761400  0.23761400  0.50000000  1
  Ni  Ni7  1  0.26238600  0.76238600  0.50000000  1
