# generated using pymatgen
data_Cs4FeO3
_symmetry_space_group_name_H-M   'P 1'
_cell_length_a   7.63341891
_cell_length_b   12.27237098
_cell_length_c   10.41248204
_cell_angle_alpha   108.07766267
_cell_angle_beta   102.87733658
_cell_angle_gamma   90.28000784
_symmetry_Int_Tables_number   1
_chemical_formula_structural   Cs4FeO3
_chemical_formula_sum   'Cs16 Fe4 O12'
_cell_volume   901.08002743
_cell_formula_units_Z   4
loop_
 _symmetry_equiv_pos_site_id
 _symmetry_equiv_pos_as_xyz
  1  'x, y, z'
loop_
 _atom_site_type_symbol
 _atom_site_label
 _atom_site_symmetry_multiplicity
 _atom_site_fract_x
 _atom_site_fract_y
 _atom_site_fract_z
 _atom_site_occupancy
  Cs  Cs0  1  0.41090300  0.16323300  0.59616300  1
  Cs  Cs1  1  0.91095700  0.66323900  0.59617500  1
  Cs  Cs2  1  0.08910800  0.33683300  0.40387700  1
  Cs  Cs3  1  0.58904100  0.83676800  0.40382300  1
  Cs  Cs4  1  0.49508100  0.28679500  0.98792500  1
  Cs  Cs5  1  0.99507600  0.78676100  0.98791000  1
  Cs  Cs6  1  0.00492900  0.21324500  0.01208500  1
  Cs  Cs7  1  0.50496200  0.71327300  0.01210200  1
  Cs  Cs8  1  0.61424200  0.96624500  0.85088000  1
  Cs  Cs9  1  0.11439000  0.46621900  0.85094300  1
  Cs  Cs10  1  0.88579900  0.53380400  0.14915500  1
  Cs  Cs11  1  0.38555000  0.03384200  0.14905100  1
  Cs  Cs12  1  0.07766600  0.86694800  0.37698600  1
  Cs  Cs13  1  0.57775300  0.36685600  0.37704100  1
  Cs  Cs14  1  0.42233900  0.63312100  0.62299700  1
  Cs  Cs15  1  0.92228800  0.13317200  0.62299200  1
  Fe  Fe16  1  0.64186300  0.43664300  0.76427300  1
  Fe  Fe17  1  0.85802900  0.06321000  0.23577300  1
  Fe  Fe18  1  0.14178100  0.93669200  0.76431700  1
  Fe  Fe19  1  0.35854800  0.56316900  0.23545600  1
  O  O20  1  0.11032600  0.09175800  0.33143500  1
  O  O21  1  0.61073800  0.59171500  0.33154200  1
  O  O22  1  0.38952300  0.40829300  0.66855900  1
  O  O23  1  0.88937600  0.90831500  0.66848800  1
  O  O24  1  0.26285700  0.08371100  0.79321800  1
  O  O25  1  0.76294400  0.58367400  0.79319700  1
  O  O26  1  0.23711900  0.41628900  0.20679900  1
  O  O27  1  0.73681500  0.91625400  0.20686000  1
  O  O28  1  0.27318300  0.82224200  0.82634300  1
  O  O29  1  0.77339900  0.32215000  0.82626800  1
  O  O30  1  0.22690700  0.67773900  0.17370000  1
  O  O31  1  0.72650900  0.17779300  0.17366700  1
