# generated using pymatgen
data_Ho(AlFe)6
_symmetry_space_group_name_H-M   'P 1'
_cell_length_a   6.55397459
_cell_length_b   6.55397459
_cell_length_c   6.55397459
_cell_angle_alpha   135.20651601
_cell_angle_beta   99.30741434
_cell_angle_gamma   97.38971655
_symmetry_Int_Tables_number   1
_chemical_formula_structural   Ho(AlFe)6
_chemical_formula_sum   'Ho1 Al6 Fe6'
_cell_volume   183.35192778
_cell_formula_units_Z   1
loop_
 _symmetry_equiv_pos_site_id
 _symmetry_equiv_pos_as_xyz
  1  'x, y, z'
loop_
 _atom_site_type_symbol
 _atom_site_label
 _atom_site_symmetry_multiplicity
 _atom_site_fract_x
 _atom_site_fract_y
 _atom_site_fract_z
 _atom_site_occupancy
  Ho  Ho0  1  0.00000000  0.00000000  0.00000000  1
  Al  Al1  1  0.34701200  0.34701200  0.00000000  1
  Al  Al2  1  0.65298800  0.65298800  0.00000000  1
  Al  Al3  1  0.66382400  0.00000000  0.66382400  1
  Al  Al4  1  0.33617600  0.00000000  0.33617600  1
  Al  Al5  1  0.80607500  0.30607500  0.50000000  1
  Al  Al6  1  0.19392500  0.69392500  0.50000000  1
  Fe  Fe7  1  0.50000000  0.00000000  0.00000000  1
  Fe  Fe8  1  0.50000000  0.50000000  0.50000000  1
  Fe  Fe9  1  0.00000000  0.00000000  0.50000000  1
  Fe  Fe10  1  0.00000000  0.50000000  0.00000000  1
  Fe  Fe11  1  0.23819800  0.50000000  0.73819800  1
  Fe  Fe12  1  0.76180200  0.50000000  0.26180200  1
