# generated using pymatgen
data_K2NaMnF6
_symmetry_space_group_name_H-M   'P 1'
_cell_length_a   6.02799585
_cell_length_b   6.02799585
_cell_length_c   6.02799585
_cell_angle_alpha   121.61957691
_cell_angle_beta   121.61957691
_cell_angle_gamma   87.21697857
_symmetry_Int_Tables_number   1
_chemical_formula_structural   K2NaMnF6
_chemical_formula_sum   'K2 Na1 Mn1 F6'
_cell_volume   150.89798291
_cell_formula_units_Z   1
loop_
 _symmetry_equiv_pos_site_id
 _symmetry_equiv_pos_as_xyz
  1  'x, y, z'
loop_
 _atom_site_type_symbol
 _atom_site_label
 _atom_site_symmetry_multiplicity
 _atom_site_fract_x
 _atom_site_fract_y
 _atom_site_fract_z
 _atom_site_occupancy
  K  K0  1  0.25000000  0.75000000  0.50000000  1
  K  K1  1  0.75000000  0.25000000  0.50000000  1
  Na  Na2  1  0.50000000  0.50000000  0.00000000  1
  Mn  Mn3  1  0.00000000  0.00000000  0.00000000  1
  F  F4  1  0.77090300  0.22909700  0.00000000  1
  F  F5  1  0.77090300  0.77090300  0.54180600  1
  F  F6  1  0.22909700  0.22909700  0.45819400  1
  F  F7  1  0.22909700  0.77090300  0.00000000  1
  F  F8  1  0.75842700  0.75842700  0.00000000  1
  F  F9  1  0.24157300  0.24157300  0.00000000  1
