# generated using pymatgen
data_AsN(OF3)2
_symmetry_space_group_name_H-M   'P 1'
_cell_length_a   5.26434686
_cell_length_b   5.26434686
_cell_length_c   5.32905519
_cell_angle_alpha   85.78841530
_cell_angle_beta   85.78841530
_cell_angle_gamma   91.75762745
_symmetry_Int_Tables_number   1
_chemical_formula_structural   AsN(OF3)2
_chemical_formula_sum   'As1 N1 O2 F6'
_cell_volume   146.79283028
_cell_formula_units_Z   1
loop_
 _symmetry_equiv_pos_site_id
 _symmetry_equiv_pos_as_xyz
  1  'x, y, z'
loop_
 _atom_site_type_symbol
 _atom_site_label
 _atom_site_symmetry_multiplicity
 _atom_site_fract_x
 _atom_site_fract_y
 _atom_site_fract_z
 _atom_site_occupancy
  As  As0  1  0.00000000  0.00000000  0.00000000  1
  N  N1  1  0.50000000  0.50000000  0.50000000  1
  O  O2  1  0.60487900  0.60487900  0.64309400  1
  O  O3  1  0.39512100  0.39512100  0.35690600  1
  F  F4  1  0.23052100  0.23052100  0.85710900  1
  F  F5  1  0.77942900  0.10690600  0.78580500  1
  F  F6  1  0.10690600  0.77942900  0.78580500  1
  F  F7  1  0.89309400  0.22057100  0.21419500  1
  F  F8  1  0.22057100  0.89309400  0.21419500  1
  F  F9  1  0.76947900  0.76947900  0.14289100  1
