# generated using pymatgen
data_Ca2SnN2
_symmetry_space_group_name_H-M   'P 1'
_cell_length_a   6.19494953
_cell_length_b   6.19494953
_cell_length_c   12.13042800
_cell_angle_alpha   90.00000000
_cell_angle_beta   90.00000000
_cell_angle_gamma   131.08566149
_symmetry_Int_Tables_number   1
_chemical_formula_structural   Ca2SnN2
_chemical_formula_sum   'Ca8 Sn4 N8'
_cell_volume   350.88616863
_cell_formula_units_Z   4
loop_
 _symmetry_equiv_pos_site_id
 _symmetry_equiv_pos_as_xyz
  1  'x, y, z'
loop_
 _atom_site_type_symbol
 _atom_site_label
 _atom_site_symmetry_multiplicity
 _atom_site_fract_x
 _atom_site_fract_y
 _atom_site_fract_z
 _atom_site_occupancy
  Ca  Ca0  1  0.53930000  0.46070000  0.86244500  1
  Ca  Ca1  1  0.46070000  0.53930000  0.13755500  1
  Ca  Ca2  1  0.96070000  0.03930000  0.36244500  1
  Ca  Ca3  1  0.03930000  0.96070000  0.63755500  1
  Ca  Ca4  1  0.86162800  0.13837200  0.95417400  1
  Ca  Ca5  1  0.13837200  0.86162800  0.04582600  1
  Ca  Ca6  1  0.63837200  0.36162800  0.45417400  1
  Ca  Ca7  1  0.36162800  0.63837200  0.54582600  1
  Sn  Sn8  1  0.74291600  0.25708400  0.68557200  1
  Sn  Sn9  1  0.25708400  0.74291600  0.31442800  1
  Sn  Sn10  1  0.75708400  0.24291600  0.18557200  1
  Sn  Sn11  1  0.24291600  0.75708400  0.81442800  1
  N  N12  1  0.56166200  0.43833800  0.64055600  1
  N  N13  1  0.43833800  0.56166200  0.35944400  1
  N  N14  1  0.93833800  0.06166200  0.14055600  1
  N  N15  1  0.06166200  0.93833800  0.85944400  1
  N  N16  1  0.84884300  0.15115700  0.54527100  1
  N  N17  1  0.15115700  0.84884300  0.45472900  1
  N  N18  1  0.65115700  0.34884300  0.04527100  1
  N  N19  1  0.34884300  0.65115700  0.95472900  1
