# generated using pymatgen
data_Si4P4Os
_symmetry_space_group_name_H-M   'P 1'
_cell_length_a   4.98162319
_cell_length_b   5.65917420
_cell_length_c   6.21815776
_cell_angle_alpha   85.71965561
_cell_angle_beta   68.33311382
_cell_angle_gamma   70.89452729
_symmetry_Int_Tables_number   1
_chemical_formula_structural   Si4P4Os
_chemical_formula_sum   'Si4 P4 Os1'
_cell_volume   153.72872716
_cell_formula_units_Z   1
loop_
 _symmetry_equiv_pos_site_id
 _symmetry_equiv_pos_as_xyz
  1  'x, y, z'
loop_
 _atom_site_type_symbol
 _atom_site_label
 _atom_site_symmetry_multiplicity
 _atom_site_fract_x
 _atom_site_fract_y
 _atom_site_fract_z
 _atom_site_occupancy
  Si  Si0  1  0.99551700  0.00032000  0.99150100  1
  Si  Si1  1  0.38973700  0.37054900  0.73622300  1
  Si  Si2  1  0.51354200  0.62015900  0.18406000  1
  Si  Si3  1  0.82238100  0.80225900  0.53093200  1
  P  P4  1  0.31278000  0.04052700  0.62193700  1
  P  P5  1  0.49309100  0.25257900  0.06220000  1
  P  P6  1  0.77397800  0.43700000  0.42593500  1
  P  P7  1  0.91958500  0.66707500  0.86668300  1
  Os  Os8  1  0.15229000  0.02613300  0.30282900  1
