# generated using pymatgen
data_Ga2Sn2S5
_symmetry_space_group_name_H-M   'P 1'
_cell_length_a   6.39807600
_cell_length_b   11.02564100
_cell_length_c   12.70926800
_cell_angle_alpha   90.00000000
_cell_angle_beta   90.00000000
_cell_angle_gamma   90.00000000
_symmetry_Int_Tables_number   1
_chemical_formula_structural   Ga2Sn2S5
_chemical_formula_sum   'Ga8 Sn8 S20'
_cell_volume   896.54848264
_cell_formula_units_Z   4
loop_
 _symmetry_equiv_pos_site_id
 _symmetry_equiv_pos_as_xyz
  1  'x, y, z'
loop_
 _atom_site_type_symbol
 _atom_site_label
 _atom_site_symmetry_multiplicity
 _atom_site_fract_x
 _atom_site_fract_y
 _atom_site_fract_z
 _atom_site_occupancy
  Ga  Ga0  1  0.64651400  0.11490200  0.76819700  1
  Ga  Ga1  1  0.35348600  0.61490200  0.23180300  1
  Ga  Ga2  1  0.85348600  0.11490200  0.26819700  1
  Ga  Ga3  1  0.14651400  0.61490200  0.73180300  1
  Ga  Ga4  1  0.15188100  0.28090900  0.81816600  1
  Ga  Ga5  1  0.84811900  0.78090900  0.18183400  1
  Ga  Ga6  1  0.34811900  0.28090900  0.31816600  1
  Ga  Ga7  1  0.65188100  0.78090900  0.68183400  1
  Sn  Sn8  1  0.54389900  0.48121200  0.53882900  1
  Sn  Sn9  1  0.45610100  0.98121200  0.46117100  1
  Sn  Sn10  1  0.95610100  0.48121200  0.03882900  1
  Sn  Sn11  1  0.04389900  0.98121200  0.96117100  1
  Sn  Sn12  1  0.55001800  0.25657500  0.01766600  1
  Sn  Sn13  1  0.44998200  0.75657500  0.98233400  1
  Sn  Sn14  1  0.94998200  0.25657500  0.51766600  1
  Sn  Sn15  1  0.05001800  0.75657500  0.48233400  1
  S  S16  1  0.47809400  0.96592600  0.67241800  1
  S  S17  1  0.52190600  0.46592600  0.32758200  1
  S  S18  1  0.02190600  0.96592600  0.17241800  1
  S  S19  1  0.97809400  0.46592600  0.82758200  1
  S  S20  1  0.50592600  0.80205400  0.22620600  1
  S  S21  1  0.49407400  0.30205400  0.77379400  1
  S  S22  1  0.99407400  0.80205400  0.72620600  1
  S  S23  1  0.00592600  0.30205400  0.27379400  1
  S  S24  1  0.14282500  0.53768900  0.56159600  1
  S  S25  1  0.85717500  0.03768900  0.43840400  1
  S  S26  1  0.35717500  0.53768900  0.06159600  1
  S  S27  1  0.64282500  0.03768900  0.93840400  1
  S  S28  1  0.64043600  0.72183500  0.50688200  1
  S  S29  1  0.35956400  0.22183500  0.49311800  1
  S  S30  1  0.85956400  0.72183500  0.00688200  1
  S  S31  1  0.14043600  0.22183500  0.99311800  1
  S  S32  1  0.98855300  0.13929700  0.71195100  1
  S  S33  1  0.01144700  0.63929700  0.28804900  1
  S  S34  1  0.51144700  0.13929700  0.21195100  1
  S  S35  1  0.48855300  0.63929700  0.78804900  1
