# generated using pymatgen
data_V(PO3)3
_symmetry_space_group_name_H-M   'P 1'
_cell_length_a   11.81781664
_cell_length_b   11.81781664
_cell_length_c   9.62908022
_cell_angle_alpha   69.84938963
_cell_angle_beta   69.84938963
_cell_angle_gamma   110.56421288
_symmetry_Int_Tables_number   1
_chemical_formula_structural   V(PO3)3
_chemical_formula_sum   'V6 P18 O54'
_cell_volume   1002.67262786
_cell_formula_units_Z   6
loop_
 _symmetry_equiv_pos_site_id
 _symmetry_equiv_pos_as_xyz
  1  'x, y, z'
loop_
 _atom_site_type_symbol
 _atom_site_label
 _atom_site_symmetry_multiplicity
 _atom_site_fract_x
 _atom_site_fract_y
 _atom_site_fract_z
 _atom_site_occupancy
  V  V0  1  0.17121900  0.33083800  0.49921600  1
  V  V1  1  0.33083800  0.17121900  0.99921600  1
  V  V2  1  0.84164000  0.66510100  0.49629500  1
  V  V3  1  0.66510100  0.84164000  0.99629500  1
  V  V4  1  0.47651900  0.98625700  0.53283900  1
  V  V5  1  0.98625700  0.47651900  0.03283900  1
  P  P6  1  0.83266600  0.12014000  0.28919100  1
  P  P7  1  0.12014000  0.83266600  0.78919100  1
  P  P8  1  0.53522800  0.49502900  0.22628000  1
  P  P9  1  0.49502900  0.53522800  0.72628000  1
  P  P10  1  0.18888200  0.81608600  0.24599100  1
  P  P11  1  0.81608600  0.18888200  0.74599100  1
  P  P12  1  0.80080400  0.40442500  0.84693400  1
  P  P13  1  0.40442500  0.80080400  0.34693400  1
  P  P14  1  0.46049300  0.73391300  0.84674700  1
  P  P15  1  0.73391300  0.46049300  0.34674700  1
  P  P16  1  0.14712000  0.08444900  0.82075500  1
  P  P17  1  0.08444900  0.14712000  0.32075500  1
  P  P18  1  0.18268900  0.57626500  0.19565500  1
  P  P19  1  0.57626500  0.18268900  0.69565500  1
  P  P20  1  0.51751900  0.24436400  0.18924500  1
  P  P21  1  0.24436400  0.51751900  0.68924500  1
  P  P22  1  0.87087000  0.92396000  0.16056200  1
  P  P23  1  0.92396000  0.87087000  0.66056200  1
  O  O24  1  0.38562200  0.42298000  0.37331200  1
  O  O25  1  0.42298000  0.38562200  0.87331200  1
  O  O26  1  0.95652900  0.22428800  0.61367400  1
  O  O27  1  0.22428800  0.95652900  0.11367400  1
  O  O28  1  0.14948300  0.14869900  0.65382200  1
  O  O29  1  0.14869900  0.14948300  0.15382200  1
  O  O30  1  0.16822700  0.27809500  0.31713200  1
  O  O31  1  0.27809500  0.16822700  0.81713200  1
  O  O32  1  0.18535900  0.51246000  0.35890400  1
  O  O33  1  0.51246000  0.18535900  0.85890400  1
  O  O34  1  0.17220000  0.39232600  0.67669900  1
  O  O35  1  0.39232600  0.17220000  0.17669900  1
  O  O36  1  0.63816100  0.59984400  0.57050200  1
  O  O37  1  0.59984400  0.63816100  0.07050200  1
  O  O38  1  0.04675700  0.72250400  0.41545600  1
  O  O39  1  0.72250400  0.04675700  0.91545600  1
  O  O40  1  0.76932800  0.48328600  0.72137600  1
  O  O41  1  0.48328600  0.76932800  0.22137600  1
  O  O42  1  0.83801000  0.56882800  0.35838000  1
  O  O43  1  0.56882800  0.83801000  0.85838000  1
  O  O44  1  0.90802000  0.84595500  0.27863300  1
  O  O45  1  0.84595500  0.90802000  0.77863300  1
  O  O46  1  0.83898300  0.76673600  0.62737600  1
  O  O47  1  0.76673600  0.83898300  0.12737600  1
  O  O48  1  0.26595100  0.91571700  0.62878500  1
  O  O49  1  0.91571700  0.26595100  0.12878500  1
  O  O50  1  0.68910100  0.06936500  0.43183900  1
  O  O51  1  0.06936500  0.68910100  0.93183900  1
  O  O52  1  0.49098400  0.91234200  0.37052100  1
  O  O53  1  0.91234200  0.49098400  0.87052100  1
  O  O54  1  0.42029500  0.79487400  0.72059900  1
  O  O55  1  0.79487400  0.42029500  0.22059900  1
  O  O56  1  0.48592100  0.05543700  0.69754600  1
  O  O57  1  0.05543700  0.48592100  0.19754600  1
  O  O58  1  0.51153200  0.17043900  0.35584200  1
  O  O59  1  0.17043900  0.51153200  0.85584200  1
  O  O60  1  0.85147700  0.31169500  0.78722700  1
  O  O61  1  0.31169500  0.85147700  0.28722700  1
  O  O62  1  0.28066000  0.65891100  0.53259600  1
  O  O63  1  0.65891100  0.28066000  0.03259600  1
  O  O64  1  0.51301900  0.63632700  0.80335800  1
  O  O65  1  0.63632700  0.51301900  0.30335800  1
  O  O66  1  0.61482300  0.32276900  0.53700200  1
  O  O67  1  0.32276900  0.61482300  0.03700200  1
  O  O68  1  0.10585300  0.92324900  0.87945300  1
  O  O69  1  0.92324900  0.10585300  0.37945300  1
  O  O70  1  0.05646600  0.01248100  0.47823100  1
  O  O71  1  0.01248100  0.05646600  0.97823100  1
  O  O72  1  0.20686000  0.73091400  0.14847700  1
  O  O73  1  0.73091400  0.20686000  0.64847700  1
  O  O74  1  0.55375800  0.40175600  0.14388800  1
  O  O75  1  0.40175600  0.55375800  0.64388800  1
  O  O76  1  0.80955100  0.00492100  0.23396100  1
  O  O77  1  0.00492100  0.80955100  0.73396100  1
