# generated using pymatgen
data_K2Al2Sb3
_symmetry_space_group_name_H-M   'P 1'
_cell_length_a   7.34616300
_cell_length_b   14.93639600
_cell_length_c   16.90840167
_cell_angle_alpha   89.45830756
_cell_angle_beta   90.00000000
_cell_angle_gamma   90.00000000
_symmetry_Int_Tables_number   1
_chemical_formula_structural   K2Al2Sb3
_chemical_formula_sum   'K16 Al16 Sb24'
_cell_volume   1855.19483294
_cell_formula_units_Z   8
loop_
 _symmetry_equiv_pos_site_id
 _symmetry_equiv_pos_as_xyz
  1  'x, y, z'
loop_
 _atom_site_type_symbol
 _atom_site_label
 _atom_site_symmetry_multiplicity
 _atom_site_fract_x
 _atom_site_fract_y
 _atom_site_fract_z
 _atom_site_occupancy
  K  K0  1  0.97023700  0.85876600  0.99301600  1
  K  K1  1  0.47023700  0.14123400  0.50698400  1
  K  K2  1  0.02976300  0.14123400  0.00698400  1
  K  K3  1  0.52976300  0.85876600  0.49301600  1
  K  K4  1  0.54878500  0.34990300  0.01799900  1
  K  K5  1  0.04878500  0.65009700  0.48200100  1
  K  K6  1  0.45121500  0.65009700  0.98200100  1
  K  K7  1  0.95121500  0.34990300  0.51799900  1
  K  K8  1  0.53157500  0.07496100  0.10984000  1
  K  K9  1  0.03157500  0.92503900  0.39016000  1
  K  K10  1  0.46842500  0.92503900  0.89016000  1
  K  K11  1  0.96842500  0.07496100  0.60984000  1
  K  K12  1  0.94466900  0.55657000  0.89445200  1
  K  K13  1  0.44466900  0.44343000  0.60554800  1
  K  K14  1  0.05533100  0.44343000  0.10554800  1
  K  K15  1  0.55533100  0.55657000  0.39445200  1
  Al  Al16  1  0.28358500  0.31255100  0.82656600  1
  Al  Al17  1  0.78358500  0.68744900  0.67343400  1
  Al  Al18  1  0.71641500  0.68744900  0.17343400  1
  Al  Al19  1  0.21641500  0.31255100  0.32656600  1
  Al  Al20  1  0.78989300  0.90593900  0.73060700  1
  Al  Al21  1  0.28989300  0.09406100  0.76939300  1
  Al  Al22  1  0.21010700  0.09406100  0.26939300  1
  Al  Al23  1  0.71010700  0.90593900  0.23060700  1
  Al  Al24  1  0.76576800  0.18433600  0.82097600  1
  Al  Al25  1  0.26576800  0.81566400  0.67902400  1
  Al  Al26  1  0.23423200  0.81566400  0.17902400  1
  Al  Al27  1  0.73423200  0.18433600  0.32097600  1
  Al  Al28  1  0.76066800  0.40512400  0.76121500  1
  Al  Al29  1  0.26066800  0.59487600  0.73878500  1
  Al  Al30  1  0.23933200  0.59487600  0.23878500  1
  Al  Al31  1  0.73933200  0.40512400  0.26121500  1
  Sb  Sb32  1  0.96395100  0.02894600  0.82360600  1
  Sb  Sb33  1  0.46395100  0.97105400  0.67639400  1
  Sb  Sb34  1  0.03604900  0.97105400  0.17639400  1
  Sb  Sb35  1  0.53604900  0.02894600  0.32360600  1
  Sb  Sb36  1  0.45032400  0.16468200  0.90076400  1
  Sb  Sb37  1  0.95032400  0.83531800  0.59923600  1
  Sb  Sb38  1  0.54967600  0.83531800  0.09923600  1
  Sb  Sb39  1  0.04967600  0.16468200  0.40076400  1
  Sb  Sb40  1  0.94410700  0.32840600  0.88600700  1
  Sb  Sb41  1  0.44410700  0.67159400  0.61399300  1
  Sb  Sb42  1  0.05589300  0.67159400  0.11399300  1
  Sb  Sb43  1  0.55589300  0.32840600  0.38600700  1
  Sb  Sb44  1  0.82476800  0.25268300  0.17517000  1
  Sb  Sb45  1  0.32476800  0.74731700  0.32483000  1
  Sb  Sb46  1  0.17523200  0.74731700  0.82483000  1
  Sb  Sb47  1  0.67523200  0.25268300  0.67517000  1
  Sb  Sb48  1  0.45712200  0.47508400  0.83255500  1
  Sb  Sb49  1  0.95712200  0.52491600  0.66744500  1
  Sb  Sb50  1  0.54287800  0.52491600  0.16744500  1
  Sb  Sb51  1  0.04287800  0.47508400  0.33255500  1
  Sb  Sb52  1  0.22131600  0.24632100  0.17803300  1
  Sb  Sb53  1  0.72131600  0.75367900  0.32196700  1
  Sb  Sb54  1  0.77868400  0.75367900  0.82196700  1
  Sb  Sb55  1  0.27868400  0.24632100  0.67803300  1
