# generated using pymatgen
data_TaBi(P2O7)2
_symmetry_space_group_name_H-M   'P 1'
_cell_length_a   8.54470100
_cell_length_b   8.53507000
_cell_length_c   8.67490928
_cell_angle_alpha   89.33216339
_cell_angle_beta   90.00000000
_cell_angle_gamma   90.00000000
_symmetry_Int_Tables_number   1
_chemical_formula_structural   TaBi(P2O7)2
_chemical_formula_sum   'Ta2 Bi2 P8 O28'
_cell_volume   632.61487146
_cell_formula_units_Z   2
loop_
 _symmetry_equiv_pos_site_id
 _symmetry_equiv_pos_as_xyz
  1  'x, y, z'
loop_
 _atom_site_type_symbol
 _atom_site_label
 _atom_site_symmetry_multiplicity
 _atom_site_fract_x
 _atom_site_fract_y
 _atom_site_fract_z
 _atom_site_occupancy
  Ta  Ta0  1  0.00000000  0.00000000  0.00000000  1
  Ta  Ta1  1  0.50000000  0.50000000  0.00000000  1
  Bi  Bi2  1  0.00000000  0.50000000  0.50000000  1
  Bi  Bi3  1  0.50000000  0.00000000  0.50000000  1
  P  P4  1  0.61608300  0.11268000  0.08957100  1
  P  P5  1  0.11608300  0.38732000  0.91042900  1
  P  P6  1  0.40873200  0.59916100  0.37419700  1
  P  P7  1  0.90873200  0.90083900  0.62580300  1
  P  P8  1  0.38391700  0.88732000  0.91042900  1
  P  P9  1  0.88391700  0.61268000  0.08957100  1
  P  P10  1  0.59126800  0.40083900  0.62580300  1
  P  P11  1  0.09126800  0.09916100  0.37419700  1
  O  O12  1  0.78033400  0.07558300  0.02548800  1
  O  O13  1  0.28033400  0.42441700  0.97451200  1
  O  O14  1  0.23594100  0.57822600  0.39903500  1
  O  O15  1  0.73594100  0.92177400  0.60096500  1
  O  O16  1  0.46798400  0.76518400  0.37584800  1
  O  O17  1  0.56957100  0.27993000  0.03715200  1
  O  O18  1  0.06957100  0.22007000  0.96284800  1
  O  O19  1  0.96798400  0.73481600  0.62415200  1
  O  O20  1  0.10518200  0.41287800  0.73967100  1
  O  O21  1  0.46067200  0.52120700  0.21965900  1
  O  O22  1  0.60518200  0.08712200  0.26032900  1
  O  O23  1  0.96067200  0.97879300  0.78034100  1
  O  O24  1  0.21966600  0.92441700  0.97451200  1
  O  O25  1  0.71966600  0.57558300  0.02548800  1
  O  O26  1  0.76405900  0.42177400  0.60096500  1
  O  O27  1  0.26405900  0.07822600  0.39903500  1
  O  O28  1  0.53201600  0.23481600  0.62415200  1
  O  O29  1  0.43042900  0.72007000  0.96284800  1
  O  O30  1  0.93042900  0.77993000  0.03715200  1
  O  O31  1  0.03201600  0.26518400  0.37584800  1
  O  O32  1  0.89481800  0.58712200  0.26032900  1
  O  O33  1  0.53932800  0.47879300  0.78034100  1
  O  O34  1  0.39481800  0.91287800  0.73967100  1
  O  O35  1  0.03932800  0.02120700  0.21965900  1
  O  O36  1  0.50000000  0.00000000  0.00000000  1
  O  O37  1  0.00000000  0.50000000  0.00000000  1
  O  O38  1  0.50000000  0.50000000  0.50000000  1
  O  O39  1  0.00000000  0.00000000  0.50000000  1
