# generated using pymatgen
data_Er2GaCo2
_symmetry_space_group_name_H-M   'P 1'
_cell_length_a   4.02254600
_cell_length_b   5.43757200
_cell_length_c   5.34586344
_cell_angle_alpha   120.56912583
_cell_angle_beta   112.10034088
_cell_angle_gamma   90.00000000
_symmetry_Int_Tables_number   1
_chemical_formula_structural   Er2GaCo2
_chemical_formula_sum   'Er2 Ga1 Co2'
_cell_volume   90.55806851
_cell_formula_units_Z   1
loop_
 _symmetry_equiv_pos_site_id
 _symmetry_equiv_pos_as_xyz
  1  'x, y, z'
loop_
 _atom_site_type_symbol
 _atom_site_label
 _atom_site_symmetry_multiplicity
 _atom_site_fract_x
 _atom_site_fract_y
 _atom_site_fract_z
 _atom_site_occupancy
  Er  Er0  1  0.79396300  0.29396300  0.58792600  1
  Er  Er1  1  0.20603700  0.70603700  0.41207400  1
  Ga  Ga2  1  0.00000000  0.00000000  0.00000000  1
  Co  Co3  1  0.50000000  0.28465000  0.00000000  1
  Co  Co4  1  0.50000000  0.71535000  0.00000000  1
