# generated using pymatgen
data_Cs3Ag2Sb3S8
_symmetry_space_group_name_H-M   'P 1'
_cell_length_a   7.39613100
_cell_length_b   10.84731800
_cell_length_c   13.00784289
_cell_angle_alpha   77.27955846
_cell_angle_beta   90.00000000
_cell_angle_gamma   90.00000000
_symmetry_Int_Tables_number   1
_chemical_formula_structural   Cs3Ag2Sb3S8
_chemical_formula_sum   'Cs6 Ag4 Sb6 S16'
_cell_volume   1017.98166247
_cell_formula_units_Z   2
loop_
 _symmetry_equiv_pos_site_id
 _symmetry_equiv_pos_as_xyz
  1  'x, y, z'
loop_
 _atom_site_type_symbol
 _atom_site_label
 _atom_site_symmetry_multiplicity
 _atom_site_fract_x
 _atom_site_fract_y
 _atom_site_fract_z
 _atom_site_occupancy
  Cs  Cs0  1  0.25000000  0.45769200  0.65773400  1
  Cs  Cs1  1  0.75000000  0.54230800  0.34226600  1
  Cs  Cs2  1  0.25000000  0.58169100  0.07418500  1
  Cs  Cs3  1  0.75000000  0.41830900  0.92581500  1
  Cs  Cs4  1  0.25000000  0.14530200  0.44826900  1
  Cs  Cs5  1  0.75000000  0.85469800  0.55173100  1
  Ag  Ag6  1  0.52822500  0.87273500  0.10182300  1
  Ag  Ag7  1  0.02822500  0.12726500  0.89817700  1
  Ag  Ag8  1  0.47177500  0.12726500  0.89817700  1
  Ag  Ag9  1  0.97177500  0.87273500  0.10182300  1
  Sb  Sb10  1  0.75000000  0.13246200  0.20941600  1
  Sb  Sb11  1  0.25000000  0.86753800  0.79058400  1
  Sb  Sb12  1  0.25000000  0.17574600  0.11476200  1
  Sb  Sb13  1  0.75000000  0.82425400  0.88523800  1
  Sb  Sb14  1  0.25000000  0.77097700  0.37294800  1
  Sb  Sb15  1  0.75000000  0.22902300  0.62705200  1
  S  S16  1  0.75000000  0.08908700  0.02670100  1
  S  S17  1  0.25000000  0.91091300  0.97329900  1
  S  S18  1  0.49879200  0.29547600  0.18482700  1
  S  S19  1  0.99879200  0.70452400  0.81517300  1
  S  S20  1  0.50120800  0.70452400  0.81517300  1
  S  S21  1  0.00120800  0.29547600  0.18482700  1
  S  S22  1  0.25000000  0.30246400  0.93662500  1
  S  S23  1  0.75000000  0.69753600  0.06337500  1
  S  S24  1  0.51628200  0.87528300  0.29502800  1
  S  S25  1  0.01628200  0.12471700  0.70497200  1
  S  S26  1  0.48371800  0.12471700  0.70497200  1
  S  S27  1  0.98371800  0.87528300  0.29502800  1
  S  S28  1  0.25000000  0.55747800  0.36005800  1
  S  S29  1  0.75000000  0.44252200  0.63994200  1
  S  S30  1  0.25000000  0.79647600  0.54797300  1
  S  S31  1  0.75000000  0.20352400  0.45202700  1
