# generated using pymatgen
data_K2(TaSe2)3
_symmetry_space_group_name_H-M   'P 1'
_cell_length_a   3.57289179
_cell_length_b   3.57289179
_cell_length_c   49.29596300
_cell_angle_alpha   90.00000000
_cell_angle_beta   90.00000000
_cell_angle_gamma   119.99999620
_symmetry_Int_Tables_number   1
_chemical_formula_structural   K2(TaSe2)3
_chemical_formula_sum   'K4 Ta6 Se12'
_cell_volume   544.98146355
_cell_formula_units_Z   2
loop_
 _symmetry_equiv_pos_site_id
 _symmetry_equiv_pos_as_xyz
  1  'x, y, z'
loop_
 _atom_site_type_symbol
 _atom_site_label
 _atom_site_symmetry_multiplicity
 _atom_site_fract_x
 _atom_site_fract_y
 _atom_site_fract_z
 _atom_site_occupancy
  K  K0  1  0.00000000  0.00000000  0.66677700  1
  K  K1  1  0.00000000  0.00000000  0.33322300  1
  K  K2  1  0.00000000  0.00000000  0.00000000  1
  K  K3  1  0.33333300  0.66666700  0.50000000  1
  Ta  Ta4  1  0.33333300  0.66666700  0.74976100  1
  Ta  Ta5  1  0.33333300  0.66666700  0.41659400  1
  Ta  Ta6  1  0.33333300  0.66666700  0.08310400  1
  Ta  Ta7  1  0.33333300  0.66666700  0.58340600  1
  Ta  Ta8  1  0.33333300  0.66666700  0.25023900  1
  Ta  Ta9  1  0.33333300  0.66666700  0.91689600  1
  Se  Se10  1  0.66666700  0.33333300  0.78259800  1
  Se  Se11  1  0.66666700  0.33333300  0.44984300  1
  Se  Se12  1  0.66666700  0.33333300  0.11599400  1
  Se  Se13  1  0.66666700  0.33333300  0.55015700  1
  Se  Se14  1  0.66666700  0.33333300  0.21740200  1
  Se  Se15  1  0.66666700  0.33333300  0.88400600  1
  Se  Se16  1  0.66666700  0.33333300  0.71638400  1
  Se  Se17  1  0.66666700  0.33333300  0.38336700  1
  Se  Se18  1  0.66666700  0.33333300  0.04976500  1
  Se  Se19  1  0.66666700  0.33333300  0.61663300  1
  Se  Se20  1  0.66666700  0.33333300  0.28361600  1
  Se  Se21  1  0.66666700  0.33333300  0.95023500  1
