# generated using pymatgen
data_La3(GaRh)2
_symmetry_space_group_name_H-M   'P 1'
_cell_length_a   5.77937600
_cell_length_b   8.37377700
_cell_length_c   13.69059700
_cell_angle_alpha   90.00000000
_cell_angle_beta   90.00000000
_cell_angle_gamma   90.00000000
_symmetry_Int_Tables_number   1
_chemical_formula_structural   La3(GaRh)2
_chemical_formula_sum   'La12 Ga8 Rh8'
_cell_volume   662.55925966
_cell_formula_units_Z   4
loop_
 _symmetry_equiv_pos_site_id
 _symmetry_equiv_pos_as_xyz
  1  'x, y, z'
loop_
 _atom_site_type_symbol
 _atom_site_label
 _atom_site_symmetry_multiplicity
 _atom_site_fract_x
 _atom_site_fract_y
 _atom_site_fract_z
 _atom_site_occupancy
  La  La0  1  0.64744500  0.25167100  0.25000000  1
  La  La1  1  0.35255500  0.74832900  0.75000000  1
  La  La2  1  0.35255500  0.75167100  0.25000000  1
  La  La3  1  0.64744500  0.24832900  0.75000000  1
  La  La4  1  0.15467200  0.39754700  0.09510000  1
  La  La5  1  0.84532800  0.60245300  0.90490000  1
  La  La6  1  0.84532800  0.60245300  0.59510000  1
  La  La7  1  0.84532800  0.89754700  0.40490000  1
  La  La8  1  0.15467200  0.39754700  0.40490000  1
  La  La9  1  0.15467200  0.10245300  0.59510000  1
  La  La10  1  0.15467200  0.10245300  0.90490000  1
  La  La11  1  0.84532800  0.89754700  0.09510000  1
  Ga  Ga12  1  0.15100000  0.10350700  0.25000000  1
  Ga  Ga13  1  0.84900000  0.89649300  0.75000000  1
  Ga  Ga14  1  0.84900000  0.60350700  0.25000000  1
  Ga  Ga15  1  0.15100000  0.39649300  0.75000000  1
  Ga  Ga16  1  0.64370200  0.25000000  0.00000000  1
  Ga  Ga17  1  0.35629800  0.75000000  0.00000000  1
  Ga  Ga18  1  0.35629800  0.75000000  0.50000000  1
  Ga  Ga19  1  0.64370200  0.25000000  0.50000000  1
  Rh  Rh20  1  0.37500200  0.03361800  0.09151000  1
  Rh  Rh21  1  0.62499800  0.96638200  0.90849000  1
  Rh  Rh22  1  0.62499800  0.96638200  0.59151000  1
  Rh  Rh23  1  0.62499800  0.53361800  0.40849000  1
  Rh  Rh24  1  0.37500200  0.03361800  0.40849000  1
  Rh  Rh25  1  0.37500200  0.46638200  0.59151000  1
  Rh  Rh26  1  0.37500200  0.46638200  0.90849000  1
  Rh  Rh27  1  0.62499800  0.53361800  0.09151000  1
