# generated using pymatgen
data_Pr3Cr10N11
_symmetry_space_group_name_H-M   'P 1'
_cell_length_a   9.09844336
_cell_length_b   9.09844336
_cell_length_c   9.09844336
_cell_angle_alpha   60.00000000
_cell_angle_beta   60.00000000
_cell_angle_gamma   60.00000000
_symmetry_Int_Tables_number   1
_chemical_formula_structural   Pr3Cr10N11
_chemical_formula_sum   'Pr6 Cr20 N22'
_cell_volume   532.58176189
_cell_formula_units_Z   2
loop_
 _symmetry_equiv_pos_site_id
 _symmetry_equiv_pos_as_xyz
  1  'x, y, z'
loop_
 _atom_site_type_symbol
 _atom_site_label
 _atom_site_symmetry_multiplicity
 _atom_site_fract_x
 _atom_site_fract_y
 _atom_site_fract_z
 _atom_site_occupancy
  Pr  Pr0  1  0.69835800  0.30164200  0.30164200  1
  Pr  Pr1  1  0.30164200  0.69835800  0.69835800  1
  Pr  Pr2  1  0.30164200  0.69835800  0.30164200  1
  Pr  Pr3  1  0.69835800  0.30164200  0.69835800  1
  Pr  Pr4  1  0.30164200  0.30164200  0.69835800  1
  Pr  Pr5  1  0.69835800  0.69835800  0.30164200  1
  Cr  Cr6  1  0.09577000  0.09577000  0.09577000  1
  Cr  Cr7  1  0.90423000  0.90423000  0.90423000  1
  Cr  Cr8  1  0.09577000  0.09577000  0.71269100  1
  Cr  Cr9  1  0.09577000  0.71269100  0.09577000  1
  Cr  Cr10  1  0.90423000  0.90423000  0.28730900  1
  Cr  Cr11  1  0.90423000  0.28730900  0.90423000  1
  Cr  Cr12  1  0.71269100  0.09577000  0.09577000  1
  Cr  Cr13  1  0.28730900  0.90423000  0.90423000  1
  Cr  Cr14  1  0.39838300  0.10161700  0.10161700  1
  Cr  Cr15  1  0.60161700  0.89838300  0.89838300  1
  Cr  Cr16  1  0.10161700  0.39838300  0.39838300  1
  Cr  Cr17  1  0.10161700  0.39838300  0.10161700  1
  Cr  Cr18  1  0.60161700  0.89838300  0.60161700  1
  Cr  Cr19  1  0.89838300  0.60161700  0.60161700  1
  Cr  Cr20  1  0.89838300  0.60161700  0.89838300  1
  Cr  Cr21  1  0.39838300  0.10161700  0.39838300  1
  Cr  Cr22  1  0.10161700  0.10161700  0.39838300  1
  Cr  Cr23  1  0.89838300  0.89838300  0.60161700  1
  Cr  Cr24  1  0.39838300  0.39838300  0.10161700  1
  Cr  Cr25  1  0.60161700  0.60161700  0.89838300  1
  N  N26  1  0.34476400  0.00000000  0.00000000  1
  N  N27  1  0.65523600  0.00000000  0.00000000  1
  N  N28  1  0.00000000  0.34476400  0.65523600  1
  N  N29  1  0.00000000  0.65523600  0.34476400  1
  N  N30  1  0.00000000  0.34476400  0.00000000  1
  N  N31  1  0.65523600  0.00000000  0.34476400  1
  N  N32  1  0.00000000  0.65523600  0.00000000  1
  N  N33  1  0.34476400  0.00000000  0.65523600  1
  N  N34  1  0.00000000  0.00000000  0.34476400  1
  N  N35  1  0.00000000  0.00000000  0.65523600  1
  N  N36  1  0.65523600  0.34476400  0.00000000  1
  N  N37  1  0.34476400  0.65523600  0.00000000  1
  N  N38  1  0.35287200  0.35287200  0.35287200  1
  N  N39  1  0.64712800  0.64712800  0.64712800  1
  N  N40  1  0.35287200  0.35287200  0.94138300  1
  N  N41  1  0.35287200  0.94138300  0.35287200  1
  N  N42  1  0.64712800  0.64712800  0.05861700  1
  N  N43  1  0.64712800  0.05861700  0.64712800  1
  N  N44  1  0.94138300  0.35287200  0.35287200  1
  N  N45  1  0.05861700  0.64712800  0.64712800  1
  N  N46  1  0.50000000  0.50000000  0.50000000  1
  N  N47  1  0.00000000  0.00000000  0.00000000  1
