# generated using pymatgen
data_Dy(BIr)2
_symmetry_space_group_name_H-M   'P 1'
_cell_length_a   7.20728154
_cell_length_b   6.20596620
_cell_length_c   5.47611031
_cell_angle_alpha   75.90121884
_cell_angle_beta   56.62949380
_cell_angle_gamma   47.46928737
_symmetry_Int_Tables_number   1
_chemical_formula_structural   Dy(BIr)2
_chemical_formula_sum   'Dy2 B4 Ir4'
_cell_volume   147.43031284
_cell_formula_units_Z   2
loop_
 _symmetry_equiv_pos_site_id
 _symmetry_equiv_pos_as_xyz
  1  'x, y, z'
loop_
 _atom_site_type_symbol
 _atom_site_label
 _atom_site_symmetry_multiplicity
 _atom_site_fract_x
 _atom_site_fract_y
 _atom_site_fract_z
 _atom_site_occupancy
  Dy  Dy0  1  0.50000000  0.50000000  0.50000000  1
  Dy  Dy1  1  0.75000000  0.75000000  0.75000000  1
  B  B2  1  0.17997700  0.82002300  0.17997700  1
  B  B3  1  0.07002300  0.42997700  0.07002300  1
  B  B4  1  0.82002300  0.17997700  0.82002300  1
  B  B5  1  0.42997700  0.07002300  0.42997700  1
  Ir  Ir6  1  0.87338600  0.87338600  0.12661400  1
  Ir  Ir7  1  0.12661400  0.12661400  0.87338600  1
  Ir  Ir8  1  0.37661400  0.37661400  0.12338600  1
  Ir  Ir9  1  0.12338600  0.12338600  0.37661400  1
