# generated using pymatgen
data_NaHoGeO4
_symmetry_space_group_name_H-M   'P 1'
_cell_length_a   5.32246900
_cell_length_b   6.48439600
_cell_length_c   11.48003800
_cell_angle_alpha   90.00000000
_cell_angle_beta   90.00000000
_cell_angle_gamma   90.00000000
_symmetry_Int_Tables_number   1
_chemical_formula_structural   NaHoGeO4
_chemical_formula_sum   'Na4 Ho4 Ge4 O16'
_cell_volume   396.21051354
_cell_formula_units_Z   4
loop_
 _symmetry_equiv_pos_site_id
 _symmetry_equiv_pos_as_xyz
  1  'x, y, z'
loop_
 _atom_site_type_symbol
 _atom_site_label
 _atom_site_symmetry_multiplicity
 _atom_site_fract_x
 _atom_site_fract_y
 _atom_site_fract_z
 _atom_site_occupancy
  Na  Na0  1  0.50000000  0.00000000  0.00000000  1
  Na  Na1  1  0.00000000  0.00000000  0.50000000  1
  Na  Na2  1  0.50000000  0.50000000  0.00000000  1
  Na  Na3  1  0.00000000  0.50000000  0.50000000  1
  Ho  Ho4  1  0.00536100  0.75000000  0.77739400  1
  Ho  Ho5  1  0.50536100  0.25000000  0.72260600  1
  Ho  Ho6  1  0.99463900  0.25000000  0.22260600  1
  Ho  Ho7  1  0.49463900  0.75000000  0.27739400  1
  Ge  Ge8  1  0.05288200  0.75000000  0.09793700  1
  Ge  Ge9  1  0.55288200  0.25000000  0.40206300  1
  Ge  Ge10  1  0.94711800  0.25000000  0.90206300  1
  Ge  Ge11  1  0.44711800  0.75000000  0.59793700  1
  O  O12  1  0.17162300  0.75000000  0.95449600  1
  O  O13  1  0.67162300  0.25000000  0.54550400  1
  O  O14  1  0.82837700  0.25000000  0.04550400  1
  O  O15  1  0.32837700  0.75000000  0.45449600  1
  O  O16  1  0.79271300  0.04191100  0.82497500  1
  O  O17  1  0.29271300  0.95808900  0.67502500  1
  O  O18  1  0.20728700  0.54191100  0.17502500  1
  O  O19  1  0.70728700  0.45808900  0.32497500  1
  O  O20  1  0.20728700  0.95808900  0.17502500  1
  O  O21  1  0.70728700  0.04191100  0.32497500  1
  O  O22  1  0.79271300  0.45808900  0.82497500  1
  O  O23  1  0.29271300  0.54191100  0.67502500  1
  O  O24  1  0.77388500  0.75000000  0.61155300  1
  O  O25  1  0.27388500  0.25000000  0.88844700  1
  O  O26  1  0.22611500  0.25000000  0.38844700  1
  O  O27  1  0.72611500  0.75000000  0.11155300  1
