# generated using pymatgen
data_LiMg3P3O11
_symmetry_space_group_name_H-M   'P 1'
_cell_length_a   8.40362200
_cell_length_b   9.15723100
_cell_length_c   10.72919200
_cell_angle_alpha   90.00000000
_cell_angle_beta   90.00000000
_cell_angle_gamma   90.00000000
_symmetry_Int_Tables_number   1
_chemical_formula_structural   LiMg3P3O11
_chemical_formula_sum   'Li4 Mg12 P12 O44'
_cell_volume   825.65325291
_cell_formula_units_Z   4
loop_
 _symmetry_equiv_pos_site_id
 _symmetry_equiv_pos_as_xyz
  1  'x, y, z'
loop_
 _atom_site_type_symbol
 _atom_site_label
 _atom_site_symmetry_multiplicity
 _atom_site_fract_x
 _atom_site_fract_y
 _atom_site_fract_z
 _atom_site_occupancy
  Li  Li0  1  0.02526000  0.81275400  0.75000000  1
  Li  Li1  1  0.47474000  0.31275400  0.75000000  1
  Li  Li2  1  0.97474000  0.18724600  0.25000000  1
  Li  Li3  1  0.52526000  0.68724600  0.25000000  1
  Mg  Mg4  1  0.85955100  0.54558600  0.08997500  1
  Mg  Mg5  1  0.64044900  0.04558600  0.41002500  1
  Mg  Mg6  1  0.14044900  0.45441400  0.58997500  1
  Mg  Mg7  1  0.35955100  0.95441400  0.91002500  1
  Mg  Mg8  1  0.14044900  0.45441400  0.91002500  1
  Mg  Mg9  1  0.35955100  0.95441400  0.58997500  1
  Mg  Mg10  1  0.85955100  0.54558600  0.41002500  1
  Mg  Mg11  1  0.64044900  0.04558600  0.08997500  1
  Mg  Mg12  1  0.00000000  0.00000000  0.00000000  1
  Mg  Mg13  1  0.50000000  0.50000000  0.50000000  1
  Mg  Mg14  1  0.00000000  0.00000000  0.50000000  1
  Mg  Mg15  1  0.50000000  0.50000000  0.00000000  1
  P  P16  1  0.21406300  0.71084300  0.10906600  1
  P  P17  1  0.28593700  0.21084300  0.39093400  1
  P  P18  1  0.78593700  0.28915700  0.60906600  1
  P  P19  1  0.71406300  0.78915700  0.89093400  1
  P  P20  1  0.78593700  0.28915700  0.89093400  1
  P  P21  1  0.71406300  0.78915700  0.60906600  1
  P  P22  1  0.21406300  0.71084300  0.39093400  1
  P  P23  1  0.28593700  0.21084300  0.10906600  1
  P  P24  1  0.28952200  0.64684200  0.75000000  1
  P  P25  1  0.21047800  0.14684200  0.75000000  1
  P  P26  1  0.71047800  0.35315800  0.25000000  1
  P  P27  1  0.78952200  0.85315800  0.25000000  1
  O  O28  1  0.20079800  0.85012200  0.02997500  1
  O  O29  1  0.29920200  0.35012200  0.47002500  1
  O  O30  1  0.79920200  0.14987800  0.52997500  1
  O  O31  1  0.70079800  0.64987800  0.97002500  1
  O  O32  1  0.79920200  0.14987800  0.97002500  1
  O  O33  1  0.70079800  0.64987800  0.52997500  1
  O  O34  1  0.20079800  0.85012200  0.47002500  1
  O  O35  1  0.29920200  0.35012200  0.02997500  1
  O  O36  1  0.60759200  0.89161600  0.25000000  1
  O  O37  1  0.89240800  0.39161600  0.25000000  1
  O  O38  1  0.39240800  0.10838400  0.75000000  1
  O  O39  1  0.10759200  0.60838400  0.75000000  1
  O  O40  1  0.85534000  0.92738100  0.13248000  1
  O  O41  1  0.64466000  0.42738100  0.36752000  1
  O  O42  1  0.14466000  0.07261900  0.63248000  1
  O  O43  1  0.35534000  0.57261900  0.86752000  1
  O  O44  1  0.14466000  0.07261900  0.86752000  1
  O  O45  1  0.35534000  0.57261900  0.63248000  1
  O  O46  1  0.85534000  0.92738100  0.36752000  1
  O  O47  1  0.64466000  0.42738100  0.13248000  1
  O  O48  1  0.38210800  0.64950100  0.11512400  1
  O  O49  1  0.11789200  0.14950100  0.38487600  1
  O  O50  1  0.61789200  0.35049900  0.61512400  1
  O  O51  1  0.88210800  0.85049900  0.88487600  1
  O  O52  1  0.61789200  0.35049900  0.88487600  1
  O  O53  1  0.88210800  0.85049900  0.61512400  1
  O  O54  1  0.38210800  0.64950100  0.38487600  1
  O  O55  1  0.11789200  0.14950100  0.11512400  1
  O  O56  1  0.31130200  0.81503500  0.75000000  1
  O  O57  1  0.18869800  0.31503500  0.75000000  1
  O  O58  1  0.68869800  0.18496500  0.25000000  1
  O  O59  1  0.81130200  0.68496500  0.25000000  1
  O  O60  1  0.08978800  0.59840500  0.06361600  1
  O  O61  1  0.41021200  0.09840500  0.43638400  1
  O  O62  1  0.91021200  0.40159500  0.56361600  1
  O  O63  1  0.58978800  0.90159500  0.93638400  1
  O  O64  1  0.91021200  0.40159500  0.93638400  1
  O  O65  1  0.58978800  0.90159500  0.56361600  1
  O  O66  1  0.08978800  0.59840500  0.43638400  1
  O  O67  1  0.41021200  0.09840500  0.06361600  1
  O  O68  1  0.16353400  0.75915900  0.25000000  1
  O  O69  1  0.33646600  0.25915900  0.25000000  1
  O  O70  1  0.83646600  0.24084100  0.75000000  1
  O  O71  1  0.66353400  0.74084100  0.75000000  1
