# generated using pymatgen
data_NaFePO4
_symmetry_space_group_name_H-M   'P 1'
_cell_length_a   5.10760005
_cell_length_b   6.93116707
_cell_length_c   9.11321644
_cell_angle_alpha   90.06306338
_cell_angle_beta   89.98709192
_cell_angle_gamma   90.00862622
_symmetry_Int_Tables_number   1
_chemical_formula_structural   NaFePO4
_chemical_formula_sum   'Na4 Fe4 P4 O16'
_cell_volume   322.62250233
_cell_formula_units_Z   4
loop_
 _symmetry_equiv_pos_site_id
 _symmetry_equiv_pos_as_xyz
  1  'x, y, z'
loop_
 _atom_site_type_symbol
 _atom_site_label
 _atom_site_symmetry_multiplicity
 _atom_site_fract_x
 _atom_site_fract_y
 _atom_site_fract_z
 _atom_site_occupancy
  Na  Na0  1  0.97147900  0.24992300  0.34823300  1
  Na  Na1  1  0.52849900  0.24989300  0.84823900  1
  Na  Na2  1  0.02852000  0.75007700  0.65176600  1
  Na  Na3  1  0.47150200  0.75010800  0.15175700  1
  Fe  Fe4  1  0.00000900  0.49999800  0.00000400  1
  Fe  Fe5  1  0.50000200  0.50000100  0.50000500  1
  Fe  Fe6  1  0.50000100  0.99999800  0.50000600  1
  Fe  Fe7  1  0.00001200  0.00000500  0.00000600  1
  P  P8  1  0.03430500  0.25020300  0.67544800  1
  P  P9  1  0.46568300  0.25024000  0.17545500  1
  P  P10  1  0.96569100  0.74979600  0.32455300  1
  P  P11  1  0.53431900  0.74975900  0.82454500  1
  O  O12  1  0.74802000  0.25003200  0.61618100  1
  O  O13  1  0.75202800  0.25005700  0.11616200  1
  O  O14  1  0.25197500  0.74996900  0.38381800  1
  O  O15  1  0.24796900  0.74994700  0.88383000  1
  O  O16  1  0.04344300  0.25028200  0.84785300  1
  O  O17  1  0.45652000  0.25017000  0.34786100  1
  O  O18  1  0.95655500  0.74971300  0.15214700  1
  O  O19  1  0.54347700  0.74983000  0.65213600  1
  O  O20  1  0.18023700  0.06800200  0.62109500  1
  O  O21  1  0.32028400  0.43244400  0.12114200  1
  O  O22  1  0.82014500  0.56761700  0.37892800  1
  O  O23  1  0.68033900  0.93193500  0.87892200  1
  O  O24  1  0.81975300  0.93199500  0.37890600  1
  O  O25  1  0.67972800  0.56755800  0.87885900  1
  O  O26  1  0.17984600  0.43238200  0.62107100  1
  O  O27  1  0.31966000  0.06806600  0.12107300  1
