# generated using pymatgen
data_Na(NiO2)2
_symmetry_space_group_name_H-M   'P 1'
_cell_length_a   4.87145246
_cell_length_b   5.77113791
_cell_length_c   11.26110993
_cell_angle_alpha   89.60991886
_cell_angle_beta   90.16075272
_cell_angle_gamma   89.78463950
_symmetry_Int_Tables_number   1
_chemical_formula_structural   Na(NiO2)2
_chemical_formula_sum   'Na4 Ni8 O16'
_cell_volume   316.58201994
_cell_formula_units_Z   4
loop_
 _symmetry_equiv_pos_site_id
 _symmetry_equiv_pos_as_xyz
  1  'x, y, z'
loop_
 _atom_site_type_symbol
 _atom_site_label
 _atom_site_symmetry_multiplicity
 _atom_site_fract_x
 _atom_site_fract_y
 _atom_site_fract_z
 _atom_site_occupancy
  Na  Na0  1  0.01516100  0.74988000  0.24988100  1
  Na  Na1  1  0.35856500  0.74998100  0.75035400  1
  Na  Na2  1  0.64190400  0.25007900  0.24953900  1
  Na  Na3  1  0.98670400  0.24998000  0.75070800  1
  Ni  Ni4  1  0.00161400  0.24705300  0.00345900  1
  Ni  Ni5  1  0.99830300  0.75282300  0.99649900  1
  Ni  Ni6  1  0.00058600  0.25241200  0.49744100  1
  Ni  Ni7  1  0.99793800  0.74654600  0.50373900  1
  Ni  Ni8  1  0.50005900  0.49974400  0.99993900  1
  Ni  Ni9  1  0.50007300  0.00030000  0.99993500  1
  Ni  Ni10  1  0.50027900  0.00284000  0.49997500  1
  Ni  Ni11  1  0.50025700  0.49808700  0.50017200  1
  O  O12  1  0.17075200  0.01257300  0.58888400  1
  O  O13  1  0.17832500  0.00254200  0.90697600  1
  O  O14  1  0.17540200  0.48472500  0.59043100  1
  O  O15  1  0.17535000  0.50033000  0.90869700  1
  O  O16  1  0.33386700  0.23960600  0.08793700  1
  O  O17  1  0.33269900  0.25895800  0.41156000  1
  O  O18  1  0.32194400  0.76305500  0.08613100  1
  O  O19  1  0.31885200  0.73390900  0.41352800  1
  O  O20  1  0.68276400  0.26559000  0.58801900  1
  O  O21  1  0.67801700  0.23687700  0.91390500  1
  O  O22  1  0.66441900  0.74069600  0.58726300  1
  O  O23  1  0.66608300  0.76037800  0.91199500  1
  O  O24  1  0.82874800  0.01357700  0.41006700  1
  O  O25  1  0.82487800  0.49034400  0.40877900  1
  O  O26  1  0.82169100  0.99672700  0.09298200  1
  O  O27  1  0.82476700  0.50038800  0.09120700  1
