# generated using pymatgen
data_BaGeN2
_symmetry_space_group_name_H-M   'P 1'
_cell_length_a   5.59308400
_cell_length_b   11.22342400
_cell_length_c   16.66279800
_cell_angle_alpha   90.00000000
_cell_angle_beta   90.00000000
_cell_angle_gamma   90.00000000
_symmetry_Int_Tables_number   1
_chemical_formula_structural   BaGeN2
_chemical_formula_sum   'Ba16 Ge16 N32'
_cell_volume   1045.98303671
_cell_formula_units_Z   16
loop_
 _symmetry_equiv_pos_site_id
 _symmetry_equiv_pos_as_xyz
  1  'x, y, z'
loop_
 _atom_site_type_symbol
 _atom_site_label
 _atom_site_symmetry_multiplicity
 _atom_site_fract_x
 _atom_site_fract_y
 _atom_site_fract_z
 _atom_site_occupancy
  Ba  Ba0  1  0.75495100  0.01979800  0.43393700  1
  Ba  Ba1  1  0.25495100  0.48020200  0.56606300  1
  Ba  Ba2  1  0.24504900  0.51979800  0.06606300  1
  Ba  Ba3  1  0.74504900  0.98020200  0.93393700  1
  Ba  Ba4  1  0.24504900  0.98020200  0.56606300  1
  Ba  Ba5  1  0.74504900  0.51979800  0.43393700  1
  Ba  Ba6  1  0.75495100  0.48020200  0.93393700  1
  Ba  Ba7  1  0.25495100  0.01979800  0.06606300  1
  Ba  Ba8  1  0.83694100  0.26733700  0.31412000  1
  Ba  Ba9  1  0.33694100  0.23266300  0.68588000  1
  Ba  Ba10  1  0.16305900  0.76733700  0.18588000  1
  Ba  Ba11  1  0.66305900  0.73266300  0.81412000  1
  Ba  Ba12  1  0.16305900  0.73266300  0.68588000  1
  Ba  Ba13  1  0.66305900  0.76733700  0.31412000  1
  Ba  Ba14  1  0.83694100  0.23266300  0.81412000  1
  Ba  Ba15  1  0.33694100  0.26733700  0.18588000  1
  Ge  Ge16  1  0.75509400  0.00924000  0.18795100  1
  Ge  Ge17  1  0.25509400  0.49076000  0.81204900  1
  Ge  Ge18  1  0.24490600  0.50924000  0.31204900  1
  Ge  Ge19  1  0.74490600  0.99076000  0.68795100  1
  Ge  Ge20  1  0.24490600  0.99076000  0.81204900  1
  Ge  Ge21  1  0.74490600  0.50924000  0.18795100  1
  Ge  Ge22  1  0.75509400  0.49076000  0.68795100  1
  Ge  Ge23  1  0.25509400  0.00924000  0.31204900  1
  Ge  Ge24  1  0.80597600  0.26254200  0.06278500  1
  Ge  Ge25  1  0.30597600  0.23745800  0.93721500  1
  Ge  Ge26  1  0.19402400  0.76254200  0.43721500  1
  Ge  Ge27  1  0.69402400  0.73745800  0.56278500  1
  Ge  Ge28  1  0.19402400  0.73745800  0.93721500  1
  Ge  Ge29  1  0.69402400  0.76254200  0.06278500  1
  Ge  Ge30  1  0.80597600  0.23745800  0.56278500  1
  Ge  Ge31  1  0.30597600  0.26254200  0.43721500  1
  N  N32  1  0.56408700  0.47469800  0.28128600  1
  N  N33  1  0.06408700  0.02530200  0.71871400  1
  N  N34  1  0.43591300  0.97469800  0.21871400  1
  N  N35  1  0.93591300  0.52530200  0.78128600  1
  N  N36  1  0.43591300  0.52530200  0.71871400  1
  N  N37  1  0.93591300  0.97469800  0.28128600  1
  N  N38  1  0.56408700  0.02530200  0.78128600  1
  N  N39  1  0.06408700  0.47469800  0.21871400  1
  N  N40  1  0.62037000  0.29166400  0.47506400  1
  N  N41  1  0.12037000  0.20833600  0.52493600  1
  N  N42  1  0.37963000  0.79166400  0.02493600  1
  N  N43  1  0.87963000  0.70833600  0.97506400  1
  N  N44  1  0.37963000  0.70833600  0.52493600  1
  N  N45  1  0.87963000  0.79166400  0.47506400  1
  N  N46  1  0.62037000  0.20833600  0.97506400  1
  N  N47  1  0.12037000  0.29166400  0.02493600  1
  N  N48  1  0.67786100  0.41289600  0.09655300  1
  N  N49  1  0.17786100  0.08710400  0.90344700  1
  N  N50  1  0.32213900  0.91289600  0.40344700  1
  N  N51  1  0.82213900  0.58710400  0.59655300  1
  N  N52  1  0.32213900  0.58710400  0.90344700  1
  N  N53  1  0.82213900  0.91289600  0.09655300  1
  N  N54  1  0.67786100  0.08710400  0.59655300  1
  N  N55  1  0.17786100  0.41289600  0.40344700  1
  N  N56  1  0.82576900  0.16835900  0.15742100  1
  N  N57  1  0.32576900  0.33164100  0.84257900  1
  N  N58  1  0.17423100  0.66835900  0.34257900  1
  N  N59  1  0.67423100  0.83164100  0.65742100  1
  N  N60  1  0.17423100  0.83164100  0.84257900  1
  N  N61  1  0.67423100  0.66835900  0.15742100  1
  N  N62  1  0.82576900  0.33164100  0.65742100  1
  N  N63  1  0.32576900  0.16835900  0.34257900  1
