# generated using pymatgen
data_Pu2B6Ru
_symmetry_space_group_name_H-M   'P 1'
_cell_length_a   3.56740700
_cell_length_b   9.39227100
_cell_length_c   11.44783800
_cell_angle_alpha   90.00000000
_cell_angle_beta   90.00000000
_cell_angle_gamma   90.00000000
_symmetry_Int_Tables_number   1
_chemical_formula_structural   Pu2B6Ru
_chemical_formula_sum   'Pu8 B24 Ru4'
_cell_volume   383.57187033
_cell_formula_units_Z   4
loop_
 _symmetry_equiv_pos_site_id
 _symmetry_equiv_pos_as_xyz
  1  'x, y, z'
loop_
 _atom_site_type_symbol
 _atom_site_label
 _atom_site_symmetry_multiplicity
 _atom_site_fract_x
 _atom_site_fract_y
 _atom_site_fract_z
 _atom_site_occupancy
  Pu  Pu0  1  0.00000000  0.33719800  0.40700400  1
  Pu  Pu1  1  0.00000000  0.66280200  0.59299600  1
  Pu  Pu2  1  0.00000000  0.83719800  0.09299600  1
  Pu  Pu3  1  0.00000000  0.16280200  0.90700400  1
  Pu  Pu4  1  0.00000000  0.95567300  0.39332000  1
  Pu  Pu5  1  0.00000000  0.04432700  0.60668000  1
  Pu  Pu6  1  0.00000000  0.45567300  0.10668000  1
  Pu  Pu7  1  0.00000000  0.54432700  0.89332000  1
  B  B8  1  0.50000000  0.55174300  0.43094000  1
  B  B9  1  0.50000000  0.44825700  0.56906000  1
  B  B10  1  0.50000000  0.05174300  0.06906000  1
  B  B11  1  0.50000000  0.94825700  0.93094000  1
  B  B12  1  0.50000000  0.74244000  0.42370400  1
  B  B13  1  0.50000000  0.25756000  0.57629600  1
  B  B14  1  0.50000000  0.24244000  0.07629600  1
  B  B15  1  0.50000000  0.75756000  0.92370400  1
  B  B16  1  0.50000000  0.80271100  0.27465800  1
  B  B17  1  0.50000000  0.19728900  0.72534200  1
  B  B18  1  0.50000000  0.30271100  0.22534200  1
  B  B19  1  0.50000000  0.69728900  0.77465800  1
  B  B20  1  0.50000000  0.64615400  0.18906100  1
  B  B21  1  0.50000000  0.35384600  0.81093900  1
  B  B22  1  0.50000000  0.14615400  0.31093900  1
  B  B23  1  0.50000000  0.85384600  0.68906100  1
  B  B24  1  0.50000000  0.98930400  0.21849500  1
  B  B25  1  0.50000000  0.01069600  0.78150500  1
  B  B26  1  0.50000000  0.48930400  0.28150500  1
  B  B27  1  0.50000000  0.51069600  0.71849500  1
  B  B28  1  0.50000000  0.64613200  0.04077000  1
  B  B29  1  0.50000000  0.35386800  0.95923000  1
  B  B30  1  0.50000000  0.14613200  0.45923000  1
  B  B31  1  0.50000000  0.85386800  0.54077000  1
  Ru  Ru32  1  0.00000000  0.64533500  0.32042700  1
  Ru  Ru33  1  0.00000000  0.35466500  0.67957300  1
  Ru  Ru34  1  0.00000000  0.14533500  0.17957300  1
  Ru  Ru35  1  0.00000000  0.85466500  0.82042700  1
