# generated using pymatgen
data_HfUC2
_symmetry_space_group_name_H-M   'P 1'
_cell_length_a   5.95396794
_cell_length_b   5.95396794
_cell_length_c   5.95396821
_cell_angle_alpha   32.86637019
_cell_angle_beta   32.86637019
_cell_angle_gamma   32.86637284
_symmetry_Int_Tables_number   1
_chemical_formula_structural   HfUC2
_chemical_formula_sum   'Hf1 U1 C2'
_cell_volume   55.30491583
_cell_formula_units_Z   1
loop_
 _symmetry_equiv_pos_site_id
 _symmetry_equiv_pos_as_xyz
  1  'x, y, z'
loop_
 _atom_site_type_symbol
 _atom_site_label
 _atom_site_symmetry_multiplicity
 _atom_site_fract_x
 _atom_site_fract_y
 _atom_site_fract_z
 _atom_site_occupancy
  Hf  Hf0  1  0.00000000  0.00000000  0.00000000  1
  U  U1  1  0.50000000  0.50000000  0.50000000  1
  C  C2  1  0.25239800  0.25239800  0.25239800  1
  C  C3  1  0.74760200  0.74760200  0.74760200  1
