# generated using pymatgen
data_Ba4Ta10FeO30
_symmetry_space_group_name_H-M   'P 1'
_cell_length_a   10.03342096
_cell_length_b   10.03342096
_cell_length_c   10.03342096
_cell_angle_alpha   133.49182416
_cell_angle_beta   117.80263198
_cell_angle_gamma   81.10185874
_symmetry_Int_Tables_number   1
_chemical_formula_structural   Ba4Ta10FeO30
_chemical_formula_sum   'Ba4 Ta10 Fe1 O30'
_cell_volume   626.02533740
_cell_formula_units_Z   1
loop_
 _symmetry_equiv_pos_site_id
 _symmetry_equiv_pos_as_xyz
  1  'x, y, z'
loop_
 _atom_site_type_symbol
 _atom_site_label
 _atom_site_symmetry_multiplicity
 _atom_site_fract_x
 _atom_site_fract_y
 _atom_site_fract_z
 _atom_site_occupancy
  Ba  Ba0  1  0.25628200  0.75628200  0.50000000  1
  Ba  Ba1  1  0.25417300  0.25417300  0.00000000  1
  Ba  Ba2  1  0.66480900  0.66480900  0.00000000  1
  Ba  Ba3  1  0.65508200  0.15508200  0.50000000  1
  Ta  Ta4  1  0.01457000  0.08278700  0.43720700  1
  Ta  Ta5  1  0.01457000  0.57736300  0.93178300  1
  Ta  Ta6  1  0.64558100  0.08278700  0.06821700  1
  Ta  Ta7  1  0.64558100  0.57736300  0.56279300  1
  Ta  Ta8  1  0.26584000  0.83263500  0.93248400  1
  Ta  Ta9  1  0.26584000  0.33335600  0.43320500  1
  Ta  Ta10  1  0.90015100  0.83263500  0.56679500  1
  Ta  Ta11  1  0.90015100  0.33335600  0.06751600  1
  Ta  Ta12  1  0.45877900  0.20844400  0.74966400  1
  Ta  Ta13  1  0.45877900  0.70911500  0.25033600  1
  Fe  Fe14  1  0.93858400  0.93858400  0.00000000  1
  O  O15  1  0.27924500  0.10256200  0.17668300  1
  O  O16  1  0.26341400  0.58436300  0.67905200  1
  O  O17  1  0.92587900  0.10256200  0.82331700  1
  O  O18  1  0.90531100  0.58436300  0.32094800  1
  O  O19  1  0.42368100  0.80439000  0.11938100  1
  O  O20  1  0.42368100  0.30430000  0.61929100  1
  O  O21  1  0.68500900  0.30430000  0.88061900  1
  O  O22  1  0.68500900  0.80439000  0.38070900  1
  O  O23  1  0.09536400  0.17611700  0.35097900  1
  O  O24  1  0.09536400  0.74438500  0.91924700  1
  O  O25  1  0.82513800  0.74438500  0.64902100  1
  O  O26  1  0.82513800  0.17611700  0.08075300  1
  O  O27  1  0.46291100  0.95112000  0.99278000  1
  O  O28  1  0.46291100  0.47013100  0.51179100  1
  O  O29  1  0.95834000  0.95112000  0.48820900  1
  O  O30  1  0.95834000  0.47013100  0.00722000  1
  O  O31  1  0.13067400  0.87602400  0.74535000  1
  O  O32  1  0.13067400  0.38532400  0.25465000  1
  O  O33  1  0.23335600  0.10503200  0.61000200  1
  O  O34  1  0.23335600  0.62335300  0.12832400  1
  O  O35  1  0.49502900  0.10503200  0.87167600  1
  O  O36  1  0.49502900  0.62335300  0.38999800  1
  O  O37  1  0.78906700  0.51704400  0.72797700  1
  O  O38  1  0.78906700  0.06109000  0.27202300  1
  O  O39  1  0.02372800  0.33605800  0.68767000  1
  O  O40  1  0.97665900  0.82717700  0.14948200  1
  O  O41  1  0.64838900  0.33605800  0.31233000  1
  O  O42  1  0.67769500  0.82717700  0.85051800  1
  O  O43  1  0.46257700  0.96257700  0.50000000  1
  O  O44  1  0.45599300  0.45599300  0.00000000  1
