# generated using pymatgen
data_Ca2MnReO6
_symmetry_space_group_name_H-M   'P 1'
_cell_length_a   5.48985619
_cell_length_b   11.41232401
_cell_length_c   7.86353440
_cell_angle_alpha   89.99609478
_cell_angle_beta   90.14482578
_cell_angle_gamma   90.00306095
_symmetry_Int_Tables_number   1
_chemical_formula_structural   Ca2MnReO6
_chemical_formula_sum   'Ca8 Mn4 Re4 O24'
_cell_volume   492.66471967
_cell_formula_units_Z   4
loop_
 _symmetry_equiv_pos_site_id
 _symmetry_equiv_pos_as_xyz
  1  'x, y, z'
loop_
 _atom_site_type_symbol
 _atom_site_label
 _atom_site_symmetry_multiplicity
 _atom_site_fract_x
 _atom_site_fract_y
 _atom_site_fract_z
 _atom_site_occupancy
  Ca  Ca0  1  0.01474700  0.02888000  0.24758400  1
  Ca  Ca1  1  0.01401800  0.52892900  0.24660000  1
  Ca  Ca2  1  0.51477700  0.22124500  0.74741100  1
  Ca  Ca3  1  0.51407400  0.72084900  0.74696200  1
  Ca  Ca4  1  0.98668700  0.47129700  0.75351700  1
  Ca  Ca5  1  0.98463400  0.97116300  0.75232600  1
  Ca  Ca6  1  0.48461800  0.27901600  0.25232600  1
  Ca  Ca7  1  0.48668300  0.77863800  0.25330100  1
  Mn  Mn8  1  0.00002000  0.75009900  0.00026000  1
  Mn  Mn9  1  0.50000800  0.49985100  0.50022500  1
  Mn  Mn10  1  0.99965900  0.25006800  0.00033600  1
  Mn  Mn11  1  0.49969100  0.99993800  0.50034100  1
  Re  Re12  1  0.99953900  0.25069100  0.49999900  1
  Re  Re13  1  0.00078200  0.74943700  0.50021000  1
  Re  Re14  1  0.49952600  0.99932300  0.00001600  1
  Re  Re15  1  0.50078500  0.50055300  0.00019400  1
  O  O16  1  0.18062300  0.39165500  0.44305600  1
  O  O17  1  0.18038100  0.89167700  0.44209700  1
  O  O18  1  0.68045300  0.35829600  0.94210600  1
  O  O19  1  0.68064200  0.85844500  0.94304000  1
  O  O20  1  0.81964900  0.10788400  0.55785800  1
  O  O21  1  0.81942400  0.60878100  0.55637100  1
  O  O22  1  0.31963800  0.14199100  0.05784500  1
  O  O23  1  0.31930900  0.64128500  0.05643200  1
  O  O24  1  0.28890100  0.15677800  0.45145600  1
  O  O25  1  0.28822000  0.65620000  0.45227800  1
  O  O26  1  0.78882600  0.09322400  0.95150700  1
  O  O27  1  0.78839800  0.59392500  0.95215400  1
  O  O28  1  0.71186500  0.34381200  0.54797100  1
  O  O29  1  0.71086900  0.84316800  0.54797400  1
  O  O30  1  0.21070100  0.40672900  0.04804800  1
  O  O31  1  0.21191600  0.90618900  0.04797000  1
  O  O32  1  0.89876600  0.23161400  0.26489400  1
  O  O33  1  0.89993300  0.73224700  0.26322500  1
  O  O34  1  0.39875500  0.01833800  0.76490500  1
  O  O35  1  0.39982300  0.51781700  0.76302300  1
  O  O36  1  0.10102200  0.26794400  0.73534000  1
  O  O37  1  0.10025800  0.76819500  0.73664300  1
  O  O38  1  0.60037200  0.48183300  0.23684300  1
  O  O39  1  0.60100800  0.98199800  0.23535500  1
