# generated using pymatgen
data_La4Cu5As8
_symmetry_space_group_name_H-M   'P 1'
_cell_length_a   10.62825610
_cell_length_b   10.62825610
_cell_length_c   5.81295500
_cell_angle_alpha   90.00000000
_cell_angle_beta   90.00000000
_cell_angle_gamma   148.26697535
_symmetry_Int_Tables_number   1
_chemical_formula_structural   La4Cu5As8
_chemical_formula_sum   'La4 Cu5 As8'
_cell_volume   345.36261086
_cell_formula_units_Z   1
loop_
 _symmetry_equiv_pos_site_id
 _symmetry_equiv_pos_as_xyz
  1  'x, y, z'
loop_
 _atom_site_type_symbol
 _atom_site_label
 _atom_site_symmetry_multiplicity
 _atom_site_fract_x
 _atom_site_fract_y
 _atom_site_fract_z
 _atom_site_occupancy
  La  La0  1  0.62280000  0.37720000  0.00000000  1
  La  La1  1  0.12203600  0.87796400  0.50000000  1
  La  La2  1  0.87857100  0.12142900  0.50000000  1
  La  La3  1  0.37812100  0.62187900  0.00000000  1
  Cu  Cu4  1  0.99415000  0.49511200  0.24445300  1
  Cu  Cu5  1  0.50488800  0.00585000  0.75554700  1
  Cu  Cu6  1  0.50488800  0.00585000  0.24445300  1
  Cu  Cu7  1  0.99415000  0.49511200  0.75554700  1
  Cu  Cu8  1  0.43698000  0.56302000  0.50000000  1
  As  As9  1  0.82498300  0.17501700  0.00000000  1
  As  As10  1  0.31733900  0.68266100  0.50000000  1
  As  As11  1  0.67745000  0.32255000  0.50000000  1
  As  As12  1  0.17733400  0.82266600  0.00000000  1
  As  As13  1  0.76378500  0.76053100  0.76501900  1
  As  As14  1  0.23946900  0.23621500  0.23498100  1
  As  As15  1  0.76378500  0.76053100  0.23498100  1
  As  As16  1  0.23946900  0.23621500  0.76501900  1
