# generated using pymatgen
data_Hf(AlFe)6
_symmetry_space_group_name_H-M   'P 1'
_cell_length_a   6.48248296
_cell_length_b   6.48248296
_cell_length_c   6.48248296
_cell_angle_alpha   135.09165044
_cell_angle_beta   99.10092126
_cell_angle_gamma   97.67704175
_symmetry_Int_Tables_number   1
_chemical_formula_structural   Hf(AlFe)6
_chemical_formula_sum   'Hf1 Al6 Fe6'
_cell_volume   177.71636434
_cell_formula_units_Z   1
loop_
 _symmetry_equiv_pos_site_id
 _symmetry_equiv_pos_as_xyz
  1  'x, y, z'
loop_
 _atom_site_type_symbol
 _atom_site_label
 _atom_site_symmetry_multiplicity
 _atom_site_fract_x
 _atom_site_fract_y
 _atom_site_fract_z
 _atom_site_occupancy
  Hf  Hf0  1  0.00000000  0.00000000  0.00000000  1
  Al  Al1  1  0.34373100  0.34373100  0.00000000  1
  Al  Al2  1  0.65626900  0.65626900  0.00000000  1
  Al  Al3  1  0.66501100  0.00000000  0.66501100  1
  Al  Al4  1  0.33498900  0.00000000  0.33498900  1
  Al  Al5  1  0.81600600  0.31600600  0.50000000  1
  Al  Al6  1  0.18399400  0.68399400  0.50000000  1
  Fe  Fe7  1  0.50000000  0.00000000  0.00000000  1
  Fe  Fe8  1  0.50000000  0.50000000  0.50000000  1
  Fe  Fe9  1  0.00000000  0.00000000  0.50000000  1
  Fe  Fe10  1  0.00000000  0.50000000  0.00000000  1
  Fe  Fe11  1  0.23875000  0.50000000  0.73875000  1
  Fe  Fe12  1  0.76125000  0.50000000  0.26125000  1
