# generated using pymatgen
data_AgAuF4
_symmetry_space_group_name_H-M   'P 1'
_cell_length_a   6.87928079
_cell_length_b   6.87928079
_cell_length_c   6.87928079
_cell_angle_alpha   129.42873611
_cell_angle_beta   129.42873611
_cell_angle_gamma   74.32169049
_symmetry_Int_Tables_number   1
_chemical_formula_structural   AgAuF4
_chemical_formula_sum   'Ag2 Au2 F8'
_cell_volume   189.33842644
_cell_formula_units_Z   2
loop_
 _symmetry_equiv_pos_site_id
 _symmetry_equiv_pos_as_xyz
  1  'x, y, z'
loop_
 _atom_site_type_symbol
 _atom_site_label
 _atom_site_symmetry_multiplicity
 _atom_site_fract_x
 _atom_site_fract_y
 _atom_site_fract_z
 _atom_site_occupancy
  Ag  Ag0  1  0.25000000  0.25000000  0.00000000  1
  Ag  Ag1  1  0.75000000  0.75000000  0.00000000  1
  Au  Au2  1  0.50000000  0.00000000  0.50000000  1
  Au  Au3  1  0.00000000  0.50000000  0.50000000  1
  F  F4  1  0.20238100  0.70238100  0.16010000  1
  F  F5  1  0.45772000  0.95772000  0.16010000  1
  F  F6  1  0.79761900  0.29761900  0.83990000  1
  F  F7  1  0.29761900  0.45772000  0.50000000  1
  F  F8  1  0.54228000  0.04228000  0.83990000  1
  F  F9  1  0.04228000  0.20238100  0.50000000  1
  F  F10  1  0.70238100  0.54228000  0.50000000  1
  F  F11  1  0.95772000  0.79761900  0.50000000  1
