# generated using pymatgen
data_LaCrSe3
_symmetry_space_group_name_H-M   'P 1'
_cell_length_a   4.00646800
_cell_length_b   8.24937000
_cell_length_c   13.84050500
_cell_angle_alpha   90.00000000
_cell_angle_beta   90.00000000
_cell_angle_gamma   90.00000000
_symmetry_Int_Tables_number   1
_chemical_formula_structural   LaCrSe3
_chemical_formula_sum   'La4 Cr4 Se12'
_cell_volume   457.44027372
_cell_formula_units_Z   4
loop_
 _symmetry_equiv_pos_site_id
 _symmetry_equiv_pos_as_xyz
  1  'x, y, z'
loop_
 _atom_site_type_symbol
 _atom_site_label
 _atom_site_symmetry_multiplicity
 _atom_site_fract_x
 _atom_site_fract_y
 _atom_site_fract_z
 _atom_site_occupancy
  La  La0  1  0.25000000  0.09502900  0.82886500  1
  La  La1  1  0.25000000  0.59502900  0.67113500  1
  La  La2  1  0.75000000  0.90497100  0.17113500  1
  La  La3  1  0.75000000  0.40497100  0.32886500  1
  Cr  Cr4  1  0.25000000  0.33900600  0.05197700  1
  Cr  Cr5  1  0.25000000  0.83900600  0.44802300  1
  Cr  Cr6  1  0.75000000  0.66099400  0.94802300  1
  Cr  Cr7  1  0.75000000  0.16099400  0.55197700  1
  Se  Se8  1  0.25000000  0.19150100  0.21220900  1
  Se  Se9  1  0.25000000  0.69150100  0.28779100  1
  Se  Se10  1  0.75000000  0.80849900  0.78779100  1
  Se  Se11  1  0.75000000  0.30849900  0.71220900  1
  Se  Se12  1  0.25000000  0.34027800  0.49642500  1
  Se  Se13  1  0.25000000  0.84027800  0.00357500  1
  Se  Se14  1  0.75000000  0.65972200  0.50357500  1
  Se  Se15  1  0.75000000  0.15972200  0.99642500  1
  Se  Se16  1  0.25000000  0.48748700  0.89378900  1
  Se  Se17  1  0.25000000  0.98748700  0.60621100  1
  Se  Se18  1  0.75000000  0.51251300  0.10621100  1
  Se  Se19  1  0.75000000  0.01251300  0.39378900  1
