# generated using pymatgen
data_Cs3ReO5
_symmetry_space_group_name_H-M   'P 1'
_cell_length_a   9.02874400
_cell_length_b   9.53175000
_cell_length_c   9.65883300
_cell_angle_alpha   90.00000000
_cell_angle_beta   90.00000000
_cell_angle_gamma   90.00000000
_symmetry_Int_Tables_number   1
_chemical_formula_structural   Cs3ReO5
_chemical_formula_sum   'Cs12 Re4 O20'
_cell_volume   831.23656610
_cell_formula_units_Z   4
loop_
 _symmetry_equiv_pos_site_id
 _symmetry_equiv_pos_as_xyz
  1  'x, y, z'
loop_
 _atom_site_type_symbol
 _atom_site_label
 _atom_site_symmetry_multiplicity
 _atom_site_fract_x
 _atom_site_fract_y
 _atom_site_fract_z
 _atom_site_occupancy
  Cs  Cs0  1  0.25000000  0.00000000  0.47766900  1
  Cs  Cs1  1  0.75000000  0.00000000  0.52233100  1
  Cs  Cs2  1  0.25000000  0.50000000  0.02233100  1
  Cs  Cs3  1  0.75000000  0.50000000  0.97766900  1
  Cs  Cs4  1  0.25000000  0.00000000  0.01832500  1
  Cs  Cs5  1  0.75000000  0.00000000  0.98167500  1
  Cs  Cs6  1  0.25000000  0.50000000  0.48167500  1
  Cs  Cs7  1  0.75000000  0.50000000  0.51832500  1
  Cs  Cs8  1  0.54587900  0.25000000  0.25000000  1
  Cs  Cs9  1  0.45412100  0.75000000  0.75000000  1
  Cs  Cs10  1  0.95412100  0.75000000  0.25000000  1
  Cs  Cs11  1  0.04587900  0.25000000  0.75000000  1
  Re  Re12  1  0.02486200  0.25000000  0.25000000  1
  Re  Re13  1  0.97513800  0.75000000  0.75000000  1
  Re  Re14  1  0.47513800  0.75000000  0.25000000  1
  Re  Re15  1  0.52486200  0.25000000  0.75000000  1
  O  O16  1  0.22376100  0.25000000  0.25000000  1
  O  O17  1  0.77623900  0.75000000  0.75000000  1
  O  O18  1  0.27623900  0.75000000  0.25000000  1
  O  O19  1  0.72376100  0.25000000  0.75000000  1
  O  O20  1  0.53077600  0.56506400  0.21935100  1
  O  O21  1  0.46922400  0.43493600  0.78064900  1
  O  O22  1  0.96922400  0.43493600  0.21935100  1
  O  O23  1  0.96922400  0.06506400  0.28064900  1
  O  O24  1  0.03077600  0.56506400  0.78064900  1
  O  O25  1  0.03077600  0.93493600  0.71935100  1
  O  O26  1  0.53077600  0.93493600  0.28064900  1
  O  O27  1  0.46922400  0.06506400  0.71935100  1
  O  O28  1  0.47828700  0.28118000  0.56499500  1
  O  O29  1  0.52171300  0.71882000  0.43500500  1
  O  O30  1  0.02171300  0.71882000  0.56499500  1
  O  O31  1  0.02171300  0.78118000  0.93500500  1
  O  O32  1  0.97828700  0.28118000  0.43500500  1
  O  O33  1  0.97828700  0.21882000  0.06499500  1
  O  O34  1  0.47828700  0.21882000  0.93500500  1
  O  O35  1  0.52171300  0.78118000  0.06499500  1
