# generated using pymatgen
data_Cs3Sm7Se12
_symmetry_space_group_name_H-M   'P 1'
_cell_length_a   4.27070200
_cell_length_b   13.17739600
_cell_length_c   26.82139600
_cell_angle_alpha   90.00000000
_cell_angle_beta   90.00000000
_cell_angle_gamma   90.00000000
_symmetry_Int_Tables_number   1
_chemical_formula_structural   Cs3Sm7Se12
_chemical_formula_sum   'Cs6 Sm14 Se24'
_cell_volume   1509.42049986
_cell_formula_units_Z   2
loop_
 _symmetry_equiv_pos_site_id
 _symmetry_equiv_pos_as_xyz
  1  'x, y, z'
loop_
 _atom_site_type_symbol
 _atom_site_label
 _atom_site_symmetry_multiplicity
 _atom_site_fract_x
 _atom_site_fract_y
 _atom_site_fract_z
 _atom_site_occupancy
  Cs  Cs0  1  0.50000000  0.53620300  0.13315400  1
  Cs  Cs1  1  0.50000000  0.95732300  0.86408400  1
  Cs  Cs2  1  0.00000000  0.04267700  0.36408400  1
  Cs  Cs3  1  0.00000000  0.46379700  0.63315400  1
  Cs  Cs4  1  0.50000000  0.81070800  0.47022800  1
  Cs  Cs5  1  0.00000000  0.18929200  0.97022800  1
  Sm  Sm6  1  0.50000000  0.46860800  0.41765900  1
  Sm  Sm7  1  0.50000000  0.03217200  0.58395300  1
  Sm  Sm8  1  0.00000000  0.96782800  0.08395300  1
  Sm  Sm9  1  0.00000000  0.53139200  0.91765900  1
  Sm  Sm10  1  0.00000000  0.24999100  0.49993700  1
  Sm  Sm11  1  0.50000000  0.75000900  0.99993700  1
  Sm  Sm12  1  0.50000000  0.32953400  0.81693000  1
  Sm  Sm13  1  0.50000000  0.17282200  0.18187700  1
  Sm  Sm14  1  0.00000000  0.82717800  0.68187700  1
  Sm  Sm15  1  0.00000000  0.67046600  0.31693000  1
  Sm  Sm16  1  0.50000000  0.65624700  0.78831600  1
  Sm  Sm17  1  0.50000000  0.84398100  0.21141400  1
  Sm  Sm18  1  0.00000000  0.15601900  0.71141400  1
  Sm  Sm19  1  0.00000000  0.34375300  0.28831600  1
  Se  Se20  1  0.50000000  0.39791600  0.51845100  1
  Se  Se21  1  0.50000000  0.09724600  0.48106000  1
  Se  Se22  1  0.00000000  0.90275400  0.98106000  1
  Se  Se23  1  0.00000000  0.60208400  0.01845100  1
  Se  Se24  1  0.50000000  0.30137400  0.71075400  1
  Se  Se25  1  0.50000000  0.19802400  0.28906900  1
  Se  Se26  1  0.00000000  0.80197600  0.78906900  1
  Se  Se27  1  0.00000000  0.69862600  0.21075400  1
  Se  Se28  1  0.50000000  0.68003600  0.68000000  1
  Se  Se29  1  0.50000000  0.82020500  0.32187800  1
  Se  Se30  1  0.00000000  0.17979500  0.82187800  1
  Se  Se31  1  0.00000000  0.31996400  0.18000000  1
  Se  Se32  1  0.50000000  0.38012400  0.92222100  1
  Se  Se33  1  0.50000000  0.11892400  0.07688200  1
  Se  Se34  1  0.00000000  0.88107600  0.57688200  1
  Se  Se35  1  0.00000000  0.61987600  0.42222100  1
  Se  Se36  1  0.50000000  0.50533100  0.30389400  1
  Se  Se37  1  0.50000000  0.99464900  0.69643500  1
  Se  Se38  1  0.00000000  0.00535100  0.19643500  1
  Se  Se39  1  0.00000000  0.49466900  0.80389400  1
  Se  Se40  1  0.50000000  0.67946100  0.89675600  1
  Se  Se41  1  0.50000000  0.81894200  0.10350900  1
  Se  Se42  1  0.00000000  0.18105800  0.60350900  1
  Se  Se43  1  0.00000000  0.32053900  0.39675600  1
