# generated using pymatgen
data_Sc2Si4Mo3
_symmetry_space_group_name_H-M   'P 1'
_cell_length_a   6.57554200
_cell_length_b   6.80203400
_cell_length_c   12.67324000
_cell_angle_alpha   90.00000000
_cell_angle_beta   90.00000000
_cell_angle_gamma   90.00000000
_symmetry_Int_Tables_number   1
_chemical_formula_structural   Sc2Si4Mo3
_chemical_formula_sum   'Sc8 Si16 Mo12'
_cell_volume   566.83676907
_cell_formula_units_Z   4
loop_
 _symmetry_equiv_pos_site_id
 _symmetry_equiv_pos_as_xyz
  1  'x, y, z'
loop_
 _atom_site_type_symbol
 _atom_site_label
 _atom_site_symmetry_multiplicity
 _atom_site_fract_x
 _atom_site_fract_y
 _atom_site_fract_z
 _atom_site_occupancy
  Sc  Sc0  1  0.49549100  0.32972100  0.09234900  1
  Sc  Sc1  1  0.99549100  0.17027900  0.40765100  1
  Sc  Sc2  1  0.50450900  0.67027900  0.59234900  1
  Sc  Sc3  1  0.00450900  0.82972100  0.90765100  1
  Sc  Sc4  1  0.50450900  0.67027900  0.90765100  1
  Sc  Sc5  1  0.00450900  0.82972100  0.59234900  1
  Sc  Sc6  1  0.49549100  0.32972100  0.40765100  1
  Sc  Sc7  1  0.99549100  0.17027900  0.09234900  1
  Si  Si8  1  0.66570900  0.03719400  0.54496900  1
  Si  Si9  1  0.16570900  0.46280600  0.95503100  1
  Si  Si10  1  0.33429100  0.96280600  0.04496900  1
  Si  Si11  1  0.83429100  0.53719400  0.45503100  1
  Si  Si12  1  0.33429100  0.96280600  0.45503100  1
  Si  Si13  1  0.83429100  0.53719400  0.04496900  1
  Si  Si14  1  0.66570900  0.03719400  0.95503100  1
  Si  Si15  1  0.16570900  0.46280600  0.54496900  1
  Si  Si16  1  0.53204300  0.37761400  0.75000000  1
  Si  Si17  1  0.03204300  0.12238600  0.75000000  1
  Si  Si18  1  0.46795700  0.62238600  0.25000000  1
  Si  Si19  1  0.96795700  0.87761400  0.25000000  1
  Si  Si20  1  0.79962200  0.64100300  0.75000000  1
  Si  Si21  1  0.29962200  0.85899700  0.75000000  1
  Si  Si22  1  0.20037800  0.35899700  0.25000000  1
  Si  Si23  1  0.70037800  0.14100300  0.25000000  1
  Mo  Mo24  1  0.82894200  0.33505000  0.62439200  1
  Mo  Mo25  1  0.32894200  0.16495000  0.87560800  1
  Mo  Mo26  1  0.17105800  0.66495000  0.12439200  1
  Mo  Mo27  1  0.67105800  0.83505000  0.37560800  1
  Mo  Mo28  1  0.17105800  0.66495000  0.37560800  1
  Mo  Mo29  1  0.67105800  0.83505000  0.12439200  1
  Mo  Mo30  1  0.82894200  0.33505000  0.87560800  1
  Mo  Mo31  1  0.32894200  0.16495000  0.62439200  1
  Mo  Mo32  1  0.66473500  0.99487500  0.75000000  1
  Mo  Mo33  1  0.16473500  0.50512500  0.75000000  1
  Mo  Mo34  1  0.33526500  0.00512500  0.25000000  1
  Mo  Mo35  1  0.83526500  0.49487500  0.25000000  1
