# generated using pymatgen
data_Mn5V2(HO3)4
_symmetry_space_group_name_H-M   'P 1'
_cell_length_a   6.89403972
_cell_length_b   6.89403972
_cell_length_c   5.48099946
_cell_angle_alpha   83.44973868
_cell_angle_beta   83.44973868
_cell_angle_gamma   89.38269622
_symmetry_Int_Tables_number   1
_chemical_formula_structural   Mn5V2(HO3)4
_chemical_formula_sum   'Mn5 V2 H4 O12'
_cell_volume   257.10919791
_cell_formula_units_Z   1
loop_
 _symmetry_equiv_pos_site_id
 _symmetry_equiv_pos_as_xyz
  1  'x, y, z'
loop_
 _atom_site_type_symbol
 _atom_site_label
 _atom_site_symmetry_multiplicity
 _atom_site_fract_x
 _atom_site_fract_y
 _atom_site_fract_z
 _atom_site_occupancy
  Mn  Mn0  1  0.81767200  0.18232800  0.50000000  1
  Mn  Mn1  1  0.18232800  0.81767200  0.50000000  1
  Mn  Mn2  1  0.00000000  0.00000000  0.00000000  1
  Mn  Mn3  1  0.65313300  0.34686700  0.00000000  1
  Mn  Mn4  1  0.34686700  0.65313300  0.00000000  1
  V  V5  1  0.68761500  0.68761500  0.44532900  1
  V  V6  1  0.31238500  0.31238500  0.55467100  1
  H  H7  1  0.36664300  0.04207800  0.13213200  1
  H  H8  1  0.63335700  0.95792200  0.86786800  1
  H  H9  1  0.95792200  0.63335700  0.86786800  1
  H  H10  1  0.04207800  0.36664300  0.13213200  1
  O  O11  1  0.51608800  0.22479200  0.37788800  1
  O  O12  1  0.48391200  0.77520800  0.62211200  1
  O  O13  1  0.77520800  0.48391200  0.62211200  1
  O  O14  1  0.22479200  0.51608800  0.37788800  1
  O  O15  1  0.27806600  0.93310400  0.13292100  1
  O  O16  1  0.72193400  0.06689600  0.86707900  1
  O  O17  1  0.06689600  0.72193400  0.86707900  1
  O  O18  1  0.93310400  0.27806600  0.13292100  1
  O  O19  1  0.87189100  0.87189100  0.38460700  1
  O  O20  1  0.12810900  0.12810900  0.61539300  1
  O  O21  1  0.62578000  0.62578000  0.15938200  1
  O  O22  1  0.37422000  0.37422000  0.84061800  1
