# generated using pymatgen
data_Li3CuS2
_symmetry_space_group_name_H-M   'P 1'
_cell_length_a   6.97130510
_cell_length_b   6.97130510
_cell_length_c   6.97130510
_cell_angle_alpha   131.81255472
_cell_angle_beta   128.53926020
_cell_angle_gamma   73.15721688
_symmetry_Int_Tables_number   1
_chemical_formula_structural   Li3CuS2
_chemical_formula_sum   'Li6 Cu2 S4'
_cell_volume   192.87293504
_cell_formula_units_Z   2
loop_
 _symmetry_equiv_pos_site_id
 _symmetry_equiv_pos_as_xyz
  1  'x, y, z'
loop_
 _atom_site_type_symbol
 _atom_site_label
 _atom_site_symmetry_multiplicity
 _atom_site_fract_x
 _atom_site_fract_y
 _atom_site_fract_z
 _atom_site_occupancy
  Li  Li0  1  0.98253300  0.23253300  0.75000000  1
  Li  Li1  1  0.48253300  0.23253300  0.25000000  1
  Li  Li2  1  0.75000000  0.50000000  0.25000000  1
  Li  Li3  1  0.25000000  0.50000000  0.75000000  1
  Li  Li4  1  0.51746700  0.76746700  0.75000000  1
  Li  Li5  1  0.01746700  0.76746700  0.25000000  1
  Cu  Cu6  1  0.50000000  0.00000000  0.50000000  1
  Cu  Cu7  1  0.00000000  0.00000000  0.00000000  1
  S  S8  1  0.86576600  0.14100500  0.27523900  1
  S  S9  1  0.36576600  0.59052800  0.22476100  1
  S  S10  1  0.63423400  0.40947200  0.77523900  1
  S  S11  1  0.13423400  0.85899500  0.72476100  1
