# generated using pymatgen
data_YMgAu
_symmetry_space_group_name_H-M   'P 1'
_cell_length_a   7.73075369
_cell_length_b   7.73075369
_cell_length_c   3.99100000
_cell_angle_alpha   90.00000000
_cell_angle_beta   90.00000000
_cell_angle_gamma   119.99999737
_symmetry_Int_Tables_number   1
_chemical_formula_structural   YMgAu
_chemical_formula_sum   'Y3 Mg3 Au3'
_cell_volume   206.56467029
_cell_formula_units_Z   3
loop_
 _symmetry_equiv_pos_site_id
 _symmetry_equiv_pos_as_xyz
  1  'x, y, z'
loop_
 _atom_site_type_symbol
 _atom_site_label
 _atom_site_symmetry_multiplicity
 _atom_site_fract_x
 _atom_site_fract_y
 _atom_site_fract_z
 _atom_site_occupancy
  Y  Y0  1  0.58876400  0.00000000  0.00000000  1
  Y  Y1  1  0.00000000  0.58876400  0.00000000  1
  Y  Y2  1  0.41123600  0.41123600  0.00000000  1
  Mg  Mg3  1  0.24957500  0.00000000  0.50000000  1
  Mg  Mg4  1  0.00000000  0.24957500  0.50000000  1
  Mg  Mg5  1  0.75042500  0.75042500  0.50000000  1
  Au  Au6  1  0.33333300  0.66666700  0.50000000  1
  Au  Au7  1  0.66666700  0.33333300  0.50000000  1
  Au  Au8  1  0.00000000  0.00000000  0.00000000  1
