# generated using pymatgen
data_Gd2Cu(GeO3)4
_symmetry_space_group_name_H-M   'P 1'
_cell_length_a   5.00335400
_cell_length_b   7.35803129
_cell_length_c   8.12212502
_cell_angle_alpha   114.16789555
_cell_angle_beta   86.77054605
_cell_angle_gamma   102.54129091
_symmetry_Int_Tables_number   1
_chemical_formula_structural   Gd2Cu(GeO3)4
_chemical_formula_sum   'Gd2 Cu1 Ge4 O12'
_cell_volume   266.11864243
_cell_formula_units_Z   1
loop_
 _symmetry_equiv_pos_site_id
 _symmetry_equiv_pos_as_xyz
  1  'x, y, z'
loop_
 _atom_site_type_symbol
 _atom_site_label
 _atom_site_symmetry_multiplicity
 _atom_site_fract_x
 _atom_site_fract_y
 _atom_site_fract_z
 _atom_site_occupancy
  Gd  Gd0  1  0.95977700  0.77057100  0.54728600  1
  Gd  Gd1  1  0.04022300  0.22942900  0.45271400  1
  Cu  Cu2  1  0.00000000  0.00000000  0.00000000  1
  Ge  Ge3  1  0.42471500  0.61962100  0.79605100  1
  Ge  Ge4  1  0.57528500  0.38037900  0.20394900  1
  Ge  Ge5  1  0.54088600  0.16865200  0.78134400  1
  Ge  Ge6  1  0.45911400  0.83134800  0.21865600  1
  O  O7  1  0.74767300  0.77763800  0.80720500  1
  O  O8  1  0.25232700  0.22236200  0.19279500  1
  O  O9  1  0.73351900  0.29316300  0.99206300  1
  O  O10  1  0.26648100  0.70683700  0.00793700  1
  O  O11  1  0.78075400  0.42499700  0.39008500  1
  O  O12  1  0.21924600  0.57500300  0.60991500  1
  O  O13  1  0.75275400  0.00389100  0.20218100  1
  O  O14  1  0.24724600  0.99610900  0.79781900  1
  O  O15  1  0.42556700  0.35044500  0.72181700  1
  O  O16  1  0.57443300  0.64955500  0.27818300  1
  O  O17  1  0.76812900  0.06440900  0.61325600  1
  O  O18  1  0.23187100  0.93559100  0.38674400  1
