# generated using pymatgen
data_ReS2ClO9
_symmetry_space_group_name_H-M   'P 1'
_cell_length_a   7.27678300
_cell_length_b   7.92311205
_cell_length_c   8.28316859
_cell_angle_alpha   89.98673353
_cell_angle_beta   100.67030254
_cell_angle_gamma   112.19742344
_symmetry_Int_Tables_number   1
_chemical_formula_structural   ReS2ClO9
_chemical_formula_sum   'Re2 S4 Cl2 O18'
_cell_volume   433.24753940
_cell_formula_units_Z   2
loop_
 _symmetry_equiv_pos_site_id
 _symmetry_equiv_pos_as_xyz
  1  'x, y, z'
loop_
 _atom_site_type_symbol
 _atom_site_label
 _atom_site_symmetry_multiplicity
 _atom_site_fract_x
 _atom_site_fract_y
 _atom_site_fract_z
 _atom_site_occupancy
  Re  Re0  1  0.76761500  0.30259000  0.69774700  1
  Re  Re1  1  0.23238500  0.69741000  0.30225300  1
  S  S2  1  0.08992600  0.73457500  0.87610400  1
  S  S3  1  0.91007400  0.26542500  0.12389600  1
  S  S4  1  0.65921000  0.65078000  0.77964700  1
  S  S5  1  0.34079000  0.34922000  0.22035300  1
  Cl  Cl6  1  0.99985100  0.18435400  0.68456100  1
  Cl  Cl7  1  0.00014900  0.81564600  0.31543900  1
  O  O8  1  0.55224000  0.11047600  0.64863800  1
  O  O9  1  0.44776000  0.88952400  0.35136200  1
  O  O10  1  0.77797800  0.40761400  0.51779900  1
  O  O11  1  0.22202200  0.59238600  0.48220100  1
  O  O12  1  0.16549100  0.85605300  0.75574100  1
  O  O13  1  0.83450900  0.14394700  0.24425900  1
  O  O14  1  0.21490000  0.78509200  0.04340100  1
  O  O15  1  0.78510000  0.21490800  0.95659900  1
  O  O16  1  0.03093700  0.53712400  0.82911300  1
  O  O17  1  0.96906300  0.46287600  0.17088700  1
  O  O18  1  0.87880400  0.74986800  0.91004200  1
  O  O19  1  0.12119600  0.25013200  0.08995800  1
  O  O20  1  0.51956800  0.68287200  0.86276900  1
  O  O21  1  0.48043200  0.31712800  0.13723100  1
  O  O22  1  0.68491600  0.70892400  0.61898600  1
  O  O23  1  0.31508400  0.29107600  0.38101400  1
  O  O24  1  0.62906600  0.44526900  0.78923900  1
  O  O25  1  0.37093400  0.55473100  0.21076100  1
