# generated using pymatgen
data_Ba8Si43Au3
_symmetry_space_group_name_H-M   'P 1'
_cell_length_a   10.45568114
_cell_length_b   10.45568114
_cell_length_c   10.45568139
_cell_angle_alpha   90.01099578
_cell_angle_beta   90.01099578
_cell_angle_gamma   90.01100458
_symmetry_Int_Tables_number   1
_chemical_formula_structural   Ba8Si43Au3
_chemical_formula_sum   'Ba8 Si43 Au3'
_cell_volume   1143.02828410
_cell_formula_units_Z   1
loop_
 _symmetry_equiv_pos_site_id
 _symmetry_equiv_pos_as_xyz
  1  'x, y, z'
loop_
 _atom_site_type_symbol
 _atom_site_label
 _atom_site_symmetry_multiplicity
 _atom_site_fract_x
 _atom_site_fract_y
 _atom_site_fract_z
 _atom_site_occupancy
  Ba  Ba0  1  0.25173500  0.25173500  0.25173500  1
  Ba  Ba1  1  0.74826500  0.74826500  0.74826500  1
  Ba  Ba2  1  0.50000000  0.73837000  0.26163000  1
  Ba  Ba3  1  0.73837000  0.26163000  0.50000000  1
  Ba  Ba4  1  0.26163000  0.50000000  0.73837000  1
  Ba  Ba5  1  0.00000000  0.73869100  0.26130900  1
  Ba  Ba6  1  0.73869100  0.26130900  0.00000000  1
  Ba  Ba7  1  0.26130900  0.00000000  0.73869100  1
  Si  Si8  1  0.43345800  0.43345800  0.43345800  1
  Si  Si9  1  0.06470400  0.06470400  0.06470400  1
  Si  Si10  1  0.06363800  0.43224700  0.06316900  1
  Si  Si11  1  0.43426700  0.06400600  0.43283000  1
  Si  Si12  1  0.43224700  0.06316900  0.06363800  1
  Si  Si13  1  0.06400600  0.43283000  0.43426700  1
  Si  Si14  1  0.06316900  0.06363800  0.43224700  1
  Si  Si15  1  0.43283000  0.43426700  0.06400600  1
  Si  Si16  1  0.56717000  0.93599400  0.56573300  1
  Si  Si17  1  0.93683100  0.56775300  0.93636200  1
  Si  Si18  1  0.93529600  0.93529600  0.93529600  1
  Si  Si19  1  0.56654200  0.56654200  0.56654200  1
  Si  Si20  1  0.93599400  0.56573300  0.56717000  1
  Si  Si21  1  0.56775300  0.93636200  0.93683100  1
  Si  Si22  1  0.56573300  0.56717000  0.93599400  1
  Si  Si23  1  0.93636200  0.93683100  0.56775300  1
  Si  Si24  1  0.24848000  0.55313200  0.36886100  1
  Si  Si25  1  0.55313200  0.36886100  0.24848000  1
  Si  Si26  1  0.36886100  0.24848000  0.55313200  1
  Si  Si27  1  0.24749500  0.94249000  0.13100000  1
  Si  Si28  1  0.94249000  0.13100000  0.24749500  1
  Si  Si29  1  0.13100000  0.24749500  0.94249000  1
  Si  Si30  1  0.24826900  0.55432700  0.12979500  1
  Si  Si31  1  0.94461300  0.36638600  0.24809800  1
  Si  Si32  1  0.24809800  0.94461300  0.36638600  1
  Si  Si33  1  0.55432700  0.12979500  0.24826900  1
  Si  Si34  1  0.36638600  0.24809800  0.94461300  1
  Si  Si35  1  0.12979500  0.24826900  0.55432700  1
  Si  Si36  1  0.63361400  0.05538700  0.75190200  1
  Si  Si37  1  0.75173100  0.87020500  0.44567300  1
  Si  Si38  1  0.44686800  0.75152000  0.63113900  1
  Si  Si39  1  0.87020500  0.44567300  0.75173100  1
  Si  Si40  1  0.75190200  0.63361400  0.05538700  1
  Si  Si41  1  0.05751000  0.75250500  0.86900000  1
  Si  Si42  1  0.86900000  0.05751000  0.75250500  1
  Si  Si43  1  0.75250500  0.86900000  0.05751000  1
  Si  Si44  1  0.63113900  0.44686800  0.75152000  1
  Si  Si45  1  0.75152000  0.63113900  0.44686800  1
  Si  Si46  1  0.05538700  0.75190200  0.63361400  1
  Si  Si47  1  0.44567300  0.75173100  0.87020500  1
  Si  Si48  1  0.00000000  0.25210900  0.74789100  1
  Si  Si49  1  0.25210900  0.74789100  0.00000000  1
  Si  Si50  1  0.74789100  0.00000000  0.25210900  1
  Au  Au51  1  0.50000000  0.25032600  0.74967400  1
  Au  Au52  1  0.25032600  0.74967400  0.50000000  1
  Au  Au53  1  0.74967400  0.50000000  0.25032600  1
