# generated using pymatgen
data_LiZr2N3
_symmetry_space_group_name_H-M   'P 1'
_cell_length_a   6.63899315
_cell_length_b   6.63899315
_cell_length_c   4.43081400
_cell_angle_alpha   90.00000000
_cell_angle_beta   90.00000000
_cell_angle_gamma   119.61401875
_symmetry_Int_Tables_number   1
_chemical_formula_structural   LiZr2N3
_chemical_formula_sum   'Li2 Zr4 N6'
_cell_volume   169.78316817
_cell_formula_units_Z   2
loop_
 _symmetry_equiv_pos_site_id
 _symmetry_equiv_pos_as_xyz
  1  'x, y, z'
loop_
 _atom_site_type_symbol
 _atom_site_label
 _atom_site_symmetry_multiplicity
 _atom_site_fract_x
 _atom_site_fract_y
 _atom_site_fract_z
 _atom_site_occupancy
  Li  Li0  1  0.63389400  0.63389400  0.75000000  1
  Li  Li1  1  0.36610600  0.36610600  0.25000000  1
  Zr  Zr2  1  0.01820000  0.33638600  0.75000000  1
  Zr  Zr3  1  0.33638600  0.01820000  0.75000000  1
  Zr  Zr4  1  0.98180000  0.66361400  0.25000000  1
  Zr  Zr5  1  0.66361400  0.98180000  0.25000000  1
  N  N6  1  0.96656400  0.33054600  0.25000000  1
  N  N7  1  0.33054600  0.96656400  0.25000000  1
  N  N8  1  0.03343600  0.66945400  0.75000000  1
  N  N9  1  0.66945400  0.03343600  0.75000000  1
  N  N10  1  0.68657900  0.68657900  0.25000000  1
  N  N11  1  0.31342100  0.31342100  0.75000000  1
