# generated using pymatgen
data_K2Ni3S4
_symmetry_space_group_name_H-M   'P 1'
_cell_length_a   14.07305980
_cell_length_b   13.44704173
_cell_length_c   5.81409734
_cell_angle_alpha   83.91485647
_cell_angle_beta   71.82948752
_cell_angle_gamma   24.25565600
_symmetry_Int_Tables_number   1
_chemical_formula_structural   K2Ni3S4
_chemical_formula_sum   'K4 Ni6 S8'
_cell_volume   382.02735614
_cell_formula_units_Z   2
loop_
 _symmetry_equiv_pos_site_id
 _symmetry_equiv_pos_as_xyz
  1  'x, y, z'
loop_
 _atom_site_type_symbol
 _atom_site_label
 _atom_site_symmetry_multiplicity
 _atom_site_fract_x
 _atom_site_fract_y
 _atom_site_fract_z
 _atom_site_occupancy
  K  K0  1  0.07817000  0.07817000  0.92183000  1
  K  K1  1  0.92183000  0.92183000  0.07817000  1
  K  K2  1  0.17183000  0.17183000  0.32817000  1
  K  K3  1  0.32817000  0.32817000  0.17183000  1
  Ni  Ni4  1  0.99927100  0.99927100  0.50072900  1
  Ni  Ni5  1  0.50072900  0.50072900  0.99927100  1
  Ni  Ni6  1  0.25072900  0.25072900  0.74927100  1
  Ni  Ni7  1  0.74927100  0.74927100  0.25072900  1
  Ni  Ni8  1  0.50000000  0.50000000  0.50000000  1
  Ni  Ni9  1  0.75000000  0.75000000  0.75000000  1
  S  S10  1  0.38451300  0.72545500  0.28332200  1
  S  S11  1  0.60671000  0.28332200  0.72545500  1
  S  S12  1  0.28332200  0.60671000  0.38451300  1
  S  S13  1  0.72545500  0.38451300  0.60671000  1
  S  S14  1  0.86548700  0.52454500  0.96667800  1
  S  S15  1  0.64329000  0.96667800  0.52454500  1
  S  S16  1  0.52454500  0.86548700  0.64329000  1
  S  S17  1  0.96667800  0.64329000  0.86548700  1
