# generated using pymatgen
data_Nd3Si6N11
_symmetry_space_group_name_H-M   'P 1'
_cell_length_a   10.13602400
_cell_length_b   10.13602400
_cell_length_c   4.89261900
_cell_angle_alpha   90.00000000
_cell_angle_beta   90.00000000
_cell_angle_gamma   90.00000000
_symmetry_Int_Tables_number   1
_chemical_formula_structural   Nd3Si6N11
_chemical_formula_sum   'Nd6 Si12 N22'
_cell_volume   502.66269796
_cell_formula_units_Z   2
loop_
 _symmetry_equiv_pos_site_id
 _symmetry_equiv_pos_as_xyz
  1  'x, y, z'
loop_
 _atom_site_type_symbol
 _atom_site_label
 _atom_site_symmetry_multiplicity
 _atom_site_fract_x
 _atom_site_fract_y
 _atom_site_fract_z
 _atom_site_occupancy
  Nd  Nd0  1  0.18258500  0.68258500  0.00393300  1
  Nd  Nd1  1  0.81741500  0.31741500  0.00393300  1
  Nd  Nd2  1  0.68258500  0.81741500  0.00393300  1
  Nd  Nd3  1  0.31741500  0.18258500  0.00393300  1
  Nd  Nd4  1  0.00000000  0.00000000  0.98494700  1
  Nd  Nd5  1  0.50000000  0.50000000  0.98494700  1
  Si  Si6  1  0.61726700  0.11726700  0.04158000  1
  Si  Si7  1  0.38273300  0.88273300  0.04158000  1
  Si  Si8  1  0.11726700  0.38273300  0.04158000  1
  Si  Si9  1  0.88273300  0.61726700  0.04158000  1
  Si  Si10  1  0.07886600  0.20901900  0.53194300  1
  Si  Si11  1  0.92113400  0.79098100  0.53194300  1
  Si  Si12  1  0.20901900  0.92113400  0.53194300  1
  Si  Si13  1  0.42113400  0.70901900  0.53194300  1
  Si  Si14  1  0.79098100  0.07886600  0.53194300  1
  Si  Si15  1  0.57886600  0.29098100  0.53194300  1
  Si  Si16  1  0.29098100  0.42113400  0.53194300  1
  Si  Si17  1  0.70901900  0.57886600  0.53194300  1
  N  N18  1  0.17960500  0.07993300  0.64476100  1
  N  N19  1  0.82039500  0.92006700  0.64476100  1
  N  N20  1  0.07993300  0.82039500  0.64476100  1
  N  N21  1  0.32039500  0.57993300  0.64476100  1
  N  N22  1  0.92006700  0.17960500  0.64476100  1
  N  N23  1  0.67960500  0.42006700  0.64476100  1
  N  N24  1  0.42006700  0.32039500  0.64476100  1
  N  N25  1  0.57993300  0.67960500  0.64476100  1
  N  N26  1  0.00000000  0.50000000  0.06960400  1
  N  N27  1  0.50000000  0.00000000  0.06960400  1
  N  N28  1  0.07562400  0.22938300  0.17840600  1
  N  N29  1  0.92437600  0.77061700  0.17840600  1
  N  N30  1  0.22938300  0.92437600  0.17840600  1
  N  N31  1  0.42437600  0.72938300  0.17840600  1
  N  N32  1  0.77061700  0.07562400  0.17840600  1
  N  N33  1  0.57562400  0.27061700  0.17840600  1
  N  N34  1  0.27061700  0.42437600  0.17840600  1
  N  N35  1  0.72938300  0.57562400  0.17840600  1
  N  N36  1  0.65327000  0.15327000  0.69599200  1
  N  N37  1  0.34673000  0.84673000  0.69599200  1
  N  N38  1  0.15327000  0.34673000  0.69599200  1
  N  N39  1  0.84673000  0.65327000  0.69599200  1
