# generated using pymatgen
data_K2Mo2Se2O11
_symmetry_space_group_name_H-M   'P 1'
_cell_length_a   6.89882100
_cell_length_b   10.47016400
_cell_length_c   15.08942500
_cell_angle_alpha   90.00000000
_cell_angle_beta   90.00000000
_cell_angle_gamma   90.00000000
_symmetry_Int_Tables_number   1
_chemical_formula_structural   K2Mo2Se2O11
_chemical_formula_sum   'K8 Mo8 Se8 O44'
_cell_volume   1089.93613673
_cell_formula_units_Z   4
loop_
 _symmetry_equiv_pos_site_id
 _symmetry_equiv_pos_as_xyz
  1  'x, y, z'
loop_
 _atom_site_type_symbol
 _atom_site_label
 _atom_site_symmetry_multiplicity
 _atom_site_fract_x
 _atom_site_fract_y
 _atom_site_fract_z
 _atom_site_occupancy
  K  K0  1  0.47026300  0.52759200  0.75000000  1
  K  K1  1  0.02973700  0.02759200  0.75000000  1
  K  K2  1  0.52973700  0.47240800  0.25000000  1
  K  K3  1  0.97026300  0.97240800  0.25000000  1
  K  K4  1  0.50000000  0.50000000  0.50000000  1
  K  K5  1  0.00000000  0.00000000  0.00000000  1
  K  K6  1  0.50000000  0.50000000  0.00000000  1
  K  K7  1  0.00000000  0.00000000  0.50000000  1
  Mo  Mo8  1  0.47883600  0.16382000  0.62688500  1
  Mo  Mo9  1  0.02116400  0.66382000  0.87311500  1
  Mo  Mo10  1  0.52116400  0.83618000  0.12688500  1
  Mo  Mo11  1  0.97883600  0.33618000  0.37311500  1
  Mo  Mo12  1  0.52116400  0.83618000  0.37311500  1
  Mo  Mo13  1  0.97883600  0.33618000  0.12688500  1
  Mo  Mo14  1  0.47883600  0.16382000  0.87311500  1
  Mo  Mo15  1  0.02116400  0.66382000  0.62688500  1
  Se  Se16  1  0.51067000  0.16202400  0.38786100  1
  Se  Se17  1  0.98933000  0.66202400  0.11213900  1
  Se  Se18  1  0.48933000  0.83797600  0.88786100  1
  Se  Se19  1  0.01067000  0.33797600  0.61213900  1
  Se  Se20  1  0.48933000  0.83797600  0.61213900  1
  Se  Se21  1  0.01067000  0.33797600  0.88786100  1
  Se  Se22  1  0.51067000  0.16202400  0.11213900  1
  Se  Se23  1  0.98933000  0.66202400  0.38786100  1
  O  O24  1  0.54440900  0.32236300  0.64452600  1
  O  O25  1  0.95559100  0.82236300  0.85547400  1
  O  O26  1  0.45559100  0.67763700  0.14452600  1
  O  O27  1  0.04440900  0.17763700  0.35547400  1
  O  O28  1  0.45559100  0.67763700  0.35547400  1
  O  O29  1  0.04440900  0.17763700  0.14452600  1
  O  O30  1  0.54440900  0.32236300  0.85547400  1
  O  O31  1  0.95559100  0.82236300  0.64452600  1
  O  O32  1  0.70480400  0.08866600  0.61570400  1
  O  O33  1  0.79519600  0.58866600  0.88429600  1
  O  O34  1  0.29519600  0.91133400  0.11570400  1
  O  O35  1  0.20480400  0.41133400  0.38429600  1
  O  O36  1  0.29519600  0.91133400  0.38429600  1
  O  O37  1  0.20480400  0.41133400  0.11570400  1
  O  O38  1  0.70480400  0.08866600  0.88429600  1
  O  O39  1  0.79519600  0.58866600  0.61570400  1
  O  O40  1  0.42970500  0.11993600  0.75000000  1
  O  O41  1  0.07029500  0.61993600  0.75000000  1
  O  O42  1  0.57029500  0.88006400  0.25000000  1
  O  O43  1  0.92970500  0.38006400  0.25000000  1
  O  O44  1  0.42109000  0.18649800  0.49596200  1
  O  O45  1  0.07891000  0.68649800  0.00403800  1
  O  O46  1  0.57891000  0.81350200  0.99596200  1
  O  O47  1  0.92109000  0.31350200  0.50403800  1
  O  O48  1  0.57891000  0.81350200  0.50403800  1
  O  O49  1  0.92109000  0.31350200  0.99596200  1
  O  O50  1  0.42109000  0.18649800  0.00403800  1
  O  O51  1  0.07891000  0.68649800  0.49596200  1
  O  O52  1  0.66046500  0.29225000  0.37265100  1
  O  O53  1  0.83953500  0.79225000  0.12734900  1
  O  O54  1  0.33953500  0.70775000  0.87265100  1
  O  O55  1  0.16046500  0.20775000  0.62734900  1
  O  O56  1  0.33953500  0.70775000  0.62734900  1
  O  O57  1  0.16046500  0.20775000  0.87265100  1
  O  O58  1  0.66046500  0.29225000  0.12734900  1
  O  O59  1  0.83953500  0.79225000  0.37265100  1
  O  O60  1  0.66388000  0.03332400  0.39670700  1
  O  O61  1  0.83612000  0.53332400  0.10329300  1
  O  O62  1  0.33612000  0.96667600  0.89670700  1
  O  O63  1  0.16388000  0.46667600  0.60329300  1
  O  O64  1  0.33612000  0.96667600  0.60329300  1
  O  O65  1  0.16388000  0.46667600  0.89670700  1
  O  O66  1  0.66388000  0.03332400  0.10329300  1
  O  O67  1  0.83612000  0.53332400  0.39670700  1
