# generated using pymatgen
data_Tl2GeF6
_symmetry_space_group_name_H-M   'P 1'
_cell_length_a   5.96381946
_cell_length_b   5.96381946
_cell_length_c   5.01788800
_cell_angle_alpha   90.00000000
_cell_angle_beta   90.00000000
_cell_angle_gamma   119.99999401
_symmetry_Int_Tables_number   1
_chemical_formula_structural   Tl2GeF6
_chemical_formula_sum   'Tl2 Ge1 F6'
_cell_volume   154.56124133
_cell_formula_units_Z   1
loop_
 _symmetry_equiv_pos_site_id
 _symmetry_equiv_pos_as_xyz
  1  'x, y, z'
loop_
 _atom_site_type_symbol
 _atom_site_label
 _atom_site_symmetry_multiplicity
 _atom_site_fract_x
 _atom_site_fract_y
 _atom_site_fract_z
 _atom_site_occupancy
  Tl  Tl0  1  0.33333300  0.66666700  0.31718400  1
  Tl  Tl1  1  0.66666700  0.33333300  0.68281600  1
  Ge  Ge2  1  0.00000000  0.00000000  0.00000000  1
  F  F3  1  0.85250300  0.14749700  0.20718200  1
  F  F4  1  0.14749700  0.85250300  0.79281800  1
  F  F5  1  0.85250300  0.70500600  0.20718200  1
  F  F6  1  0.14749700  0.29499400  0.79281800  1
  F  F7  1  0.29499400  0.14749700  0.20718200  1
  F  F8  1  0.70500600  0.85250300  0.79281800  1
