# generated using pymatgen
data_Pr3In5
_symmetry_space_group_name_H-M   'P 1'
_cell_length_a   6.64477897
_cell_length_b   6.64477897
_cell_length_c   10.64652300
_cell_angle_alpha   90.00000000
_cell_angle_beta   90.00000000
_cell_angle_gamma   101.69588094
_symmetry_Int_Tables_number   1
_chemical_formula_structural   Pr3In5
_chemical_formula_sum   'Pr6 In10'
_cell_volume   460.31683753
_cell_formula_units_Z   2
loop_
 _symmetry_equiv_pos_site_id
 _symmetry_equiv_pos_as_xyz
  1  'x, y, z'
loop_
 _atom_site_type_symbol
 _atom_site_label
 _atom_site_symmetry_multiplicity
 _atom_site_fract_x
 _atom_site_fract_y
 _atom_site_fract_z
 _atom_site_occupancy
  Pr  Pr0  1  0.63199600  0.63199600  0.25000000  1
  Pr  Pr1  1  0.36800400  0.36800400  0.75000000  1
  Pr  Pr2  1  0.20192200  0.79807800  0.50000000  1
  Pr  Pr3  1  0.20192200  0.79807800  0.00000000  1
  Pr  Pr4  1  0.79807800  0.20192200  0.50000000  1
  Pr  Pr5  1  0.79807800  0.20192200  0.00000000  1
  In  In6  1  0.01385400  0.01385400  0.25000000  1
  In  In7  1  0.98614600  0.98614600  0.75000000  1
  In  In8  1  0.30723600  0.30723600  0.05025100  1
  In  In9  1  0.69276400  0.69276400  0.94974900  1
  In  In10  1  0.30723600  0.30723600  0.44974900  1
  In  In11  1  0.69276400  0.69276400  0.55025100  1
  In  In12  1  0.50263600  0.07654500  0.25000000  1
  In  In13  1  0.92345500  0.49736400  0.75000000  1
  In  In14  1  0.49736400  0.92345500  0.75000000  1
  In  In15  1  0.07654500  0.50263600  0.25000000  1
