# generated using pymatgen
data_Pr5Sb3
_symmetry_space_group_name_H-M   'P 1'
_cell_length_a   6.50896700
_cell_length_b   9.44276356
_cell_length_c   9.45309305
_cell_angle_alpha   119.96386122
_cell_angle_beta   90.00000000
_cell_angle_gamma   90.00000000
_symmetry_Int_Tables_number   1
_chemical_formula_structural   Pr5Sb3
_chemical_formula_sum   'Pr10 Sb6'
_cell_volume   503.35430414
_cell_formula_units_Z   2
loop_
 _symmetry_equiv_pos_site_id
 _symmetry_equiv_pos_as_xyz
  1  'x, y, z'
loop_
 _atom_site_type_symbol
 _atom_site_label
 _atom_site_symmetry_multiplicity
 _atom_site_fract_x
 _atom_site_fract_y
 _atom_site_fract_z
 _atom_site_occupancy
  Pr  Pr0  1  0.50000000  0.33331900  0.66664100  1
  Pr  Pr1  1  0.50000000  0.66667800  0.33335900  1
  Pr  Pr2  1  0.00000000  0.66668100  0.33335900  1
  Pr  Pr3  1  0.00000000  0.33332300  0.66664100  1
  Pr  Pr4  1  0.75000700  0.25270100  0.00000000  1
  Pr  Pr5  1  0.74999700  0.74717400  0.74728900  1
  Pr  Pr6  1  0.74999700  0.99988500  0.25271100  1
  Pr  Pr7  1  0.25000700  0.74729900  0.00000000  1
  Pr  Pr8  1  0.24999700  0.25282600  0.25271100  1
  Pr  Pr9  1  0.24999700  0.00011500  0.74728900  1
  Sb  Sb10  1  0.74999700  0.61469900  0.00000000  1
  Sb  Sb11  1  0.75000100  0.38531800  0.38530800  1
  Sb  Sb12  1  0.75000100  0.00001000  0.61469200  1
  Sb  Sb13  1  0.24999700  0.38530100  0.00000000  1
  Sb  Sb14  1  0.25000100  0.61468200  0.61469200  1
  Sb  Sb15  1  0.25000100  0.99999000  0.38530800  1
