# generated using pymatgen
data_NaGa(SeO3)2
_symmetry_space_group_name_H-M   'P 1'
_cell_length_a   5.40304800
_cell_length_b   7.96404900
_cell_length_c   12.69423900
_cell_angle_alpha   90.00000000
_cell_angle_beta   90.00000000
_cell_angle_gamma   90.00000000
_symmetry_Int_Tables_number   1
_chemical_formula_structural   NaGa(SeO3)2
_chemical_formula_sum   'Na4 Ga4 Se8 O24'
_cell_volume   546.23486894
_cell_formula_units_Z   4
loop_
 _symmetry_equiv_pos_site_id
 _symmetry_equiv_pos_as_xyz
  1  'x, y, z'
loop_
 _atom_site_type_symbol
 _atom_site_label
 _atom_site_symmetry_multiplicity
 _atom_site_fract_x
 _atom_site_fract_y
 _atom_site_fract_z
 _atom_site_occupancy
  Na  Na0  1  0.25000000  0.48938300  0.38531100  1
  Na  Na1  1  0.25000000  0.01061700  0.88531100  1
  Na  Na2  1  0.75000000  0.51061700  0.61468900  1
  Na  Na3  1  0.75000000  0.98938300  0.11468900  1
  Ga  Ga4  1  0.75000000  0.79953700  0.39841900  1
  Ga  Ga5  1  0.75000000  0.70046300  0.89841900  1
  Ga  Ga6  1  0.25000000  0.20046300  0.60158100  1
  Ga  Ga7  1  0.25000000  0.29953700  0.10158100  1
  Se  Se8  1  0.25000000  0.78960900  0.56648400  1
  Se  Se9  1  0.25000000  0.71039100  0.06648400  1
  Se  Se10  1  0.75000000  0.21039100  0.43351600  1
  Se  Se11  1  0.75000000  0.28960900  0.93351600  1
  Se  Se12  1  0.75000000  0.50974700  0.20580500  1
  Se  Se13  1  0.75000000  0.99025300  0.70580500  1
  Se  Se14  1  0.25000000  0.49025300  0.79419500  1
  Se  Se15  1  0.25000000  0.00974700  0.29419500  1
  O  O16  1  0.25000000  0.99199800  0.51990500  1
  O  O17  1  0.25000000  0.50800200  0.01990500  1
  O  O18  1  0.75000000  0.00800200  0.48009500  1
  O  O19  1  0.75000000  0.49199800  0.98009500  1
  O  O20  1  0.00505900  0.70061100  0.49805200  1
  O  O21  1  0.49494100  0.79938900  0.99805200  1
  O  O22  1  0.50505900  0.29938900  0.50194800  1
  O  O23  1  0.99494100  0.20061100  0.00194800  1
  O  O24  1  0.99494100  0.29938900  0.50194800  1
  O  O25  1  0.50505900  0.20061100  0.00194800  1
  O  O26  1  0.49494100  0.70061100  0.49805200  1
  O  O27  1  0.00505900  0.79938900  0.99805200  1
  O  O28  1  0.75000000  0.56621000  0.33812200  1
  O  O29  1  0.75000000  0.93379000  0.83812200  1
  O  O30  1  0.25000000  0.43379000  0.66187800  1
  O  O31  1  0.25000000  0.06621000  0.16187800  1
  O  O32  1  0.99956600  0.37281300  0.21157000  1
  O  O33  1  0.50043400  0.12718700  0.71157000  1
  O  O34  1  0.49956600  0.62718700  0.78843000  1
  O  O35  1  0.00043400  0.87281300  0.28843000  1
  O  O36  1  0.00043400  0.62718700  0.78843000  1
  O  O37  1  0.49956600  0.87281300  0.28843000  1
  O  O38  1  0.50043400  0.37281300  0.21157000  1
  O  O39  1  0.99956600  0.12718700  0.71157000  1
