# generated using pymatgen
data_Na3Ca3AlAs4
_symmetry_space_group_name_H-M   'P 1'
_cell_length_a   9.47509974
_cell_length_b   9.47509974
_cell_length_c   7.23276400
_cell_angle_alpha   90.00000000
_cell_angle_beta   90.00000000
_cell_angle_gamma   119.99999817
_symmetry_Int_Tables_number   1
_chemical_formula_structural   Na3Ca3AlAs4
_chemical_formula_sum   'Na6 Ca6 Al2 As8'
_cell_volume   562.34458125
_cell_formula_units_Z   2
loop_
 _symmetry_equiv_pos_site_id
 _symmetry_equiv_pos_as_xyz
  1  'x, y, z'
loop_
 _atom_site_type_symbol
 _atom_site_label
 _atom_site_symmetry_multiplicity
 _atom_site_fract_x
 _atom_site_fract_y
 _atom_site_fract_z
 _atom_site_occupancy
  Na  Na0  1  0.13740900  0.86259100  0.17285000  1
  Na  Na1  1  0.27481900  0.13740900  0.67285000  1
  Na  Na2  1  0.86259100  0.72518100  0.67285000  1
  Na  Na3  1  0.13740900  0.27481900  0.17285000  1
  Na  Na4  1  0.72518100  0.86259100  0.17285000  1
  Na  Na5  1  0.86259100  0.13740900  0.67285000  1
  Ca  Ca6  1  0.47470000  0.94940000  0.50054200  1
  Ca  Ca7  1  0.52530000  0.05060000  0.00054200  1
  Ca  Ca8  1  0.94940000  0.47470000  0.00054200  1
  Ca  Ca9  1  0.47470000  0.52530000  0.50054200  1
  Ca  Ca10  1  0.52530000  0.47470000  0.00054200  1
  Ca  Ca11  1  0.05060000  0.52530000  0.50054200  1
  Al  Al12  1  0.33333300  0.66666700  0.87822000  1
  Al  Al13  1  0.66666700  0.33333300  0.37822000  1
  As  As14  1  0.19017800  0.80982200  0.77127400  1
  As  As15  1  0.38035600  0.19017800  0.27127400  1
  As  As16  1  0.80982200  0.61964400  0.27127400  1
  As  As17  1  0.19017800  0.38035600  0.77127400  1
  As  As18  1  0.61964400  0.80982200  0.77127400  1
  As  As19  1  0.80982200  0.19017800  0.27127400  1
  As  As20  1  0.33333300  0.66666700  0.22846300  1
  As  As21  1  0.66666700  0.33333300  0.72846300  1
