# generated using pymatgen
data_LiV(OF)2
_symmetry_space_group_name_H-M   'P 1'
_cell_length_a   6.29805344
_cell_length_b   3.53905534
_cell_length_c   6.71920251
_cell_angle_alpha   90.00000000
_cell_angle_beta   110.99557979
_cell_angle_gamma   90.00000000
_symmetry_Int_Tables_number   1
_chemical_formula_structural   LiV(OF)2
_chemical_formula_sum   'Li2 V2 O4 F4'
_cell_volume   139.82216538
_cell_formula_units_Z   2
loop_
 _symmetry_equiv_pos_site_id
 _symmetry_equiv_pos_as_xyz
  1  'x, y, z'
loop_
 _atom_site_type_symbol
 _atom_site_label
 _atom_site_symmetry_multiplicity
 _atom_site_fract_x
 _atom_site_fract_y
 _atom_site_fract_z
 _atom_site_occupancy
  Li  Li0  1  0.32762966  0.24019700  0.79718292  1
  Li  Li1  1  0.67237034  0.74019700  0.20281708  1
  V  V2  1  0.14860542  0.24011898  0.22940227  1
  V  V3  1  0.85139458  0.74011898  0.77059773  1
  O  O4  1  0.09500722  0.74016412  0.14981377  1
  O  O5  1  0.30077855  0.24010948  0.48157844  1
  O  O6  1  0.69922145  0.74010948  0.51842156  1
  O  O7  1  0.90499278  0.24016412  0.85018623  1
  F  F8  1  0.14555700  0.74019712  0.74732177  1
  F  F9  1  0.61175618  0.74020929  0.88566671  1
  F  F10  1  0.38824382  0.24020929  0.11433329  1
  F  F11  1  0.85444300  0.24019712  0.25267823  1
