# generated using pymatgen
data_Ti3Sn
_symmetry_space_group_name_H-M   'P 1'
_cell_length_a   6.00496081
_cell_length_b   6.00496081
_cell_length_c   4.74372400
_cell_angle_alpha   90.00000000
_cell_angle_beta   90.00000000
_cell_angle_gamma   122.64399128
_symmetry_Int_Tables_number   1
_chemical_formula_structural   Ti3Sn
_chemical_formula_sum   'Ti6 Sn2'
_cell_volume   144.03621773
_cell_formula_units_Z   2
loop_
 _symmetry_equiv_pos_site_id
 _symmetry_equiv_pos_as_xyz
  1  'x, y, z'
loop_
 _atom_site_type_symbol
 _atom_site_label
 _atom_site_symmetry_multiplicity
 _atom_site_fract_x
 _atom_site_fract_y
 _atom_site_fract_z
 _atom_site_occupancy
  Ti  Ti0  1  0.17768300  0.82231700  0.75000000  1
  Ti  Ti1  1  0.82231700  0.17768300  0.25000000  1
  Ti  Ti2  1  0.16854300  0.31415900  0.75000000  1
  Ti  Ti3  1  0.31415900  0.16854300  0.25000000  1
  Ti  Ti4  1  0.83145700  0.68584100  0.25000000  1
  Ti  Ti5  1  0.68584100  0.83145700  0.75000000  1
  Sn  Sn6  1  0.66775700  0.33224300  0.75000000  1
  Sn  Sn7  1  0.33224300  0.66775700  0.25000000  1
