# generated using pymatgen
data_CaAl2(SiO4)2
_symmetry_space_group_name_H-M   'P 1'
_cell_length_a   5.15217351
_cell_length_b   5.15215000
_cell_length_c   14.98965600
_cell_angle_alpha   89.99974771
_cell_angle_beta   89.99999791
_cell_angle_gamma   59.99984115
_symmetry_Int_Tables_number   1
_chemical_formula_structural   CaAl2(SiO4)2
_chemical_formula_sum   'Ca2 Al4 Si4 O16'
_cell_volume   344.58834286
_cell_formula_units_Z   2
loop_
 _symmetry_equiv_pos_site_id
 _symmetry_equiv_pos_as_xyz
  1  'x, y, z'
loop_
 _atom_site_type_symbol
 _atom_site_label
 _atom_site_symmetry_multiplicity
 _atom_site_fract_x
 _atom_site_fract_y
 _atom_site_fract_z
 _atom_site_occupancy
  Ca  Ca0  1  0.00000000  0.00000000  0.50000000  1
  Ca  Ca1  1  0.00000000  0.00000000  0.00000000  1
  Al  Al2  1  0.66664900  0.66666600  0.64225000  1
  Al  Al3  1  0.33335100  0.33333400  0.35775000  1
  Al  Al4  1  0.66668500  0.66666600  0.14225000  1
  Al  Al5  1  0.33331500  0.33333400  0.85775000  1
  Si  Si6  1  0.33331000  0.33332900  0.63665900  1
  Si  Si7  1  0.66669000  0.66667100  0.36334100  1
  Si  Si8  1  0.33336100  0.33332900  0.13665900  1
  Si  Si9  1  0.66663900  0.66667100  0.86334100  1
  O  O10  1  0.37717800  0.01282800  0.59760700  1
  O  O11  1  0.01281100  0.60997800  0.59761000  1
  O  O12  1  0.60995800  0.37718900  0.59761300  1
  O  O13  1  0.62282200  0.98717200  0.40239300  1
  O  O14  1  0.98718900  0.39002200  0.40239000  1
  O  O15  1  0.39004200  0.62281100  0.40238700  1
  O  O16  1  0.60999400  0.01282800  0.09760700  1
  O  O17  1  0.01285200  0.37718900  0.09761300  1
  O  O18  1  0.37721200  0.60997800  0.09761000  1
  O  O19  1  0.39000600  0.98717200  0.90239300  1
  O  O20  1  0.98714800  0.62281100  0.90238700  1
  O  O21  1  0.62278800  0.39002200  0.90239000  1
  O  O22  1  0.66662200  0.66668100  0.75675600  1
  O  O23  1  0.33330300  0.33331900  0.74324400  1
  O  O24  1  0.33337800  0.33331900  0.24324400  1
  O  O25  1  0.66669700  0.66668100  0.25675600  1
