# generated using pymatgen
data_Sm2Te3
_symmetry_space_group_name_H-M   'P 1'
_cell_length_a   4.38134900
_cell_length_b   11.98682300
_cell_length_c   12.21341700
_cell_angle_alpha   90.00000000
_cell_angle_beta   90.00000000
_cell_angle_gamma   90.00000000
_symmetry_Int_Tables_number   1
_chemical_formula_structural   Sm2Te3
_chemical_formula_sum   'Sm8 Te12'
_cell_volume   641.42979067
_cell_formula_units_Z   4
loop_
 _symmetry_equiv_pos_site_id
 _symmetry_equiv_pos_as_xyz
  1  'x, y, z'
loop_
 _atom_site_type_symbol
 _atom_site_label
 _atom_site_symmetry_multiplicity
 _atom_site_fract_x
 _atom_site_fract_y
 _atom_site_fract_z
 _atom_site_occupancy
  Sm  Sm0  1  0.25000000  0.18690100  0.48457100  1
  Sm  Sm1  1  0.25000000  0.31309900  0.98457100  1
  Sm  Sm2  1  0.75000000  0.81309900  0.51542900  1
  Sm  Sm3  1  0.75000000  0.68690100  0.01542900  1
  Sm  Sm4  1  0.75000000  0.50172100  0.69621700  1
  Sm  Sm5  1  0.75000000  0.99827900  0.19621600  1
  Sm  Sm6  1  0.25000000  0.49827900  0.30378300  1
  Sm  Sm7  1  0.25000000  0.00172100  0.80378300  1
  Te  Te8  1  0.25000000  0.62362300  0.54274600  1
  Te  Te9  1  0.25000000  0.87637700  0.04274600  1
  Te  Te10  1  0.75000000  0.37637700  0.45725400  1
  Te  Te11  1  0.75000000  0.12362300  0.95725400  1
  Te  Te12  1  0.75000000  0.05599300  0.61904100  1
  Te  Te13  1  0.75000000  0.44400700  0.11904100  1
  Te  Te14  1  0.25000000  0.94400700  0.38095900  1
  Te  Te15  1  0.25000000  0.55599300  0.88095900  1
  Te  Te16  1  0.25000000  0.30397200  0.72519500  1
  Te  Te17  1  0.25000000  0.19602800  0.22519500  1
  Te  Te18  1  0.75000000  0.69602800  0.27480500  1
  Te  Te19  1  0.75000000  0.80397200  0.77480500  1
