# generated using pymatgen
data_SrBiNO5
_symmetry_space_group_name_H-M   'P 1'
_cell_length_a   7.90475192
_cell_length_b   7.90475192
_cell_length_c   5.99050429
_cell_angle_alpha   89.85900072
_cell_angle_beta   89.85900072
_cell_angle_gamma   136.70427253
_symmetry_Int_Tables_number   1
_chemical_formula_structural   SrBiNO5
_chemical_formula_sum   'Sr2 Bi2 N2 O10'
_cell_volume   256.68763222
_cell_formula_units_Z   2
loop_
 _symmetry_equiv_pos_site_id
 _symmetry_equiv_pos_as_xyz
  1  'x, y, z'
loop_
 _atom_site_type_symbol
 _atom_site_label
 _atom_site_symmetry_multiplicity
 _atom_site_fract_x
 _atom_site_fract_y
 _atom_site_fract_z
 _atom_site_occupancy
  Sr  Sr0  1  0.15859700  0.84145800  0.99925700  1
  Sr  Sr1  1  0.84145800  0.15859700  0.99925700  1
  Bi  Bi2  1  0.31292800  0.68138700  0.50189100  1
  Bi  Bi3  1  0.68138700  0.31292800  0.50189100  1
  N  N4  1  0.01159100  0.01159100  0.48411700  1
  N  N5  1  0.51760800  0.51760800  0.98742800  1
  O  O6  1  0.99575500  0.49952600  0.73196000  1
  O  O7  1  0.49986700  0.99846100  0.27097400  1
  O  O8  1  0.99846100  0.49986700  0.27097400  1
  O  O9  1  0.49952600  0.99575500  0.73196000  1
  O  O10  1  0.73358400  0.73358400  0.96564000  1
  O  O11  1  0.48813200  0.33736300  0.99788600  1
  O  O12  1  0.33736300  0.48813200  0.99788600  1
  O  O13  1  0.03189800  0.03189800  0.27252000  1
  O  O14  1  0.92669300  0.07715200  0.58617900  1
  O  O15  1  0.07715200  0.92669300  0.58617900  1
