# generated using pymatgen
data_CdB6H12(N2O5)2
_symmetry_space_group_name_H-M   'P 1'
_cell_length_a   6.68306515
_cell_length_b   6.68306515
_cell_length_c   12.80056388
_cell_angle_alpha   103.56885268
_cell_angle_beta   103.56885268
_cell_angle_gamma   95.81141026
_symmetry_Int_Tables_number   1
_chemical_formula_structural   CdB6H12(N2O5)2
_chemical_formula_sum   'Cd2 B12 H24 N8 O20'
_cell_volume   532.80561315
_cell_formula_units_Z   2
loop_
 _symmetry_equiv_pos_site_id
 _symmetry_equiv_pos_as_xyz
  1  'x, y, z'
loop_
 _atom_site_type_symbol
 _atom_site_label
 _atom_site_symmetry_multiplicity
 _atom_site_fract_x
 _atom_site_fract_y
 _atom_site_fract_z
 _atom_site_occupancy
  Cd  Cd0  1  0.88910200  0.38910200  0.50000000  1
  Cd  Cd1  1  0.63910200  0.63910200  0.00000000  1
  B  B2  1  0.44651400  0.34437000  0.52246400  1
  B  B3  1  0.82190600  0.92405000  0.47753600  1
  B  B4  1  0.59437000  0.19651400  0.02246400  1
  B  B5  1  0.17405000  0.57190600  0.97753600  1
  B  B6  1  0.56821500  0.74263700  0.55312500  1
  B  B7  1  0.18951200  0.01509000  0.44687500  1
  B  B8  1  0.99263700  0.31821500  0.05312500  1
  B  B9  1  0.26509000  0.93951200  0.94687500  1
  B  B10  1  0.68442000  0.13115500  0.63572600  1
  B  B11  1  0.49542900  0.04869400  0.36427400  1
  B  B12  1  0.38115500  0.43442000  0.13572600  1
  B  B13  1  0.29869400  0.24542900  0.86427400  1
  H  H14  1  0.87463000  0.07752300  0.79255600  1
  H  H15  1  0.28496700  0.08207400  0.20744400  1
  H  H16  1  0.32752300  0.62463000  0.29255600  1
  H  H17  1  0.33207400  0.03496700  0.70744400  1
  H  H18  1  0.69242700  0.21921800  0.81668200  1
  H  H19  1  0.40253500  0.87574500  0.18331800  1
  H  H20  1  0.46921800  0.44242700  0.31668200  1
  H  H21  1  0.12574500  0.15253500  0.68331800  1
  H  H22  1  0.91135500  0.32079200  0.79543200  1
  H  H23  1  0.52535900  0.11592300  0.20456800  1
  H  H24  1  0.57079200  0.66135500  0.29543200  1
  H  H25  1  0.36592300  0.27535900  0.70456800  1
  H  H26  1  0.12869700  0.56622800  0.73150900  1
  H  H27  1  0.83471900  0.39718800  0.26849100  1
  H  H28  1  0.81622800  0.87869700  0.23150900  1
  H  H29  1  0.64718800  0.58471900  0.76849100  1
  H  H30  1  0.03454200  0.74658400  0.67246600  1
  H  H31  1  0.07411800  0.36207500  0.32753400  1
  H  H32  1  0.99658400  0.78454200  0.17246600  1
  H  H33  1  0.61207500  0.82411800  0.82753400  1
  H  H34  1  0.23383100  0.64026300  0.63597200  1
  H  H35  1  0.00429100  0.59785900  0.36402800  1
  H  H36  1  0.89026300  0.98383100  0.13597200  1
  H  H37  1  0.84785900  0.75429100  0.86402800  1
  N  N38  1  0.79589100  0.19014700  0.76771300  1
  N  N39  1  0.42243400  0.02817800  0.23228700  1
  N  N40  1  0.44014700  0.54589100  0.26771300  1
  N  N41  1  0.27817800  0.17243400  0.73228700  1
  N  N42  1  0.09749900  0.61375100  0.65935600  1
  N  N43  1  0.95439500  0.43814300  0.34064400  1
  N  N44  1  0.86375100  0.84749900  0.15935600  1
  N  N45  1  0.68814300  0.70439500  0.84064400  1
  O  O46  1  0.52745500  0.27397200  0.42252700  1
  O  O47  1  0.85144500  0.10492800  0.57747300  1
  O  O48  1  0.52397200  0.27745500  0.92252700  1
  O  O49  1  0.35492800  0.60144500  0.07747300  1
  O  O50  1  0.43336600  0.56906100  0.54788400  1
  O  O51  1  0.02117700  0.88548300  0.45211600  1
  O  O52  1  0.81906100  0.18336600  0.04788400  1
  O  O53  1  0.13548300  0.77117700  0.95211600  1
  O  O54  1  0.58292600  0.30970700  0.62326700  1
  O  O55  1  0.68644000  0.95965900  0.37673300  1
  O  O56  1  0.55970700  0.33292600  0.12326700  1
  O  O57  1  0.20965900  0.43644000  0.87673300  1
  O  O58  1  0.22892500  0.22758700  0.49819600  1
  O  O59  1  0.72939100  0.73072900  0.50180400  1
  O  O60  1  0.47758700  0.97892500  0.99819600  1
  O  O61  1  0.98072900  0.47939100  0.00180400  1
  O  O62  1  0.54106400  0.93368600  0.61418400  1
  O  O63  1  0.31950300  0.92688000  0.38581600  1
  O  O64  1  0.18368600  0.29106400  0.11418400  1
  O  O65  1  0.17688000  0.06950200  0.88581600  1
