# generated using pymatgen
data_CsYHgSe3
_symmetry_space_group_name_H-M   'P 1'
_cell_length_a   8.48437232
_cell_length_b   8.48437232
_cell_length_c   11.18974600
_cell_angle_alpha   90.00000000
_cell_angle_beta   90.00000000
_cell_angle_gamma   150.58373087
_symmetry_Int_Tables_number   1
_chemical_formula_structural   CsYHgSe3
_chemical_formula_sum   'Cs2 Y2 Hg2 Se6'
_cell_volume   395.61686745
_cell_formula_units_Z   2
loop_
 _symmetry_equiv_pos_site_id
 _symmetry_equiv_pos_as_xyz
  1  'x, y, z'
loop_
 _atom_site_type_symbol
 _atom_site_label
 _atom_site_symmetry_multiplicity
 _atom_site_fract_x
 _atom_site_fract_y
 _atom_site_fract_z
 _atom_site_occupancy
  Cs  Cs0  1  0.74465700  0.25534300  0.25000000  1
  Cs  Cs1  1  0.25534300  0.74465700  0.75000000  1
  Y  Y2  1  0.00000000  0.00000000  0.00000000  1
  Y  Y3  1  0.00000000  0.00000000  0.50000000  1
  Hg  Hg4  1  0.45488500  0.54511500  0.25000000  1
  Hg  Hg5  1  0.54511500  0.45488500  0.75000000  1
  Se  Se6  1  0.06057400  0.93942600  0.25000000  1
  Se  Se7  1  0.93942600  0.06057400  0.75000000  1
  Se  Se8  1  0.61787600  0.38212400  0.54068400  1
  Se  Se9  1  0.61787600  0.38212400  0.95931600  1
  Se  Se10  1  0.38212400  0.61787600  0.04068400  1
  Se  Se11  1  0.38212400  0.61787600  0.45931600  1
