# generated using pymatgen
data_Hf5Sb3
_symmetry_space_group_name_H-M   'P 1'
_cell_length_a   7.45871800
_cell_length_b   8.82043100
_cell_length_c   10.79161500
_cell_angle_alpha   90.00000000
_cell_angle_beta   90.00000000
_cell_angle_gamma   90.00000000
_symmetry_Int_Tables_number   1
_chemical_formula_structural   Hf5Sb3
_chemical_formula_sum   'Hf20 Sb12'
_cell_volume   709.97071898
_cell_formula_units_Z   4
loop_
 _symmetry_equiv_pos_site_id
 _symmetry_equiv_pos_as_xyz
  1  'x, y, z'
loop_
 _atom_site_type_symbol
 _atom_site_label
 _atom_site_symmetry_multiplicity
 _atom_site_fract_x
 _atom_site_fract_y
 _atom_site_fract_z
 _atom_site_occupancy
  Hf  Hf0  1  0.80187900  0.44234700  0.55990200  1
  Hf  Hf1  1  0.30187900  0.05765300  0.94009800  1
  Hf  Hf2  1  0.19812100  0.94234700  0.44009800  1
  Hf  Hf3  1  0.69812100  0.55765300  0.05990200  1
  Hf  Hf4  1  0.14064600  0.25000000  0.71613700  1
  Hf  Hf5  1  0.64064600  0.25000000  0.78386300  1
  Hf  Hf6  1  0.85935400  0.75000000  0.28386300  1
  Hf  Hf7  1  0.35935400  0.75000000  0.21613700  1
  Hf  Hf8  1  0.30187900  0.44234700  0.94009800  1
  Hf  Hf9  1  0.80187900  0.05765300  0.55990200  1
  Hf  Hf10  1  0.69812100  0.94234700  0.05990200  1
  Hf  Hf11  1  0.19812100  0.55765300  0.44009800  1
  Hf  Hf12  1  0.19470200  0.75000000  0.72317500  1
  Hf  Hf13  1  0.69470200  0.75000000  0.77682500  1
  Hf  Hf14  1  0.80529800  0.25000000  0.27682500  1
  Hf  Hf15  1  0.30529800  0.25000000  0.22317500  1
  Hf  Hf16  1  0.02696000  0.75000000  0.98934000  1
  Hf  Hf17  1  0.52696000  0.75000000  0.51066000  1
  Hf  Hf18  1  0.97304000  0.25000000  0.01066000  1
  Hf  Hf19  1  0.47304000  0.25000000  0.48934000  1
  Sb  Sb20  1  0.41762900  0.75000000  0.95542200  1
  Sb  Sb21  1  0.91762900  0.75000000  0.54457800  1
  Sb  Sb22  1  0.58237100  0.25000000  0.04457800  1
  Sb  Sb23  1  0.08237100  0.25000000  0.45542200  1
  Sb  Sb24  1  0.57418900  0.99209300  0.32491000  1
  Sb  Sb25  1  0.07418900  0.50790700  0.17509000  1
  Sb  Sb26  1  0.42581100  0.49209300  0.67509000  1
  Sb  Sb27  1  0.92581100  0.00790700  0.82491000  1
  Sb  Sb28  1  0.42581100  0.00790700  0.67509000  1
  Sb  Sb29  1  0.92581100  0.49209300  0.82491000  1
  Sb  Sb30  1  0.57418900  0.50790700  0.32491000  1
  Sb  Sb31  1  0.07418900  0.99209300  0.17509000  1
