# generated using pymatgen
data_Ho2Al
_symmetry_space_group_name_H-M   'P 1'
_cell_length_a   5.07785600
_cell_length_b   6.52911600
_cell_length_c   9.41207300
_cell_angle_alpha   90.00000000
_cell_angle_beta   90.00000000
_cell_angle_gamma   90.00000000
_symmetry_Int_Tables_number   1
_chemical_formula_structural   Ho2Al
_chemical_formula_sum   'Ho8 Al4'
_cell_volume   312.04702921
_cell_formula_units_Z   4
loop_
 _symmetry_equiv_pos_site_id
 _symmetry_equiv_pos_as_xyz
  1  'x, y, z'
loop_
 _atom_site_type_symbol
 _atom_site_label
 _atom_site_symmetry_multiplicity
 _atom_site_fract_x
 _atom_site_fract_y
 _atom_site_fract_z
 _atom_site_occupancy
  Ho  Ho0  1  0.75000000  0.68782300  0.42720500  1
  Ho  Ho1  1  0.25000000  0.31217700  0.57279500  1
  Ho  Ho2  1  0.75000000  0.18782300  0.07279500  1
  Ho  Ho3  1  0.25000000  0.81217700  0.92720500  1
  Ho  Ho4  1  0.75000000  0.52699100  0.78991100  1
  Ho  Ho5  1  0.25000000  0.47300900  0.21008900  1
  Ho  Ho6  1  0.75000000  0.02699100  0.71008900  1
  Ho  Ho7  1  0.25000000  0.97300900  0.28991100  1
  Al  Al8  1  0.75000000  0.20842900  0.39727600  1
  Al  Al9  1  0.25000000  0.79157100  0.60272400  1
  Al  Al10  1  0.75000000  0.70842900  0.10272400  1
  Al  Al11  1  0.25000000  0.29157100  0.89727600  1
