# generated using pymatgen
data_K2LaCl5
_symmetry_space_group_name_H-M   'P 1'
_cell_length_a   8.13159600
_cell_length_b   8.94371300
_cell_length_c   12.96326100
_cell_angle_alpha   90.00000000
_cell_angle_beta   90.00000000
_cell_angle_gamma   90.00000000
_symmetry_Int_Tables_number   1
_chemical_formula_structural   K2LaCl5
_chemical_formula_sum   'K8 La4 Cl20'
_cell_volume   942.77468633
_cell_formula_units_Z   4
loop_
 _symmetry_equiv_pos_site_id
 _symmetry_equiv_pos_as_xyz
  1  'x, y, z'
loop_
 _atom_site_type_symbol
 _atom_site_label
 _atom_site_symmetry_multiplicity
 _atom_site_fract_x
 _atom_site_fract_y
 _atom_site_fract_z
 _atom_site_occupancy
  K  K0  1  0.45236900  0.99469100  0.67153500  1
  K  K1  1  0.04763100  0.50530900  0.17153500  1
  K  K2  1  0.54763100  0.49469100  0.32846500  1
  K  K3  1  0.95236900  0.00530900  0.82846500  1
  K  K4  1  0.54763100  0.00530900  0.32846500  1
  K  K5  1  0.95236900  0.49469100  0.82846500  1
  K  K6  1  0.45236900  0.50530900  0.67153500  1
  K  K7  1  0.04763100  0.99469100  0.17153500  1
  La  La8  1  0.92325300  0.75000000  0.50619800  1
  La  La9  1  0.57674700  0.75000000  0.00619800  1
  La  La10  1  0.07674700  0.25000000  0.49380200  1
  La  La11  1  0.42325300  0.25000000  0.99380200  1
  Cl  Cl12  1  0.07345800  0.25000000  0.99320400  1
  Cl  Cl13  1  0.42654200  0.25000000  0.49320400  1
  Cl  Cl14  1  0.92654200  0.75000000  0.00679600  1
  Cl  Cl15  1  0.57345800  0.75000000  0.50679600  1
  Cl  Cl16  1  0.66831300  0.75000000  0.79402300  1
  Cl  Cl17  1  0.83168700  0.75000000  0.29402300  1
  Cl  Cl18  1  0.33168700  0.25000000  0.20597700  1
  Cl  Cl19  1  0.16831300  0.25000000  0.70597700  1
  Cl  Cl20  1  0.13071100  0.75000000  0.68039900  1
  Cl  Cl21  1  0.36928900  0.75000000  0.18039900  1
  Cl  Cl22  1  0.86928900  0.25000000  0.31960100  1
  Cl  Cl23  1  0.63071100  0.25000000  0.81960100  1
  Cl  Cl24  1  0.83632500  0.04263200  0.57899000  1
  Cl  Cl25  1  0.66367500  0.45736800  0.07899000  1
  Cl  Cl26  1  0.16367500  0.54263200  0.42101000  1
  Cl  Cl27  1  0.33632500  0.95736800  0.92101000  1
  Cl  Cl28  1  0.16367500  0.95736800  0.42101000  1
  Cl  Cl29  1  0.33632500  0.54263200  0.92101000  1
  Cl  Cl30  1  0.83632500  0.45736800  0.57899000  1
  Cl  Cl31  1  0.66367500  0.04263200  0.07899000  1
