# generated using pymatgen
data_Y10(SiGe)3
_symmetry_space_group_name_H-M   'P 1'
_cell_length_a   8.49278563
_cell_length_b   8.49278563
_cell_length_c   6.39545700
_cell_angle_alpha   90.00000000
_cell_angle_beta   90.00000000
_cell_angle_gamma   119.99999713
_symmetry_Int_Tables_number   1
_chemical_formula_structural   Y10(SiGe)3
_chemical_formula_sum   'Y10 Si3 Ge3'
_cell_volume   399.48690855
_cell_formula_units_Z   1
loop_
 _symmetry_equiv_pos_site_id
 _symmetry_equiv_pos_as_xyz
  1  'x, y, z'
loop_
 _atom_site_type_symbol
 _atom_site_label
 _atom_site_symmetry_multiplicity
 _atom_site_fract_x
 _atom_site_fract_y
 _atom_site_fract_z
 _atom_site_occupancy
  Y  Y0  1  0.33333300  0.66666700  0.25250300  1
  Y  Y1  1  0.66666700  0.33333300  0.25250300  1
  Y  Y2  1  0.66666700  0.33333300  0.74749700  1
  Y  Y3  1  0.33333300  0.66666700  0.74749700  1
  Y  Y4  1  0.00000000  0.75461200  0.00000000  1
  Y  Y5  1  0.24538800  0.24538800  0.00000000  1
  Y  Y6  1  0.75461200  0.00000000  0.00000000  1
  Y  Y7  1  0.00000000  0.24514200  0.50000000  1
  Y  Y8  1  0.75485800  0.75485800  0.50000000  1
  Y  Y9  1  0.24514200  0.00000000  0.50000000  1
  Si  Si10  1  0.00000000  0.60832000  0.50000000  1
  Si  Si11  1  0.39168000  0.39168000  0.50000000  1
  Si  Si12  1  0.60832000  0.00000000  0.50000000  1
  Ge  Ge13  1  0.00000000  0.39164000  0.00000000  1
  Ge  Ge14  1  0.60836000  0.60836000  0.00000000  1
  Ge  Ge15  1  0.39164000  0.00000000  0.00000000  1
