# generated using pymatgen
data_CsNpMoO7
_symmetry_space_group_name_H-M   'P 1'
_cell_length_a   8.19897600
_cell_length_b   9.44856900
_cell_length_c   10.54391200
_cell_angle_alpha   90.00000000
_cell_angle_beta   90.00000000
_cell_angle_gamma   90.00000000
_symmetry_Int_Tables_number   1
_chemical_formula_structural   CsNpMoO7
_chemical_formula_sum   'Cs4 Np4 Mo4 O28'
_cell_volume   816.82200063
_cell_formula_units_Z   4
loop_
 _symmetry_equiv_pos_site_id
 _symmetry_equiv_pos_as_xyz
  1  'x, y, z'
loop_
 _atom_site_type_symbol
 _atom_site_label
 _atom_site_symmetry_multiplicity
 _atom_site_fract_x
 _atom_site_fract_y
 _atom_site_fract_z
 _atom_site_occupancy
  Cs  Cs0  1  0.50000000  0.75000000  0.06687900  1
  Cs  Cs1  1  0.00000000  0.75000000  0.43312100  1
  Cs  Cs2  1  0.50000000  0.25000000  0.93312100  1
  Cs  Cs3  1  0.00000000  0.25000000  0.56687900  1
  Np  Np4  1  0.25000000  0.06898800  0.25000000  1
  Np  Np5  1  0.75000000  0.43101200  0.25000000  1
  Np  Np6  1  0.75000000  0.93101200  0.75000000  1
  Np  Np7  1  0.25000000  0.56898800  0.75000000  1
  Mo  Mo8  1  0.00000000  0.75000000  0.04590000  1
  Mo  Mo9  1  0.50000000  0.75000000  0.45410000  1
  Mo  Mo10  1  0.00000000  0.25000000  0.95410000  1
  Mo  Mo11  1  0.50000000  0.25000000  0.54590000  1
  O  O12  1  0.43881800  0.05347100  0.15987800  1
  O  O13  1  0.56118200  0.44652900  0.15987800  1
  O  O14  1  0.06118200  0.05347100  0.34012200  1
  O  O15  1  0.93881800  0.44652900  0.34012200  1
  O  O16  1  0.56118200  0.94652900  0.84012200  1
  O  O17  1  0.43881800  0.55347100  0.84012200  1
  O  O18  1  0.93881800  0.94652900  0.65987800  1
  O  O19  1  0.06118200  0.55347100  0.65987800  1
  O  O20  1  0.13668700  0.85133700  0.14547800  1
  O  O21  1  0.86331300  0.64866300  0.14547800  1
  O  O22  1  0.36331300  0.85133700  0.35452200  1
  O  O23  1  0.63668700  0.64866300  0.35452200  1
  O  O24  1  0.86331300  0.14866300  0.85452200  1
  O  O25  1  0.13668700  0.35133700  0.85452200  1
  O  O26  1  0.63668700  0.14866300  0.64547800  1
  O  O27  1  0.36331300  0.35133700  0.64547800  1
  O  O28  1  0.87891100  0.86548700  0.94968500  1
  O  O29  1  0.12108900  0.63451300  0.94968500  1
  O  O30  1  0.62108900  0.86548700  0.55031500  1
  O  O31  1  0.37891100  0.63451300  0.55031500  1
  O  O32  1  0.12108900  0.13451300  0.05031500  1
  O  O33  1  0.87891100  0.36548700  0.05031500  1
  O  O34  1  0.37891100  0.13451300  0.44968500  1
  O  O35  1  0.62108900  0.36548700  0.44968500  1
  O  O36  1  0.25000000  0.26743000  0.25000000  1
  O  O37  1  0.75000000  0.23257000  0.25000000  1
  O  O38  1  0.75000000  0.73257000  0.75000000  1
  O  O39  1  0.25000000  0.76743000  0.75000000  1
