# generated using pymatgen
data_B3Pb3NO10
_symmetry_space_group_name_H-M   'P 1'
_cell_length_a   8.03744900
_cell_length_b   10.56904900
_cell_length_c   11.37093400
_cell_angle_alpha   90.00000000
_cell_angle_beta   90.00000000
_cell_angle_gamma   90.00000000
_symmetry_Int_Tables_number   1
_chemical_formula_structural   B3Pb3NO10
_chemical_formula_sum   'B12 Pb12 N4 O40'
_cell_volume   965.94028824
_cell_formula_units_Z   4
loop_
 _symmetry_equiv_pos_site_id
 _symmetry_equiv_pos_as_xyz
  1  'x, y, z'
loop_
 _atom_site_type_symbol
 _atom_site_label
 _atom_site_symmetry_multiplicity
 _atom_site_fract_x
 _atom_site_fract_y
 _atom_site_fract_z
 _atom_site_occupancy
  B  B0  1  0.25000000  0.15442000  0.69554100  1
  B  B1  1  0.25000000  0.65442000  0.80445900  1
  B  B2  1  0.75000000  0.84558000  0.30445900  1
  B  B3  1  0.75000000  0.34558000  0.19554100  1
  B  B4  1  0.40182400  0.12290300  0.50497800  1
  B  B5  1  0.09817600  0.62290300  0.99502200  1
  B  B6  1  0.90182400  0.87709700  0.49502200  1
  B  B7  1  0.59817600  0.37709700  0.00497800  1
  B  B8  1  0.59817600  0.87709700  0.49502200  1
  B  B9  1  0.90182400  0.37709700  0.00497800  1
  B  B10  1  0.09817600  0.12290300  0.50497800  1
  B  B11  1  0.40182400  0.62290300  0.99502200  1
  Pb  Pb12  1  0.52031000  0.58587100  0.26496500  1
  Pb  Pb13  1  0.97969000  0.08587100  0.23503500  1
  Pb  Pb14  1  0.02031000  0.41412900  0.73503500  1
  Pb  Pb15  1  0.47969000  0.91412900  0.76496500  1
  Pb  Pb16  1  0.47969000  0.41412900  0.73503500  1
  Pb  Pb17  1  0.02031000  0.91412900  0.76496500  1
  Pb  Pb18  1  0.97969000  0.58587100  0.26496500  1
  Pb  Pb19  1  0.52031000  0.08587100  0.23503500  1
  Pb  Pb20  1  0.75000000  0.27782200  0.46189200  1
  Pb  Pb21  1  0.75000000  0.77782200  0.03810800  1
  Pb  Pb22  1  0.25000000  0.72217800  0.53810800  1
  Pb  Pb23  1  0.25000000  0.22217800  0.96189200  1
  N  N24  1  0.25000000  0.38441300  0.40747800  1
  N  N25  1  0.25000000  0.88441300  0.09252200  1
  N  N26  1  0.75000000  0.61558700  0.59252200  1
  N  N27  1  0.75000000  0.11558700  0.90747800  1
  O  O28  1  0.40426800  0.15196300  0.62306700  1
  O  O29  1  0.09573200  0.65196300  0.87693300  1
  O  O30  1  0.90426800  0.84803700  0.37693300  1
  O  O31  1  0.59573200  0.34803700  0.12306700  1
  O  O32  1  0.59573200  0.84803700  0.37693300  1
  O  O33  1  0.90426800  0.34803700  0.12306700  1
  O  O34  1  0.09573200  0.15196300  0.62306700  1
  O  O35  1  0.40426800  0.65196300  0.87693300  1
  O  O36  1  0.25000000  0.04624000  0.77859600  1
  O  O37  1  0.25000000  0.54624000  0.72140400  1
  O  O38  1  0.75000000  0.95376000  0.22140400  1
  O  O39  1  0.75000000  0.45376000  0.27859600  1
  O  O40  1  0.25000000  0.27408500  0.76482200  1
  O  O41  1  0.25000000  0.77408500  0.73517800  1
  O  O42  1  0.75000000  0.72591500  0.23517800  1
  O  O43  1  0.75000000  0.22591500  0.26482200  1
  O  O44  1  0.54463400  0.12208600  0.43916300  1
  O  O45  1  0.95536600  0.62208600  0.06083700  1
  O  O46  1  0.04463400  0.87791400  0.56083700  1
  O  O47  1  0.45536600  0.37791400  0.93916300  1
  O  O48  1  0.45536600  0.87791400  0.56083700  1
  O  O49  1  0.04463400  0.37791400  0.93916300  1
  O  O50  1  0.95536600  0.12208600  0.43916300  1
  O  O51  1  0.54463400  0.62208600  0.06083700  1
  O  O52  1  0.25000000  0.10207100  0.44701200  1
  O  O53  1  0.25000000  0.60207100  0.05298800  1
  O  O54  1  0.75000000  0.89792900  0.55298800  1
  O  O55  1  0.75000000  0.39792900  0.94701200  1
  O  O56  1  0.25000000  0.36322900  0.29773200  1
  O  O57  1  0.25000000  0.86322900  0.20226800  1
  O  O58  1  0.75000000  0.63677100  0.70226800  1
  O  O59  1  0.75000000  0.13677100  0.79773200  1
  O  O60  1  0.38699500  0.39763100  0.46222000  1
  O  O61  1  0.11300500  0.89763100  0.03778000  1
  O  O62  1  0.88699500  0.60236900  0.53778000  1
  O  O63  1  0.61300500  0.10236900  0.96222000  1
  O  O64  1  0.61300500  0.60236900  0.53778000  1
  O  O65  1  0.88699500  0.10236900  0.96222000  1
  O  O66  1  0.11300500  0.39763100  0.46222000  1
  O  O67  1  0.38699500  0.89763100  0.03778000  1
