# generated using pymatgen
data_Ba2LaTaO6
_symmetry_space_group_name_H-M   'P 1'
_cell_length_a   6.13693241
_cell_length_b   6.13693241
_cell_length_c   6.20929437
_cell_angle_alpha   60.14432794
_cell_angle_beta   60.14432794
_cell_angle_gamma   60.12485201
_symmetry_Int_Tables_number   1
_chemical_formula_structural   Ba2LaTaO6
_chemical_formula_sum   'Ba2 La1 Ta1 O6'
_cell_volume   165.87609759
_cell_formula_units_Z   1
loop_
 _symmetry_equiv_pos_site_id
 _symmetry_equiv_pos_as_xyz
  1  'x, y, z'
loop_
 _atom_site_type_symbol
 _atom_site_label
 _atom_site_symmetry_multiplicity
 _atom_site_fract_x
 _atom_site_fract_y
 _atom_site_fract_z
 _atom_site_occupancy
  Ba  Ba0  1  0.24809000  0.24809000  0.25887200  1
  Ba  Ba1  1  0.75191000  0.75191000  0.74112800  1
  La  La2  1  0.00000000  0.00000000  0.00000000  1
  Ta  Ta3  1  0.50000000  0.50000000  0.50000000  1
  O  O4  1  0.23107700  0.69381100  0.31145300  1
  O  O5  1  0.30618900  0.76892300  0.68854700  1
  O  O6  1  0.76892300  0.30618900  0.68854700  1
  O  O7  1  0.69381100  0.23107700  0.31145300  1
  O  O8  1  0.27289400  0.27289400  0.79525200  1
  O  O9  1  0.72710600  0.72710600  0.20474800  1
