# generated using pymatgen
data_La9Al5Se21
_symmetry_space_group_name_H-M   'P 1'
_cell_length_a   12.39122997
_cell_length_b   12.39122997
_cell_length_c   12.39123023
_cell_angle_alpha   96.51996431
_cell_angle_beta   96.51996431
_cell_angle_gamma   96.51996592
_symmetry_Int_Tables_number   1
_chemical_formula_structural   La9Al5Se21
_chemical_formula_sum   'La18 Al10 Se42'
_cell_volume   1862.57914699
_cell_formula_units_Z   2
loop_
 _symmetry_equiv_pos_site_id
 _symmetry_equiv_pos_as_xyz
  1  'x, y, z'
loop_
 _atom_site_type_symbol
 _atom_site_label
 _atom_site_symmetry_multiplicity
 _atom_site_fract_x
 _atom_site_fract_y
 _atom_site_fract_z
 _atom_site_occupancy
  La  La0  1  0.11787700  0.88374500  0.74798400  1
  La  La1  1  0.45504100  0.21923100  0.08014300  1
  La  La2  1  0.78270300  0.55031700  0.41202000  1
  La  La3  1  0.41202000  0.78270300  0.55031700  1
  La  La4  1  0.74798400  0.11787700  0.88374500  1
  La  La5  1  0.08014300  0.45504100  0.21923100  1
  La  La6  1  0.21923100  0.08014300  0.45504100  1
  La  La7  1  0.55031700  0.41202000  0.78270300  1
  La  La8  1  0.88374500  0.74798400  0.11787700  1
  La  La9  1  0.21510500  0.44852900  0.58505400  1
  La  La10  1  0.54780500  0.78377800  0.92308200  1
  La  La11  1  0.88083200  0.11367000  0.25113100  1
  La  La12  1  0.92308200  0.54780500  0.78377800  1
  La  La13  1  0.25113100  0.88083200  0.11367000  1
  La  La14  1  0.58505400  0.21510500  0.44852900  1
  La  La15  1  0.11367000  0.25113100  0.88083200  1
  La  La16  1  0.44852900  0.58505400  0.21510500  1
  La  La17  1  0.78377800  0.92308200  0.54780500  1
  Al  Al18  1  0.72177800  0.38857500  0.05531600  1
  Al  Al19  1  0.05531600  0.72177800  0.38857500  1
  Al  Al20  1  0.38857500  0.05531600  0.72177800  1
  Al  Al21  1  0.88801600  0.22241600  0.55528800  1
  Al  Al22  1  0.22241600  0.55528800  0.88801600  1
  Al  Al23  1  0.55528800  0.88801600  0.22241600  1
  Al  Al24  1  0.84842600  0.84842600  0.84842600  1
  Al  Al25  1  0.16117900  0.16117900  0.16117900  1
  Al  Al26  1  0.66121900  0.66121900  0.66121900  1
  Al  Al27  1  0.34836100  0.34836100  0.34836100  1
  Se  Se28  1  0.84520600  0.51528500  0.18035500  1
  Se  Se29  1  0.18035500  0.84520600  0.51528500  1
  Se  Se30  1  0.51528500  0.18035500  0.84520600  1
  Se  Se31  1  0.67972700  0.01559600  0.34555400  1
  Se  Se32  1  0.01559600  0.34555400  0.67972700  1
  Se  Se33  1  0.34555400  0.67972700  0.01559600  1
  Se  Se34  1  0.54414800  0.44856400  0.02459400  1
  Se  Se35  1  0.87791200  0.78078700  0.36107800  1
  Se  Se36  1  0.20906000  0.11204000  0.69740300  1
  Se  Se37  1  0.69740300  0.20906000  0.11204000  1
  Se  Se38  1  0.02459400  0.54414800  0.44856400  1
  Se  Se39  1  0.36107800  0.87791200  0.78078700  1
  Se  Se40  1  0.78078700  0.36107800  0.87791200  1
  Se  Se41  1  0.11204000  0.69740300  0.20906000  1
  Se  Se42  1  0.44856400  0.02459400  0.54414800  1
  Se  Se43  1  0.96872100  0.06772300  0.48189400  1
  Se  Se44  1  0.30201900  0.39807400  0.81757300  1
  Se  Se45  1  0.63525900  0.73013600  0.15445300  1
  Se  Se46  1  0.81757300  0.30201900  0.39807400  1
  Se  Se47  1  0.15445300  0.63525900  0.73013600  1
  Se  Se48  1  0.48189400  0.96872100  0.06772300  1
  Se  Se49  1  0.73013600  0.15445300  0.63525900  1
  Se  Se50  1  0.06772300  0.48189400  0.96872100  1
  Se  Se51  1  0.39807400  0.81757300  0.30201900  1
  Se  Se52  1  0.54508400  0.39311300  0.30689900  1
  Se  Se53  1  0.87985000  0.73912900  0.65550500  1
  Se  Se54  1  0.22594300  0.07939800  0.98895200  1
  Se  Se55  1  0.98895200  0.22594300  0.07939800  1
  Se  Se56  1  0.30689900  0.54508400  0.39311300  1
  Se  Se57  1  0.65550500  0.87985000  0.73912900  1
  Se  Se58  1  0.73912900  0.65550500  0.87985000  1
  Se  Se59  1  0.07939800  0.98895200  0.22594300  1
  Se  Se60  1  0.39311300  0.30689900  0.54508400  1
  Se  Se61  1  0.13646900  0.27748700  0.36062300  1
  Se  Se62  1  0.47012500  0.61666900  0.70738900  1
  Se  Se63  1  0.78493900  0.93698800  0.02308500  1
  Se  Se64  1  0.70738900  0.47012500  0.61666900  1
  Se  Se65  1  0.02308500  0.78493900  0.93698800  1
  Se  Se66  1  0.36062300  0.13646900  0.27748700  1
  Se  Se67  1  0.93698800  0.02308500  0.78493900  1
  Se  Se68  1  0.27748700  0.36062300  0.13646900  1
  Se  Se69  1  0.61666900  0.70738900  0.47012500  1
