# generated using pymatgen
data_Cu3P4H8N2(O3F)4
_symmetry_space_group_name_H-M   'P 1'
_cell_length_a   7.99334894
_cell_length_b   9.22726506
_cell_length_c   9.67635100
_cell_angle_alpha   90.00000000
_cell_angle_beta   90.00000000
_cell_angle_gamma   94.72946941
_symmetry_Int_Tables_number   1
_chemical_formula_structural   Cu3P4H8N2(O3F)4
_chemical_formula_sum   'Cu6 P8 H16 N4 O24 F8'
_cell_volume   711.26613956
_cell_formula_units_Z   2
loop_
 _symmetry_equiv_pos_site_id
 _symmetry_equiv_pos_as_xyz
  1  'x, y, z'
loop_
 _atom_site_type_symbol
 _atom_site_label
 _atom_site_symmetry_multiplicity
 _atom_site_fract_x
 _atom_site_fract_y
 _atom_site_fract_z
 _atom_site_occupancy
  Cu  Cu0  1  0.61351400  0.18162500  0.85456200  1
  Cu  Cu1  1  0.38648600  0.31837500  0.35456200  1
  Cu  Cu2  1  0.38648600  0.81837500  0.14543800  1
  Cu  Cu3  1  0.61351400  0.68162500  0.64543800  1
  Cu  Cu4  1  0.50000000  0.50000000  0.00000000  1
  Cu  Cu5  1  0.50000000  0.00000000  0.50000000  1
  P  P6  1  0.18728100  0.52047400  0.17706600  1
  P  P7  1  0.81271900  0.97952600  0.67706600  1
  P  P8  1  0.81271900  0.47952700  0.82293400  1
  P  P9  1  0.18728100  0.02047300  0.32293400  1
  P  P10  1  0.39477800  0.38746100  0.69130800  1
  P  P11  1  0.60522200  0.11253900  0.19130800  1
  P  P12  1  0.60522200  0.61253900  0.30869200  1
  P  P13  1  0.39477800  0.88746100  0.80869200  1
  H  H14  1  0.18210700  0.28126700  0.99725300  1
  H  H15  1  0.81789300  0.21873300  0.49725300  1
  H  H16  1  0.81789300  0.71873300  0.00274700  1
  H  H17  1  0.18210700  0.78126700  0.50274700  1
  H  H18  1  0.12588800  0.10759500  0.04106100  1
  H  H19  1  0.87411200  0.39240500  0.54106100  1
  H  H20  1  0.87411200  0.89240500  0.95893900  1
  H  H21  1  0.12588800  0.60759500  0.45893900  1
  H  H22  1  0.00872000  0.19563100  0.92261400  1
  H  H23  1  0.99128000  0.30436900  0.42261400  1
  H  H24  1  0.99128000  0.80436900  0.07738600  1
  H  H25  1  0.00872000  0.69563100  0.57738600  1
  H  H26  1  0.20469900  0.14480600  0.88564700  1
  H  H27  1  0.79530100  0.35519400  0.38564700  1
  H  H28  1  0.79530100  0.85519400  0.11435300  1
  H  H29  1  0.20469900  0.64480600  0.61435300  1
  N  N30  1  0.12672200  0.18157400  0.96094000  1
  N  N31  1  0.87327800  0.31842600  0.46094000  1
  N  N32  1  0.87327800  0.81842600  0.03906000  1
  N  N33  1  0.12672200  0.68157400  0.53906000  1
  O  O34  1  0.46985300  0.35512700  0.83612600  1
  O  O35  1  0.53014700  0.14487300  0.33612600  1
  O  O36  1  0.53014700  0.64487300  0.16387400  1
  O  O37  1  0.46985300  0.85512700  0.66387400  1
  O  O38  1  0.27865000  0.44076700  0.06414000  1
  O  O39  1  0.72135000  0.05923300  0.56414000  1
  O  O40  1  0.72135000  0.55923300  0.93586000  1
  O  O41  1  0.27865000  0.94076700  0.43586000  1
  O  O42  1  0.40987400  0.55078600  0.66185500  1
  O  O43  1  0.59012600  0.94921400  0.16185500  1
  O  O44  1  0.59012600  0.44921400  0.33814500  1
  O  O45  1  0.40987400  0.05078600  0.83814500  1
  O  O46  1  0.18291400  0.68408400  0.15698600  1
  O  O47  1  0.81708600  0.81591600  0.65698600  1
  O  O48  1  0.81708600  0.31591600  0.84301400  1
  O  O49  1  0.18291400  0.18408400  0.34301400  1
  O  O50  1  0.23244800  0.47831300  0.32512400  1
  O  O51  1  0.76755200  0.02168700  0.82512400  1
  O  O52  1  0.76755200  0.52168700  0.67487600  1
  O  O53  1  0.23244800  0.97831300  0.17487600  1
  O  O54  1  0.44357500  0.28470000  0.58121900  1
  O  O55  1  0.55642500  0.21530000  0.08121900  1
  O  O56  1  0.55642500  0.71530000  0.41878100  1
  O  O57  1  0.44357500  0.78470000  0.91878100  1
  F  F58  1  0.99895300  0.45636500  0.15576200  1
  F  F59  1  0.00104700  0.04363500  0.65576200  1
  F  F60  1  0.00104700  0.54363500  0.84423800  1
  F  F61  1  0.99895300  0.95636500  0.34423800  1
  F  F62  1  0.19638400  0.35583600  0.71257000  1
  F  F63  1  0.80361600  0.14416400  0.21257000  1
  F  F64  1  0.80361600  0.64416400  0.28743000  1
  F  F65  1  0.19638400  0.85583600  0.78743000  1
