# generated using pymatgen
data_Y5Si3H
_symmetry_space_group_name_H-M   'P 1'
_cell_length_a   8.47479272
_cell_length_b   8.47479272
_cell_length_c   6.24801400
_cell_angle_alpha   90.00000000
_cell_angle_beta   90.00000000
_cell_angle_gamma   120.00000565
_symmetry_Int_Tables_number   1
_chemical_formula_structural   Y5Si3H
_chemical_formula_sum   'Y10 Si6 H2'
_cell_volume   388.62503224
_cell_formula_units_Z   2
loop_
 _symmetry_equiv_pos_site_id
 _symmetry_equiv_pos_as_xyz
  1  'x, y, z'
loop_
 _atom_site_type_symbol
 _atom_site_label
 _atom_site_symmetry_multiplicity
 _atom_site_fract_x
 _atom_site_fract_y
 _atom_site_fract_z
 _atom_site_occupancy
  Y  Y0  1  0.66666700  0.33333300  0.00000000  1
  Y  Y1  1  0.33333300  0.66666700  0.00000000  1
  Y  Y2  1  0.33333300  0.66666700  0.50000000  1
  Y  Y3  1  0.66666700  0.33333300  0.50000000  1
  Y  Y4  1  0.74991800  0.74991800  0.75000000  1
  Y  Y5  1  0.25008200  0.00000000  0.75000000  1
  Y  Y6  1  0.00000000  0.25008200  0.75000000  1
  Y  Y7  1  0.25008200  0.25008200  0.25000000  1
  Y  Y8  1  0.74991800  0.00000000  0.25000000  1
  Y  Y9  1  0.00000000  0.74991800  0.25000000  1
  Si  Si10  1  0.38883300  0.38883300  0.75000000  1
  Si  Si11  1  0.61116700  0.00000000  0.75000000  1
  Si  Si12  1  0.00000000  0.61116700  0.75000000  1
  Si  Si13  1  0.61116700  0.61116700  0.25000000  1
  Si  Si14  1  0.38883300  0.00000000  0.25000000  1
  Si  Si15  1  0.00000000  0.38883300  0.25000000  1
  H  H16  1  0.00000000  0.00000000  0.50000000  1
  H  H17  1  0.00000000  0.00000000  0.00000000  1
