# generated using pymatgen
data_Ho6H40N8O49
_symmetry_space_group_name_H-M   'P 1'
_cell_length_a   10.19685600
_cell_length_b   10.23852384
_cell_length_c   11.43104112
_cell_angle_alpha   95.44303240
_cell_angle_beta   108.94895304
_cell_angle_gamma   111.33455650
_symmetry_Int_Tables_number   1
_chemical_formula_structural   Ho6H40N8O49
_chemical_formula_sum   'Ho6 H40 N8 O49'
_cell_volume   1020.19616692
_cell_formula_units_Z   1
loop_
 _symmetry_equiv_pos_site_id
 _symmetry_equiv_pos_as_xyz
  1  'x, y, z'
loop_
 _atom_site_type_symbol
 _atom_site_label
 _atom_site_symmetry_multiplicity
 _atom_site_fract_x
 _atom_site_fract_y
 _atom_site_fract_z
 _atom_site_occupancy
  Ho  Ho0  1  0.73752000  0.47691600  0.61660600  1
  Ho  Ho1  1  0.26248000  0.52308400  0.38339400  1
  Ho  Ho2  1  0.65247700  0.76074200  0.52190000  1
  Ho  Ho3  1  0.34752300  0.23925800  0.47810000  1
  Ho  Ho4  1  0.48139100  0.56676800  0.70674000  1
  Ho  Ho5  1  0.51860900  0.43323200  0.29326000  1
  H  H6  1  0.80749200  0.74127300  0.78940000  1
  H  H7  1  0.19250800  0.25872700  0.21060000  1
  H  H8  1  0.84444000  0.64747600  0.44619300  1
  H  H9  1  0.15556000  0.35252400  0.55380700  1
  H  H10  1  0.41025200  0.79019100  0.59168600  1
  H  H11  1  0.58974800  0.20980900  0.40831400  1
  H  H12  1  0.55602300  0.32300800  0.75497100  1
  H  H13  1  0.44397700  0.67699200  0.24502900  1
  H  H14  1  0.96810100  0.54579300  0.87154300  1
  H  H15  1  0.03189900  0.45420700  0.12845700  1
  H  H16  1  0.83648800  0.40237700  0.87450300  1
  H  H17  1  0.16351200  0.59762300  0.12549700  1
  H  H18  1  0.01157600  0.75999200  0.70127200  1
  H  H19  1  0.98842400  0.24000800  0.29872800  1
  H  H20  1  0.08971400  0.64905600  0.70741200  1
  H  H21  1  0.91028600  0.35094400  0.29258800  1
  H  H22  1  0.95724100  0.98595300  0.69183900  1
  H  H23  1  0.04275900  0.01404700  0.30816100  1
  H  H24  1  0.01900000  0.93958000  0.59520900  1
  H  H25  1  0.98100000  0.06042000  0.40479100  1
  H  H26  1  0.73905800  0.06397100  0.68879100  1
  H  H27  1  0.26094200  0.93602900  0.31120900  1
  H  H28  1  0.68339800  0.93947200  0.76024700  1
  H  H29  1  0.31660200  0.06052800  0.23975300  1
  H  H30  1  0.48787500  0.84180000  0.85677700  1
  H  H31  1  0.51212500  0.15820000  0.14322300  1
  H  H32  1  0.64468200  0.83951400  0.93379500  1
  H  H33  1  0.35531800  0.16048600  0.06620500  1
  H  H34  1  0.64334300  0.57866900  0.99416800  1
  H  H35  1  0.35665700  0.42133100  0.00583200  1
  H  H36  1  0.75130900  0.58503600  0.92007900  1
  H  H37  1  0.24869100  0.41496400  0.07992100  1
  H  H38  1  0.72885600  0.99220100  0.11115600  1
  H  H39  1  0.27114400  0.00779900  0.88884400  1
  H  H40  1  0.73908400  0.85332600  0.14905500  1
  H  H41  1  0.26091600  0.14667400  0.85094500  1
  H  H42  1  0.02907600  0.80365200  0.99150900  1
  H  H43  1  0.97092400  0.19634800  0.00849100  1
  H  H44  1  0.03593900  0.92515200  0.92084600  1
  H  H45  1  0.96406100  0.07484800  0.07915400  1
  N  N46  1  0.89065600  0.28043100  0.60213200  1
  N  N47  1  0.10934400  0.71956900  0.39786800  1
  N  N48  1  0.68017200  0.97993600  0.37097400  1
  N  N49  1  0.31982800  0.02006400  0.62902600  1
  N  N50  1  0.24489200  0.50438700  0.81529100  1
  N  N51  1  0.75510800  0.49561300  0.18470900  1
  N  N52  1  0.67786100  0.21575500  0.95910700  1
  N  N53  1  0.32213900  0.78424500  0.04089300  1
  O  O54  1  0.50000000  0.50000000  0.50000000  1
  O  O55  1  0.72171900  0.68114600  0.70686600  1
  O  O56  1  0.27828100  0.31885400  0.29313400  1
  O  O57  1  0.74750100  0.60621300  0.45712000  1
  O  O58  1  0.25249900  0.39378700  0.54288000  1
  O  O59  1  0.43281900  0.70982000  0.56563800  1
  O  O60  1  0.56718100  0.29018000  0.43436200  1
  O  O61  1  0.53709200  0.36567000  0.68063200  1
  O  O62  1  0.46290800  0.63433000  0.31936800  1
  O  O63  1  0.85764000  0.49570600  0.84713300  1
  O  O64  1  0.14236000  0.50429400  0.15286700  1
  O  O65  1  0.99813800  0.66117100  0.70694500  1
  O  O66  1  0.00186200  0.33882900  0.29305500  1
  O  O67  1  0.94353900  0.90149700  0.63309700  1
  O  O68  1  0.05646100  0.09850300  0.36690300  1
  O  O69  1  0.73212800  0.96723200  0.69915700  1
  O  O70  1  0.26787200  0.03276800  0.30084300  1
  O  O71  1  0.56860800  0.81839500  0.84479600  1
  O  O72  1  0.43139200  0.18160500  0.15520400  1
  O  O73  1  0.65864300  0.59707100  0.91572100  1
  O  O74  1  0.34135700  0.40292900  0.08427900  1
  O  O75  1  0.76569600  0.91875300  0.09529100  1
  O  O76  1  0.23430400  0.08124700  0.90470900  1
  O  O77  1  0.96340600  0.84232300  0.93666900  1
  O  O78  1  0.03659400  0.15767700  0.06333100  1
  O  O79  1  0.91027800  0.39142900  0.55610000  1
  O  O80  1  0.08972200  0.60857100  0.44390000  1
  O  O81  1  0.79059100  0.24673200  0.65197500  1
  O  O82  1  0.20940900  0.75326800  0.34802500  1
  O  O83  1  0.96651000  0.20885900  0.59907700  1
  O  O84  1  0.03349000  0.79114100  0.40092300  1
  O  O85  1  0.58994700  0.95234200  0.42966600  1
  O  O86  1  0.41005300  0.04765800  0.57033400  1
  O  O87  1  0.75825200  0.90388700  0.37764300  1
  O  O88  1  0.24174800  0.09611300  0.62235700  1
  O  O89  1  0.69403000  0.07626100  0.31137800  1
  O  O90  1  0.30597000  0.92373900  0.68862200  1
  O  O91  1  0.34490700  0.45106700  0.84133100  1
  O  O92  1  0.65509300  0.54893300  0.15866900  1
  O  O93  1  0.25555000  0.59069900  0.74169200  1
  O  O94  1  0.74445000  0.40930100  0.25830800  1
  O  O95  1  0.14471500  0.47247800  0.85998400  1
  O  O96  1  0.85528500  0.52752200  0.14001600  1
  O  O97  1  0.57419000  0.25407200  0.90202500  1
  O  O98  1  0.42581000  0.74592800  0.09797500  1
  O  O99  1  0.66557200  0.14541900  0.04236200  1
  O  O100  1  0.33442800  0.85458100  0.95763800  1
  O  O101  1  0.79720500  0.25034500  0.93168500  1
  O  O102  1  0.20279500  0.74965500  0.06831500  1
