# generated using pymatgen
data_ErB4Rh
_symmetry_space_group_name_H-M   'P 1'
_cell_length_a   3.55383800
_cell_length_b   5.94177200
_cell_length_c   11.52929100
_cell_angle_alpha   90.00000000
_cell_angle_beta   90.00000000
_cell_angle_gamma   90.00000000
_symmetry_Int_Tables_number   1
_chemical_formula_structural   ErB4Rh
_chemical_formula_sum   'Er4 B16 Rh4'
_cell_volume   243.45360543
_cell_formula_units_Z   4
loop_
 _symmetry_equiv_pos_site_id
 _symmetry_equiv_pos_as_xyz
  1  'x, y, z'
loop_
 _atom_site_type_symbol
 _atom_site_label
 _atom_site_symmetry_multiplicity
 _atom_site_fract_x
 _atom_site_fract_y
 _atom_site_fract_z
 _atom_site_occupancy
  Er  Er0  1  0.00000000  0.13146300  0.64883900  1
  Er  Er1  1  0.00000000  0.86853700  0.35116100  1
  Er  Er2  1  0.00000000  0.63146300  0.85116100  1
  Er  Er3  1  0.00000000  0.36853700  0.14883900  1
  B  B4  1  0.50000000  0.79076700  0.68730500  1
  B  B5  1  0.50000000  0.20923300  0.31269500  1
  B  B6  1  0.50000000  0.29076700  0.81269500  1
  B  B7  1  0.50000000  0.70923300  0.18730500  1
  B  B8  1  0.50000000  0.86420800  0.53056900  1
  B  B9  1  0.50000000  0.13579200  0.46943100  1
  B  B10  1  0.50000000  0.36420800  0.96943100  1
  B  B11  1  0.50000000  0.63579200  0.03056900  1
  B  B12  1  0.50000000  0.02185400  0.19297700  1
  B  B13  1  0.50000000  0.97814600  0.80702300  1
  B  B14  1  0.50000000  0.52185400  0.30702300  1
  B  B15  1  0.50000000  0.47814600  0.69297700  1
  B  B16  1  0.50000000  0.11282400  0.04727300  1
  B  B17  1  0.50000000  0.88717600  0.95272700  1
  B  B18  1  0.50000000  0.61282400  0.45272700  1
  B  B19  1  0.50000000  0.38717600  0.54727300  1
  Rh  Rh20  1  0.00000000  0.64282000  0.59473800  1
  Rh  Rh21  1  0.00000000  0.35718000  0.40526200  1
  Rh  Rh22  1  0.00000000  0.14282000  0.90526200  1
  Rh  Rh23  1  0.00000000  0.85718000  0.09473800  1
