# generated using pymatgen
data_KBaVO4
_symmetry_space_group_name_H-M   'P 1'
_cell_length_a   6.02528600
_cell_length_b   7.88736400
_cell_length_c   10.57497900
_cell_angle_alpha   90.00000000
_cell_angle_beta   90.00000000
_cell_angle_gamma   90.00000000
_symmetry_Int_Tables_number   1
_chemical_formula_structural   KBaVO4
_chemical_formula_sum   'K4 Ba4 V4 O16'
_cell_volume   502.56132460
_cell_formula_units_Z   4
loop_
 _symmetry_equiv_pos_site_id
 _symmetry_equiv_pos_as_xyz
  1  'x, y, z'
loop_
 _atom_site_type_symbol
 _atom_site_label
 _atom_site_symmetry_multiplicity
 _atom_site_fract_x
 _atom_site_fract_y
 _atom_site_fract_z
 _atom_site_occupancy
  K  K0  1  0.25000000  0.83638400  0.42658900  1
  K  K1  1  0.75000000  0.16361600  0.57341100  1
  K  K2  1  0.25000000  0.33638400  0.07341100  1
  K  K3  1  0.75000000  0.66361600  0.92658900  1
  Ba  Ba4  1  0.25000000  0.50247400  0.69623900  1
  Ba  Ba5  1  0.75000000  0.49752600  0.30376100  1
  Ba  Ba6  1  0.25000000  0.00247400  0.80376100  1
  Ba  Ba7  1  0.75000000  0.99752600  0.19623900  1
  V  V8  1  0.25000000  0.27222700  0.41670400  1
  V  V9  1  0.75000000  0.72777300  0.58329600  1
  V  V10  1  0.25000000  0.77222700  0.08329600  1
  V  V11  1  0.75000000  0.22777300  0.91670400  1
  O  O12  1  0.51075500  0.79252400  0.66301100  1
  O  O13  1  0.01075500  0.20747600  0.33698900  1
  O  O14  1  0.98924500  0.29252400  0.83698900  1
  O  O15  1  0.48924500  0.70747600  0.16301100  1
  O  O16  1  0.48924500  0.20747600  0.33698900  1
  O  O17  1  0.98924500  0.79252400  0.66301100  1
  O  O18  1  0.01075500  0.70747600  0.16301100  1
  O  O19  1  0.51075500  0.29252400  0.83698900  1
  O  O20  1  0.25000000  0.18885500  0.57041600  1
  O  O21  1  0.75000000  0.81114500  0.42958400  1
  O  O22  1  0.25000000  0.68885500  0.92958400  1
  O  O23  1  0.75000000  0.31114500  0.07041600  1
  O  O24  1  0.75000000  0.00841400  0.92827800  1
  O  O25  1  0.25000000  0.99158600  0.07172200  1
  O  O26  1  0.75000000  0.50841400  0.57172200  1
  O  O27  1  0.25000000  0.49158600  0.42827800  1
