# generated using pymatgen
data_Ce(AlBr4)3
_symmetry_space_group_name_H-M   'P 1'
_cell_length_a   10.74831626
_cell_length_b   10.74831626
_cell_length_c   19.25801400
_cell_angle_alpha   90.00000000
_cell_angle_beta   90.00000000
_cell_angle_gamma   120.00000158
_symmetry_Int_Tables_number   1
_chemical_formula_structural   Ce(AlBr4)3
_chemical_formula_sum   'Ce3 Al9 Br36'
_cell_volume   1926.73947804
_cell_formula_units_Z   3
loop_
 _symmetry_equiv_pos_site_id
 _symmetry_equiv_pos_as_xyz
  1  'x, y, z'
loop_
 _atom_site_type_symbol
 _atom_site_label
 _atom_site_symmetry_multiplicity
 _atom_site_fract_x
 _atom_site_fract_y
 _atom_site_fract_z
 _atom_site_occupancy
  Ce  Ce0  1  0.72662300  0.00000000  0.33333300  1
  Ce  Ce1  1  0.00000000  0.72662300  0.66666700  1
  Ce  Ce2  1  0.27337700  0.27337700  0.00000000  1
  Al  Al3  1  0.30380500  0.63058000  0.72033600  1
  Al  Al4  1  0.36942000  0.67322600  0.05367000  1
  Al  Al5  1  0.63058000  0.30380500  0.27966400  1
  Al  Al6  1  0.32677400  0.69619500  0.38700300  1
  Al  Al7  1  0.67322600  0.36942000  0.94633000  1
  Al  Al8  1  0.69619500  0.32677400  0.61299700  1
  Al  Al9  1  0.09988800  0.00000000  0.83333300  1
  Al  Al10  1  0.00000000  0.09988800  0.16666700  1
  Al  Al11  1  0.90011200  0.90011200  0.50000000  1
  Br  Br12  1  0.07710600  0.19729600  0.86471800  1
  Br  Br13  1  0.80270400  0.87981000  0.19805100  1
  Br  Br14  1  0.19729600  0.07710600  0.13528200  1
  Br  Br15  1  0.12019000  0.92289400  0.53138400  1
  Br  Br16  1  0.87981000  0.80270400  0.80194900  1
  Br  Br17  1  0.92289400  0.12019000  0.46861600  1
  Br  Br18  1  0.08481600  0.58641100  0.77663600  1
  Br  Br19  1  0.41358900  0.49840500  0.10997000  1
  Br  Br20  1  0.58641100  0.08481600  0.22336400  1
  Br  Br21  1  0.50159500  0.91518400  0.44330300  1
  Br  Br22  1  0.49840500  0.41358900  0.89003000  1
  Br  Br23  1  0.91518400  0.50159500  0.55669700  1
  Br  Br24  1  0.50415600  0.27567400  0.54478100  1
  Br  Br25  1  0.72432600  0.22848200  0.87811500  1
  Br  Br26  1  0.27567400  0.50415600  0.45521900  1
  Br  Br27  1  0.77151800  0.49584400  0.21144800  1
  Br  Br28  1  0.22848200  0.72432600  0.12188500  1
  Br  Br29  1  0.49584400  0.77151800  0.78855200  1
  Br  Br30  1  0.23613100  0.52469600  0.95739600  1
  Br  Br31  1  0.47530400  0.71143500  0.29073000  1
  Br  Br32  1  0.52469600  0.23613100  0.04260400  1
  Br  Br33  1  0.28856500  0.76386900  0.62406300  1
  Br  Br34  1  0.71143500  0.47530400  0.70927000  1
  Br  Br35  1  0.76386900  0.28856500  0.37593700  1
  Br  Br36  1  0.23254500  0.02716100  0.73240600  1
  Br  Br37  1  0.97283900  0.20538400  0.06573900  1
  Br  Br38  1  0.02716100  0.23254500  0.26759400  1
  Br  Br39  1  0.79461600  0.76745500  0.39907300  1
  Br  Br40  1  0.20538400  0.97283900  0.93426100  1
  Br  Br41  1  0.76745500  0.79461600  0.60092700  1
  Br  Br42  1  0.28399600  0.42095500  0.68337600  1
  Br  Br43  1  0.57904500  0.86304200  0.01670900  1
  Br  Br44  1  0.42095500  0.28399600  0.31662400  1
  Br  Br45  1  0.13695800  0.71600400  0.35004200  1
  Br  Br46  1  0.86304200  0.57904500  0.98329100  1
  Br  Br47  1  0.71600400  0.13695800  0.64995800  1
