# generated using pymatgen
data_K4Rb2Co2O5
_symmetry_space_group_name_H-M   'P 1'
_cell_length_a   6.80198200
_cell_length_b   6.80198200
_cell_length_c   11.87734100
_cell_angle_alpha   90.00000000
_cell_angle_beta   90.00000000
_cell_angle_gamma   90.00000000
_symmetry_Int_Tables_number   1
_chemical_formula_structural   K4Rb2Co2O5
_chemical_formula_sum   'K8 Rb4 Co4 O10'
_cell_volume   549.52845060
_cell_formula_units_Z   2
loop_
 _symmetry_equiv_pos_site_id
 _symmetry_equiv_pos_as_xyz
  1  'x, y, z'
loop_
 _atom_site_type_symbol
 _atom_site_label
 _atom_site_symmetry_multiplicity
 _atom_site_fract_x
 _atom_site_fract_y
 _atom_site_fract_z
 _atom_site_occupancy
  K  K0  1  0.50000000  0.00000000  0.25000000  1
  K  K1  1  0.50000000  0.00000000  0.75000000  1
  K  K2  1  0.00000000  0.00000000  0.77903900  1
  K  K3  1  0.50000000  0.50000000  0.27903900  1
  K  K4  1  0.50000000  0.50000000  0.72096100  1
  K  K5  1  0.00000000  0.00000000  0.22096100  1
  K  K6  1  0.00000000  0.50000000  0.25000000  1
  K  K7  1  0.00000000  0.50000000  0.75000000  1
  Rb  Rb8  1  0.31356200  0.31356200  0.00000000  1
  Rb  Rb9  1  0.18643800  0.81356200  0.50000000  1
  Rb  Rb10  1  0.81356200  0.18643800  0.50000000  1
  Rb  Rb11  1  0.68643800  0.68643800  0.00000000  1
  Co  Co12  1  0.20430800  0.79569200  0.00000000  1
  Co  Co13  1  0.70430800  0.70430800  0.50000000  1
  Co  Co14  1  0.29569200  0.29569200  0.50000000  1
  Co  Co15  1  0.79569200  0.20430800  0.00000000  1
  O  O16  1  0.50000000  0.50000000  0.50000000  1
  O  O17  1  0.00000000  0.00000000  0.00000000  1
  O  O18  1  0.78341700  0.78341700  0.35980500  1
  O  O19  1  0.21658300  0.21658300  0.35980500  1
  O  O20  1  0.78341700  0.78341700  0.64019500  1
  O  O21  1  0.28341700  0.71658300  0.85980500  1
  O  O22  1  0.71658300  0.28341700  0.85980500  1
  O  O23  1  0.71658300  0.28341700  0.14019500  1
  O  O24  1  0.21658300  0.21658300  0.64019500  1
  O  O25  1  0.28341700  0.71658300  0.14019500  1
