# generated using pymatgen
data_Ti5As3
_symmetry_space_group_name_H-M   'P 1'
_cell_length_a   6.72864400
_cell_length_b   7.74378800
_cell_length_c   9.90765100
_cell_angle_alpha   90.00000000
_cell_angle_beta   90.00000000
_cell_angle_gamma   90.00000000
_symmetry_Int_Tables_number   1
_chemical_formula_structural   Ti5As3
_chemical_formula_sum   'Ti20 As12'
_cell_volume   516.24006420
_cell_formula_units_Z   4
loop_
 _symmetry_equiv_pos_site_id
 _symmetry_equiv_pos_as_xyz
  1  'x, y, z'
loop_
 _atom_site_type_symbol
 _atom_site_label
 _atom_site_symmetry_multiplicity
 _atom_site_fract_x
 _atom_site_fract_y
 _atom_site_fract_z
 _atom_site_occupancy
  Ti  Ti0  1  0.80343500  0.55312600  0.06471400  1
  Ti  Ti1  1  0.69656500  0.94687400  0.56471400  1
  Ti  Ti2  1  0.19656500  0.05312600  0.93528600  1
  Ti  Ti3  1  0.30343500  0.44687400  0.43528600  1
  Ti  Ti4  1  0.19656500  0.44687400  0.93528600  1
  Ti  Ti5  1  0.30343500  0.05312600  0.43528600  1
  Ti  Ti6  1  0.80343500  0.94687400  0.06471400  1
  Ti  Ti7  1  0.69656500  0.55312600  0.56471400  1
  Ti  Ti8  1  0.16653200  0.75000000  0.22758900  1
  Ti  Ti9  1  0.33346800  0.75000000  0.72758900  1
  Ti  Ti10  1  0.83346800  0.25000000  0.77241100  1
  Ti  Ti11  1  0.66653200  0.25000000  0.27241100  1
  Ti  Ti12  1  0.47368600  0.75000000  0.00101800  1
  Ti  Ti13  1  0.02631400  0.75000000  0.50101800  1
  Ti  Ti14  1  0.52631400  0.25000000  0.99898200  1
  Ti  Ti15  1  0.97368600  0.25000000  0.49898200  1
  Ti  Ti16  1  0.65897400  0.75000000  0.28995700  1
  Ti  Ti17  1  0.84102600  0.75000000  0.78995700  1
  Ti  Ti18  1  0.34102600  0.25000000  0.71004300  1
  Ti  Ti19  1  0.15897400  0.25000000  0.21004300  1
  As  As20  1  0.41396500  0.75000000  0.47918200  1
  As  As21  1  0.08603500  0.75000000  0.97918200  1
  As  As22  1  0.58603500  0.25000000  0.52081800  1
  As  As23  1  0.91396500  0.25000000  0.02081800  1
  As  As24  1  0.93009400  0.50847300  0.32537400  1
  As  As25  1  0.56990600  0.99152700  0.82537400  1
  As  As26  1  0.06990600  0.00847300  0.67462600  1
  As  As27  1  0.43009400  0.49152700  0.17462600  1
  As  As28  1  0.06990600  0.49152700  0.67462600  1
  As  As29  1  0.43009400  0.00847300  0.17462600  1
  As  As30  1  0.93009400  0.99152700  0.32537400  1
  As  As31  1  0.56990600  0.50847300  0.82537400  1
