# generated using pymatgen
data_PPb2IO4
_symmetry_space_group_name_H-M   'P 1'
_cell_length_a   8.86293200
_cell_length_b   8.71352600
_cell_length_c   9.23059560
_cell_angle_alpha   68.31943114
_cell_angle_beta   90.00000000
_cell_angle_gamma   90.00000000
_symmetry_Int_Tables_number   1
_chemical_formula_structural   PPb2IO4
_chemical_formula_sum   'P4 Pb8 I4 O16'
_cell_volume   662.42595581
_cell_formula_units_Z   4
loop_
 _symmetry_equiv_pos_site_id
 _symmetry_equiv_pos_as_xyz
  1  'x, y, z'
loop_
 _atom_site_type_symbol
 _atom_site_label
 _atom_site_symmetry_multiplicity
 _atom_site_fract_x
 _atom_site_fract_y
 _atom_site_fract_z
 _atom_site_occupancy
  P  P0  1  0.05099000  0.73265800  0.95843600  1
  P  P1  1  0.55099000  0.76734200  0.04156400  1
  P  P2  1  0.94901000  0.26734200  0.04156400  1
  P  P3  1  0.44901000  0.23265800  0.95843600  1
  Pb  Pb4  1  0.30037800  0.45415300  0.15495900  1
  Pb  Pb5  1  0.80037800  0.04584700  0.84504100  1
  Pb  Pb6  1  0.69962200  0.54584700  0.84504100  1
  Pb  Pb7  1  0.19962200  0.95415300  0.15495900  1
  Pb  Pb8  1  0.32570200  0.97007600  0.73364900  1
  Pb  Pb9  1  0.82570200  0.52992400  0.26635100  1
  Pb  Pb10  1  0.67429800  0.02992400  0.26635100  1
  Pb  Pb11  1  0.17429800  0.47007600  0.73364900  1
  I  I12  1  0.93364600  0.75342200  0.49882200  1
  I  I13  1  0.43364600  0.74657800  0.50117800  1
  I  I14  1  0.06635400  0.24657800  0.50117800  1
  I  I15  1  0.56635400  0.25342200  0.49882200  1
  O  O16  1  0.07030700  0.64307600  0.13926700  1
  O  O17  1  0.57030700  0.85692400  0.86073300  1
  O  O18  1  0.92969300  0.35692400  0.86073300  1
  O  O19  1  0.42969300  0.14307600  0.13926700  1
  O  O20  1  0.11559300  0.27626500  0.08700600  1
  O  O21  1  0.61559300  0.22373500  0.91299400  1
  O  O22  1  0.88440700  0.72373500  0.91299400  1
  O  O23  1  0.38440700  0.77626500  0.08700600  1
  O  O24  1  0.66613900  0.84525400  0.12184800  1
  O  O25  1  0.16613900  0.65474600  0.87815200  1
  O  O26  1  0.33386100  0.15474600  0.87815200  1
  O  O27  1  0.83386100  0.34525400  0.12184800  1
  O  O28  1  0.40752200  0.41947800  0.91359400  1
  O  O29  1  0.90752200  0.08052200  0.08640600  1
  O  O30  1  0.59247800  0.58052200  0.08640600  1
  O  O31  1  0.09247800  0.91947800  0.91359400  1
