# generated using pymatgen
data_Al13Ru4
_symmetry_space_group_name_H-M   'P 1'
_cell_length_a   8.97068582
_cell_length_b   8.97068582
_cell_length_c   12.79902233
_cell_angle_alpha   74.26307805
_cell_angle_beta   74.26307805
_cell_angle_gamma   54.52414017
_symmetry_Int_Tables_number   1
_chemical_formula_structural   Al13Ru4
_chemical_formula_sum   'Al39 Ru12'
_cell_volume   798.77748537
_cell_formula_units_Z   3
loop_
 _symmetry_equiv_pos_site_id
 _symmetry_equiv_pos_as_xyz
  1  'x, y, z'
loop_
 _atom_site_type_symbol
 _atom_site_label
 _atom_site_symmetry_multiplicity
 _atom_site_fract_x
 _atom_site_fract_y
 _atom_site_fract_z
 _atom_site_occupancy
  Al  Al0  1  0.50000000  0.50000000  0.50000000  1
  Al  Al1  1  0.74949000  0.25051000  0.00000000  1
  Al  Al2  1  0.25051000  0.74949000  0.00000000  1
  Al  Al3  1  0.93241300  0.93241300  0.17455800  1
  Al  Al4  1  0.06758700  0.06758700  0.82544200  1
  Al  Al5  1  0.67757600  0.67757600  0.28311600  1
  Al  Al6  1  0.32242400  0.32242400  0.71688400  1
  Al  Al7  1  0.76413700  0.76413700  0.53910200  1
  Al  Al8  1  0.23586300  0.23586300  0.46089800  1
  Al  Al9  1  0.92787200  0.92787200  0.58021200  1
  Al  Al10  1  0.07212800  0.07212800  0.41978800  1
  Al  Al11  1  0.76055800  0.76055800  0.95692600  1
  Al  Al12  1  0.23944200  0.23944200  0.04307400  1
  Al  Al13  1  0.51863100  0.51863100  0.82955600  1
  Al  Al14  1  0.48136900  0.48136900  0.17044400  1
  Al  Al15  1  0.69006300  0.69006300  0.77368200  1
  Al  Al16  1  0.30993700  0.30993700  0.22631800  1
  Al  Al17  1  0.91768200  0.91768200  0.78576000  1
  Al  Al18  1  0.08231800  0.08231800  0.21424000  1
  Al  Al19  1  0.59380500  0.03443900  0.10984900  1
  Al  Al20  1  0.96556100  0.40619500  0.89015100  1
  Al  Al21  1  0.40619500  0.96556100  0.89015100  1
  Al  Al22  1  0.03443900  0.59380500  0.10984900  1
  Al  Al23  1  0.41680700  0.84914500  0.10895000  1
  Al  Al24  1  0.15085500  0.58319300  0.89105000  1
  Al  Al25  1  0.58319300  0.15085500  0.89105000  1
  Al  Al26  1  0.84914500  0.41680700  0.10895000  1
  Al  Al27  1  0.59932700  0.04286700  0.33532600  1
  Al  Al28  1  0.95713300  0.40067300  0.66467400  1
  Al  Al29  1  0.40067300  0.95713300  0.66467400  1
  Al  Al30  1  0.04286700  0.59932700  0.33532600  1
  Al  Al31  1  0.27663000  0.74205300  0.32952400  1
  Al  Al32  1  0.25794700  0.72337000  0.67047600  1
  Al  Al33  1  0.72337000  0.25794700  0.67047600  1
  Al  Al34  1  0.74205300  0.27663000  0.32952400  1
  Al  Al35  1  0.41322800  0.85883700  0.48046100  1
  Al  Al36  1  0.14116300  0.58677200  0.51953900  1
  Al  Al37  1  0.58677200  0.14116300  0.51953900  1
  Al  Al38  1  0.85883700  0.41322800  0.48046100  1
  Ru  Ru39  1  0.91470300  0.91470300  0.38298400  1
  Ru  Ru40  1  0.08529700  0.08529700  0.61701600  1
  Ru  Ru41  1  0.59862700  0.59862700  0.62446100  1
  Ru  Ru42  1  0.40137300  0.40137300  0.37553900  1
  Ru  Ru43  1  0.90810100  0.90810100  0.98755000  1
  Ru  Ru44  1  0.09189900  0.09189900  0.01245000  1
  Ru  Ru45  1  0.59951300  0.59951300  0.98468900  1
  Ru  Ru46  1  0.40048700  0.40048700  0.01531100  1
  Ru  Ru47  1  0.38443400  0.97694300  0.27841400  1
  Ru  Ru48  1  0.02305700  0.61556600  0.72158600  1
  Ru  Ru49  1  0.61556600  0.02305700  0.72158600  1
  Ru  Ru50  1  0.97694300  0.38443400  0.27841400  1
