# generated using pymatgen
data_K2VAgSe4
_symmetry_space_group_name_H-M   'P 1'
_cell_length_a   13.61488819
_cell_length_b   12.16199942
_cell_length_c   7.45776735
_cell_angle_alpha   84.25223614
_cell_angle_beta   62.72230309
_cell_angle_gamma   33.02546078
_symmetry_Int_Tables_number   1
_chemical_formula_structural   K2VAgSe4
_chemical_formula_sum   'K4 V2 Ag2 Se8'
_cell_volume   484.49727489
_cell_formula_units_Z   2
loop_
 _symmetry_equiv_pos_site_id
 _symmetry_equiv_pos_as_xyz
  1  'x, y, z'
loop_
 _atom_site_type_symbol
 _atom_site_label
 _atom_site_symmetry_multiplicity
 _atom_site_fract_x
 _atom_site_fract_y
 _atom_site_fract_z
 _atom_site_occupancy
  K  K0  1  0.68202100  0.68202100  0.31797900  1
  K  K1  1  0.31797900  0.31797900  0.68202100  1
  K  K2  1  0.56797900  0.56797900  0.93202100  1
  K  K3  1  0.93202100  0.93202100  0.56797900  1
  V  V4  1  0.50000000  0.50000000  0.50000000  1
  V  V5  1  0.75000000  0.75000000  0.75000000  1
  Ag  Ag6  1  0.00000000  0.00000000  0.00000000  1
  Ag  Ag7  1  0.25000000  0.25000000  0.25000000  1
  Se  Se8  1  0.38200200  0.00125800  0.91337700  1
  Se  Se9  1  0.24874200  0.86799800  0.54663700  1
  Se  Se10  1  0.00125800  0.38200200  0.70336300  1
  Se  Se11  1  0.70336300  0.91337700  0.00125800  1
  Se  Se12  1  0.91337700  0.70336300  0.38200200  1
  Se  Se13  1  0.54663700  0.33662300  0.24874200  1
  Se  Se14  1  0.86799800  0.24874200  0.33662300  1
  Se  Se15  1  0.33662300  0.54663700  0.86799800  1
