# generated using pymatgen
data_Nd5Ge4
_symmetry_space_group_name_H-M   'P 1'
_cell_length_a   7.95292700
_cell_length_b   8.04297000
_cell_length_c   15.23772500
_cell_angle_alpha   90.00000000
_cell_angle_beta   90.00000000
_cell_angle_gamma   90.00000000
_symmetry_Int_Tables_number   1
_chemical_formula_structural   Nd5Ge4
_chemical_formula_sum   'Nd20 Ge16'
_cell_volume   974.68341516
_cell_formula_units_Z   4
loop_
 _symmetry_equiv_pos_site_id
 _symmetry_equiv_pos_as_xyz
  1  'x, y, z'
loop_
 _atom_site_type_symbol
 _atom_site_label
 _atom_site_symmetry_multiplicity
 _atom_site_fract_x
 _atom_site_fract_y
 _atom_site_fract_z
 _atom_site_occupancy
  Nd  Nd0  1  0.37968800  0.16006300  0.11467700  1
  Nd  Nd1  1  0.87968800  0.33993700  0.38532300  1
  Nd  Nd2  1  0.12031200  0.66006300  0.88532300  1
  Nd  Nd3  1  0.62031200  0.83993700  0.61467700  1
  Nd  Nd4  1  0.37968800  0.16006300  0.38532300  1
  Nd  Nd5  1  0.87968800  0.33993700  0.11467700  1
  Nd  Nd6  1  0.12031200  0.66006300  0.61467700  1
  Nd  Nd7  1  0.62031200  0.83993700  0.88532300  1
  Nd  Nd8  1  0.02462200  0.82135400  0.39737100  1
  Nd  Nd9  1  0.52462200  0.67864600  0.10262900  1
  Nd  Nd10  1  0.47537800  0.32135400  0.60262900  1
  Nd  Nd11  1  0.97537800  0.17864600  0.89737100  1
  Nd  Nd12  1  0.97537800  0.17864600  0.60262900  1
  Nd  Nd13  1  0.47537800  0.32135400  0.89737100  1
  Nd  Nd14  1  0.52462200  0.67864600  0.39737100  1
  Nd  Nd15  1  0.02462200  0.82135400  0.10262900  1
  Nd  Nd16  1  0.28552000  0.99708600  0.75000000  1
  Nd  Nd17  1  0.78552000  0.50291400  0.75000000  1
  Nd  Nd18  1  0.21448000  0.49708600  0.25000000  1
  Nd  Nd19  1  0.71448000  0.00291400  0.25000000  1
  Ge  Ge20  1  0.77808400  0.53220400  0.54490200  1
  Ge  Ge21  1  0.27808400  0.96779600  0.95509800  1
  Ge  Ge22  1  0.72191600  0.03220400  0.45509800  1
  Ge  Ge23  1  0.22191600  0.46779600  0.04490200  1
  Ge  Ge24  1  0.22191600  0.46779600  0.45509800  1
  Ge  Ge25  1  0.72191600  0.03220400  0.04490200  1
  Ge  Ge26  1  0.27808400  0.96779600  0.54490200  1
  Ge  Ge27  1  0.77808400  0.53220400  0.95509800  1
  Ge  Ge28  1  0.91169400  0.88993500  0.75000000  1
  Ge  Ge29  1  0.41169400  0.61006500  0.75000000  1
  Ge  Ge30  1  0.58830600  0.38993500  0.25000000  1
  Ge  Ge31  1  0.08830600  0.11006500  0.25000000  1
  Ge  Ge32  1  0.17438100  0.36684700  0.75000000  1
  Ge  Ge33  1  0.67438100  0.13315300  0.75000000  1
  Ge  Ge34  1  0.32561900  0.86684700  0.25000000  1
  Ge  Ge35  1  0.82561900  0.63315300  0.25000000  1
