# generated using pymatgen
data_BaMn6O12
_symmetry_space_group_name_H-M   'P 1'
_cell_length_a   8.33504085
_cell_length_b   8.33504085
_cell_length_c   9.83326668
_cell_angle_alpha   54.39878885
_cell_angle_beta   54.39878885
_cell_angle_gamma   64.77225224
_symmetry_Int_Tables_number   1
_chemical_formula_structural   BaMn6O12
_chemical_formula_sum   'Ba2 Mn12 O24'
_cell_volume   447.67861953
_cell_formula_units_Z   2
loop_
 _symmetry_equiv_pos_site_id
 _symmetry_equiv_pos_as_xyz
  1  'x, y, z'
loop_
 _atom_site_type_symbol
 _atom_site_label
 _atom_site_symmetry_multiplicity
 _atom_site_fract_x
 _atom_site_fract_y
 _atom_site_fract_z
 _atom_site_occupancy
  Ba  Ba0  1  0.71780300  0.28219700  0.00000000  1
  Ba  Ba1  1  0.28219700  0.71780300  0.00000000  1
  Mn  Mn2  1  0.33537600  0.33537600  0.81850400  1
  Mn  Mn3  1  0.00163800  0.66996200  0.81820300  1
  Mn  Mn4  1  0.66996200  0.00163800  0.81820300  1
  Mn  Mn5  1  0.99836200  0.33003800  0.18179700  1
  Mn  Mn6  1  0.66462400  0.66462400  0.18149600  1
  Mn  Mn7  1  0.33003800  0.99836200  0.18179700  1
  Mn  Mn8  1  0.14762200  0.14762200  0.51921200  1
  Mn  Mn9  1  0.48210400  0.81438600  0.51786200  1
  Mn  Mn10  1  0.81438600  0.48210400  0.51786200  1
  Mn  Mn11  1  0.85237800  0.85237800  0.48078800  1
  Mn  Mn12  1  0.18561400  0.51789600  0.48213800  1
  Mn  Mn13  1  0.51789600  0.18561400  0.48213800  1
  O  O14  1  0.34253300  0.34253300  0.61578000  1
  O  O15  1  0.00598300  0.67252600  0.61913400  1
  O  O16  1  0.67252600  0.00598300  0.61913400  1
  O  O17  1  0.99401700  0.32747400  0.38086600  1
  O  O18  1  0.65746700  0.65746700  0.38422000  1
  O  O19  1  0.32747400  0.99401700  0.38086600  1
  O  O20  1  0.34648900  0.34648900  0.35133900  1
  O  O21  1  0.01289000  0.67694100  0.35578300  1
  O  O22  1  0.67694100  0.01289000  0.35578300  1
  O  O23  1  0.98711000  0.32305900  0.64421700  1
  O  O24  1  0.65351100  0.65351100  0.64866100  1
  O  O25  1  0.32305900  0.98711000  0.64421700  1
  O  O26  1  0.62514300  0.28979600  0.71983600  1
  O  O27  1  0.28979600  0.62514300  0.71983600  1
  O  O28  1  0.95605500  0.95605500  0.71791600  1
  O  O29  1  0.71020400  0.37485700  0.28016400  1
  O  O30  1  0.37485700  0.71020400  0.28016400  1
  O  O31  1  0.04394500  0.04394500  0.28208400  1
  O  O32  1  0.96303600  0.62732800  0.05434500  1
  O  O33  1  0.62732800  0.96303600  0.05434500  1
  O  O34  1  0.29946400  0.29946400  0.05056200  1
  O  O35  1  0.37267200  0.03696400  0.94565500  1
  O  O36  1  0.03696400  0.37267200  0.94565500  1
  O  O37  1  0.70053600  0.70053600  0.94943800  1
