# generated using pymatgen
data_K3NaNp4H4(S2O13)2
_symmetry_space_group_name_H-M   'P 1'
_cell_length_a   5.79572400
_cell_length_b   9.60274013
_cell_length_c   23.17481666
_cell_angle_alpha   80.33520035
_cell_angle_beta   82.81672763
_cell_angle_gamma   72.43578570
_symmetry_Int_Tables_number   1
_chemical_formula_structural   K3NaNp4H4(S2O13)2
_chemical_formula_sum   'K6 Na2 Np8 H8 S8 O52'
_cell_volume   1208.40464087
_cell_formula_units_Z   2
loop_
 _symmetry_equiv_pos_site_id
 _symmetry_equiv_pos_as_xyz
  1  'x, y, z'
loop_
 _atom_site_type_symbol
 _atom_site_label
 _atom_site_symmetry_multiplicity
 _atom_site_fract_x
 _atom_site_fract_y
 _atom_site_fract_z
 _atom_site_occupancy
  K  K0  1  0.50000000  0.50000000  0.50000000  1
  K  K1  1  0.50000000  0.00000000  0.00000000  1
  K  K2  1  0.28987500  0.92239500  0.41032200  1
  K  K3  1  0.62259200  0.57760500  0.08967800  1
  K  K4  1  0.71012500  0.07760500  0.58967800  1
  K  K5  1  0.37740800  0.42239500  0.91032200  1
  Na  Na6  1  0.33478200  0.75000000  0.25000000  1
  Na  Na7  1  0.66521800  0.25000000  0.75000000  1
  Np  Np8  1  0.00791500  0.56468900  0.36480400  1
  Np  Np9  1  0.93740800  0.93531100  0.13519600  1
  Np  Np10  1  0.99208500  0.43531100  0.63519600  1
  Np  Np11  1  0.06259200  0.06468900  0.86480400  1
  Np  Np12  1  0.68412500  0.29499600  0.30991800  1
  Np  Np13  1  0.28903900  0.20500400  0.19008200  1
  Np  Np14  1  0.31587500  0.70500400  0.69008200  1
  Np  Np15  1  0.71096100  0.79499600  0.80991800  1
  H  H16  1  0.65672600  0.12425700  0.43488300  1
  H  H17  1  0.21586600  0.37574300  0.06511700  1
  H  H18  1  0.34327400  0.87574300  0.56511700  1
  H  H19  1  0.78413400  0.62425700  0.93488300  1
  H  H20  1  0.85435000  0.20045400  0.43853400  1
  H  H21  1  0.49333800  0.29954600  0.06146600  1
  H  H22  1  0.14565000  0.79954600  0.56146600  1
  H  H23  1  0.50666200  0.70045400  0.93853400  1
  S  S24  1  0.83822600  0.72374600  0.50416700  1
  S  S25  1  0.06613900  0.77625400  0.99583300  1
  S  S26  1  0.16177400  0.27625400  0.49583300  1
  S  S27  1  0.93386100  0.22374600  0.00416700  1
  S  S28  1  0.89051900  0.57073000  0.21434100  1
  S  S29  1  0.67559000  0.92927000  0.28565900  1
  S  S30  1  0.10948100  0.42927000  0.78565900  1
  S  S31  1  0.32441000  0.07073000  0.71434100  1
  O  O32  1  0.05914900  0.57959800  0.25603300  1
  O  O33  1  0.89478000  0.92040200  0.24396700  1
  O  O34  1  0.94085100  0.42040200  0.74396700  1
  O  O35  1  0.10522000  0.07959800  0.75603300  1
  O  O36  1  0.16875300  0.41269100  0.45368600  1
  O  O37  1  0.03513000  0.08730900  0.04631400  1
  O  O38  1  0.83124700  0.58730900  0.54631400  1
  O  O39  1  0.96487000  0.91269100  0.95368600  1
  O  O40  1  0.68537600  0.78412900  0.32138500  1
  O  O41  1  0.79089100  0.71587100  0.17861500  1
  O  O42  1  0.31462400  0.21587100  0.67861500  1
  O  O43  1  0.20910900  0.28412900  0.82138500  1
  O  O44  1  0.65111200  0.03944800  0.32554300  1
  O  O45  1  0.01610300  0.46055200  0.17445700  1
  O  O46  1  0.34888800  0.96055200  0.67445700  1
  O  O47  1  0.98389700  0.53944800  0.82554300  1
  O  O48  1  0.80177000  0.14533200  0.41251100  1
  O  O49  1  0.35961300  0.35466800  0.08748900  1
  O  O50  1  0.19823000  0.85466800  0.58748900  1
  O  O51  1  0.64038700  0.64533200  0.91251100  1
  O  O52  1  0.36364900  0.36754600  0.33922800  1
  O  O53  1  0.07042200  0.13245400  0.16077200  1
  O  O54  1  0.63635100  0.63245400  0.66077200  1
  O  O55  1  0.92957800  0.86754600  0.83922800  1
  O  O56  1  0.20915300  0.68309700  0.35720100  1
  O  O57  1  0.24945100  0.81690300  0.14279900  1
  O  O58  1  0.79084700  0.31690300  0.64279900  1
  O  O59  1  0.75054900  0.18309700  0.85720100  1
  O  O60  1  0.76607200  0.70187000  0.44675600  1
  O  O61  1  0.91469700  0.79813000  0.05324400  1
  O  O62  1  0.23392800  0.29813000  0.55324400  1
  O  O63  1  0.08530300  0.20187000  0.94675600  1
  O  O64  1  0.79713000  0.44665300  0.37001300  1
  O  O65  1  0.61379600  0.05334700  0.12998700  1
  O  O66  1  0.20287000  0.55334700  0.62998700  1
  O  O67  1  0.38620400  0.94665300  0.87001300  1
  O  O68  1  0.00637900  0.22769900  0.27896200  1
  O  O69  1  0.51304000  0.27230100  0.22103800  1
  O  O70  1  0.99362100  0.77230100  0.72103800  1
  O  O71  1  0.48696000  0.72769900  0.77896200  1
  O  O72  1  0.67607300  0.52848100  0.24758600  1
  O  O73  1  0.45214000  0.97151900  0.25241400  1
  O  O74  1  0.32392700  0.47151900  0.75241400  1
  O  O75  1  0.54786000  0.02848100  0.74758600  1
  O  O76  1  0.08764200  0.73969400  0.49677300  1
  O  O77  1  0.32410900  0.76030600  0.00322700  1
  O  O78  1  0.91235800  0.26030600  0.50322700  1
  O  O79  1  0.67589100  0.23969400  0.99677300  1
  O  O80  1  0.66247700  0.85524700  0.52518300  1
  O  O81  1  0.04290700  0.64475300  0.97481700  1
  O  O82  1  0.33752300  0.14475300  0.47481700  1
  O  O83  1  0.95709300  0.35524700  0.02518300  1
