# generated using pymatgen
data_Na2VF5
_symmetry_space_group_name_H-M   'P 1'
_cell_length_a   5.39546700
_cell_length_b   7.56961800
_cell_length_c   11.10104651
_cell_angle_alpha   72.27176662
_cell_angle_beta   90.00000000
_cell_angle_gamma   90.00000000
_symmetry_Int_Tables_number   1
_chemical_formula_structural   Na2VF5
_chemical_formula_sum   'Na8 V4 F20'
_cell_volume   431.85422826
_cell_formula_units_Z   4
loop_
 _symmetry_equiv_pos_site_id
 _symmetry_equiv_pos_as_xyz
  1  'x, y, z'
loop_
 _atom_site_type_symbol
 _atom_site_label
 _atom_site_symmetry_multiplicity
 _atom_site_fract_x
 _atom_site_fract_y
 _atom_site_fract_z
 _atom_site_occupancy
  Na  Na0  1  0.94043400  0.34674700  0.31720600  1
  Na  Na1  1  0.44043400  0.65325300  0.18279400  1
  Na  Na2  1  0.05956600  0.65325300  0.68279400  1
  Na  Na3  1  0.55956600  0.34674700  0.81720600  1
  Na  Na4  1  0.49103100  0.14775400  0.13285400  1
  Na  Na5  1  0.99103100  0.85224600  0.36714600  1
  Na  Na6  1  0.50896900  0.85224600  0.86714600  1
  Na  Na7  1  0.00896900  0.14775400  0.63285400  1
  V  V8  1  0.50000000  0.50000000  0.50000000  1
  V  V9  1  0.00000000  0.50000000  0.00000000  1
  V  V10  1  0.50000000  0.00000000  0.50000000  1
  V  V11  1  0.00000000  0.00000000  0.00000000  1
  F  F12  1  0.74962000  0.48953700  0.62843700  1
  F  F13  1  0.24962000  0.51046300  0.87156300  1
  F  F14  1  0.25038000  0.51046300  0.37156300  1
  F  F15  1  0.75038000  0.48953700  0.12843700  1
  F  F16  1  0.72355100  0.62122400  0.36235900  1
  F  F17  1  0.22355100  0.37877600  0.13764100  1
  F  F18  1  0.27644900  0.37877600  0.63764100  1
  F  F19  1  0.77644900  0.62122400  0.86235900  1
  F  F20  1  0.65202500  0.25084500  0.49727700  1
  F  F21  1  0.15202500  0.74915500  0.00272300  1
  F  F22  1  0.34797500  0.74915500  0.50272300  1
  F  F23  1  0.84797500  0.25084500  0.99727700  1
  F  F24  1  0.84822600  0.04941200  0.83206100  1
  F  F25  1  0.34822600  0.95058800  0.66793900  1
  F  F26  1  0.15177400  0.95058800  0.16793900  1
  F  F27  1  0.65177400  0.04941200  0.33206100  1
  F  F28  1  0.68939400  0.89094000  0.07420100  1
  F  F29  1  0.18939400  0.10906000  0.42579900  1
  F  F30  1  0.31060600  0.10906000  0.92579900  1
  F  F31  1  0.81060600  0.89094000  0.57420100  1
