# generated using pymatgen
data_Be2Mo
_symmetry_space_group_name_H-M   'P 1'
_cell_length_a   4.45066616
_cell_length_b   4.45066616
_cell_length_c   7.30156700
_cell_angle_alpha   90.00000000
_cell_angle_beta   90.00000000
_cell_angle_gamma   120.00000232
_symmetry_Int_Tables_number   1
_chemical_formula_structural   Be2Mo
_chemical_formula_sum   'Be8 Mo4'
_cell_volume   125.25547969
_cell_formula_units_Z   4
loop_
 _symmetry_equiv_pos_site_id
 _symmetry_equiv_pos_as_xyz
  1  'x, y, z'
loop_
 _atom_site_type_symbol
 _atom_site_label
 _atom_site_symmetry_multiplicity
 _atom_site_fract_x
 _atom_site_fract_y
 _atom_site_fract_z
 _atom_site_occupancy
  Be  Be0  1  0.00000000  0.00000000  0.50000000  1
  Be  Be1  1  0.00000000  0.00000000  0.00000000  1
  Be  Be2  1  0.83063300  0.16936700  0.25000000  1
  Be  Be3  1  0.83063300  0.66126500  0.25000000  1
  Be  Be4  1  0.33873500  0.16936700  0.25000000  1
  Be  Be5  1  0.16936700  0.83063300  0.75000000  1
  Be  Be6  1  0.16936700  0.33873500  0.75000000  1
  Be  Be7  1  0.66126500  0.83063300  0.75000000  1
  Mo  Mo8  1  0.33333300  0.66666700  0.43664200  1
  Mo  Mo9  1  0.66666700  0.33333300  0.56335800  1
  Mo  Mo10  1  0.66666700  0.33333300  0.93664200  1
  Mo  Mo11  1  0.33333300  0.66666700  0.06335800  1
