# generated using pymatgen
data_CeRhPb
_symmetry_space_group_name_H-M   'P 1'
_cell_length_a   7.67946098
_cell_length_b   7.67946098
_cell_length_c   4.06094500
_cell_angle_alpha   90.00000000
_cell_angle_beta   90.00000000
_cell_angle_gamma   119.99999120
_symmetry_Int_Tables_number   1
_chemical_formula_structural   CeRhPb
_chemical_formula_sum   'Ce3 Rh3 Pb3'
_cell_volume   207.40501521
_cell_formula_units_Z   3
loop_
 _symmetry_equiv_pos_site_id
 _symmetry_equiv_pos_as_xyz
  1  'x, y, z'
loop_
 _atom_site_type_symbol
 _atom_site_label
 _atom_site_symmetry_multiplicity
 _atom_site_fract_x
 _atom_site_fract_y
 _atom_site_fract_z
 _atom_site_occupancy
  Ce  Ce0  1  0.41024600  0.41024600  0.50000000  1
  Ce  Ce1  1  0.58975400  0.00000000  0.50000000  1
  Ce  Ce2  1  0.00000000  0.58975400  0.50000000  1
  Rh  Rh3  1  0.00000000  0.00000000  0.50000000  1
  Rh  Rh4  1  0.66666700  0.33333300  0.00000000  1
  Rh  Rh5  1  0.33333300  0.66666700  0.00000000  1
  Pb  Pb6  1  0.74224600  0.74224600  0.00000000  1
  Pb  Pb7  1  0.25775400  0.00000000  0.00000000  1
  Pb  Pb8  1  0.00000000  0.25775400  0.00000000  1
