# generated using pymatgen
data_InSe
_symmetry_space_group_name_H-M   'P 1'
_cell_length_a   4.09647352
_cell_length_b   4.09647352
_cell_length_c   18.34344800
_cell_angle_alpha   90.00000000
_cell_angle_beta   90.00000000
_cell_angle_gamma   119.99999231
_symmetry_Int_Tables_number   1
_chemical_formula_structural   InSe
_chemical_formula_sum   'In4 Se4'
_cell_volume   266.58268807
_cell_formula_units_Z   4
loop_
 _symmetry_equiv_pos_site_id
 _symmetry_equiv_pos_as_xyz
  1  'x, y, z'
loop_
 _atom_site_type_symbol
 _atom_site_label
 _atom_site_symmetry_multiplicity
 _atom_site_fract_x
 _atom_site_fract_y
 _atom_site_fract_z
 _atom_site_occupancy
  In  In0  1  0.33333300  0.66666700  0.57725000  1
  In  In1  1  0.33333300  0.66666700  0.42275000  1
  In  In2  1  0.66666700  0.33333300  0.92286900  1
  In  In3  1  0.66666700  0.33333300  0.07713100  1
  Se  Se4  1  0.00000000  0.00000000  0.85370400  1
  Se  Se5  1  0.00000000  0.00000000  0.14629600  1
  Se  Se6  1  0.66666700  0.33333300  0.64634900  1
  Se  Se7  1  0.66666700  0.33333300  0.35365100  1
