# generated using pymatgen
data_Rb2V(PO4)2
_symmetry_space_group_name_H-M   'P 1'
_cell_length_a   7.18334300
_cell_length_b   9.22483300
_cell_length_c   13.26826700
_cell_angle_alpha   90.00000000
_cell_angle_beta   90.00000000
_cell_angle_gamma   90.00000000
_symmetry_Int_Tables_number   1
_chemical_formula_structural   Rb2V(PO4)2
_chemical_formula_sum   'Rb8 V4 P8 O32'
_cell_volume   879.22356443
_cell_formula_units_Z   4
loop_
 _symmetry_equiv_pos_site_id
 _symmetry_equiv_pos_as_xyz
  1  'x, y, z'
loop_
 _atom_site_type_symbol
 _atom_site_label
 _atom_site_symmetry_multiplicity
 _atom_site_fract_x
 _atom_site_fract_y
 _atom_site_fract_z
 _atom_site_occupancy
  Rb  Rb0  1  0.76708600  0.38931700  0.58943200  1
  Rb  Rb1  1  0.26708600  0.11068300  0.41056800  1
  Rb  Rb2  1  0.23291400  0.88931700  0.91056800  1
  Rb  Rb3  1  0.73291400  0.61068300  0.08943200  1
  Rb  Rb4  1  0.72884200  0.16995500  0.91112900  1
  Rb  Rb5  1  0.22884200  0.33004500  0.08887100  1
  Rb  Rb6  1  0.27115800  0.66995500  0.58887100  1
  Rb  Rb7  1  0.77115800  0.83004500  0.41112900  1
  V  V8  1  0.74500400  0.24549800  0.30550100  1
  V  V9  1  0.24500400  0.25450200  0.69449900  1
  V  V10  1  0.25499600  0.74549800  0.19449900  1
  V  V11  1  0.75499600  0.75450200  0.80550100  1
  P  P12  1  0.58499500  0.00717200  0.66492300  1
  P  P13  1  0.08499500  0.49282800  0.33507700  1
  P  P14  1  0.41500500  0.50717200  0.83507700  1
  P  P15  1  0.91500500  0.99282800  0.16492300  1
  P  P16  1  0.48937400  0.52852600  0.34671200  1
  P  P17  1  0.98937400  0.97147400  0.65328800  1
  P  P18  1  0.51062600  0.02852600  0.15328800  1
  P  P19  1  0.01062600  0.47147400  0.84671200  1
  O  O20  1  0.52772700  0.92175000  0.57377100  1
  O  O21  1  0.02772700  0.57825000  0.42622900  1
  O  O22  1  0.47227300  0.42175000  0.92622900  1
  O  O23  1  0.97227300  0.07825000  0.07377100  1
  O  O24  1  0.59032400  0.91970500  0.76499400  1
  O  O25  1  0.09032400  0.58029500  0.23500600  1
  O  O26  1  0.40967600  0.41970500  0.73500600  1
  O  O27  1  0.90967600  0.08029500  0.26499400  1
  O  O28  1  0.29912500  0.43151700  0.34863700  1
  O  O29  1  0.79912500  0.06848300  0.65136300  1
  O  O30  1  0.70087500  0.93151700  0.15136300  1
  O  O31  1  0.20087500  0.56848300  0.84863700  1
  O  O32  1  0.48397900  0.15219000  0.68382200  1
  O  O33  1  0.98397900  0.34781000  0.31617800  1
  O  O34  1  0.51602100  0.65219000  0.81617800  1
  O  O35  1  0.01602100  0.84781000  0.18382200  1
  O  O36  1  0.55740700  0.17150200  0.21042800  1
  O  O37  1  0.05740700  0.32849800  0.78957200  1
  O  O38  1  0.44259300  0.67150200  0.28957200  1
  O  O39  1  0.94259300  0.82849800  0.71042800  1
  O  O40  1  0.87423200  0.56074100  0.78138600  1
  O  O41  1  0.37423200  0.93925900  0.21861400  1
  O  O42  1  0.12576800  0.06074100  0.71861400  1
  O  O43  1  0.62576800  0.43925900  0.28138600  1
  O  O44  1  0.82544800  0.80120200  0.91718800  1
  O  O45  1  0.32544800  0.69879800  0.08281200  1
  O  O46  1  0.17455200  0.30120200  0.58281200  1
  O  O47  1  0.67455200  0.19879800  0.41718800  1
  O  O48  1  0.94937600  0.44198100  0.95301500  1
  O  O49  1  0.44937600  0.05801900  0.04698500  1
  O  O50  1  0.05062400  0.94198100  0.54698500  1
  O  O51  1  0.55062400  0.55801900  0.45301500  1
