# generated using pymatgen
data_Lu4CdPt
_symmetry_space_group_name_H-M   'P 1'
_cell_length_a   9.48041820
_cell_length_b   9.48041820
_cell_length_c   9.48041820
_cell_angle_alpha   60.00000000
_cell_angle_beta   60.00000000
_cell_angle_gamma   60.00000000
_symmetry_Int_Tables_number   1
_chemical_formula_structural   Lu4CdPt
_chemical_formula_sum   'Lu16 Cd4 Pt4'
_cell_volume   602.51448008
_cell_formula_units_Z   4
loop_
 _symmetry_equiv_pos_site_id
 _symmetry_equiv_pos_as_xyz
  1  'x, y, z'
loop_
 _atom_site_type_symbol
 _atom_site_label
 _atom_site_symmetry_multiplicity
 _atom_site_fract_x
 _atom_site_fract_y
 _atom_site_fract_z
 _atom_site_occupancy
  Lu  Lu0  1  0.60172700  0.60172700  0.60172700  1
  Lu  Lu1  1  0.60172700  0.60172700  0.19482000  1
  Lu  Lu2  1  0.60172700  0.19482000  0.60172700  1
  Lu  Lu3  1  0.19482000  0.60172700  0.60172700  1
  Lu  Lu4  1  0.06102500  0.43897500  0.43897500  1
  Lu  Lu5  1  0.43897500  0.06102500  0.06102500  1
  Lu  Lu6  1  0.43897500  0.06102500  0.43897500  1
  Lu  Lu7  1  0.06102500  0.43897500  0.06102500  1
  Lu  Lu8  1  0.43897500  0.43897500  0.06102500  1
  Lu  Lu9  1  0.06102500  0.06102500  0.43897500  1
  Lu  Lu10  1  0.18520100  0.81479900  0.81479900  1
  Lu  Lu11  1  0.81479900  0.18520100  0.18520100  1
  Lu  Lu12  1  0.81479900  0.18520100  0.81479900  1
  Lu  Lu13  1  0.18520100  0.81479900  0.18520100  1
  Lu  Lu14  1  0.81479900  0.81479900  0.18520100  1
  Lu  Lu15  1  0.18520100  0.18520100  0.81479900  1
  Cd  Cd16  1  0.83202800  0.83202800  0.83202800  1
  Cd  Cd17  1  0.83202800  0.83202800  0.50391700  1
  Cd  Cd18  1  0.83202800  0.50391700  0.83202800  1
  Cd  Cd19  1  0.50391700  0.83202800  0.83202800  1
  Pt  Pt20  1  0.39289100  0.39289100  0.39289100  1
  Pt  Pt21  1  0.39289100  0.39289100  0.82132600  1
  Pt  Pt22  1  0.39289100  0.82132600  0.39289100  1
  Pt  Pt23  1  0.82132600  0.39289100  0.39289100  1
