# generated using pymatgen
data_Ta3Ga2
_symmetry_space_group_name_H-M   'P 1'
_cell_length_a   6.90953700
_cell_length_b   6.90953700
_cell_length_c   3.51744500
_cell_angle_alpha   90.00000000
_cell_angle_beta   90.00000000
_cell_angle_gamma   90.00000000
_symmetry_Int_Tables_number   1
_chemical_formula_structural   Ta3Ga2
_chemical_formula_sum   'Ta6 Ga4'
_cell_volume   167.92880942
_cell_formula_units_Z   2
loop_
 _symmetry_equiv_pos_site_id
 _symmetry_equiv_pos_as_xyz
  1  'x, y, z'
loop_
 _atom_site_type_symbol
 _atom_site_label
 _atom_site_symmetry_multiplicity
 _atom_site_fract_x
 _atom_site_fract_y
 _atom_site_fract_z
 _atom_site_occupancy
  Ta  Ta0  1  0.82467300  0.67532700  0.50000000  1
  Ta  Ta1  1  0.32467300  0.82467300  0.50000000  1
  Ta  Ta2  1  0.17532700  0.32467300  0.50000000  1
  Ta  Ta3  1  0.67532700  0.17532700  0.50000000  1
  Ta  Ta4  1  0.50000000  0.50000000  0.00000000  1
  Ta  Ta5  1  0.00000000  0.00000000  0.00000000  1
  Ga  Ga6  1  0.12614800  0.62614800  0.00000000  1
  Ga  Ga7  1  0.62614800  0.87385200  0.00000000  1
  Ga  Ga8  1  0.37385200  0.12614800  0.00000000  1
  Ga  Ga9  1  0.87385200  0.37385200  0.00000000  1
