# generated using pymatgen
data_BiSb3(PO4)6
_symmetry_space_group_name_H-M   'P 1'
_cell_length_a   12.32428727
_cell_length_b   12.32428727
_cell_length_c   12.32428792
_cell_angle_alpha   89.34905708
_cell_angle_beta   89.34905708
_cell_angle_gamma   89.34905536
_symmetry_Int_Tables_number   1
_chemical_formula_structural   BiSb3(PO4)6
_chemical_formula_sum   'Bi4 Sb12 P24 O96'
_cell_volume   1871.55244379
_cell_formula_units_Z   4
loop_
 _symmetry_equiv_pos_site_id
 _symmetry_equiv_pos_as_xyz
  1  'x, y, z'
loop_
 _atom_site_type_symbol
 _atom_site_label
 _atom_site_symmetry_multiplicity
 _atom_site_fract_x
 _atom_site_fract_y
 _atom_site_fract_z
 _atom_site_occupancy
  Bi  Bi0  1  0.50000000  0.00000000  0.50000000  1
  Bi  Bi1  1  0.00000000  0.50000000  0.50000000  1
  Bi  Bi2  1  0.50000000  0.50000000  0.00000000  1
  Bi  Bi3  1  0.00000000  0.00000000  0.00000000  1
  Sb  Sb4  1  0.75184200  0.21266700  0.74662200  1
  Sb  Sb5  1  0.21266700  0.74662200  0.75184200  1
  Sb  Sb6  1  0.74662200  0.75184200  0.21266700  1
  Sb  Sb7  1  0.24815800  0.78733300  0.25337800  1
  Sb  Sb8  1  0.78733300  0.25337800  0.24815800  1
  Sb  Sb9  1  0.25337800  0.24815800  0.78733300  1
  Sb  Sb10  1  0.50000000  0.50000000  0.50000000  1
  Sb  Sb11  1  0.28227800  0.28227800  0.28227800  1
  Sb  Sb12  1  0.71772200  0.71772200  0.71772200  1
  Sb  Sb13  1  0.00000000  0.50000000  0.00000000  1
  Sb  Sb14  1  0.50000000  0.00000000  0.00000000  1
  Sb  Sb15  1  0.00000000  0.00000000  0.50000000  1
  P  P16  1  0.35967600  0.02846000  0.23190600  1
  P  P17  1  0.02846000  0.23190600  0.35967600  1
  P  P18  1  0.23190600  0.35967600  0.02846000  1
  P  P19  1  0.64032400  0.97154000  0.76809400  1
  P  P20  1  0.97154000  0.76809400  0.64032400  1
  P  P21  1  0.76809400  0.64032400  0.97154000  1
  P  P22  1  0.48835000  0.75066000  0.13114100  1
  P  P23  1  0.75066000  0.13114100  0.48835000  1
  P  P24  1  0.13114100  0.48835000  0.75066000  1
  P  P25  1  0.51165000  0.24934000  0.86885900  1
  P  P26  1  0.24934000  0.86885900  0.51165000  1
  P  P27  1  0.86885900  0.51165000  0.24934000  1
  P  P28  1  0.36382700  0.26615600  0.53723100  1
  P  P29  1  0.26615600  0.53723100  0.36382700  1
  P  P30  1  0.53723100  0.36382700  0.26615600  1
  P  P31  1  0.63617300  0.73384400  0.46276900  1
  P  P32  1  0.73384400  0.46276900  0.63617300  1
  P  P33  1  0.46276900  0.63617300  0.73384400  1
  P  P34  1  0.12739700  0.73304200  0.01260700  1
  P  P35  1  0.73304200  0.01260700  0.12739700  1
  P  P36  1  0.01260700  0.12739700  0.73304200  1
  P  P37  1  0.87260300  0.26695800  0.98739300  1
  P  P38  1  0.26695800  0.98739300  0.87260300  1
  P  P39  1  0.98739300  0.87260300  0.26695800  1
  O  O40  1  0.61638700  0.43899400  0.59542200  1
  O  O41  1  0.43899400  0.59542200  0.61638700  1
  O  O42  1  0.59542200  0.61638700  0.43899400  1
  O  O43  1  0.38361300  0.56100600  0.40457800  1
  O  O44  1  0.56100600  0.40457800  0.38361300  1
  O  O45  1  0.40457800  0.38361300  0.56100600  1
  O  O46  1  0.09182000  0.80295000  0.29236100  1
  O  O47  1  0.80295000  0.29236100  0.09182000  1
  O  O48  1  0.29236100  0.09182000  0.80295000  1
  O  O49  1  0.90818000  0.19705000  0.70763900  1
  O  O50  1  0.19705000  0.70763900  0.90818000  1
  O  O51  1  0.70763900  0.90818000  0.19705000  1
  O  O52  1  0.45049000  0.67496000  0.04436300  1
  O  O53  1  0.67496000  0.04436300  0.45049000  1
  O  O54  1  0.04436300  0.45049000  0.67496000  1
  O  O55  1  0.54951000  0.32504000  0.95563700  1
  O  O56  1  0.32504000  0.95563700  0.54951000  1
  O  O57  1  0.95563700  0.54951000  0.32504000  1
  O  O58  1  0.00775400  0.96289400  0.18812100  1
  O  O59  1  0.96289400  0.18812100  0.00775400  1
  O  O60  1  0.18812100  0.00775400  0.96289400  1
  O  O61  1  0.99224600  0.03710600  0.81187900  1
  O  O62  1  0.03710600  0.81187900  0.99224600  1
  O  O63  1  0.81187900  0.99224600  0.03710600  1
  O  O64  1  0.28043300  0.27524900  0.44242000  1
  O  O65  1  0.27524900  0.44242000  0.28043300  1
  O  O66  1  0.44242000  0.28043300  0.27524900  1
  O  O67  1  0.71956700  0.72475100  0.55758000  1
  O  O68  1  0.72475100  0.55758000  0.71956700  1
  O  O69  1  0.55758000  0.71956700  0.72475100  1
  O  O70  1  0.69006200  0.55205500  0.00415700  1
  O  O71  1  0.55205500  0.00415700  0.69006200  1
  O  O72  1  0.00415700  0.69006200  0.55205500  1
  O  O73  1  0.30993800  0.44794500  0.99584300  1
  O  O74  1  0.44794500  0.99584300  0.30993800  1
  O  O75  1  0.99584300  0.30993800  0.44794500  1
  O  O76  1  0.59369400  0.70848200  0.18759600  1
  O  O77  1  0.70848200  0.18759600  0.59369400  1
  O  O78  1  0.18759600  0.59369400  0.70848200  1
  O  O79  1  0.40630600  0.29151800  0.81240400  1
  O  O80  1  0.29151800  0.81240400  0.40630600  1
  O  O81  1  0.81240400  0.40630600  0.29151800  1
  O  O82  1  0.94061000  0.91821400  0.37766700  1
  O  O83  1  0.91821400  0.37766700  0.94061000  1
  O  O84  1  0.37766700  0.94061000  0.91821400  1
  O  O85  1  0.05939000  0.08178600  0.62233300  1
  O  O86  1  0.08178600  0.62233300  0.05939000  1
  O  O87  1  0.62233300  0.05939000  0.08178600  1
  O  O88  1  0.40550200  0.76082600  0.22694300  1
  O  O89  1  0.76082600  0.22694300  0.40550200  1
  O  O90  1  0.22694300  0.40550200  0.76082600  1
  O  O91  1  0.59449800  0.23917400  0.77305700  1
  O  O92  1  0.23917400  0.77305700  0.59449800  1
  O  O93  1  0.77305700  0.59449800  0.23917400  1
  O  O94  1  0.54498700  0.81372300  0.48264700  1
  O  O95  1  0.81372300  0.48264700  0.54498700  1
  O  O96  1  0.48264700  0.54498700  0.81372300  1
  O  O97  1  0.45501300  0.18627700  0.51735300  1
  O  O98  1  0.18627700  0.51735300  0.45501300  1
  O  O99  1  0.51735300  0.45501300  0.18627700  1
  O  O100  1  0.23119300  0.63181700  0.28620500  1
  O  O101  1  0.63181700  0.28620500  0.23119300  1
  O  O102  1  0.28620500  0.23119300  0.63181700  1
  O  O103  1  0.76880700  0.36818300  0.71379500  1
  O  O104  1  0.36818300  0.71379500  0.76880700  1
  O  O105  1  0.71379500  0.76880700  0.36818300  1
  O  O106  1  0.06234900  0.11566800  0.40207700  1
  O  O107  1  0.11566800  0.40207700  0.06234900  1
  O  O108  1  0.40207700  0.06234900  0.11566800  1
  O  O109  1  0.93765100  0.88433200  0.59792300  1
  O  O110  1  0.88433200  0.59792300  0.93765100  1
  O  O111  1  0.59792300  0.93765100  0.88433200  1
  O  O112  1  0.28726600  0.12353800  0.27488200  1
  O  O113  1  0.12353800  0.27488200  0.28726600  1
  O  O114  1  0.27488200  0.28726600  0.12353800  1
  O  O115  1  0.71273400  0.87646200  0.72511800  1
  O  O116  1  0.87646200  0.72511800  0.71273400  1
  O  O117  1  0.72511800  0.71273400  0.87646200  1
  O  O118  1  0.73079400  0.05892300  0.78581300  1
  O  O119  1  0.05892300  0.78581300  0.73079400  1
  O  O120  1  0.78581300  0.73079400  0.05892300  1
  O  O121  1  0.26920600  0.94107700  0.21418700  1
  O  O122  1  0.94107700  0.21418700  0.26920600  1
  O  O123  1  0.21418700  0.26920600  0.94107700  1
  O  O124  1  0.13564600  0.91647600  0.48528300  1
  O  O125  1  0.91647600  0.48528300  0.13564600  1
  O  O126  1  0.48528300  0.13564600  0.91647600  1
  O  O127  1  0.86435400  0.08352400  0.51471700  1
  O  O128  1  0.08352400  0.51471700  0.86435400  1
  O  O129  1  0.51471700  0.86435400  0.08352400  1
  O  O130  1  0.78590300  0.23322600  0.90305800  1
  O  O131  1  0.23322600  0.90305800  0.78590300  1
  O  O132  1  0.90305800  0.78590300  0.23322600  1
  O  O133  1  0.21409700  0.76677400  0.09694200  1
  O  O134  1  0.76677400  0.09694200  0.21409700  1
  O  O135  1  0.09694200  0.21409700  0.76677400  1
