# generated using pymatgen
data_NaCa2Nb8(BiO4)9
_symmetry_space_group_name_H-M   'P 1'
_cell_length_a   25.29438800
_cell_length_b   5.54585100
_cell_length_c   5.60303997
_cell_angle_alpha   89.54979262
_cell_angle_beta   90.00000000
_cell_angle_gamma   90.00000000
_symmetry_Int_Tables_number   1
_chemical_formula_structural   NaCa2Nb8(BiO4)9
_chemical_formula_sum   'Na1 Ca2 Nb8 Bi9 O36'
_cell_volume   785.96405874
_cell_formula_units_Z   1
loop_
 _symmetry_equiv_pos_site_id
 _symmetry_equiv_pos_as_xyz
  1  'x, y, z'
loop_
 _atom_site_type_symbol
 _atom_site_label
 _atom_site_symmetry_multiplicity
 _atom_site_fract_x
 _atom_site_fract_y
 _atom_site_fract_z
 _atom_site_occupancy
  Na  Na0  1  0.50000000  0.73489600  0.74351400  1
  Ca  Ca1  1  0.00000000  0.24363300  0.73344900  1
  Ca  Ca2  1  0.00000000  0.75450900  0.23519500  1
  Nb  Nb3  1  0.41611500  0.24178300  0.76494900  1
  Nb  Nb4  1  0.91896700  0.74237500  0.76603600  1
  Nb  Nb5  1  0.08103300  0.74237500  0.76603600  1
  Nb  Nb6  1  0.58388500  0.24178300  0.76494900  1
  Nb  Nb7  1  0.08077300  0.25351300  0.26510700  1
  Nb  Nb8  1  0.58315100  0.74311300  0.26937100  1
  Nb  Nb9  1  0.41684900  0.74311300  0.26937100  1
  Nb  Nb10  1  0.91922700  0.25351300  0.26510700  1
  Bi  Bi11  1  0.29928200  0.71758400  0.71241800  1
  Bi  Bi12  1  0.80188400  0.21567800  0.70876300  1
  Bi  Bi13  1  0.19811600  0.21567800  0.70876300  1
  Bi  Bi14  1  0.70071800  0.71758400  0.71241800  1
  Bi  Bi15  1  0.19866000  0.78334600  0.21195800  1
  Bi  Bi16  1  0.70021500  0.28502300  0.20915800  1
  Bi  Bi17  1  0.29978500  0.28502300  0.20915800  1
  Bi  Bi18  1  0.80134000  0.78334600  0.21195800  1
  Bi  Bi19  1  0.50000000  0.22713400  0.22207300  1
  O  O20  1  0.50000000  0.17929000  0.82124800  1
  O  O21  1  0.00000000  0.66509900  0.82265000  1
  O  O22  1  0.00000000  0.33642900  0.32252300  1
  O  O23  1  0.50000000  0.83279800  0.32194700  1
  O  O24  1  0.41535900  0.05741700  0.09883200  1
  O  O25  1  0.91315300  0.55556200  0.09815600  1
  O  O26  1  0.08684700  0.55556200  0.09815600  1
  O  O27  1  0.58464100  0.05741700  0.09883200  1
  O  O28  1  0.08706700  0.44645400  0.59737100  1
  O  O29  1  0.59120900  0.95634700  0.58885200  1
  O  O30  1  0.40879100  0.95634700  0.58885200  1
  O  O31  1  0.91293300  0.44645400  0.59737100  1
  O  O32  1  0.43603900  0.54406500  0.01030100  1
  O  O33  1  0.93997400  0.04721300  0.00701400  1
  O  O34  1  0.06002600  0.04721300  0.00701400  1
  O  O35  1  0.56396100  0.54406500  0.01030100  1
  O  O36  1  0.05970300  0.95562500  0.50765200  1
  O  O37  1  0.56528800  0.45879300  0.50481200  1
  O  O38  1  0.43471200  0.45879300  0.50481200  1
  O  O39  1  0.94029700  0.95562500  0.50765200  1
  O  O40  1  0.24972700  0.01471100  0.98687500  1
  O  O41  1  0.75188900  0.51524100  0.98706800  1
  O  O42  1  0.24811100  0.51524100  0.98706800  1
  O  O43  1  0.75027300  0.01471100  0.98687500  1
  O  O44  1  0.24878300  0.48689200  0.48697500  1
  O  O45  1  0.75069300  0.98580200  0.48750000  1
  O  O46  1  0.24930700  0.98580200  0.48750000  1
  O  O47  1  0.75121700  0.48689200  0.48697500  1
  O  O48  1  0.34432800  0.33295000  0.80827700  1
  O  O49  1  0.84723800  0.83874300  0.80155800  1
  O  O50  1  0.15276200  0.83874300  0.80155800  1
  O  O51  1  0.65567200  0.33295000  0.80827700  1
  O  O52  1  0.15280200  0.16274900  0.30364200  1
  O  O53  1  0.65625800  0.67213000  0.29125600  1
  O  O54  1  0.34374200  0.67213000  0.29125600  1
  O  O55  1  0.84719800  0.16274900  0.30364200  1
