# generated using pymatgen
data_Cs4Sr(SnSe3)3
_symmetry_space_group_name_H-M   'P 1'
_cell_length_a   9.27851890
_cell_length_b   9.27851890
_cell_length_c   9.27851868
_cell_angle_alpha   107.93999237
_cell_angle_beta   107.93999237
_cell_angle_gamma   107.94000315
_symmetry_Int_Tables_number   1
_chemical_formula_structural   Cs4Sr(SnSe3)3
_chemical_formula_sum   'Cs4 Sr1 Sn3 Se9'
_cell_volume   647.42979943
_cell_formula_units_Z   1
loop_
 _symmetry_equiv_pos_site_id
 _symmetry_equiv_pos_as_xyz
  1  'x, y, z'
loop_
 _atom_site_type_symbol
 _atom_site_label
 _atom_site_symmetry_multiplicity
 _atom_site_fract_x
 _atom_site_fract_y
 _atom_site_fract_z
 _atom_site_occupancy
  Cs  Cs0  1  0.61294700  0.72530500  0.18630700  1
  Cs  Cs1  1  0.18630700  0.61294700  0.72530500  1
  Cs  Cs2  1  0.72530500  0.18630700  0.61294700  1
  Cs  Cs3  1  0.85689100  0.85689100  0.85689100  1
  Sr  Sr4  1  0.31587400  0.31587400  0.31587400  1
  Sn  Sn5  1  0.20439800  0.78929900  0.33483300  1
  Sn  Sn6  1  0.33483300  0.20439800  0.78929900  1
  Sn  Sn7  1  0.78929900  0.33483300  0.20439800  1
  Se  Se8  1  0.91968000  0.54259700  0.08959000  1
  Se  Se9  1  0.08959000  0.91968000  0.54259700  1
  Se  Se10  1  0.54259700  0.08959000  0.91968000  1
  Se  Se11  1  0.42246500  0.70871800  0.48232400  1
  Se  Se12  1  0.48232400  0.42246500  0.70871700  1
  Se  Se13  1  0.70871800  0.48232400  0.42246500  1
  Se  Se14  1  0.30351500  0.95230300  0.18321600  1
  Se  Se15  1  0.18321600  0.30351500  0.95230300  1
  Se  Se16  1  0.95230300  0.18321600  0.30351500  1
