# generated using pymatgen
data_Gd3ReB7
_symmetry_space_group_name_H-M   'P 1'
_cell_length_a   3.55070800
_cell_length_b   8.20350929
_cell_length_c   9.43893700
_cell_angle_alpha   90.00000000
_cell_angle_beta   90.00000000
_cell_angle_gamma   102.49849495
_symmetry_Int_Tables_number   1
_chemical_formula_structural   Gd3ReB7
_chemical_formula_sum   'Gd6 Re2 B14'
_cell_volume   268.42425861
_cell_formula_units_Z   2
loop_
 _symmetry_equiv_pos_site_id
 _symmetry_equiv_pos_as_xyz
  1  'x, y, z'
loop_
 _atom_site_type_symbol
 _atom_site_label
 _atom_site_symmetry_multiplicity
 _atom_site_fract_x
 _atom_site_fract_y
 _atom_site_fract_z
 _atom_site_occupancy
  Gd  Gd0  1  0.10538200  0.21076500  0.43869300  1
  Gd  Gd1  1  0.89461800  0.78923500  0.56130700  1
  Gd  Gd2  1  0.10538200  0.21076500  0.06130700  1
  Gd  Gd3  1  0.89461800  0.78923500  0.93869300  1
  Gd  Gd4  1  0.75613500  0.51227000  0.25000000  1
  Gd  Gd5  1  0.24386500  0.48773000  0.75000000  1
  Re  Re6  1  0.94625500  0.89251000  0.25000000  1
  Re  Re7  1  0.05374500  0.10749000  0.75000000  1
  B  B8  1  0.27310900  0.54621900  0.46757900  1
  B  B9  1  0.72689100  0.45378100  0.53242100  1
  B  B10  1  0.27310900  0.54621900  0.03242100  1
  B  B11  1  0.72689100  0.45378100  0.96757900  1
  B  B12  1  0.36770600  0.73541100  0.15039100  1
  B  B13  1  0.63229400  0.26458900  0.84960900  1
  B  B14  1  0.36770600  0.73541100  0.34960900  1
  B  B15  1  0.63229400  0.26458900  0.65039100  1
  B  B16  1  0.47830800  0.95661500  0.09542900  1
  B  B17  1  0.52169200  0.04338400  0.90457100  1
  B  B18  1  0.47830800  0.95661500  0.40457100  1
  B  B19  1  0.52169200  0.04338400  0.59542900  1
  B  B20  1  0.54054000  0.08108100  0.25000000  1
  B  B21  1  0.45946000  0.91891900  0.75000000  1
