# generated using pymatgen
data_FeAsO4
_symmetry_space_group_name_H-M   'P 1'
_cell_length_a   9.39862453
_cell_length_b   9.39862453
_cell_length_c   9.39862453
_cell_angle_alpha   138.68262733
_cell_angle_beta   108.50013877
_cell_angle_gamma   86.07957566
_symmetry_Int_Tables_number   1
_chemical_formula_structural   FeAsO4
_chemical_formula_sum   'Fe6 As6 O24'
_cell_volume   500.29428352
_cell_formula_units_Z   6
loop_
 _symmetry_equiv_pos_site_id
 _symmetry_equiv_pos_as_xyz
  1  'x, y, z'
loop_
 _atom_site_type_symbol
 _atom_site_label
 _atom_site_symmetry_multiplicity
 _atom_site_fract_x
 _atom_site_fract_y
 _atom_site_fract_z
 _atom_site_occupancy
  Fe  Fe0  1  0.00000000  0.50000000  0.50000000  1
  Fe  Fe1  1  0.50000000  0.00000000  0.50000000  1
  Fe  Fe2  1  0.88596100  0.88596100  0.50000000  1
  Fe  Fe3  1  0.61403900  0.11403900  0.00000000  1
  Fe  Fe4  1  0.11403900  0.11403900  0.50000000  1
  Fe  Fe5  1  0.38596100  0.88596100  0.00000000  1
  As  As6  1  0.25000000  0.82079200  0.57079200  1
  As  As7  1  0.75000000  0.17920800  0.42920800  1
  As  As8  1  0.82326200  0.32326200  0.00000000  1
  As  As9  1  0.67673800  0.67673800  0.50000000  1
  As  As10  1  0.17673800  0.67673800  0.00000000  1
  As  As11  1  0.32326200  0.32326200  0.50000000  1
  O  O12  1  0.12170600  0.97670400  0.59841100  1
  O  O13  1  0.37829400  0.97670400  0.85499800  1
  O  O14  1  0.62170600  0.02329600  0.14500200  1
  O  O15  1  0.87829400  0.02329600  0.40158900  1
  O  O16  1  0.14412700  0.58215000  0.43802300  1
  O  O17  1  0.35587300  0.79389600  0.43802300  1
  O  O18  1  0.85587300  0.41785000  0.56197700  1
  O  O19  1  0.64412700  0.20610400  0.56197700  1
  O  O20  1  0.14148800  0.40360800  0.82617100  1
  O  O21  1  0.35851200  0.18468300  0.26212000  1
  O  O22  1  0.42256300  0.59639200  0.73788000  1
  O  O23  1  0.07743700  0.81531700  0.17382900  1
  O  O24  1  0.65176900  0.80613200  0.42598000  1
  O  O25  1  0.84823100  0.27421100  0.15436400  1
  O  O26  1  0.61984800  0.19386800  0.84563600  1
  O  O27  1  0.88015200  0.72578900  0.57402000  1
  O  O28  1  0.34823100  0.19386800  0.57402000  1
  O  O29  1  0.15176900  0.72578900  0.84563600  1
  O  O30  1  0.38015200  0.80613200  0.15436400  1
  O  O31  1  0.11984800  0.27421100  0.42598000  1
  O  O32  1  0.92256300  0.18468300  0.82617100  1
  O  O33  1  0.57743700  0.40360800  0.26212000  1
  O  O34  1  0.64148800  0.81531700  0.73788000  1
  O  O35  1  0.85851200  0.59639200  0.17382900  1
