# generated using pymatgen
data_MgS2
_symmetry_space_group_name_H-M   'P 1'
_cell_length_a   5.11708004
_cell_length_b   5.11708004
_cell_length_c   5.11708069
_cell_angle_alpha   45.59431115
_cell_angle_beta   45.59431115
_cell_angle_gamma   45.59430914
_symmetry_Int_Tables_number   1
_chemical_formula_structural   MgS2
_chemical_formula_sum   'Mg1 S2'
_cell_volume   62.32036155
_cell_formula_units_Z   1
loop_
 _symmetry_equiv_pos_site_id
 _symmetry_equiv_pos_as_xyz
  1  'x, y, z'
loop_
 _atom_site_type_symbol
 _atom_site_label
 _atom_site_symmetry_multiplicity
 _atom_site_fract_x
 _atom_site_fract_y
 _atom_site_fract_z
 _atom_site_occupancy
  Mg  Mg0  1  0.00000000  0.00000000  0.00000000  1
  S  S1  1  0.42374800  0.42374800  0.42374800  1
  S  S2  1  0.57625200  0.57625200  0.57625200  1
