# generated using pymatgen
data_Re6Se7Br4
_symmetry_space_group_name_H-M   'P 1'
_cell_length_a   12.20908586
_cell_length_b   12.20908586
_cell_length_c   12.20908618
_cell_angle_alpha   48.28075410
_cell_angle_beta   48.28075410
_cell_angle_gamma   48.28075059
_symmetry_Int_Tables_number   1
_chemical_formula_structural   Re6Se7Br4
_chemical_formula_sum   'Re12 Se14 Br8'
_cell_volume   929.47496320
_cell_formula_units_Z   2
loop_
 _symmetry_equiv_pos_site_id
 _symmetry_equiv_pos_as_xyz
  1  'x, y, z'
loop_
 _atom_site_type_symbol
 _atom_site_label
 _atom_site_symmetry_multiplicity
 _atom_site_fract_x
 _atom_site_fract_y
 _atom_site_fract_z
 _atom_site_occupancy
  Re  Re0  1  0.52004000  0.38856100  0.69342900  1
  Re  Re1  1  0.38856100  0.69342900  0.52004000  1
  Re  Re2  1  0.69342900  0.52004000  0.38856100  1
  Re  Re3  1  0.19342900  0.88856100  0.02004000  1
  Re  Re4  1  0.88856100  0.02004000  0.19342900  1
  Re  Re5  1  0.02004000  0.19342900  0.88856100  1
  Re  Re6  1  0.48109200  0.61301100  0.30655700  1
  Re  Re7  1  0.61301100  0.30655700  0.48109200  1
  Re  Re8  1  0.30655700  0.48109200  0.61301100  1
  Re  Re9  1  0.80655700  0.11301100  0.98109200  1
  Re  Re10  1  0.11301100  0.98109200  0.80655700  1
  Re  Re11  1  0.98109200  0.80655700  0.11301100  1
  Se  Se12  1  0.81129500  0.22397600  0.55768000  1
  Se  Se13  1  0.22397600  0.55768000  0.81129500  1
  Se  Se14  1  0.55768000  0.81129500  0.22397600  1
  Se  Se15  1  0.05768000  0.72397600  0.31129500  1
  Se  Se16  1  0.72397600  0.31129500  0.05768000  1
  Se  Se17  1  0.31129500  0.05768000  0.72397600  1
  Se  Se18  1  0.18847700  0.77697900  0.44155700  1
  Se  Se19  1  0.77697900  0.44155700  0.18847700  1
  Se  Se20  1  0.44155700  0.18847700  0.77697900  1
  Se  Se21  1  0.94155700  0.27697900  0.68847700  1
  Se  Se22  1  0.27697900  0.68847700  0.94155700  1
  Se  Se23  1  0.68847700  0.94155700  0.27697900  1
  Se  Se24  1  0.59696600  0.59696600  0.59696600  1
  Se  Se25  1  0.09696600  0.09696600  0.09696600  1
  Br  Br26  1  0.97408300  0.52741400  0.24879800  1
  Br  Br27  1  0.52741400  0.24879800  0.97408300  1
  Br  Br28  1  0.24879800  0.97408300  0.52741400  1
  Br  Br29  1  0.74879800  0.02741400  0.47408300  1
  Br  Br30  1  0.02741400  0.47408300  0.74879800  1
  Br  Br31  1  0.47408300  0.74879800  0.02741400  1
  Br  Br32  1  0.40004700  0.40004700  0.40004700  1
  Br  Br33  1  0.90004700  0.90004700  0.90004700  1
