# generated using pymatgen
data_K3LuF6
_symmetry_space_group_name_H-M   'P 1'
_cell_length_a   6.56030400
_cell_length_b   6.34381500
_cell_length_c   11.06316882
_cell_angle_alpha   55.33020283
_cell_angle_beta   90.00000000
_cell_angle_gamma   90.00000000
_symmetry_Int_Tables_number   1
_chemical_formula_structural   K3LuF6
_chemical_formula_sum   'K6 Lu2 F12'
_cell_volume   378.66952879
_cell_formula_units_Z   2
loop_
 _symmetry_equiv_pos_site_id
 _symmetry_equiv_pos_as_xyz
  1  'x, y, z'
loop_
 _atom_site_type_symbol
 _atom_site_label
 _atom_site_symmetry_multiplicity
 _atom_site_fract_x
 _atom_site_fract_y
 _atom_site_fract_z
 _atom_site_occupancy
  K  K0  1  0.50000000  0.50000000  0.00000000  1
  K  K1  1  0.00000000  0.50000000  0.50000000  1
  K  K2  1  0.04964400  0.73538600  0.75263400  1
  K  K3  1  0.95035600  0.26461400  0.24736600  1
  K  K4  1  0.54964400  0.26461400  0.74736600  1
  K  K5  1  0.45035600  0.73538600  0.25263400  1
  Lu  Lu6  1  0.50000000  0.00000000  0.50000000  1
  Lu  Lu7  1  0.00000000  0.00000000  0.00000000  1
  F  F8  1  0.76876800  0.77005400  0.56276900  1
  F  F9  1  0.23123200  0.22994600  0.43723100  1
  F  F10  1  0.26876800  0.22994600  0.93723100  1
  F  F11  1  0.73123200  0.77005400  0.06276900  1
  F  F12  1  0.45231300  0.88253900  0.72053000  1
  F  F13  1  0.54768700  0.11746100  0.27947000  1
  F  F14  1  0.95231300  0.11746100  0.77947000  1
  F  F15  1  0.04768700  0.88253900  0.22053000  1
  F  F16  1  0.32567600  0.67997200  0.54567300  1
  F  F17  1  0.67432400  0.32002800  0.45432700  1
  F  F18  1  0.82567600  0.32002800  0.95432700  1
  F  F19  1  0.17432400  0.67997200  0.04567300  1
