# generated using pymatgen
data_Y5Sb3
_symmetry_space_group_name_H-M   'P 1'
_cell_length_a   6.29424600
_cell_length_b   9.02499034
_cell_length_c   9.02176176
_cell_angle_alpha   120.01184297
_cell_angle_beta   90.00000000
_cell_angle_gamma   90.00000000
_symmetry_Int_Tables_number   1
_chemical_formula_structural   Y5Sb3
_chemical_formula_sum   'Y10 Sb6'
_cell_volume   443.77272299
_cell_formula_units_Z   2
loop_
 _symmetry_equiv_pos_site_id
 _symmetry_equiv_pos_as_xyz
  1  'x, y, z'
loop_
 _atom_site_type_symbol
 _atom_site_label
 _atom_site_symmetry_multiplicity
 _atom_site_fract_x
 _atom_site_fract_y
 _atom_site_fract_z
 _atom_site_occupancy
  Y  Y0  1  0.50000000  0.33332600  0.66666700  1
  Y  Y1  1  0.50000000  0.66665900  0.33333300  1
  Y  Y2  1  0.00000000  0.66667400  0.33333300  1
  Y  Y3  1  0.00000000  0.33334100  0.66666700  1
  Y  Y4  1  0.74999900  0.24737500  0.00000000  1
  Y  Y5  1  0.75000100  0.75269500  0.75266900  1
  Y  Y6  1  0.75000100  0.00002600  0.24733100  1
  Y  Y7  1  0.24999900  0.75262500  0.00000000  1
  Y  Y8  1  0.25000100  0.24730500  0.24733100  1
  Y  Y9  1  0.25000100  0.99997400  0.75266900  1
  Sb  Sb10  1  0.74999600  0.61221500  0.00000000  1
  Sb  Sb11  1  0.75000200  0.38777000  0.38777700  1
  Sb  Sb12  1  0.75000200  0.99999200  0.61222300  1
  Sb  Sb13  1  0.24999600  0.38778500  0.00000000  1
  Sb  Sb14  1  0.25000200  0.61223000  0.61222300  1
  Sb  Sb15  1  0.25000200  0.00000800  0.38777700  1
