# generated using pymatgen
data_KCa(PO3)3
_symmetry_space_group_name_H-M   'P 1'
_cell_length_a   6.92176137
_cell_length_b   6.92176137
_cell_length_c   10.49772100
_cell_angle_alpha   90.00000000
_cell_angle_beta   90.00000000
_cell_angle_gamma   119.99999395
_symmetry_Int_Tables_number   1
_chemical_formula_structural   KCa(PO3)3
_chemical_formula_sum   'K2 Ca2 P6 O18'
_cell_volume   435.57097248
_cell_formula_units_Z   2
loop_
 _symmetry_equiv_pos_site_id
 _symmetry_equiv_pos_as_xyz
  1  'x, y, z'
loop_
 _atom_site_type_symbol
 _atom_site_label
 _atom_site_symmetry_multiplicity
 _atom_site_fract_x
 _atom_site_fract_y
 _atom_site_fract_z
 _atom_site_occupancy
  K  K0  1  0.66666700  0.33333300  0.50000000  1
  K  K1  1  0.66666700  0.33333300  0.00000000  1
  Ca  Ca2  1  0.33333300  0.66666700  0.50000000  1
  Ca  Ca3  1  0.33333300  0.66666700  0.00000000  1
  P  P4  1  0.73201200  0.77132600  0.25000000  1
  P  P5  1  0.22867400  0.96068600  0.25000000  1
  P  P6  1  0.03931400  0.26798800  0.25000000  1
  P  P7  1  0.03931400  0.77132600  0.75000000  1
  P  P8  1  0.22867400  0.26798800  0.75000000  1
  P  P9  1  0.73201200  0.96068600  0.75000000  1
  O  O10  1  0.05343800  0.38554200  0.37273100  1
  O  O11  1  0.61445800  0.94656200  0.62726900  1
  O  O12  1  0.61445800  0.66789600  0.37273100  1
  O  O13  1  0.33210400  0.94656200  0.37273100  1
  O  O14  1  0.61445800  0.66789600  0.12726900  1
  O  O15  1  0.33210400  0.94656200  0.12726900  1
  O  O16  1  0.05343800  0.38554200  0.12726900  1
  O  O17  1  0.33210400  0.38554200  0.87273100  1
  O  O18  1  0.05343800  0.66789600  0.87273100  1
  O  O19  1  0.05343800  0.66789600  0.62726900  1
  O  O20  1  0.80725200  0.77408000  0.75000000  1
  O  O21  1  0.96682700  0.19274800  0.75000000  1
  O  O22  1  0.22592000  0.03317300  0.75000000  1
  O  O23  1  0.22592000  0.19274800  0.25000000  1
  O  O24  1  0.96682700  0.77408000  0.25000000  1
  O  O25  1  0.80725200  0.03317300  0.25000000  1
  O  O26  1  0.61445800  0.94656200  0.87273100  1
  O  O27  1  0.33210400  0.38554200  0.62726900  1
