# generated using pymatgen
data_YAl7Cu5
_symmetry_space_group_name_H-M   'P 1'
_cell_length_a   6.66892530
_cell_length_b   6.66892530
_cell_length_c   6.66892530
_cell_angle_alpha   135.11590528
_cell_angle_beta   98.95655062
_cell_angle_gamma   97.80365758
_symmetry_Int_Tables_number   1
_chemical_formula_structural   YAl7Cu5
_chemical_formula_sum   'Y1 Al7 Cu5'
_cell_volume   193.43710877
_cell_formula_units_Z   1
loop_
 _symmetry_equiv_pos_site_id
 _symmetry_equiv_pos_as_xyz
  1  'x, y, z'
loop_
 _atom_site_type_symbol
 _atom_site_label
 _atom_site_symmetry_multiplicity
 _atom_site_fract_x
 _atom_site_fract_y
 _atom_site_fract_z
 _atom_site_occupancy
  Y  Y0  1  0.00050400  0.00000000  0.00050400  1
  Al  Al1  1  0.35023100  0.00000000  0.35023100  1
  Al  Al2  1  0.65565800  0.00000000  0.65565800  1
  Al  Al3  1  0.65867600  0.65133800  0.00733800  1
  Al  Al4  1  0.35599900  0.34866200  0.00733800  1
  Al  Al5  1  0.22344800  0.50000000  0.72344800  1
  Al  Al6  1  0.20487700  0.71170100  0.49317600  1
  Al  Al7  1  0.78147500  0.28829900  0.49317600  1
  Cu  Cu8  1  0.49566300  0.99618200  0.99650000  1
  Cu  Cu9  1  0.49566300  0.49916300  0.49948100  1
  Cu  Cu10  1  0.00031800  0.50083700  0.99650000  1
  Cu  Cu11  1  0.00031800  0.00381800  0.49948100  1
  Cu  Cu12  1  0.77717000  0.50000000  0.27717000  1
