# generated using pymatgen
data_YbZnGa
_symmetry_space_group_name_H-M   'P 1'
_cell_length_a   5.69253567
_cell_length_b   5.69253567
_cell_length_c   7.19117634
_cell_angle_alpha   51.46530431
_cell_angle_beta   51.46530431
_cell_angle_gamma   46.70268445
_symmetry_Int_Tables_number   1
_chemical_formula_structural   YbZnGa
_chemical_formula_sum   'Yb2 Zn2 Ga2'
_cell_volume   124.57759237
_cell_formula_units_Z   2
loop_
 _symmetry_equiv_pos_site_id
 _symmetry_equiv_pos_as_xyz
  1  'x, y, z'
loop_
 _atom_site_type_symbol
 _atom_site_label
 _atom_site_symmetry_multiplicity
 _atom_site_fract_x
 _atom_site_fract_y
 _atom_site_fract_z
 _atom_site_occupancy
  Yb  Yb0  1  0.53593500  0.53593500  0.71141600  1
  Yb  Yb1  1  0.46406500  0.46406500  0.28858400  1
  Zn  Zn2  1  0.16540000  0.16540000  0.28598600  1
  Zn  Zn3  1  0.83460000  0.83460000  0.71401400  1
  Ga  Ga4  1  0.83505200  0.83505200  0.11697500  1
  Ga  Ga5  1  0.16494800  0.16494800  0.88302500  1
