# generated using pymatgen
data_U(RhO3)2
_symmetry_space_group_name_H-M   'P 1'
_cell_length_a   4.82392000
_cell_length_b   4.82392000
_cell_length_c   9.44015200
_cell_angle_alpha   90.00000000
_cell_angle_beta   90.00000000
_cell_angle_gamma   90.00000000
_symmetry_Int_Tables_number   1
_chemical_formula_structural   U(RhO3)2
_chemical_formula_sum   'U2 Rh4 O12'
_cell_volume   219.67426440
_cell_formula_units_Z   2
loop_
 _symmetry_equiv_pos_site_id
 _symmetry_equiv_pos_as_xyz
  1  'x, y, z'
loop_
 _atom_site_type_symbol
 _atom_site_label
 _atom_site_symmetry_multiplicity
 _atom_site_fract_x
 _atom_site_fract_y
 _atom_site_fract_z
 _atom_site_occupancy
  U  U0  1  0.00000000  0.00000000  0.00000000  1
  U  U1  1  0.50000000  0.50000000  0.50000000  1
  Rh  Rh2  1  0.00000000  0.00000000  0.33002400  1
  Rh  Rh3  1  0.50000000  0.50000000  0.83002400  1
  Rh  Rh4  1  0.00000000  0.00000000  0.66997600  1
  Rh  Rh5  1  0.50000000  0.50000000  0.16997600  1
  O  O6  1  0.70133700  0.70133700  0.66675200  1
  O  O7  1  0.29866300  0.29866300  0.66675200  1
  O  O8  1  0.70133700  0.70133700  0.33324800  1
  O  O9  1  0.20133700  0.79866300  0.16675200  1
  O  O10  1  0.79866300  0.20133700  0.16675200  1
  O  O11  1  0.79866300  0.20133700  0.83324800  1
  O  O12  1  0.31189700  0.31189700  0.00000000  1
  O  O13  1  0.18810300  0.81189700  0.50000000  1
  O  O14  1  0.81189700  0.18810300  0.50000000  1
  O  O15  1  0.68810300  0.68810300  0.00000000  1
  O  O16  1  0.29866300  0.29866300  0.33324800  1
  O  O17  1  0.20133700  0.79866300  0.83324800  1
