# generated using pymatgen
data_KV2SeO7
_symmetry_space_group_name_H-M   'P 1'
_cell_length_a   5.52736600
_cell_length_b   7.15806000
_cell_length_c   18.57842400
_cell_angle_alpha   90.00000000
_cell_angle_beta   90.00000000
_cell_angle_gamma   90.00000000
_symmetry_Int_Tables_number   1
_chemical_formula_structural   KV2SeO7
_chemical_formula_sum   'K4 V8 Se4 O28'
_cell_volume   735.05938581
_cell_formula_units_Z   4
loop_
 _symmetry_equiv_pos_site_id
 _symmetry_equiv_pos_as_xyz
  1  'x, y, z'
loop_
 _atom_site_type_symbol
 _atom_site_label
 _atom_site_symmetry_multiplicity
 _atom_site_fract_x
 _atom_site_fract_y
 _atom_site_fract_z
 _atom_site_occupancy
  K  K0  1  0.25000000  0.23950400  0.96421200  1
  K  K1  1  0.25000000  0.26049600  0.46421200  1
  K  K2  1  0.75000000  0.76049600  0.03578800  1
  K  K3  1  0.75000000  0.73950400  0.53578800  1
  V  V4  1  0.25000000  0.72168700  0.88019200  1
  V  V5  1  0.25000000  0.77831300  0.38019200  1
  V  V6  1  0.75000000  0.27831300  0.11980800  1
  V  V7  1  0.75000000  0.22168700  0.61980800  1
  V  V8  1  0.25000000  0.93294900  0.68694900  1
  V  V9  1  0.25000000  0.56705100  0.18694900  1
  V  V10  1  0.75000000  0.06705100  0.31305100  1
  V  V11  1  0.75000000  0.43294900  0.81305100  1
  Se  Se12  1  0.25000000  0.47218900  0.65001100  1
  Se  Se13  1  0.25000000  0.02781100  0.15001100  1
  Se  Se14  1  0.75000000  0.52781100  0.34998900  1
  Se  Se15  1  0.75000000  0.97218900  0.84998900  1
  O  O16  1  0.25000000  0.87145500  0.77471500  1
  O  O17  1  0.25000000  0.62854500  0.27471500  1
  O  O18  1  0.75000000  0.12854500  0.22528500  1
  O  O19  1  0.75000000  0.37145500  0.72528500  1
  O  O20  1  0.99684700  0.05952700  0.66531200  1
  O  O21  1  0.50315300  0.44047300  0.16531200  1
  O  O22  1  0.49684700  0.94047300  0.33468800  1
  O  O23  1  0.00315300  0.55952700  0.83468800  1
  O  O24  1  0.00315300  0.94047300  0.33468800  1
  O  O25  1  0.49684700  0.55952700  0.83468800  1
  O  O26  1  0.50315300  0.05952700  0.66531200  1
  O  O27  1  0.99684700  0.44047300  0.16531200  1
  O  O28  1  0.25000000  0.71672100  0.63119300  1
  O  O29  1  0.25000000  0.78327900  0.13119300  1
  O  O30  1  0.75000000  0.28327900  0.36880700  1
  O  O31  1  0.75000000  0.21672100  0.86880700  1
  O  O32  1  0.01097600  0.42003100  0.59488900  1
  O  O33  1  0.48902400  0.07996900  0.09488900  1
  O  O34  1  0.51097600  0.57996900  0.40511100  1
  O  O35  1  0.98902400  0.92003100  0.90511100  1
  O  O36  1  0.98902400  0.57996900  0.40511100  1
  O  O37  1  0.51097600  0.92003100  0.90511100  1
  O  O38  1  0.48902400  0.42003100  0.59488900  1
  O  O39  1  0.01097600  0.07996900  0.09488900  1
  O  O40  1  0.25000000  0.63013300  0.96214700  1
  O  O41  1  0.25000000  0.86986700  0.46214700  1
  O  O42  1  0.75000000  0.36986700  0.03785300  1
  O  O43  1  0.75000000  0.13013300  0.53785300  1
