# generated using pymatgen
data_Ti3Mn(CuS4)2
_symmetry_space_group_name_H-M   'P 1'
_cell_length_a   7.13375964
_cell_length_b   7.13375964
_cell_length_c   7.13375962
_cell_angle_alpha   58.91007920
_cell_angle_beta   58.91007920
_cell_angle_gamma   58.91007805
_symmetry_Int_Tables_number   1
_chemical_formula_structural   Ti3Mn(CuS4)2
_chemical_formula_sum   'Ti3 Mn1 Cu2 S8'
_cell_volume   250.32306978
_cell_formula_units_Z   1
loop_
 _symmetry_equiv_pos_site_id
 _symmetry_equiv_pos_as_xyz
  1  'x, y, z'
loop_
 _atom_site_type_symbol
 _atom_site_label
 _atom_site_symmetry_multiplicity
 _atom_site_fract_x
 _atom_site_fract_y
 _atom_site_fract_z
 _atom_site_occupancy
  Ti  Ti0  1  0.00000000  0.50000000  0.50000000  1
  Ti  Ti1  1  0.50000000  0.50000000  0.00000000  1
  Ti  Ti2  1  0.50000000  0.00000000  0.50000000  1
  Mn  Mn3  1  0.50000000  0.50000000  0.50000000  1
  Cu  Cu4  1  0.12497500  0.12497500  0.12497500  1
  Cu  Cu5  1  0.87502500  0.87502500  0.87502500  1
  S  S6  1  0.74575400  0.74575400  0.74575400  1
  S  S7  1  0.26797300  0.74375900  0.74375900  1
  S  S8  1  0.74375900  0.74375900  0.26797300  1
  S  S9  1  0.74375900  0.26797300  0.74375900  1
  S  S10  1  0.25424600  0.25424600  0.25424600  1
  S  S11  1  0.73202700  0.25624100  0.25624100  1
  S  S12  1  0.25624100  0.25624100  0.73202700  1
  S  S13  1  0.25624100  0.73202700  0.25624100  1
