# generated using pymatgen
data_Hf2InCu2
_symmetry_space_group_name_H-M   'P 1'
_cell_length_a   7.16650600
_cell_length_b   7.16650600
_cell_length_c   6.89251800
_cell_angle_alpha   90.00000000
_cell_angle_beta   90.00000000
_cell_angle_gamma   90.00000000
_symmetry_Int_Tables_number   1
_chemical_formula_structural   Hf2InCu2
_chemical_formula_sum   'Hf8 In4 Cu8'
_cell_volume   353.99151031
_cell_formula_units_Z   4
loop_
 _symmetry_equiv_pos_site_id
 _symmetry_equiv_pos_as_xyz
  1  'x, y, z'
loop_
 _atom_site_type_symbol
 _atom_site_label
 _atom_site_symmetry_multiplicity
 _atom_site_fract_x
 _atom_site_fract_y
 _atom_site_fract_z
 _atom_site_occupancy
  Hf  Hf0  1  0.15664700  0.15664700  0.00000000  1
  Hf  Hf1  1  0.84335300  0.84335300  0.00000000  1
  Hf  Hf2  1  0.65664700  0.34335300  0.50000000  1
  Hf  Hf3  1  0.34335300  0.65664700  0.50000000  1
  Hf  Hf4  1  0.68569100  0.31430900  0.00000000  1
  Hf  Hf5  1  0.31430900  0.68569100  0.00000000  1
  Hf  Hf6  1  0.81430900  0.81430900  0.50000000  1
  Hf  Hf7  1  0.18569100  0.18569100  0.50000000  1
  In  In8  1  0.50000000  0.00000000  0.25000000  1
  In  In9  1  0.50000000  0.00000000  0.75000000  1
  In  In10  1  0.00000000  0.50000000  0.25000000  1
  In  In11  1  0.00000000  0.50000000  0.75000000  1
  Cu  Cu12  1  0.37625500  0.37625500  0.21971500  1
  Cu  Cu13  1  0.62374500  0.62374500  0.78028500  1
  Cu  Cu14  1  0.62374500  0.62374500  0.21971500  1
  Cu  Cu15  1  0.87625500  0.12374500  0.71971500  1
  Cu  Cu16  1  0.87625500  0.12374500  0.28028500  1
  Cu  Cu17  1  0.37625500  0.37625500  0.78028500  1
  Cu  Cu18  1  0.12374500  0.87625500  0.28028500  1
  Cu  Cu19  1  0.12374500  0.87625500  0.71971500  1
