# generated using pymatgen
data_Lu6Co2Sn
_symmetry_space_group_name_H-M   'P 1'
_cell_length_a   8.16470240
_cell_length_b   8.16470240
_cell_length_c   8.16470240
_cell_angle_alpha   111.35808991
_cell_angle_beta   110.25572288
_cell_angle_gamma   106.83362623
_symmetry_Int_Tables_number   1
_chemical_formula_structural   Lu6Co2Sn
_chemical_formula_sum   'Lu12 Co4 Sn2'
_cell_volume   418.28293225
_cell_formula_units_Z   2
loop_
 _symmetry_equiv_pos_site_id
 _symmetry_equiv_pos_as_xyz
  1  'x, y, z'
loop_
 _atom_site_type_symbol
 _atom_site_label
 _atom_site_symmetry_multiplicity
 _atom_site_fract_x
 _atom_site_fract_y
 _atom_site_fract_z
 _atom_site_occupancy
  Lu  Lu0  1  0.44692200  0.23580700  0.21111400  1
  Lu  Lu1  1  0.55307800  0.76419300  0.78888600  1
  Lu  Lu2  1  0.02469300  0.23580700  0.78888600  1
  Lu  Lu3  1  0.97530700  0.76419300  0.21111400  1
  Lu  Lu4  1  0.18467800  0.28524100  0.46992000  1
  Lu  Lu5  1  0.81532200  0.71475900  0.53008000  1
  Lu  Lu6  1  0.18467800  0.71475900  0.89943700  1
  Lu  Lu7  1  0.81532200  0.28524100  0.10056300  1
  Lu  Lu8  1  0.32021500  0.62850600  0.30829100  1
  Lu  Lu9  1  0.67978500  0.37149400  0.69170900  1
  Lu  Lu10  1  0.32021500  0.01192400  0.69170900  1
  Lu  Lu11  1  0.67978500  0.98807600  0.30829100  1
  Co  Co12  1  0.36287900  0.00000000  0.36287900  1
  Co  Co13  1  0.63712100  0.00000000  0.63712100  1
  Co  Co14  1  0.11447500  0.61447500  0.50000000  1
  Co  Co15  1  0.88552500  0.38552500  0.50000000  1
  Sn  Sn16  1  0.50000000  0.50000000  0.00000000  1
  Sn  Sn17  1  0.00000000  0.00000000  0.00000000  1
