# generated using pymatgen
data_RbMnP2O7
_symmetry_space_group_name_H-M   'P 1'
_cell_length_a   9.87673500
_cell_length_b   7.48973900
_cell_length_c   8.81000143
_cell_angle_alpha   74.61222806
_cell_angle_beta   90.00000000
_cell_angle_gamma   90.00000000
_symmetry_Int_Tables_number   1
_chemical_formula_structural   RbMnP2O7
_chemical_formula_sum   'Rb4 Mn4 P8 O28'
_cell_volume   628.34996656
_cell_formula_units_Z   4
loop_
 _symmetry_equiv_pos_site_id
 _symmetry_equiv_pos_as_xyz
  1  'x, y, z'
loop_
 _atom_site_type_symbol
 _atom_site_label
 _atom_site_symmetry_multiplicity
 _atom_site_fract_x
 _atom_site_fract_y
 _atom_site_fract_z
 _atom_site_occupancy
  Rb  Rb0  1  0.31194300  0.81865900  0.04380700  1
  Rb  Rb1  1  0.81194300  0.18134100  0.45619300  1
  Rb  Rb2  1  0.68805700  0.18134100  0.95619300  1
  Rb  Rb3  1  0.18805700  0.81865900  0.54380700  1
  Mn  Mn4  1  0.60137300  0.76384800  0.75647700  1
  Mn  Mn5  1  0.10137300  0.23615200  0.74352300  1
  Mn  Mn6  1  0.39862700  0.23615200  0.24352300  1
  Mn  Mn7  1  0.89862700  0.76384800  0.25647700  1
  P  P8  1  0.63124800  0.56553800  0.18951600  1
  P  P9  1  0.13124800  0.43446200  0.31048400  1
  P  P10  1  0.36875200  0.43446200  0.81048400  1
  P  P11  1  0.86875200  0.56553800  0.68951600  1
  P  P12  1  0.90538100  0.86757000  0.83166500  1
  P  P13  1  0.40538100  0.13243000  0.66833500  1
  P  P14  1  0.09461900  0.13243000  0.16833500  1
  P  P15  1  0.59461900  0.86757000  0.33166500  1
  O  O16  1  0.94973700  0.66909400  0.80507200  1
  O  O17  1  0.44973700  0.33090600  0.69492800  1
  O  O18  1  0.05026300  0.33090600  0.19492800  1
  O  O19  1  0.55026300  0.66909400  0.30507200  1
  O  O20  1  0.73675200  0.91412800  0.25525900  1
  O  O21  1  0.23675200  0.08587200  0.24474100  1
  O  O22  1  0.26324800  0.08587200  0.74474100  1
  O  O23  1  0.76324800  0.91412800  0.75525900  1
  O  O24  1  0.57631400  0.36590000  0.23648900  1
  O  O25  1  0.07631400  0.63410000  0.26351100  1
  O  O26  1  0.42368600  0.63410000  0.76351100  1
  O  O27  1  0.92368600  0.36590000  0.73648900  1
  O  O28  1  0.59046300  0.85485000  0.50355200  1
  O  O29  1  0.09046300  0.14515000  0.99644800  1
  O  O30  1  0.40953700  0.14515000  0.49644800  1
  O  O31  1  0.90953700  0.85485000  0.00355200  1
  O  O32  1  0.60439800  0.67318300  0.02179000  1
  O  O33  1  0.10439800  0.32681700  0.47821000  1
  O  O34  1  0.39560200  0.32681700  0.97821000  1
  O  O35  1  0.89560200  0.67318300  0.52179000  1
  O  O36  1  0.49687100  0.00930300  0.22677400  1
  O  O37  1  0.99687100  0.99069700  0.27322600  1
  O  O38  1  0.50312900  0.99069700  0.77322600  1
  O  O39  1  0.00312900  0.00930300  0.72677400  1
  O  O40  1  0.78163700  0.55477400  0.24402600  1
  O  O41  1  0.28163700  0.44522600  0.25597400  1
  O  O42  1  0.21836300  0.44522600  0.75597400  1
  O  O43  1  0.71836300  0.55477400  0.74402600  1
