# generated using pymatgen
data_La(PRh)2
_symmetry_space_group_name_H-M   'P 1'
_cell_length_a   4.21964000
_cell_length_b   4.21964000
_cell_length_c   9.66927900
_cell_angle_alpha   90.00000000
_cell_angle_beta   90.00000000
_cell_angle_gamma   90.00000000
_symmetry_Int_Tables_number   1
_chemical_formula_structural   La(PRh)2
_chemical_formula_sum   'La2 P4 Rh4'
_cell_volume   172.16501026
_cell_formula_units_Z   2
loop_
 _symmetry_equiv_pos_site_id
 _symmetry_equiv_pos_as_xyz
  1  'x, y, z'
loop_
 _atom_site_type_symbol
 _atom_site_label
 _atom_site_symmetry_multiplicity
 _atom_site_fract_x
 _atom_site_fract_y
 _atom_site_fract_z
 _atom_site_occupancy
  La  La0  1  0.00000000  0.50000000  0.25748900  1
  La  La1  1  0.50000000  0.00000000  0.74251100  1
  P  P2  1  0.00000000  0.00000000  0.50000000  1
  P  P3  1  0.50000000  0.50000000  0.50000000  1
  P  P4  1  0.00000000  0.50000000  0.86222900  1
  P  P5  1  0.50000000  0.00000000  0.13777100  1
  Rh  Rh6  1  0.00000000  0.00000000  0.00000000  1
  Rh  Rh7  1  0.50000000  0.50000000  0.00000000  1
  Rh  Rh8  1  0.00000000  0.50000000  0.61162600  1
  Rh  Rh9  1  0.50000000  0.00000000  0.38837400  1
