# generated using pymatgen
data_BaCoP2O7
_symmetry_space_group_name_H-M   'P 1'
_cell_length_a   5.38129200
_cell_length_b   7.51215223
_cell_length_c   7.68533507
_cell_angle_alpha   102.98259887
_cell_angle_beta   91.75941508
_cell_angle_gamma   93.91490580
_symmetry_Int_Tables_number   1
_chemical_formula_structural   BaCoP2O7
_chemical_formula_sum   'Ba2 Co2 P4 O14'
_cell_volume   301.69348527
_cell_formula_units_Z   2
loop_
 _symmetry_equiv_pos_site_id
 _symmetry_equiv_pos_as_xyz
  1  'x, y, z'
loop_
 _atom_site_type_symbol
 _atom_site_label
 _atom_site_symmetry_multiplicity
 _atom_site_fract_x
 _atom_site_fract_y
 _atom_site_fract_z
 _atom_site_occupancy
  Ba  Ba0  1  0.20791700  0.77753100  0.93323600  1
  Ba  Ba1  1  0.79208300  0.22246900  0.06676400  1
  Co  Co2  1  0.80026200  0.38946900  0.60571000  1
  Co  Co3  1  0.19973800  0.61053100  0.39429000  1
  P  P4  1  0.29467800  0.26975800  0.78527600  1
  P  P5  1  0.70532200  0.73024200  0.21472400  1
  P  P6  1  0.29330800  0.19220900  0.40057700  1
  P  P7  1  0.70669200  0.80779100  0.59942300  1
  O  O8  1  0.21825000  0.02762700  0.25328600  1
  O  O9  1  0.06789900  0.38769800  0.79950900  1
  O  O10  1  0.71100400  0.84683800  0.07622500  1
  O  O11  1  0.54299500  0.38717900  0.79671000  1
  O  O12  1  0.43570000  0.72667200  0.60297200  1
  O  O13  1  0.56430000  0.27332800  0.39702800  1
  O  O14  1  0.26785500  0.13016100  0.58930700  1
  O  O15  1  0.10738300  0.34602900  0.40892500  1
  O  O16  1  0.78175000  0.97237300  0.74671400  1
  O  O17  1  0.45700500  0.61282100  0.20329000  1
  O  O18  1  0.89261700  0.65397100  0.59107500  1
  O  O19  1  0.28899600  0.15316200  0.92377500  1
  O  O20  1  0.73214500  0.86983900  0.41069300  1
  O  O21  1  0.93210100  0.61230200  0.20049100  1
