# generated using pymatgen
data_Cs2TeH6SeO10
_symmetry_space_group_name_H-M   'P 1'
_cell_length_a   7.59907900
_cell_length_b   12.59994100
_cell_length_c   13.00862223
_cell_angle_alpha   68.90009670
_cell_angle_beta   90.00000000
_cell_angle_gamma   90.00000000
_symmetry_Int_Tables_number   1
_chemical_formula_structural   Cs2TeH6SeO10
_chemical_formula_sum   'Cs8 Te4 H24 Se4 O40'
_cell_volume   1162.03998053
_cell_formula_units_Z   4
loop_
 _symmetry_equiv_pos_site_id
 _symmetry_equiv_pos_as_xyz
  1  'x, y, z'
loop_
 _atom_site_type_symbol
 _atom_site_label
 _atom_site_symmetry_multiplicity
 _atom_site_fract_x
 _atom_site_fract_y
 _atom_site_fract_z
 _atom_site_occupancy
  Cs  Cs0  1  0.46763700  0.38477200  0.36777600  1
  Cs  Cs1  1  0.53236300  0.61522800  0.63222400  1
  Cs  Cs2  1  0.96763700  0.11522800  0.63222400  1
  Cs  Cs3  1  0.03236300  0.88477200  0.36777600  1
  Cs  Cs4  1  0.99254300  0.64200100  0.13610300  1
  Cs  Cs5  1  0.00745700  0.35799900  0.86389700  1
  Cs  Cs6  1  0.49254300  0.85799900  0.86389700  1
  Cs  Cs7  1  0.50745700  0.14200100  0.13610300  1
  Te  Te8  1  0.00000000  0.50000000  0.50000000  1
  Te  Te9  1  0.50000000  0.00000000  0.50000000  1
  Te  Te10  1  0.00000000  0.00000000  0.00000000  1
  Te  Te11  1  0.50000000  0.50000000  0.00000000  1
  H  H12  1  0.28223100  0.89817100  0.08045000  1
  H  H13  1  0.71776900  0.10182900  0.91955000  1
  H  H14  1  0.78223100  0.60182900  0.91955000  1
  H  H15  1  0.21776900  0.39817100  0.08045000  1
  H  H16  1  0.79464700  0.65881200  0.38465300  1
  H  H17  1  0.20535300  0.34118800  0.61534700  1
  H  H18  1  0.29464700  0.84118800  0.61534700  1
  H  H19  1  0.70535300  0.15881200  0.38465300  1
  H  H20  1  0.75045000  0.87446500  0.59503300  1
  H  H21  1  0.24955000  0.12553500  0.40496700  1
  H  H22  1  0.25045000  0.62553500  0.40496700  1
  H  H23  1  0.74955000  0.37446500  0.59503300  1
  H  H24  1  0.52372800  0.87521400  0.38537200  1
  H  H25  1  0.47627200  0.12478600  0.61462800  1
  H  H26  1  0.02372800  0.62478600  0.61462800  1
  H  H27  1  0.97627200  0.37521400  0.38537200  1
  H  H28  1  0.46615400  0.60411700  0.12909200  1
  H  H29  1  0.53384600  0.39588300  0.87090800  1
  H  H30  1  0.96615400  0.89588300  0.87090800  1
  H  H31  1  0.03384600  0.10411700  0.12909200  1
  H  H32  1  0.75433600  0.89860400  0.12776100  1
  H  H33  1  0.24566400  0.10139600  0.87223900  1
  H  H34  1  0.25433600  0.60139600  0.87223900  1
  H  H35  1  0.74566400  0.39860400  0.12776100  1
  Se  Se36  1  0.49964900  0.74784200  0.25101500  1
  Se  Se37  1  0.50035100  0.25215800  0.74898500  1
  Se  Se38  1  0.99964900  0.75215800  0.74898500  1
  Se  Se39  1  0.00035100  0.24784200  0.25101500  1
  O  O40  1  0.78641800  0.77670100  0.71505700  1
  O  O41  1  0.21358200  0.22329900  0.28494300  1
  O  O42  1  0.28641800  0.72329900  0.28494300  1
  O  O43  1  0.71358200  0.27670100  0.71505700  1
  O  O44  1  0.92051100  0.63679000  0.38113000  1
  O  O45  1  0.07948900  0.36321000  0.61887000  1
  O  O46  1  0.42051100  0.86321000  0.61887000  1
  O  O47  1  0.57948900  0.13679000  0.38113000  1
  O  O48  1  0.37922200  0.57764200  0.08411500  1
  O  O49  1  0.62077800  0.42235800  0.91588500  1
  O  O50  1  0.87922200  0.92235800  0.91588500  1
  O  O51  1  0.12077800  0.07764200  0.08411500  1
  O  O52  1  0.88544300  0.89878300  0.13542700  1
  O  O53  1  0.11455700  0.10121700  0.86457300  1
  O  O54  1  0.38544300  0.60121700  0.86457300  1
  O  O55  1  0.61455700  0.39878300  0.13542700  1
  O  O56  1  0.51689400  0.87362300  0.14646100  1
  O  O57  1  0.48310600  0.12637700  0.85353900  1
  O  O58  1  0.01689400  0.62637700  0.85353900  1
  O  O59  1  0.98310600  0.37362300  0.14646100  1
  O  O60  1  0.69472400  0.60842000  0.97366700  1
  O  O61  1  0.30527600  0.39158000  0.02633300  1
  O  O62  1  0.19472400  0.89158000  0.02633300  1
  O  O63  1  0.80527600  0.10842000  0.97366700  1
  O  O64  1  0.58348600  0.64334900  0.21448900  1
  O  O65  1  0.41651400  0.35665100  0.78551100  1
  O  O66  1  0.08348600  0.85665100  0.78551100  1
  O  O67  1  0.91651400  0.14334900  0.21448900  1
  O  O68  1  0.44183100  0.93708100  0.38565400  1
  O  O69  1  0.55816900  0.06291900  0.61434600  1
  O  O70  1  0.94183100  0.56291900  0.61434600  1
  O  O71  1  0.05816900  0.43708100  0.38565400  1
  O  O72  1  0.61346000  0.75157700  0.36120300  1
  O  O73  1  0.38654000  0.24842300  0.63879700  1
  O  O74  1  0.11346000  0.74842300  0.63879700  1
  O  O75  1  0.88654000  0.25157700  0.36120300  1
  O  O76  1  0.73643700  0.93591400  0.51913700  1
  O  O77  1  0.26356300  0.06408600  0.48086300  1
  O  O78  1  0.23643700  0.56408600  0.48086300  1
  O  O79  1  0.76356300  0.43591400  0.51913700  1
