# generated using pymatgen
data_NiSe2
_symmetry_space_group_name_H-M   'P 1'
_cell_length_a   3.71341300
_cell_length_b   4.90095200
_cell_length_c   5.97545500
_cell_angle_alpha   90.00000000
_cell_angle_beta   90.00000000
_cell_angle_gamma   90.00000000
_symmetry_Int_Tables_number   1
_chemical_formula_structural   NiSe2
_chemical_formula_sum   'Ni2 Se4'
_cell_volume   108.74885241
_cell_formula_units_Z   2
loop_
 _symmetry_equiv_pos_site_id
 _symmetry_equiv_pos_as_xyz
  1  'x, y, z'
loop_
 _atom_site_type_symbol
 _atom_site_label
 _atom_site_symmetry_multiplicity
 _atom_site_fract_x
 _atom_site_fract_y
 _atom_site_fract_z
 _atom_site_occupancy
  Ni  Ni0  1  0.50000000  0.50000000  0.50000000  1
  Ni  Ni1  1  0.00000000  0.00000000  0.00000000  1
  Se  Se2  1  0.50000000  0.29052900  0.87373300  1
  Se  Se3  1  0.50000000  0.70947100  0.12626700  1
  Se  Se4  1  0.00000000  0.20947100  0.37373300  1
  Se  Se5  1  0.00000000  0.79052900  0.62626700  1
