# generated using pymatgen
data_Y(Co2B)6
_symmetry_space_group_name_H-M   'P 1'
_cell_length_a   5.96016533
_cell_length_b   5.96016533
_cell_length_c   5.96016513
_cell_angle_alpha   103.98890033
_cell_angle_beta   103.98890033
_cell_angle_gamma   103.98890276
_symmetry_Int_Tables_number   1
_chemical_formula_structural   Y(Co2B)6
_chemical_formula_sum   'Y1 Co12 B6'
_cell_volume   188.95227615
_cell_formula_units_Z   1
loop_
 _symmetry_equiv_pos_site_id
 _symmetry_equiv_pos_as_xyz
  1  'x, y, z'
loop_
 _atom_site_type_symbol
 _atom_site_label
 _atom_site_symmetry_multiplicity
 _atom_site_fract_x
 _atom_site_fract_y
 _atom_site_fract_z
 _atom_site_occupancy
  Y  Y0  1  0.00000000  0.00000000  0.00000000  1
  Co  Co1  1  0.13240300  0.86759700  0.50000000  1
  Co  Co2  1  0.50000000  0.13240300  0.86759700  1
  Co  Co3  1  0.86759700  0.50000000  0.13240300  1
  Co  Co4  1  0.50000000  0.86759700  0.13240300  1
  Co  Co5  1  0.13240300  0.50000000  0.86759700  1
  Co  Co6  1  0.86759700  0.13240300  0.50000000  1
  Co  Co7  1  0.54349500  0.81392500  0.54349500  1
  Co  Co8  1  0.54349500  0.54349500  0.81392500  1
  Co  Co9  1  0.81392500  0.54349500  0.54349500  1
  Co  Co10  1  0.45650500  0.18607500  0.45650500  1
  Co  Co11  1  0.45650500  0.45650500  0.18607500  1
  Co  Co12  1  0.18607500  0.45650500  0.45650500  1
  B  B13  1  0.76726700  0.32390600  0.76726700  1
  B  B14  1  0.76726700  0.76726700  0.32390600  1
  B  B15  1  0.32390600  0.76726700  0.76726700  1
  B  B16  1  0.23273300  0.67609400  0.23273300  1
  B  B17  1  0.23273300  0.23273300  0.67609400  1
  B  B18  1  0.67609400  0.23273300  0.23273300  1
