# generated using pymatgen
data_Tb14(P8Ir11)3
_symmetry_space_group_name_H-M   'P 1'
_cell_length_a   12.03746646
_cell_length_b   12.03746646
_cell_length_c   26.82213765
_cell_angle_alpha   68.46793398
_cell_angle_beta   68.46793398
_cell_angle_gamma   18.88260359
_symmetry_Int_Tables_number   1
_chemical_formula_structural   Tb14(P8Ir11)3
_chemical_formula_sum   'Tb14 P24 Ir33'
_cell_volume   1167.50253882
_cell_formula_units_Z   1
loop_
 _symmetry_equiv_pos_site_id
 _symmetry_equiv_pos_as_xyz
  1  'x, y, z'
loop_
 _atom_site_type_symbol
 _atom_site_label
 _atom_site_symmetry_multiplicity
 _atom_site_fract_x
 _atom_site_fract_y
 _atom_site_fract_z
 _atom_site_occupancy
  Tb  Tb0  1  0.58095800  0.58095800  0.37267800  1
  Tb  Tb1  1  0.58288400  0.58288400  0.87260500  1
  Tb  Tb2  1  0.41700700  0.41700700  0.12745400  1
  Tb  Tb3  1  0.41733000  0.41733000  0.62733900  1
  Tb  Tb4  1  0.77017700  0.77017700  0.34622800  1
  Tb  Tb5  1  0.76619000  0.76619000  0.84416300  1
  Tb  Tb6  1  0.23422600  0.23422600  0.15575200  1
  Tb  Tb7  1  0.23408600  0.23408600  0.65549800  1
  Tb  Tb8  1  0.49864900  0.49864900  0.25151200  1
  Tb  Tb9  1  0.49996200  0.49996200  0.74996100  1
  Tb  Tb10  1  0.63167700  0.63167700  0.00160200  1
  Tb  Tb11  1  0.63301400  0.63301400  0.50109000  1
  Tb  Tb12  1  0.36918600  0.36918600  0.49660400  1
  Tb  Tb13  1  0.36854300  0.36854300  0.99829800  1
  P  P14  1  0.63315100  0.63315100  0.21112500  1
  P  P15  1  0.63395800  0.63395800  0.71060700  1
  P  P16  1  0.36661400  0.36661400  0.28975900  1
  P  P17  1  0.36612500  0.36612500  0.78935100  1
  P  P18  1  0.11484300  0.11484300  0.08445500  1
  P  P19  1  0.11527000  0.11527000  0.58421600  1
  P  P20  1  0.88230300  0.88230300  0.41315900  1
  P  P21  1  0.88508800  0.88508800  0.91574200  1
  P  P22  1  0.98561500  0.98561500  0.16594900  1
  P  P23  1  0.98525900  0.98525900  0.66540600  1
  P  P24  1  0.01152400  0.01152400  0.33733300  1
  P  P25  1  0.01482300  0.01482300  0.83452700  1
  P  P26  1  0.76608200  0.76608200  0.05823400  1
  P  P27  1  0.76668000  0.76668000  0.55717000  1
  P  P28  1  0.23928800  0.23928800  0.44171500  1
  P  P29  1  0.23377700  0.23377700  0.94197900  1
  P  P30  1  0.93807500  0.93807500  0.03776000  1
  P  P31  1  0.93849600  0.93849600  0.53656000  1
  P  P32  1  0.06386900  0.06386900  0.46189100  1
  P  P33  1  0.06166000  0.06166000  0.96258200  1
  P  P34  1  0.81116400  0.81116400  0.18950100  1
  P  P35  1  0.81192800  0.81192800  0.68900000  1
  P  P36  1  0.18813000  0.18813000  0.31042400  1
  P  P37  1  0.18806900  0.18806900  0.81095700  1
  Ir  Ir38  1  0.77953300  0.77953300  0.46203700  1
  Ir  Ir39  1  0.78081500  0.78081500  0.96386900  1
  Ir  Ir40  1  0.21911500  0.21911500  0.03623500  1
  Ir  Ir41  1  0.22072700  0.22072700  0.53713300  1
  Ir  Ir42  1  0.09088400  0.09088400  0.17568100  1
  Ir  Ir43  1  0.09099500  0.09099500  0.67538600  1
  Ir  Ir44  1  0.90541000  0.90541000  0.32175200  1
  Ir  Ir45  1  0.90867000  0.90867000  0.82477900  1
  Ir  Ir46  1  0.44893000  0.44893000  0.37362000  1
  Ir  Ir47  1  0.45879500  0.45879500  0.86946000  1
  Ir  Ir48  1  0.54105700  0.54105700  0.13076500  1
  Ir  Ir49  1  0.54118500  0.54118500  0.63046300  1
  Ir  Ir50  1  0.16605700  0.16605700  0.40311500  1
  Ir  Ir51  1  0.16164700  0.16164700  0.90393400  1
  Ir  Ir52  1  0.83802500  0.83802500  0.09644800  1
  Ir  Ir53  1  0.83856800  0.83856800  0.59578000  1
  Ir  Ir54  1  0.11063100  0.11063100  0.27347700  1
  Ir  Ir55  1  0.11197700  0.11197700  0.77182400  1
  Ir  Ir56  1  0.88815500  0.88815500  0.22653300  1
  Ir  Ir57  1  0.88806300  0.88806300  0.72800900  1
  Ir  Ir58  1  0.70546300  0.70546300  0.25705900  1
  Ir  Ir59  1  0.70455500  0.70455500  0.75749400  1
  Ir  Ir60  1  0.29646100  0.29646100  0.24362900  1
  Ir  Ir61  1  0.29523600  0.29523600  0.74287700  1
  Ir  Ir62  1  0.50023900  0.50023900  0.99983800  1
  Ir  Ir63  1  0.50152900  0.50152900  0.49906900  1
  Ir  Ir64  1  0.97422300  0.97422300  0.43658600  1
  Ir  Ir65  1  0.97288200  0.97288200  0.93788200  1
  Ir  Ir66  1  0.02716700  0.02716700  0.06209400  1
  Ir  Ir67  1  0.02709300  0.02709300  0.56205400  1
  Ir  Ir68  1  0.33437700  0.33437700  0.88711900  1
  Ir  Ir69  1  0.66536900  0.66536900  0.11319700  1
  Ir  Ir70  1  0.66560900  0.66560900  0.61299200  1
