# generated using pymatgen
data_PrCuS2
_symmetry_space_group_name_H-M   'P 1'
_cell_length_a   7.25073700
_cell_length_b   6.54688700
_cell_length_c   6.92018913
_cell_angle_alpha   82.40319275
_cell_angle_beta   90.00000000
_cell_angle_gamma   90.00000000
_symmetry_Int_Tables_number   1
_chemical_formula_structural   PrCuS2
_chemical_formula_sum   'Pr4 Cu4 S8'
_cell_volume   325.61641646
_cell_formula_units_Z   4
loop_
 _symmetry_equiv_pos_site_id
 _symmetry_equiv_pos_as_xyz
  1  'x, y, z'
loop_
 _atom_site_type_symbol
 _atom_site_label
 _atom_site_symmetry_multiplicity
 _atom_site_fract_x
 _atom_site_fract_y
 _atom_site_fract_z
 _atom_site_occupancy
  Pr  Pr0  1  0.94931800  0.80950800  0.79977700  1
  Pr  Pr1  1  0.44931800  0.19049200  0.70022300  1
  Pr  Pr2  1  0.05068200  0.19049200  0.20022300  1
  Pr  Pr3  1  0.55068200  0.80950800  0.29977700  1
  Cu  Cu4  1  0.66472800  0.42688600  0.04805900  1
  Cu  Cu5  1  0.33527200  0.57311400  0.95194100  1
  Cu  Cu6  1  0.16472800  0.57311400  0.45194100  1
  Cu  Cu7  1  0.83527200  0.42688600  0.54805900  1
  S  S8  1  0.72579700  0.08700100  0.00119300  1
  S  S9  1  0.22579700  0.91299900  0.49880700  1
  S  S10  1  0.27420300  0.91299900  0.99880700  1
  S  S11  1  0.77420300  0.08700100  0.50119300  1
  S  S12  1  0.11467800  0.41078900  0.77691200  1
  S  S13  1  0.38532200  0.41078900  0.27691200  1
  S  S14  1  0.88532200  0.58921100  0.22308800  1
  S  S15  1  0.61467800  0.58921100  0.72308800  1
