# generated using pymatgen
data_CeGaCo
_symmetry_space_group_name_H-M   'P 1'
_cell_length_a   5.85561817
_cell_length_b   5.85561817
_cell_length_c   4.74269349
_cell_angle_alpha   80.56636697
_cell_angle_beta   80.56636697
_cell_angle_gamma   43.67284551
_symmetry_Int_Tables_number   1
_chemical_formula_structural   CeGaCo
_chemical_formula_sum   'Ce2 Ga2 Co2'
_cell_volume   110.53023404
_cell_formula_units_Z   2
loop_
 _symmetry_equiv_pos_site_id
 _symmetry_equiv_pos_as_xyz
  1  'x, y, z'
loop_
 _atom_site_type_symbol
 _atom_site_label
 _atom_site_symmetry_multiplicity
 _atom_site_fract_x
 _atom_site_fract_y
 _atom_site_fract_z
 _atom_site_occupancy
  Ce  Ce0  1  0.12654100  0.12654100  0.68563500  1
  Ce  Ce1  1  0.87345900  0.87345900  0.31436500  1
  Ga  Ga2  1  0.41266300  0.41266300  0.80870900  1
  Ga  Ga3  1  0.58733700  0.58733700  0.19129100  1
  Co  Co4  1  0.19450600  0.19450600  0.13791100  1
  Co  Co5  1  0.80549400  0.80549400  0.86208900  1
