# generated using pymatgen
data_La2Be2GeO7
_symmetry_space_group_name_H-M   'P 1'
_cell_length_a   7.72548200
_cell_length_b   7.72548200
_cell_length_c   4.99174900
_cell_angle_alpha   90.00000000
_cell_angle_beta   90.00000000
_cell_angle_gamma   90.00000000
_symmetry_Int_Tables_number   1
_chemical_formula_structural   La2Be2GeO7
_chemical_formula_sum   'La4 Be4 Ge2 O14'
_cell_volume   297.92291563
_cell_formula_units_Z   2
loop_
 _symmetry_equiv_pos_site_id
 _symmetry_equiv_pos_as_xyz
  1  'x, y, z'
loop_
 _atom_site_type_symbol
 _atom_site_label
 _atom_site_symmetry_multiplicity
 _atom_site_fract_x
 _atom_site_fract_y
 _atom_site_fract_z
 _atom_site_occupancy
  La  La0  1  0.66088600  0.83911400  0.50146600  1
  La  La1  1  0.16088600  0.66088600  0.49853400  1
  La  La2  1  0.83911400  0.33911400  0.49853400  1
  La  La3  1  0.33911400  0.16088600  0.50146600  1
  Be  Be4  1  0.36693000  0.86693000  0.03781100  1
  Be  Be5  1  0.86693000  0.63307000  0.96218900  1
  Be  Be6  1  0.63307000  0.13307000  0.03781100  1
  Be  Be7  1  0.13307000  0.36693000  0.96218900  1
  Ge  Ge8  1  0.50000000  0.50000000  0.00000000  1
  Ge  Ge9  1  0.00000000  0.00000000  0.00000000  1
  O  O10  1  0.92181600  0.82619400  0.80128000  1
  O  O11  1  0.17380600  0.92181600  0.19872000  1
  O  O12  1  0.57818400  0.32619400  0.19872000  1
  O  O13  1  0.42181600  0.67380600  0.19872000  1
  O  O14  1  0.32619400  0.42181600  0.80128000  1
  O  O15  1  0.67380600  0.57818400  0.80128000  1
  O  O16  1  0.00000000  0.50000000  0.83376600  1
  O  O17  1  0.50000000  0.00000000  0.16623400  1
  O  O18  1  0.14261300  0.35738700  0.28090300  1
  O  O19  1  0.64261300  0.14261300  0.71909700  1
  O  O20  1  0.35738700  0.85738700  0.71909700  1
  O  O21  1  0.85738700  0.64261300  0.28090300  1
  O  O22  1  0.07818400  0.17380600  0.80128000  1
  O  O23  1  0.82619400  0.07818400  0.19872000  1
