# generated using pymatgen
data_Sr(TbS2)2
_symmetry_space_group_name_H-M   'P 1'
_cell_length_a   4.01790500
_cell_length_b   12.11005200
_cell_length_c   14.44611800
_cell_angle_alpha   90.00000000
_cell_angle_beta   90.00000000
_cell_angle_gamma   90.00000000
_symmetry_Int_Tables_number   1
_chemical_formula_structural   Sr(TbS2)2
_chemical_formula_sum   'Sr4 Tb8 S16'
_cell_volume   702.90531943
_cell_formula_units_Z   4
loop_
 _symmetry_equiv_pos_site_id
 _symmetry_equiv_pos_as_xyz
  1  'x, y, z'
loop_
 _atom_site_type_symbol
 _atom_site_label
 _atom_site_symmetry_multiplicity
 _atom_site_fract_x
 _atom_site_fract_y
 _atom_site_fract_z
 _atom_site_occupancy
  Sr  Sr0  1  0.25000000  0.76028300  0.33610100  1
  Sr  Sr1  1  0.25000000  0.26028300  0.16389900  1
  Sr  Sr2  1  0.75000000  0.23971700  0.66389900  1
  Sr  Sr3  1  0.75000000  0.73971700  0.83610100  1
  Tb  Tb4  1  0.25000000  0.43549600  0.38976200  1
  Tb  Tb5  1  0.25000000  0.93549600  0.11023800  1
  Tb  Tb6  1  0.75000000  0.56450400  0.61023800  1
  Tb  Tb7  1  0.75000000  0.06450400  0.88976200  1
  Tb  Tb8  1  0.25000000  0.41628600  0.90025200  1
  Tb  Tb9  1  0.25000000  0.91628600  0.59974800  1
  Tb  Tb10  1  0.75000000  0.58371400  0.09974800  1
  Tb  Tb11  1  0.75000000  0.08371400  0.40025200  1
  S  S12  1  0.25000000  0.20429800  0.82548100  1
  S  S13  1  0.25000000  0.70429800  0.67451900  1
  S  S14  1  0.75000000  0.79570200  0.17451900  1
  S  S15  1  0.75000000  0.29570200  0.32548100  1
  S  S16  1  0.25000000  0.12922600  0.52938600  1
  S  S17  1  0.25000000  0.62922600  0.97061400  1
  S  S18  1  0.75000000  0.87077400  0.47061400  1
  S  S19  1  0.75000000  0.37077400  0.02938600  1
  S  S20  1  0.25000000  0.02697500  0.28431400  1
  S  S21  1  0.25000000  0.52697500  0.21568600  1
  S  S22  1  0.75000000  0.97302500  0.71568600  1
  S  S23  1  0.75000000  0.47302500  0.78431400  1
  S  S24  1  0.25000000  0.41228300  0.57803000  1
  S  S25  1  0.25000000  0.91228300  0.92197000  1
  S  S26  1  0.75000000  0.58771700  0.42197000  1
  S  S27  1  0.75000000  0.08771700  0.07803000  1
