# generated using pymatgen
data_CsNd(MoO4)2
_symmetry_space_group_name_H-M   'P 1'
_cell_length_a   5.17514000
_cell_length_b   8.52194800
_cell_length_c   9.95107816
_cell_angle_alpha   88.22977577
_cell_angle_beta   90.00000000
_cell_angle_gamma   90.00000000
_symmetry_Int_Tables_number   1
_chemical_formula_structural   CsNd(MoO4)2
_chemical_formula_sum   'Cs2 Nd2 Mo4 O16'
_cell_volume   438.65572658
_cell_formula_units_Z   2
loop_
 _symmetry_equiv_pos_site_id
 _symmetry_equiv_pos_as_xyz
  1  'x, y, z'
loop_
 _atom_site_type_symbol
 _atom_site_label
 _atom_site_symmetry_multiplicity
 _atom_site_fract_x
 _atom_site_fract_y
 _atom_site_fract_z
 _atom_site_occupancy
  Cs  Cs0  1  0.46811200  0.75000000  0.50000000  1
  Cs  Cs1  1  0.53188800  0.25000000  0.50000000  1
  Nd  Nd2  1  0.50440500  0.75000000  0.00000000  1
  Nd  Nd3  1  0.49559500  0.25000000  0.00000000  1
  Mo  Mo4  1  0.97758200  0.49212900  0.19339900  1
  Mo  Mo5  1  0.02241800  0.50787100  0.80660100  1
  Mo  Mo6  1  0.97758200  0.00787100  0.80660100  1
  Mo  Mo7  1  0.02241800  0.99212900  0.19339900  1
  O  O8  1  0.88832000  0.98401300  0.35497400  1
  O  O9  1  0.11168000  0.01598700  0.64502600  1
  O  O10  1  0.88832000  0.51598700  0.64502600  1
  O  O11  1  0.11168000  0.48401300  0.35497400  1
  O  O12  1  0.76651300  0.32408400  0.18221900  1
  O  O13  1  0.23348700  0.67591600  0.81778100  1
  O  O14  1  0.76651300  0.17591600  0.81778100  1
  O  O15  1  0.23348700  0.82408400  0.18221900  1
  O  O16  1  0.75399900  0.99677700  0.06892700  1
  O  O17  1  0.24600100  0.00322300  0.93107300  1
  O  O18  1  0.75399900  0.50322300  0.93107300  1
  O  O19  1  0.24600100  0.49677700  0.06892700  1
  O  O20  1  0.76631800  0.66111500  0.18475500  1
  O  O21  1  0.23368200  0.33888500  0.81524500  1
  O  O22  1  0.76631800  0.83888500  0.81524500  1
  O  O23  1  0.23368200  0.16111500  0.18475500  1
