# generated using pymatgen
data_Ba3Si4
_symmetry_space_group_name_H-M   'P 1'
_cell_length_a   8.58223300
_cell_length_b   8.58223300
_cell_length_c   11.96361000
_cell_angle_alpha   90.00000000
_cell_angle_beta   90.00000000
_cell_angle_gamma   90.00000000
_symmetry_Int_Tables_number   1
_chemical_formula_structural   Ba3Si4
_chemical_formula_sum   'Ba12 Si16'
_cell_volume   881.17638382
_cell_formula_units_Z   4
loop_
 _symmetry_equiv_pos_site_id
 _symmetry_equiv_pos_as_xyz
  1  'x, y, z'
loop_
 _atom_site_type_symbol
 _atom_site_label
 _atom_site_symmetry_multiplicity
 _atom_site_fract_x
 _atom_site_fract_y
 _atom_site_fract_z
 _atom_site_occupancy
  Ba  Ba0  1  0.50000000  0.00000000  0.75000000  1
  Ba  Ba1  1  0.50000000  0.00000000  0.25000000  1
  Ba  Ba2  1  0.00000000  0.50000000  0.75000000  1
  Ba  Ba3  1  0.00000000  0.50000000  0.25000000  1
  Ba  Ba4  1  0.00000000  0.00000000  0.83092800  1
  Ba  Ba5  1  0.50000000  0.50000000  0.33092800  1
  Ba  Ba6  1  0.50000000  0.50000000  0.66907200  1
  Ba  Ba7  1  0.00000000  0.00000000  0.16907200  1
  Ba  Ba8  1  0.66386300  0.66386300  0.00000000  1
  Ba  Ba9  1  0.83613700  0.16386300  0.50000000  1
  Ba  Ba10  1  0.16386300  0.83613700  0.50000000  1
  Ba  Ba11  1  0.33613700  0.33613700  0.00000000  1
  Si  Si12  1  0.80049300  0.80049300  0.64438000  1
  Si  Si13  1  0.19950700  0.19950700  0.64438000  1
  Si  Si14  1  0.80049300  0.80049300  0.35562000  1
  Si  Si15  1  0.30049300  0.69950700  0.14438000  1
  Si  Si16  1  0.69950700  0.30049300  0.14438000  1
  Si  Si17  1  0.69950700  0.30049300  0.85562000  1
  Si  Si18  1  0.30049300  0.69950700  0.85562000  1
  Si  Si19  1  0.19950700  0.19950700  0.35562000  1
  Si  Si20  1  0.69937100  0.10071000  0.00000000  1
  Si  Si21  1  0.30062900  0.89929000  0.00000000  1
  Si  Si22  1  0.10071000  0.69937100  0.00000000  1
  Si  Si23  1  0.60071000  0.80062900  0.50000000  1
  Si  Si24  1  0.89929000  0.30062900  0.00000000  1
  Si  Si25  1  0.19937100  0.39929000  0.50000000  1
  Si  Si26  1  0.80062900  0.60071000  0.50000000  1
  Si  Si27  1  0.39929000  0.19937100  0.50000000  1
