# generated using pymatgen
data_Ca3Pd
_symmetry_space_group_name_H-M   'P 1'
_cell_length_a   6.59950100
_cell_length_b   7.66227600
_cell_length_c   9.81325400
_cell_angle_alpha   90.00000000
_cell_angle_beta   90.00000000
_cell_angle_gamma   90.00000000
_symmetry_Int_Tables_number   1
_chemical_formula_structural   Ca3Pd
_chemical_formula_sum   'Ca12 Pd4'
_cell_volume   496.22875926
_cell_formula_units_Z   4
loop_
 _symmetry_equiv_pos_site_id
 _symmetry_equiv_pos_as_xyz
  1  'x, y, z'
loop_
 _atom_site_type_symbol
 _atom_site_label
 _atom_site_symmetry_multiplicity
 _atom_site_fract_x
 _atom_site_fract_y
 _atom_site_fract_z
 _atom_site_occupancy
  Ca  Ca0  1  0.33751000  0.67221300  0.06548400  1
  Ca  Ca1  1  0.16249000  0.17221300  0.43451600  1
  Ca  Ca2  1  0.66249000  0.32778700  0.56548400  1
  Ca  Ca3  1  0.83751000  0.82778700  0.93451600  1
  Ca  Ca4  1  0.66249000  0.32778700  0.93451600  1
  Ca  Ca5  1  0.83751000  0.82778700  0.56548400  1
  Ca  Ca6  1  0.33751000  0.67221300  0.43451600  1
  Ca  Ca7  1  0.16249000  0.17221300  0.06548400  1
  Ca  Ca8  1  0.86181400  0.53898900  0.25000000  1
  Ca  Ca9  1  0.63818600  0.03898900  0.25000000  1
  Ca  Ca10  1  0.13818600  0.46101100  0.75000000  1
  Ca  Ca11  1  0.36181400  0.96101100  0.75000000  1
  Pd  Pd12  1  0.05114900  0.87954900  0.25000000  1
  Pd  Pd13  1  0.44885100  0.37954900  0.25000000  1
  Pd  Pd14  1  0.94885100  0.12045100  0.75000000  1
  Pd  Pd15  1  0.55114900  0.62045100  0.75000000  1
