# generated using pymatgen
data_CsInTe3O8
_symmetry_space_group_name_H-M   'P 1'
_cell_length_a   5.92454600
_cell_length_b   7.95190671
_cell_length_c   11.49428439
_cell_angle_alpha   100.69879482
_cell_angle_beta   89.38906623
_cell_angle_gamma   110.27752326
_symmetry_Int_Tables_number   1
_chemical_formula_structural   CsInTe3O8
_chemical_formula_sum   'Cs2 In2 Te6 O16'
_cell_volume   498.27507420
_cell_formula_units_Z   2
loop_
 _symmetry_equiv_pos_site_id
 _symmetry_equiv_pos_as_xyz
  1  'x, y, z'
loop_
 _atom_site_type_symbol
 _atom_site_label
 _atom_site_symmetry_multiplicity
 _atom_site_fract_x
 _atom_site_fract_y
 _atom_site_fract_z
 _atom_site_occupancy
  Cs  Cs0  1  0.81900800  0.11013700  0.16142900  1
  Cs  Cs1  1  0.18099200  0.88986300  0.83857100  1
  In  In2  1  0.50000000  0.50000000  0.00000000  1
  In  In3  1  0.00000000  0.50000000  0.50000000  1
  Te  Te4  1  0.21826400  0.98818900  0.42080000  1
  Te  Te5  1  0.78173600  0.01181100  0.57920000  1
  Te  Te6  1  0.07636100  0.67484600  0.15260300  1
  Te  Te7  1  0.92363900  0.32515400  0.84739700  1
  Te  Te8  1  0.51373900  0.52388700  0.33465400  1
  Te  Te9  1  0.48626100  0.47611300  0.66534600  1
  O  O10  1  0.18440000  0.74336600  0.42283100  1
  O  O11  1  0.81560000  0.25663400  0.57716900  1
  O  O12  1  0.23217100  0.92559300  0.23406400  1
  O  O13  1  0.76782900  0.07440700  0.76593600  1
  O  O14  1  0.88524200  0.96374800  0.39781000  1
  O  O15  1  0.11475800  0.03625200  0.60219000  1
  O  O16  1  0.29436500  0.68672500  0.03020600  1
  O  O17  1  0.70563500  0.31327500  0.96979400  1
  O  O18  1  0.83620400  0.72221700  0.07106200  1
  O  O19  1  0.16379600  0.27778300  0.92893800  1
  O  O20  1  0.40645300  0.42332100  0.17322800  1
  O  O21  1  0.59354700  0.57667900  0.82677200  1
  O  O22  1  0.23981000  0.37204500  0.40222800  1
  O  O23  1  0.76019000  0.62795500  0.59777200  1
  O  O24  1  0.72553900  0.39597100  0.35134800  1
  O  O25  1  0.27446100  0.60402900  0.64865200  1
