# generated using pymatgen
data_Lu2InAu2
_symmetry_space_group_name_H-M   'P 1'
_cell_length_a   7.93960500
_cell_length_b   7.93960500
_cell_length_c   3.59643100
_cell_angle_alpha   90.00000000
_cell_angle_beta   90.00000000
_cell_angle_gamma   90.00000000
_symmetry_Int_Tables_number   1
_chemical_formula_structural   Lu2InAu2
_chemical_formula_sum   'Lu4 In2 Au4'
_cell_volume   226.70939898
_cell_formula_units_Z   2
loop_
 _symmetry_equiv_pos_site_id
 _symmetry_equiv_pos_as_xyz
  1  'x, y, z'
loop_
 _atom_site_type_symbol
 _atom_site_label
 _atom_site_symmetry_multiplicity
 _atom_site_fract_x
 _atom_site_fract_y
 _atom_site_fract_z
 _atom_site_occupancy
  Lu  Lu0  1  0.16860000  0.33140000  0.00000000  1
  Lu  Lu1  1  0.83140000  0.66860000  0.00000000  1
  Lu  Lu2  1  0.66860000  0.16860000  0.00000000  1
  Lu  Lu3  1  0.33140000  0.83140000  0.00000000  1
  In  In4  1  0.00000000  0.00000000  0.50000000  1
  In  In5  1  0.50000000  0.50000000  0.50000000  1
  Au  Au6  1  0.37054300  0.12945700  0.50000000  1
  Au  Au7  1  0.62945700  0.87054300  0.50000000  1
  Au  Au8  1  0.87054300  0.37054300  0.50000000  1
  Au  Au9  1  0.12945700  0.62945700  0.50000000  1
