# generated using pymatgen
data_Sm5Bi3
_symmetry_space_group_name_H-M   'P 1'
_cell_length_a   6.49301500
_cell_length_b   9.40185451
_cell_length_c   9.39357713
_cell_angle_alpha   120.02915270
_cell_angle_beta   90.00000000
_cell_angle_gamma   90.00000000
_symmetry_Int_Tables_number   1
_chemical_formula_structural   Sm5Bi3
_chemical_formula_sum   'Sm10 Bi6'
_cell_volume   496.47103476
_cell_formula_units_Z   2
loop_
 _symmetry_equiv_pos_site_id
 _symmetry_equiv_pos_as_xyz
  1  'x, y, z'
loop_
 _atom_site_type_symbol
 _atom_site_label
 _atom_site_symmetry_multiplicity
 _atom_site_fract_x
 _atom_site_fract_y
 _atom_site_fract_z
 _atom_site_occupancy
  Sm  Sm0  1  0.50000000  0.33332300  0.66664700  1
  Sm  Sm1  1  0.50000000  0.66667600  0.33335300  1
  Sm  Sm2  1  0.00000000  0.66667700  0.33335300  1
  Sm  Sm3  1  0.00000000  0.33332400  0.66664700  1
  Sm  Sm4  1  0.74999900  0.24642800  0.00000000  1
  Sm  Sm5  1  0.75000000  0.75369800  0.75359600  1
  Sm  Sm6  1  0.75000000  0.00010200  0.24640400  1
  Sm  Sm7  1  0.24999900  0.75357200  0.00000000  1
  Sm  Sm8  1  0.25000000  0.24630200  0.24640400  1
  Sm  Sm9  1  0.25000000  0.99989800  0.75359600  1
  Bi  Bi10  1  0.74999300  0.61229300  0.00000000  1
  Bi  Bi11  1  0.75000400  0.38778600  0.38777700  1
  Bi  Bi12  1  0.75000400  0.00000900  0.61222300  1
  Bi  Bi13  1  0.24999300  0.38770700  0.00000000  1
  Bi  Bi14  1  0.25000400  0.61221400  0.61222300  1
  Bi  Bi15  1  0.25000400  0.99999100  0.38777700  1
