# generated using pymatgen
data_In2Ni3Se2
_symmetry_space_group_name_H-M   'P 1'
_cell_length_a   5.74827665
_cell_length_b   5.74827665
_cell_length_c   5.74827613
_cell_angle_alpha   56.98475047
_cell_angle_beta   56.98475047
_cell_angle_gamma   56.98474432
_symmetry_Int_Tables_number   1
_chemical_formula_structural   In2Ni3Se2
_chemical_formula_sum   'In2 Ni3 Se2'
_cell_volume   124.96842944
_cell_formula_units_Z   1
loop_
 _symmetry_equiv_pos_site_id
 _symmetry_equiv_pos_as_xyz
  1  'x, y, z'
loop_
 _atom_site_type_symbol
 _atom_site_label
 _atom_site_symmetry_multiplicity
 _atom_site_fract_x
 _atom_site_fract_y
 _atom_site_fract_z
 _atom_site_occupancy
  In  In0  1  0.00000000  0.00000000  0.00000000  1
  In  In1  1  0.50000000  0.50000000  0.50000000  1
  Ni  Ni2  1  0.00000000  0.00000000  0.50000000  1
  Ni  Ni3  1  0.50000000  0.00000000  0.00000000  1
  Ni  Ni4  1  0.00000000  0.50000000  0.00000000  1
  Se  Se5  1  0.71824900  0.71824900  0.71824900  1
  Se  Se6  1  0.28175100  0.28175100  0.28175100  1
