# generated using pymatgen
data_KMo3(PO7)2
_symmetry_space_group_name_H-M   'P 1'
_cell_length_a   6.50784900
_cell_length_b   8.95416969
_cell_length_c   10.81614463
_cell_angle_alpha   111.11256051
_cell_angle_beta   90.00000000
_cell_angle_gamma   90.00000000
_symmetry_Int_Tables_number   1
_chemical_formula_structural   KMo3(PO7)2
_chemical_formula_sum   'K2 Mo6 P4 O28'
_cell_volume   587.97456448
_cell_formula_units_Z   2
loop_
 _symmetry_equiv_pos_site_id
 _symmetry_equiv_pos_as_xyz
  1  'x, y, z'
loop_
 _atom_site_type_symbol
 _atom_site_label
 _atom_site_symmetry_multiplicity
 _atom_site_fract_x
 _atom_site_fract_y
 _atom_site_fract_z
 _atom_site_occupancy
  K  K0  1  0.24999900  0.51141200  0.74764100  1
  K  K1  1  0.75000000  0.48858800  0.25236000  1
  Mo  Mo2  1  0.24999900  0.84046600  0.37793000  1
  Mo  Mo3  1  0.75000000  0.15953400  0.62207000  1
  Mo  Mo4  1  0.24999900  0.23994400  0.32579500  1
  Mo  Mo5  1  0.75000000  0.76005700  0.67420500  1
  Mo  Mo6  1  0.24999900  0.22733300  0.00474800  1
  Mo  Mo7  1  0.75000000  0.77266700  0.99525300  1
  P  P8  1  0.75000000  0.14495700  0.93516000  1
  P  P9  1  0.24999900  0.85504200  0.06484000  1
  P  P10  1  0.75000000  0.11117400  0.30125700  1
  P  P11  1  0.24999900  0.88882700  0.69874400  1
  O  O12  1  0.24999900  0.94738900  0.58014100  1
  O  O13  1  0.75000000  0.05261100  0.41986000  1
  O  O14  1  0.24999900  0.79396800  0.18101200  1
  O  O15  1  0.75000000  0.20603300  0.81898700  1
  O  O16  1  0.53477000  0.27526200  0.62997500  1
  O  O17  1  0.03477000  0.72473700  0.37002500  1
  O  O18  1  0.46522900  0.72473700  0.37002500  1
  O  O19  1  0.96522900  0.27526200  0.62997500  1
  O  O20  1  0.06140000  0.77988600  0.69146800  1
  O  O21  1  0.56140100  0.22011400  0.30853300  1
  O  O22  1  0.93860000  0.22011400  0.30853300  1
  O  O23  1  0.43860000  0.77988600  0.69146800  1
  O  O24  1  0.75000000  0.61769900  0.05206800  1
  O  O25  1  0.24999900  0.38230100  0.94793200  1
  O  O26  1  0.75000000  0.96506500  0.17211000  1
  O  O27  1  0.24999900  0.03493500  0.82789000  1
  O  O28  1  0.43852900  0.78566300  0.97556300  1
  O  O29  1  0.93853000  0.21433600  0.02443600  1
  O  O30  1  0.56147100  0.21433600  0.02443600  1
  O  O31  1  0.06147100  0.78566300  0.97556300  1
  O  O32  1  0.24999900  0.06570900  0.38488000  1
  O  O33  1  0.24999900  0.34314700  0.20110500  1
  O  O34  1  0.75000000  0.96020600  0.88621800  1
  O  O35  1  0.24999900  0.03979400  0.11378200  1
  O  O36  1  0.75000000  0.59516900  0.53137800  1
  O  O37  1  0.24999900  0.40483100  0.46862100  1
  O  O38  1  0.75000000  0.93429200  0.61511900  1
  O  O39  1  0.75000000  0.65685300  0.79889500  1
