# generated using pymatgen
data_Tm3(P3Pd10)2
_symmetry_space_group_name_H-M   'P 1'
_cell_length_a   8.65407342
_cell_length_b   8.65407342
_cell_length_c   8.65407342
_cell_angle_alpha   60.00000000
_cell_angle_beta   60.00000000
_cell_angle_gamma   60.00000000
_symmetry_Int_Tables_number   1
_chemical_formula_structural   Tm3(P3Pd10)2
_chemical_formula_sum   'Tm3 P6 Pd20'
_cell_volume   458.29669807
_cell_formula_units_Z   1
loop_
 _symmetry_equiv_pos_site_id
 _symmetry_equiv_pos_as_xyz
  1  'x, y, z'
loop_
 _atom_site_type_symbol
 _atom_site_label
 _atom_site_symmetry_multiplicity
 _atom_site_fract_x
 _atom_site_fract_y
 _atom_site_fract_z
 _atom_site_occupancy
  Tm  Tm0  1  0.25000000  0.25000000  0.25000000  1
  Tm  Tm1  1  0.75000000  0.75000000  0.75000000  1
  Tm  Tm2  1  0.00000000  0.00000000  0.00000000  1
  P  P3  1  0.73543800  0.26456200  0.26456200  1
  P  P4  1  0.26456200  0.73543800  0.73543800  1
  P  P5  1  0.26456200  0.73543800  0.26456200  1
  P  P6  1  0.73543800  0.26456200  0.73543800  1
  P  P7  1  0.26456200  0.26456200  0.73543800  1
  P  P8  1  0.73543800  0.73543800  0.26456200  1
  Pd  Pd9  1  0.38341300  0.38341300  0.38341300  1
  Pd  Pd10  1  0.61658700  0.61658700  0.61658700  1
  Pd  Pd11  1  0.38341300  0.38341300  0.84976000  1
  Pd  Pd12  1  0.38341300  0.84976000  0.38341300  1
  Pd  Pd13  1  0.61658700  0.61658700  0.15024000  1
  Pd  Pd14  1  0.61658700  0.15024000  0.61658700  1
  Pd  Pd15  1  0.84976000  0.38341300  0.38341300  1
  Pd  Pd16  1  0.15024000  0.61658700  0.61658700  1
  Pd  Pd17  1  0.34414200  0.00000000  0.00000000  1
  Pd  Pd18  1  0.65585800  0.00000000  0.00000000  1
  Pd  Pd19  1  0.00000000  0.34414200  0.65585800  1
  Pd  Pd20  1  0.00000000  0.65585800  0.34414200  1
  Pd  Pd21  1  0.00000000  0.34414200  0.00000000  1
  Pd  Pd22  1  0.65585800  0.00000000  0.34414200  1
  Pd  Pd23  1  0.00000000  0.65585800  0.00000000  1
  Pd  Pd24  1  0.34414200  0.00000000  0.65585800  1
  Pd  Pd25  1  0.00000000  0.00000000  0.34414200  1
  Pd  Pd26  1  0.00000000  0.00000000  0.65585800  1
  Pd  Pd27  1  0.65585800  0.34414200  0.00000000  1
  Pd  Pd28  1  0.34414200  0.65585800  0.00000000  1
