# generated using pymatgen
data_RbYbP2O7
_symmetry_space_group_name_H-M   'P 1'
_cell_length_a   11.25598400
_cell_length_b   7.92483900
_cell_length_c   8.90167691
_cell_angle_alpha   74.49612377
_cell_angle_beta   90.00000000
_cell_angle_gamma   90.00000000
_symmetry_Int_Tables_number   1
_chemical_formula_structural   RbYbP2O7
_chemical_formula_sum   'Rb4 Yb4 P8 O28'
_cell_volume   765.15269031
_cell_formula_units_Z   4
loop_
 _symmetry_equiv_pos_site_id
 _symmetry_equiv_pos_as_xyz
  1  'x, y, z'
loop_
 _atom_site_type_symbol
 _atom_site_label
 _atom_site_symmetry_multiplicity
 _atom_site_fract_x
 _atom_site_fract_y
 _atom_site_fract_z
 _atom_site_occupancy
  Rb  Rb0  1  0.81955800  0.81892400  0.55692200  1
  Rb  Rb1  1  0.18044200  0.18107600  0.44307800  1
  Rb  Rb2  1  0.31955800  0.18107600  0.94307800  1
  Rb  Rb3  1  0.68044200  0.81892400  0.05692200  1
  Yb  Yb4  1  0.39991400  0.76281900  0.75739300  1
  Yb  Yb5  1  0.60008600  0.23718100  0.24260700  1
  Yb  Yb6  1  0.89991400  0.23718100  0.74260700  1
  Yb  Yb7  1  0.10008600  0.76281900  0.25739300  1
  P  P8  1  0.13331100  0.56601900  0.69200100  1
  P  P9  1  0.86668900  0.43398100  0.30799900  1
  P  P10  1  0.63331100  0.43398100  0.80799900  1
  P  P11  1  0.36668900  0.56601900  0.19200100  1
  P  P12  1  0.09799700  0.86654900  0.82198900  1
  P  P13  1  0.90200300  0.13345100  0.17801100  1
  P  P14  1  0.59799700  0.13345100  0.67801100  1
  P  P15  1  0.40200300  0.86654900  0.32198900  1
  O  O16  1  0.07359400  0.38717800  0.72856500  1
  O  O17  1  0.92640600  0.61282200  0.27143500  1
  O  O18  1  0.57359400  0.61282200  0.77143500  1
  O  O19  1  0.42640600  0.38717800  0.22856500  1
  O  O20  1  0.22375600  0.91886900  0.75981000  1
  O  O21  1  0.77624400  0.08113100  0.24019000  1
  O  O22  1  0.72375600  0.08113100  0.74019000  1
  O  O23  1  0.27624400  0.91886900  0.25981000  1
  O  O24  1  0.26450400  0.55181700  0.73665000  1
  O  O25  1  0.73549600  0.44818300  0.26335000  1
  O  O26  1  0.76450400  0.44818300  0.76335000  1
  O  O27  1  0.23549600  0.55181700  0.23665000  1
  O  O28  1  0.10905000  0.66941100  0.52339600  1
  O  O29  1  0.89095000  0.33058900  0.47660400  1
  O  O30  1  0.60905000  0.33058900  0.97660400  1
  O  O31  1  0.39095000  0.66941100  0.02339600  1
  O  O32  1  0.40838600  0.85134000  0.49579500  1
  O  O33  1  0.59161400  0.14866000  0.50420500  1
  O  O34  1  0.90838600  0.14866000  0.00420500  1
  O  O35  1  0.09161400  0.85134000  0.99579500  1
  O  O36  1  0.06763400  0.67179900  0.80290300  1
  O  O37  1  0.93236600  0.32820100  0.19709700  1
  O  O38  1  0.56763400  0.32820100  0.69709700  1
  O  O39  1  0.43236600  0.67179900  0.30290300  1
  O  O40  1  0.50299300  0.01264800  0.77191500  1
  O  O41  1  0.49700700  0.98735200  0.22808500  1
  O  O42  1  0.00299300  0.98735200  0.72808500  1
  O  O43  1  0.99700700  0.01264800  0.27191500  1
