# generated using pymatgen
data_Zr6Al7Cu16
_symmetry_space_group_name_H-M   'P 1'
_cell_length_a   8.47875478
_cell_length_b   8.47875478
_cell_length_c   8.47875478
_cell_angle_alpha   60.00000000
_cell_angle_beta   60.00000000
_cell_angle_gamma   60.00000000
_symmetry_Int_Tables_number   1
_chemical_formula_structural   Zr6Al7Cu16
_chemical_formula_sum   'Zr6 Al7 Cu16'
_cell_volume   431.00392654
_cell_formula_units_Z   1
loop_
 _symmetry_equiv_pos_site_id
 _symmetry_equiv_pos_as_xyz
  1  'x, y, z'
loop_
 _atom_site_type_symbol
 _atom_site_label
 _atom_site_symmetry_multiplicity
 _atom_site_fract_x
 _atom_site_fract_y
 _atom_site_fract_z
 _atom_site_occupancy
  Zr  Zr0  1  0.70526800  0.70526800  0.29473200  1
  Zr  Zr1  1  0.29473200  0.70526800  0.29473200  1
  Zr  Zr2  1  0.70526800  0.29473200  0.29473200  1
  Zr  Zr3  1  0.29473200  0.29473200  0.70526800  1
  Zr  Zr4  1  0.70526800  0.29473200  0.70526800  1
  Zr  Zr5  1  0.29473200  0.70526800  0.70526800  1
  Al  Al6  1  0.00000000  0.00000000  0.00000000  1
  Al  Al7  1  0.00000000  0.00000000  0.50000000  1
  Al  Al8  1  0.50000000  0.00000000  0.50000000  1
  Al  Al9  1  0.00000000  0.50000000  0.50000000  1
  Al  Al10  1  0.50000000  0.50000000  0.00000000  1
  Al  Al11  1  0.00000000  0.50000000  0.00000000  1
  Al  Al12  1  0.50000000  0.00000000  0.00000000  1
  Cu  Cu13  1  0.88068400  0.88068400  0.35794900  1
  Cu  Cu14  1  0.88068400  0.35794900  0.88068400  1
  Cu  Cu15  1  0.35794900  0.88068400  0.88068400  1
  Cu  Cu16  1  0.88068400  0.88068400  0.88068400  1
  Cu  Cu17  1  0.11931600  0.11931600  0.64205100  1
  Cu  Cu18  1  0.11931600  0.64205100  0.11931600  1
  Cu  Cu19  1  0.64205100  0.11931600  0.11931600  1
  Cu  Cu20  1  0.11931600  0.11931600  0.11931600  1
  Cu  Cu21  1  0.67101100  0.67101100  0.98696700  1
  Cu  Cu22  1  0.67101100  0.98696700  0.67101100  1
  Cu  Cu23  1  0.98696700  0.67101100  0.67101100  1
  Cu  Cu24  1  0.67101100  0.67101100  0.67101100  1
  Cu  Cu25  1  0.32898900  0.32898900  0.01303300  1
  Cu  Cu26  1  0.32898900  0.01303300  0.32898900  1
  Cu  Cu27  1  0.01303300  0.32898900  0.32898900  1
  Cu  Cu28  1  0.32898900  0.32898900  0.32898900  1
