# generated using pymatgen
data_Zr3Ge
_symmetry_space_group_name_H-M   'P 1'
_cell_length_a   11.13761000
_cell_length_b   11.13761000
_cell_length_c   5.48548500
_cell_angle_alpha   90.00000000
_cell_angle_beta   90.00000000
_cell_angle_gamma   90.00000000
_symmetry_Int_Tables_number   1
_chemical_formula_structural   Zr3Ge
_chemical_formula_sum   'Zr24 Ge8'
_cell_volume   680.45442795
_cell_formula_units_Z   8
loop_
 _symmetry_equiv_pos_site_id
 _symmetry_equiv_pos_as_xyz
  1  'x, y, z'
loop_
 _atom_site_type_symbol
 _atom_site_label
 _atom_site_symmetry_multiplicity
 _atom_site_fract_x
 _atom_site_fract_y
 _atom_site_fract_z
 _atom_site_occupancy
  Zr  Zr0  1  0.91798400  0.60600300  0.53468300  1
  Zr  Zr1  1  0.08201600  0.39399700  0.53468300  1
  Zr  Zr2  1  0.89399700  0.41798400  0.03468300  1
  Zr  Zr3  1  0.10600300  0.58201600  0.03468300  1
  Zr  Zr4  1  0.58201600  0.89399700  0.96531700  1
  Zr  Zr5  1  0.41798400  0.10600300  0.96531700  1
  Zr  Zr6  1  0.60600300  0.08201600  0.46531700  1
  Zr  Zr7  1  0.39399700  0.91798400  0.46531700  1
  Zr  Zr8  1  0.86014400  0.97312500  0.72098700  1
  Zr  Zr9  1  0.13985600  0.02687500  0.72098700  1
  Zr  Zr10  1  0.52687500  0.36014400  0.22098700  1
  Zr  Zr11  1  0.47312500  0.63985600  0.22098700  1
  Zr  Zr12  1  0.63985600  0.52687500  0.77901300  1
  Zr  Zr13  1  0.36014400  0.47312500  0.77901300  1
  Zr  Zr14  1  0.97312500  0.13985600  0.27901300  1
  Zr  Zr15  1  0.02687500  0.86014400  0.27901300  1
  Zr  Zr16  1  0.82011300  0.71550700  0.00700000  1
  Zr  Zr17  1  0.17988700  0.28449300  0.00700000  1
  Zr  Zr18  1  0.78449300  0.32011300  0.50700000  1
  Zr  Zr19  1  0.21550700  0.67988700  0.50700000  1
  Zr  Zr20  1  0.67988700  0.78449300  0.49300000  1
  Zr  Zr21  1  0.32011300  0.21550700  0.49300000  1
  Zr  Zr22  1  0.71550700  0.17988700  0.99300000  1
  Zr  Zr23  1  0.28449300  0.82011300  0.99300000  1
  Ge  Ge24  1  0.79561900  0.95833800  0.21309300  1
  Ge  Ge25  1  0.20438100  0.04166200  0.21309300  1
  Ge  Ge26  1  0.54166200  0.29561900  0.71309300  1
  Ge  Ge27  1  0.45833800  0.70438100  0.71309300  1
  Ge  Ge28  1  0.70438100  0.54166200  0.28690700  1
  Ge  Ge29  1  0.29561900  0.45833800  0.28690700  1
  Ge  Ge30  1  0.95833800  0.20438100  0.78690700  1
  Ge  Ge31  1  0.04166200  0.79561900  0.78690700  1
