# generated using pymatgen
data_AlCuSnS4
_symmetry_space_group_name_H-M   'P 1'
_cell_length_a   7.26668078
_cell_length_b   7.26668078
_cell_length_c   7.26668078
_cell_angle_alpha   120.48247029
_cell_angle_beta   119.41434051
_cell_angle_gamma   90.09187288
_symmetry_Int_Tables_number   1
_chemical_formula_structural   AlCuSnS4
_chemical_formula_sum   'Al2 Cu2 Sn2 S8'
_cell_volume   271.50893178
_cell_formula_units_Z   2
loop_
 _symmetry_equiv_pos_site_id
 _symmetry_equiv_pos_as_xyz
  1  'x, y, z'
loop_
 _atom_site_type_symbol
 _atom_site_label
 _atom_site_symmetry_multiplicity
 _atom_site_fract_x
 _atom_site_fract_y
 _atom_site_fract_z
 _atom_site_occupancy
  Al  Al0  1  0.00000000  0.00000000  0.50000000  1
  Al  Al1  1  0.00000000  0.50000000  0.00000000  1
  Cu  Cu2  1  0.37981400  0.62981400  0.75000000  1
  Cu  Cu3  1  0.62018600  0.37018600  0.25000000  1
  Sn  Sn4  1  0.00000000  0.00000000  0.00000000  1
  Sn  Sn5  1  0.50000000  0.00000000  0.50000000  1
  S  S6  1  0.23827000  0.73767900  0.99940900  1
  S  S7  1  0.23827000  0.23886100  0.50059100  1
  S  S8  1  0.22781700  0.74940700  0.47841000  1
  S  S9  1  0.77099700  0.74940700  0.02159000  1
  S  S10  1  0.76173000  0.26232100  0.00059100  1
  S  S11  1  0.76173000  0.76113900  0.49940900  1
  S  S12  1  0.77218300  0.25059300  0.52159000  1
  S  S13  1  0.22900300  0.25059300  0.97841000  1
