# generated using pymatgen
data_SmGaPt
_symmetry_space_group_name_H-M   'P 1'
_cell_length_a   4.47324800
_cell_length_b   7.04343000
_cell_length_c   7.81161900
_cell_angle_alpha   90.00000000
_cell_angle_beta   90.00000000
_cell_angle_gamma   90.00000000
_symmetry_Int_Tables_number   1
_chemical_formula_structural   SmGaPt
_chemical_formula_sum   'Sm4 Ga4 Pt4'
_cell_volume   246.12075139
_cell_formula_units_Z   4
loop_
 _symmetry_equiv_pos_site_id
 _symmetry_equiv_pos_as_xyz
  1  'x, y, z'
loop_
 _atom_site_type_symbol
 _atom_site_label
 _atom_site_symmetry_multiplicity
 _atom_site_fract_x
 _atom_site_fract_y
 _atom_site_fract_z
 _atom_site_occupancy
  Sm  Sm0  1  0.25000000  0.98464900  0.30143600  1
  Sm  Sm1  1  0.25000000  0.48464900  0.19856400  1
  Sm  Sm2  1  0.75000000  0.01535100  0.69856400  1
  Sm  Sm3  1  0.75000000  0.51535100  0.80143600  1
  Ga  Ga4  1  0.25000000  0.32834400  0.57346700  1
  Ga  Ga5  1  0.25000000  0.82834400  0.92653300  1
  Ga  Ga6  1  0.75000000  0.67165600  0.42653300  1
  Ga  Ga7  1  0.75000000  0.17165600  0.07346700  1
  Pt  Pt8  1  0.25000000  0.22269900  0.90158900  1
  Pt  Pt9  1  0.25000000  0.72269900  0.59841100  1
  Pt  Pt10  1  0.75000000  0.77730100  0.09841100  1
  Pt  Pt11  1  0.75000000  0.27730100  0.40158900  1
