# generated using pymatgen
data_RhI3
_symmetry_space_group_name_H-M   'P 1'
_cell_length_a   6.93037188
_cell_length_b   6.93037188
_cell_length_c   7.25070912
_cell_angle_alpha   80.78131651
_cell_angle_beta   80.78131651
_cell_angle_gamma   119.90730168
_symmetry_Int_Tables_number   1
_chemical_formula_structural   RhI3
_chemical_formula_sum   'Rh2 I6'
_cell_volume   286.00724772
_cell_formula_units_Z   2
loop_
 _symmetry_equiv_pos_site_id
 _symmetry_equiv_pos_as_xyz
  1  'x, y, z'
loop_
 _atom_site_type_symbol
 _atom_site_label
 _atom_site_symmetry_multiplicity
 _atom_site_fract_x
 _atom_site_fract_y
 _atom_site_fract_z
 _atom_site_occupancy
  Rh  Rh0  1  0.83327200  0.16672800  0.00000000  1
  Rh  Rh1  1  0.16672800  0.83327200  0.00000000  1
  I  I2  1  0.42623900  0.06888000  0.22055300  1
  I  I3  1  0.57376100  0.93112000  0.77944700  1
  I  I4  1  0.93112000  0.57376100  0.77944700  1
  I  I5  1  0.06888000  0.42623900  0.22055300  1
  I  I6  1  0.78239300  0.78239300  0.22078700  1
  I  I7  1  0.21760700  0.21760700  0.77921300  1
