# generated using pymatgen
data_Tm5Pt4
_symmetry_space_group_name_H-M   'P 1'
_cell_length_a   7.36914200
_cell_length_b   7.47496800
_cell_length_c   14.70660100
_cell_angle_alpha   90.00000000
_cell_angle_beta   90.00000000
_cell_angle_gamma   90.00000000
_symmetry_Int_Tables_number   1
_chemical_formula_structural   Tm5Pt4
_chemical_formula_sum   'Tm20 Pt16'
_cell_volume   810.09988952
_cell_formula_units_Z   4
loop_
 _symmetry_equiv_pos_site_id
 _symmetry_equiv_pos_as_xyz
  1  'x, y, z'
loop_
 _atom_site_type_symbol
 _atom_site_label
 _atom_site_symmetry_multiplicity
 _atom_site_fract_x
 _atom_site_fract_y
 _atom_site_fract_z
 _atom_site_occupancy
  Tm  Tm0  1  0.62539500  0.16369000  0.61846100  1
  Tm  Tm1  1  0.12539500  0.33631000  0.88153900  1
  Tm  Tm2  1  0.37460500  0.83631000  0.11846100  1
  Tm  Tm3  1  0.87460500  0.66369000  0.38153900  1
  Tm  Tm4  1  0.37460500  0.83631000  0.38153900  1
  Tm  Tm5  1  0.87460500  0.66369000  0.11846100  1
  Tm  Tm6  1  0.62539500  0.16369000  0.88153900  1
  Tm  Tm7  1  0.12539500  0.33631000  0.61846100  1
  Tm  Tm8  1  0.47118700  0.67423600  0.59918300  1
  Tm  Tm9  1  0.97118700  0.82576400  0.90081700  1
  Tm  Tm10  1  0.52881300  0.32576400  0.09918300  1
  Tm  Tm11  1  0.02881300  0.17423600  0.40081700  1
  Tm  Tm12  1  0.52881300  0.32576400  0.40081700  1
  Tm  Tm13  1  0.02881300  0.17423600  0.09918300  1
  Tm  Tm14  1  0.47118700  0.67423600  0.90081700  1
  Tm  Tm15  1  0.97118700  0.82576400  0.59918300  1
  Tm  Tm16  1  0.79116500  0.50495300  0.75000000  1
  Tm  Tm17  1  0.29116500  0.99504700  0.75000000  1
  Tm  Tm18  1  0.20883500  0.49504700  0.25000000  1
  Tm  Tm19  1  0.70883500  0.00495300  0.25000000  1
  Pt  Pt20  1  0.71182200  0.97469000  0.45572800  1
  Pt  Pt21  1  0.21182200  0.52531000  0.04427200  1
  Pt  Pt22  1  0.28817800  0.02531000  0.95572800  1
  Pt  Pt23  1  0.78817800  0.47469000  0.54427200  1
  Pt  Pt24  1  0.28817800  0.02531000  0.54427200  1
  Pt  Pt25  1  0.78817800  0.47469000  0.95572800  1
  Pt  Pt26  1  0.71182200  0.97469000  0.04427200  1
  Pt  Pt27  1  0.21182200  0.52531000  0.45572800  1
  Pt  Pt28  1  0.42371600  0.37732000  0.75000000  1
  Pt  Pt29  1  0.92371600  0.12268000  0.75000000  1
  Pt  Pt30  1  0.57628400  0.62268000  0.25000000  1
  Pt  Pt31  1  0.07628400  0.87732000  0.25000000  1
  Pt  Pt32  1  0.65943700  0.85828400  0.75000000  1
  Pt  Pt33  1  0.15943700  0.64171600  0.75000000  1
  Pt  Pt34  1  0.34056300  0.14171600  0.25000000  1
  Pt  Pt35  1  0.84056300  0.35828400  0.25000000  1
