# generated using pymatgen
data_Rb2MnH12(SeO7)2
_symmetry_space_group_name_H-M   'P 1'
_cell_length_a   6.50574600
_cell_length_b   13.01427600
_cell_length_c   9.57620270
_cell_angle_alpha   90.00000000
_cell_angle_beta   105.08848002
_cell_angle_gamma   90.00000000
_symmetry_Int_Tables_number   1
_chemical_formula_structural   Rb2MnH12(SeO7)2
_chemical_formula_sum   'Rb4 Mn2 H24 Se4 O28'
_cell_volume   782.84172354
_cell_formula_units_Z   2
loop_
 _symmetry_equiv_pos_site_id
 _symmetry_equiv_pos_as_xyz
  1  'x, y, z'
loop_
 _atom_site_type_symbol
 _atom_site_label
 _atom_site_symmetry_multiplicity
 _atom_site_fract_x
 _atom_site_fract_y
 _atom_site_fract_z
 _atom_site_occupancy
  Rb  Rb0  1  0.34452100  0.85139200  0.62592400  1
  Rb  Rb1  1  0.65547900  0.35139200  0.87407600  1
  Rb  Rb2  1  0.65547900  0.14860800  0.37407600  1
  Rb  Rb3  1  0.34452100  0.64860800  0.12592400  1
  Mn  Mn4  1  0.00000000  0.50000000  0.50000000  1
  Mn  Mn5  1  0.00000000  0.00000000  0.00000000  1
  H  H6  1  0.32765500  0.59335300  0.71497800  1
  H  H7  1  0.67234500  0.09335300  0.78502200  1
  H  H8  1  0.67234500  0.40664700  0.28502200  1
  H  H9  1  0.32765500  0.90664700  0.21497800  1
  H  H10  1  0.10560100  0.62893400  0.74607300  1
  H  H11  1  0.89439900  0.12893400  0.75392700  1
  H  H12  1  0.89439900  0.37106600  0.25392700  1
  H  H13  1  0.10560100  0.87106600  0.24607300  1
  H  H14  1  0.92488400  0.60168500  0.22857900  1
  H  H15  1  0.07511600  0.10168500  0.27142100  1
  H  H16  1  0.07511600  0.39831500  0.77142100  1
  H  H17  1  0.92488400  0.89831500  0.72857900  1
  H  H18  1  0.99143900  0.68753300  0.35015300  1
  H  H19  1  0.00856100  0.18753300  0.14984700  1
  H  H20  1  0.00856100  0.31246700  0.64984700  1
  H  H21  1  0.99143900  0.81246700  0.85015300  1
  H  H22  1  0.34014000  0.43698300  0.39644100  1
  H  H23  1  0.65986000  0.93698300  0.10355900  1
  H  H24  1  0.65986000  0.56301700  0.60355900  1
  H  H25  1  0.34014000  0.06301700  0.89644100  1
  H  H26  1  0.33438400  0.35857600  0.52287300  1
  H  H27  1  0.66561600  0.85857600  0.97712700  1
  H  H28  1  0.66561600  0.64142400  0.47712700  1
  H  H29  1  0.33438400  0.14142400  0.02287300  1
  Se  Se30  1  0.73189000  0.64226700  0.90357200  1
  Se  Se31  1  0.26811000  0.14226700  0.59642800  1
  Se  Se32  1  0.26811000  0.35773300  0.09642800  1
  Se  Se33  1  0.73189000  0.85773300  0.40357200  1
  O  O34  1  0.57394300  0.74331000  0.91081900  1
  O  O35  1  0.42605700  0.24331000  0.58918100  1
  O  O36  1  0.42605700  0.25669000  0.08918100  1
  O  O37  1  0.57394300  0.75669000  0.41081900  1
  O  O38  1  0.77525600  0.57445700  0.05640000  1
  O  O39  1  0.22474400  0.07445700  0.44360000  1
  O  O40  1  0.22474400  0.42554300  0.94360000  1
  O  O41  1  0.77525600  0.92554300  0.55640000  1
  O  O42  1  0.59953600  0.56538200  0.76780600  1
  O  O43  1  0.40046400  0.06538200  0.73219400  1
  O  O44  1  0.40046400  0.43461800  0.23219400  1
  O  O45  1  0.59953600  0.93461800  0.26780600  1
  O  O46  1  0.96330000  0.68214900  0.87386900  1
  O  O47  1  0.03670000  0.18214900  0.62613100  1
  O  O48  1  0.03670000  0.31785100  0.12613100  1
  O  O49  1  0.96330000  0.81785100  0.37386900  1
  O  O50  1  0.17593500  0.61143400  0.66929200  1
  O  O51  1  0.82406500  0.11143400  0.83070800  1
  O  O52  1  0.82406500  0.38856600  0.33070800  1
  O  O53  1  0.17593500  0.88856600  0.16929200  1
  O  O54  1  0.01704000  0.61435800  0.32810600  1
  O  O55  1  0.98296000  0.11435800  0.17189400  1
  O  O56  1  0.98296000  0.38564200  0.67189400  1
  O  O57  1  0.01704000  0.88564200  0.82810600  1
  O  O58  1  0.29611600  0.43007800  0.48804500  1
  O  O59  1  0.70388400  0.93007800  0.01195500  1
  O  O60  1  0.70388400  0.56992200  0.51195500  1
  O  O61  1  0.29611600  0.06992200  0.98804500  1
