# generated using pymatgen
data_Nd2CoTe2(SO7)2
_symmetry_space_group_name_H-M   'P 1'
_cell_length_a   5.41733200
_cell_length_b   8.08682829
_cell_length_c   8.34212179
_cell_angle_alpha   115.64370722
_cell_angle_beta   107.25884652
_cell_angle_gamma   86.43551708
_symmetry_Int_Tables_number   1
_chemical_formula_structural   Nd2CoTe2(SO7)2
_chemical_formula_sum   'Nd2 Co1 Te2 S2 O14'
_cell_volume   313.69672283
_cell_formula_units_Z   1
loop_
 _symmetry_equiv_pos_site_id
 _symmetry_equiv_pos_as_xyz
  1  'x, y, z'
loop_
 _atom_site_type_symbol
 _atom_site_label
 _atom_site_symmetry_multiplicity
 _atom_site_fract_x
 _atom_site_fract_y
 _atom_site_fract_z
 _atom_site_occupancy
  Nd  Nd0  1  0.09340200  0.25090100  0.98396900  1
  Nd  Nd1  1  0.90659800  0.74909900  0.01603100  1
  Co  Co2  1  0.00000000  0.00000000  0.50000000  1
  Te  Te3  1  0.52173200  0.26523800  0.65551300  1
  Te  Te4  1  0.47826800  0.73476200  0.34448700  1
  S  S5  1  0.78106800  0.24744100  0.25405200  1
  S  S6  1  0.21893200  0.75255900  0.74594800  1
  O  O7  1  0.92630500  0.40270600  0.26289800  1
  O  O8  1  0.07369500  0.59729400  0.73710200  1
  O  O9  1  0.88062100  0.22155400  0.42602400  1
  O  O10  1  0.11937900  0.77844600  0.57397600  1
  O  O11  1  0.50113700  0.27896500  0.22185400  1
  O  O12  1  0.49886300  0.72103500  0.77814600  1
  O  O13  1  0.82148300  0.08003100  0.08932200  1
  O  O14  1  0.17851700  0.91996900  0.91067800  1
  O  O15  1  0.74773000  0.43137600  0.89006600  1
  O  O16  1  0.25227000  0.56862400  0.10993400  1
  O  O17  1  0.28094600  0.18880200  0.74073600  1
  O  O18  1  0.71905400  0.81119800  0.25926400  1
  O  O19  1  0.75168600  0.07613100  0.66141400  1
  O  O20  1  0.24831400  0.92386900  0.33858600  1
