# generated using pymatgen
data_Lu2O3
_symmetry_space_group_name_H-M   'P 1'
_cell_length_a   8.97613680
_cell_length_b   8.97613680
_cell_length_c   8.97613680
_cell_angle_alpha   109.47122063
_cell_angle_beta   109.47122063
_cell_angle_gamma   109.47122063
_symmetry_Int_Tables_number   1
_chemical_formula_structural   Lu2O3
_chemical_formula_sum   'Lu16 O24'
_cell_volume   556.73240207
_cell_formula_units_Z   8
loop_
 _symmetry_equiv_pos_site_id
 _symmetry_equiv_pos_as_xyz
  1  'x, y, z'
loop_
 _atom_site_type_symbol
 _atom_site_label
 _atom_site_symmetry_multiplicity
 _atom_site_fract_x
 _atom_site_fract_y
 _atom_site_fract_z
 _atom_site_occupancy
  Lu  Lu0  1  0.71651100  0.46651100  0.25000000  1
  Lu  Lu1  1  0.75000000  0.78348900  0.03348900  1
  Lu  Lu2  1  0.03348900  0.75000000  0.78348900  1
  Lu  Lu3  1  0.25000000  0.71651100  0.46651100  1
  Lu  Lu4  1  0.46651100  0.25000000  0.71651100  1
  Lu  Lu5  1  0.78348900  0.03348900  0.75000000  1
  Lu  Lu6  1  0.28348900  0.53348900  0.75000000  1
  Lu  Lu7  1  0.25000000  0.21651100  0.96651100  1
  Lu  Lu8  1  0.96651100  0.25000000  0.21651100  1
  Lu  Lu9  1  0.75000000  0.28348900  0.53348900  1
  Lu  Lu10  1  0.53348900  0.75000000  0.28348900  1
  Lu  Lu11  1  0.21651100  0.96651100  0.25000000  1
  Lu  Lu12  1  0.50000000  0.00000000  0.00000000  1
  Lu  Lu13  1  0.00000000  0.00000000  0.50000000  1
  Lu  Lu14  1  0.00000000  0.50000000  0.00000000  1
  Lu  Lu15  1  0.50000000  0.50000000  0.50000000  1
  O  O16  1  0.48885300  0.76120400  0.03261600  1
  O  O17  1  0.27141200  0.73879600  0.22764900  1
  O  O18  1  0.01114700  0.04376300  0.27235100  1
  O  O19  1  0.45623700  0.46738400  0.22858800  1
  O  O20  1  0.46738400  0.22858800  0.45623700  1
  O  O21  1  0.03261600  0.48885300  0.76120400  1
  O  O22  1  0.73879600  0.22764900  0.27141200  1
  O  O23  1  0.27235100  0.01114700  0.04376300  1
  O  O24  1  0.76120400  0.03261600  0.48885300  1
  O  O25  1  0.22764900  0.27141200  0.73879600  1
  O  O26  1  0.04376300  0.27235100  0.01114700  1
  O  O27  1  0.22858800  0.45623700  0.46738400  1
  O  O28  1  0.51114700  0.23879600  0.96738400  1
  O  O29  1  0.72858800  0.26120400  0.77235100  1
  O  O30  1  0.98885300  0.95623700  0.72764900  1
  O  O31  1  0.54376300  0.53261600  0.77141200  1
  O  O32  1  0.77141200  0.54376300  0.53261600  1
  O  O33  1  0.95623700  0.72764900  0.98885300  1
  O  O34  1  0.77235100  0.72858800  0.26120400  1
  O  O35  1  0.23879600  0.96738400  0.51114700  1
  O  O36  1  0.72764900  0.98885300  0.95623700  1
  O  O37  1  0.26120400  0.77235100  0.72858800  1
  O  O38  1  0.96738400  0.51114700  0.23879600  1
  O  O39  1  0.53261600  0.77141200  0.54376300  1
