# generated using pymatgen
data_NbSiRh
_symmetry_space_group_name_H-M   'P 1'
_cell_length_a   3.77747100
_cell_length_b   6.45342000
_cell_length_c   7.36793900
_cell_angle_alpha   90.00000000
_cell_angle_beta   90.00000000
_cell_angle_gamma   90.00000000
_symmetry_Int_Tables_number   1
_chemical_formula_structural   NbSiRh
_chemical_formula_sum   'Nb4 Si4 Rh4'
_cell_volume   179.61272061
_cell_formula_units_Z   4
loop_
 _symmetry_equiv_pos_site_id
 _symmetry_equiv_pos_as_xyz
  1  'x, y, z'
loop_
 _atom_site_type_symbol
 _atom_site_label
 _atom_site_symmetry_multiplicity
 _atom_site_fract_x
 _atom_site_fract_y
 _atom_site_fract_z
 _atom_site_occupancy
  Nb  Nb0  1  0.75000000  0.47450500  0.32657400  1
  Nb  Nb1  1  0.25000000  0.02549500  0.82657400  1
  Nb  Nb2  1  0.75000000  0.97450500  0.17342600  1
  Nb  Nb3  1  0.25000000  0.52549500  0.67342600  1
  Si  Si4  1  0.25000000  0.26873500  0.12458900  1
  Si  Si5  1  0.25000000  0.76873500  0.37541100  1
  Si  Si6  1  0.75000000  0.73126500  0.87541100  1
  Si  Si7  1  0.75000000  0.23126500  0.62458900  1
  Rh  Rh8  1  0.25000000  0.64525800  0.06254700  1
  Rh  Rh9  1  0.25000000  0.14525800  0.43745300  1
  Rh  Rh10  1  0.75000000  0.85474200  0.56254700  1
  Rh  Rh11  1  0.75000000  0.35474200  0.93745300  1
