# generated using pymatgen
data_Lu4InRh
_symmetry_space_group_name_H-M   'P 1'
_cell_length_a   9.47609071
_cell_length_b   9.47609071
_cell_length_c   9.47609071
_cell_angle_alpha   60.00000000
_cell_angle_beta   60.00000000
_cell_angle_gamma   60.00000000
_symmetry_Int_Tables_number   1
_chemical_formula_structural   Lu4InRh
_chemical_formula_sum   'Lu16 In4 Rh4'
_cell_volume   601.68977358
_cell_formula_units_Z   4
loop_
 _symmetry_equiv_pos_site_id
 _symmetry_equiv_pos_as_xyz
  1  'x, y, z'
loop_
 _atom_site_type_symbol
 _atom_site_label
 _atom_site_symmetry_multiplicity
 _atom_site_fract_x
 _atom_site_fract_y
 _atom_site_fract_z
 _atom_site_occupancy
  Lu  Lu0  1  0.59955800  0.59955800  0.59955800  1
  Lu  Lu1  1  0.59955800  0.59955800  0.20132700  1
  Lu  Lu2  1  0.59955800  0.20132700  0.59955800  1
  Lu  Lu3  1  0.20132700  0.59955800  0.59955800  1
  Lu  Lu4  1  0.06144400  0.43855600  0.43855600  1
  Lu  Lu5  1  0.43855600  0.06144400  0.06144400  1
  Lu  Lu6  1  0.43855600  0.06144400  0.43855600  1
  Lu  Lu7  1  0.06144400  0.43855600  0.06144400  1
  Lu  Lu8  1  0.43855600  0.43855600  0.06144400  1
  Lu  Lu9  1  0.06144400  0.06144400  0.43855600  1
  Lu  Lu10  1  0.18827000  0.81173000  0.81173000  1
  Lu  Lu11  1  0.81173000  0.18827000  0.18827000  1
  Lu  Lu12  1  0.81173000  0.18827000  0.81173000  1
  Lu  Lu13  1  0.18827000  0.81173000  0.18827000  1
  Lu  Lu14  1  0.81173000  0.81173000  0.18827000  1
  Lu  Lu15  1  0.18827000  0.18827000  0.81173000  1
  In  In16  1  0.83381800  0.83381800  0.83381800  1
  In  In17  1  0.83381800  0.83381800  0.49854600  1
  In  In18  1  0.83381800  0.49854600  0.83381800  1
  In  In19  1  0.49854600  0.83381800  0.83381800  1
  Rh  Rh20  1  0.39276000  0.39276000  0.39276000  1
  Rh  Rh21  1  0.39276000  0.39276000  0.82171900  1
  Rh  Rh22  1  0.39276000  0.82171900  0.39276000  1
  Rh  Rh23  1  0.82171900  0.39276000  0.39276000  1
