# generated using pymatgen
data_Hg(PO3)2
_symmetry_space_group_name_H-M   'P 1'
_cell_length_a   7.31152900
_cell_length_b   9.98983500
_cell_length_c   14.00287400
_cell_angle_alpha   90.00000000
_cell_angle_beta   90.00000000
_cell_angle_gamma   90.00000000
_symmetry_Int_Tables_number   1
_chemical_formula_structural   Hg(PO3)2
_chemical_formula_sum   'Hg8 P16 O48'
_cell_volume   1022.78347605
_cell_formula_units_Z   8
loop_
 _symmetry_equiv_pos_site_id
 _symmetry_equiv_pos_as_xyz
  1  'x, y, z'
loop_
 _atom_site_type_symbol
 _atom_site_label
 _atom_site_symmetry_multiplicity
 _atom_site_fract_x
 _atom_site_fract_y
 _atom_site_fract_z
 _atom_site_occupancy
  Hg  Hg0  1  0.54108200  0.99592600  0.29388200  1
  Hg  Hg1  1  0.04108200  0.50407400  0.70611800  1
  Hg  Hg2  1  0.45891800  0.49592600  0.20611800  1
  Hg  Hg3  1  0.95891800  0.00407400  0.79388200  1
  Hg  Hg4  1  0.45891800  0.00407400  0.70611800  1
  Hg  Hg5  1  0.95891800  0.49592600  0.29388200  1
  Hg  Hg6  1  0.54108200  0.50407400  0.79388200  1
  Hg  Hg7  1  0.04108200  0.99592600  0.20611800  1
  P  P8  1  0.07494100  0.29787900  0.09778000  1
  P  P9  1  0.57494100  0.20212100  0.90222000  1
  P  P10  1  0.92505900  0.79787900  0.40222000  1
  P  P11  1  0.42505900  0.70212100  0.59778000  1
  P  P12  1  0.92505900  0.70212100  0.90222000  1
  P  P13  1  0.42505900  0.79787900  0.09778000  1
  P  P14  1  0.07494100  0.20212100  0.59778000  1
  P  P15  1  0.57494100  0.29787900  0.40222000  1
  P  P16  1  0.68098900  0.21463600  0.10326300  1
  P  P17  1  0.18098900  0.28536400  0.89673700  1
  P  P18  1  0.31901100  0.71463600  0.39673700  1
  P  P19  1  0.81901100  0.78536400  0.60326300  1
  P  P20  1  0.31901100  0.78536400  0.89673700  1
  P  P21  1  0.81901100  0.71463600  0.10326300  1
  P  P22  1  0.68098900  0.28536400  0.60326300  1
  P  P23  1  0.18098900  0.21463600  0.39673700  1
  O  O24  1  0.65138600  0.14158200  0.00090800  1
  O  O25  1  0.15138600  0.35841800  0.99909200  1
  O  O26  1  0.34861400  0.64158200  0.49909200  1
  O  O27  1  0.84861400  0.85841800  0.50090800  1
  O  O28  1  0.34861400  0.85841800  0.99909200  1
  O  O29  1  0.84861400  0.64158200  0.00090800  1
  O  O30  1  0.65138600  0.35841800  0.50090800  1
  O  O31  1  0.15138600  0.14158200  0.49909200  1
  O  O32  1  0.85603800  0.31040600  0.08594600  1
  O  O33  1  0.35603800  0.18959400  0.91405400  1
  O  O34  1  0.14396200  0.81040600  0.41405400  1
  O  O35  1  0.64396200  0.68959400  0.58594600  1
  O  O36  1  0.14396200  0.68959400  0.91405400  1
  O  O37  1  0.64396200  0.81040600  0.08594600  1
  O  O38  1  0.85603800  0.18959400  0.58594600  1
  O  O39  1  0.35603800  0.31040600  0.41405400  1
  O  O40  1  0.13380800  0.15394700  0.10502500  1
  O  O41  1  0.13060500  0.39738600  0.17427300  1
  O  O42  1  0.63380800  0.34605300  0.89497500  1
  O  O43  1  0.36619200  0.84605300  0.60502500  1
  O  O44  1  0.86619200  0.84605300  0.89497500  1
  O  O45  1  0.36619200  0.65394700  0.10502500  1
  O  O46  1  0.13380800  0.34605300  0.60502500  1
  O  O47  1  0.63380800  0.15394700  0.39497500  1
  O  O48  1  0.01901500  0.30213200  0.37751600  1
  O  O49  1  0.51901500  0.19786800  0.62248400  1
  O  O50  1  0.98098500  0.80213200  0.12248400  1
  O  O51  1  0.48098500  0.69786800  0.87751600  1
  O  O52  1  0.98098500  0.69786800  0.62248400  1
  O  O53  1  0.48098500  0.80213200  0.37751600  1
  O  O54  1  0.01901500  0.19786800  0.87751600  1
  O  O55  1  0.51901500  0.30213200  0.12248400  1
  O  O56  1  0.23086700  0.10524100  0.32680400  1
  O  O57  1  0.73086800  0.39475900  0.67319600  1
  O  O58  1  0.76913200  0.60524100  0.17319600  1
  O  O59  1  0.26913200  0.89475900  0.82680400  1
  O  O60  1  0.76913200  0.89475900  0.67319600  1
  O  O61  1  0.26913200  0.60524100  0.32680400  1
  O  O62  1  0.23086700  0.39475900  0.82680400  1
  O  O63  1  0.73086800  0.10524100  0.17319600  1
  O  O64  1  0.63060500  0.39738600  0.32572700  1
  O  O65  1  0.13060500  0.10261400  0.67427300  1
  O  O66  1  0.36939500  0.89738600  0.17427300  1
  O  O67  1  0.86939500  0.60261400  0.82572700  1
  O  O68  1  0.36939500  0.60261400  0.67427300  1
  O  O69  1  0.86939500  0.89738600  0.32572700  1
  O  O70  1  0.63060500  0.10261400  0.82572700  1
  O  O71  1  0.86619200  0.65394700  0.39497500  1
