# generated using pymatgen
data_Nd3SiAgSe7
_symmetry_space_group_name_H-M   'P 1'
_cell_length_a   10.76643370
_cell_length_b   10.76643370
_cell_length_c   6.07552800
_cell_angle_alpha   90.00000000
_cell_angle_beta   90.00000000
_cell_angle_gamma   119.99999813
_symmetry_Int_Tables_number   1
_chemical_formula_structural   Nd3SiAgSe7
_chemical_formula_sum   'Nd6 Si2 Ag2 Se14'
_cell_volume   609.89968198
_cell_formula_units_Z   2
loop_
 _symmetry_equiv_pos_site_id
 _symmetry_equiv_pos_as_xyz
  1  'x, y, z'
loop_
 _atom_site_type_symbol
 _atom_site_label
 _atom_site_symmetry_multiplicity
 _atom_site_fract_x
 _atom_site_fract_y
 _atom_site_fract_z
 _atom_site_occupancy
  Nd  Nd0  1  0.35736500  0.12640400  0.46650100  1
  Nd  Nd1  1  0.23096100  0.35736500  0.96650100  1
  Nd  Nd2  1  0.12640400  0.76903900  0.96650100  1
  Nd  Nd3  1  0.87359600  0.23096100  0.46650100  1
  Nd  Nd4  1  0.76903900  0.64263500  0.46650100  1
  Nd  Nd5  1  0.64263500  0.87359600  0.96650100  1
  Si  Si6  1  0.33333300  0.66666700  0.37651000  1
  Si  Si7  1  0.66666700  0.33333300  0.87651000  1
  Ag  Ag8  1  0.00000000  0.00000000  0.51667100  1
  Ag  Ag9  1  0.00000000  0.00000000  0.01667100  1
  Se  Se10  1  0.89128500  0.47795900  0.72515200  1
  Se  Se11  1  0.10871500  0.52204100  0.22515200  1
  Se  Se12  1  0.47795900  0.58667400  0.22515200  1
  Se  Se13  1  0.58667400  0.10871500  0.72515200  1
  Se  Se14  1  0.09581300  0.82472500  0.48350300  1
  Se  Se15  1  0.27108800  0.09581300  0.98350300  1
  Se  Se16  1  0.41332600  0.89128500  0.22515200  1
  Se  Se17  1  0.52204100  0.41332600  0.72515200  1
  Se  Se18  1  0.33333300  0.66666700  0.75070900  1
  Se  Se19  1  0.66666700  0.33333300  0.25070900  1
  Se  Se20  1  0.90418700  0.17527500  0.98350300  1
  Se  Se21  1  0.72891200  0.90418700  0.48350300  1
  Se  Se22  1  0.17527500  0.27108800  0.48350300  1
  Se  Se23  1  0.82472500  0.72891200  0.98350300  1
