# generated using pymatgen
data_YMgAl
_symmetry_space_group_name_H-M   'P 1'
_cell_length_a   7.36489461
_cell_length_b   7.36489461
_cell_length_c   4.55769500
_cell_angle_alpha   90.00000000
_cell_angle_beta   90.00000000
_cell_angle_gamma   120.00000544
_symmetry_Int_Tables_number   1
_chemical_formula_structural   YMgAl
_chemical_formula_sum   'Y3 Mg3 Al3'
_cell_volume   214.09619034
_cell_formula_units_Z   3
loop_
 _symmetry_equiv_pos_site_id
 _symmetry_equiv_pos_as_xyz
  1  'x, y, z'
loop_
 _atom_site_type_symbol
 _atom_site_label
 _atom_site_symmetry_multiplicity
 _atom_site_fract_x
 _atom_site_fract_y
 _atom_site_fract_z
 _atom_site_occupancy
  Y  Y0  1  0.00000000  0.56709400  0.00000000  1
  Y  Y1  1  0.43290600  0.43290600  0.00000000  1
  Y  Y2  1  0.56709400  0.00000000  0.00000000  1
  Mg  Mg3  1  0.75860500  0.75860500  0.50000000  1
  Mg  Mg4  1  0.24139500  0.00000000  0.50000000  1
  Mg  Mg5  1  0.00000000  0.24139500  0.50000000  1
  Al  Al6  1  0.66666700  0.33333300  0.50000000  1
  Al  Al7  1  0.00000000  0.00000000  0.00000000  1
  Al  Al8  1  0.33333300  0.66666700  0.50000000  1
