# generated using pymatgen
data_Tb3(GeRh)2
_symmetry_space_group_name_H-M   'P 1'
_cell_length_a   5.62189500
_cell_length_b   7.90055400
_cell_length_c   13.28532400
_cell_angle_alpha   90.00000000
_cell_angle_beta   90.00000000
_cell_angle_gamma   90.00000000
_symmetry_Int_Tables_number   1
_chemical_formula_structural   Tb3(GeRh)2
_chemical_formula_sum   'Tb12 Ge8 Rh8'
_cell_volume   590.08208043
_cell_formula_units_Z   4
loop_
 _symmetry_equiv_pos_site_id
 _symmetry_equiv_pos_as_xyz
  1  'x, y, z'
loop_
 _atom_site_type_symbol
 _atom_site_label
 _atom_site_symmetry_multiplicity
 _atom_site_fract_x
 _atom_site_fract_y
 _atom_site_fract_z
 _atom_site_occupancy
  Tb  Tb0  1  0.63353800  0.25189800  0.25000000  1
  Tb  Tb1  1  0.36646200  0.74810200  0.75000000  1
  Tb  Tb2  1  0.36646200  0.75189800  0.25000000  1
  Tb  Tb3  1  0.63353800  0.24810200  0.75000000  1
  Tb  Tb4  1  0.14640700  0.39341400  0.10031500  1
  Tb  Tb5  1  0.85359300  0.60658600  0.89968500  1
  Tb  Tb6  1  0.85359300  0.60658600  0.60031500  1
  Tb  Tb7  1  0.85359300  0.89341400  0.39968500  1
  Tb  Tb8  1  0.14640700  0.39341400  0.39968500  1
  Tb  Tb9  1  0.14640700  0.10658600  0.60031500  1
  Tb  Tb10  1  0.14640700  0.10658600  0.89968500  1
  Tb  Tb11  1  0.85359300  0.89341400  0.10031500  1
  Ge  Ge12  1  0.13251800  0.10739100  0.25000000  1
  Ge  Ge13  1  0.86748200  0.89260900  0.75000000  1
  Ge  Ge14  1  0.86748200  0.60739100  0.25000000  1
  Ge  Ge15  1  0.13251800  0.39260900  0.75000000  1
  Ge  Ge16  1  0.65890900  0.25000000  0.00000000  1
  Ge  Ge17  1  0.34109100  0.75000000  0.00000000  1
  Ge  Ge18  1  0.34109100  0.75000000  0.50000000  1
  Ge  Ge19  1  0.65890900  0.25000000  0.50000000  1
  Rh  Rh20  1  0.37596600  0.03856300  0.09335900  1
  Rh  Rh21  1  0.62403400  0.96143700  0.90664100  1
  Rh  Rh22  1  0.62403400  0.96143700  0.59335900  1
  Rh  Rh23  1  0.62403400  0.53856300  0.40664100  1
  Rh  Rh24  1  0.37596600  0.03856300  0.40664100  1
  Rh  Rh25  1  0.37596600  0.46143700  0.59335900  1
  Rh  Rh26  1  0.37596600  0.46143700  0.90664100  1
  Rh  Rh27  1  0.62403400  0.53856300  0.09335900  1
