# generated using pymatgen
data_LaTm(Ge2Ir)2
_symmetry_space_group_name_H-M   'P 1'
_cell_length_a   9.53911427
_cell_length_b   9.53911427
_cell_length_c   9.53911427
_cell_angle_alpha   153.58151665
_cell_angle_beta   124.17169762
_cell_angle_gamma   62.79065196
_symmetry_Int_Tables_number   1
_chemical_formula_structural   LaTm(Ge2Ir)2
_chemical_formula_sum   'La2 Tm2 Ge8 Ir4'
_cell_volume   317.04405207
_cell_formula_units_Z   2
loop_
 _symmetry_equiv_pos_site_id
 _symmetry_equiv_pos_as_xyz
  1  'x, y, z'
loop_
 _atom_site_type_symbol
 _atom_site_label
 _atom_site_symmetry_multiplicity
 _atom_site_fract_x
 _atom_site_fract_y
 _atom_site_fract_z
 _atom_site_occupancy
  La  La0  1  0.26099700  0.00000000  0.26099700  1
  La  La1  1  0.73900300  0.00000000  0.73900300  1
  Tm  Tm2  1  0.29328400  0.79328400  0.50000000  1
  Tm  Tm3  1  0.70671600  0.20671600  0.50000000  1
  Ge  Ge4  1  0.04995200  0.20131600  0.84863600  1
  Ge  Ge5  1  0.95004800  0.79868400  0.15136400  1
  Ge  Ge6  1  0.64732000  0.79868400  0.84863600  1
  Ge  Ge7  1  0.35268000  0.20131600  0.15136400  1
  Ge  Ge8  1  0.92102200  0.42102200  0.50000000  1
  Ge  Ge9  1  0.42010600  0.42010600  0.00000000  1
  Ge  Ge10  1  0.07897800  0.57897800  0.50000000  1
  Ge  Ge11  1  0.57989400  0.57989400  0.00000000  1
  Ir  Ir12  1  0.39721200  0.64895400  0.74825900  1
  Ir  Ir13  1  0.60278800  0.35104600  0.25174100  1
  Ir  Ir14  1  0.90069500  0.64895400  0.25174100  1
  Ir  Ir15  1  0.09930500  0.35104600  0.74825900  1
