# generated using pymatgen
data_Ba2YCoO5
_symmetry_space_group_name_H-M   'P 1'
_cell_length_a   6.17962000
_cell_length_b   7.97593900
_cell_length_c   12.53419674
_cell_angle_alpha   91.61990686
_cell_angle_beta   90.00000000
_cell_angle_gamma   90.00000000
_symmetry_Int_Tables_number   1
_chemical_formula_structural   Ba2YCoO5
_chemical_formula_sum   'Ba8 Y4 Co4 O20'
_cell_volume   617.54200338
_cell_formula_units_Z   4
loop_
 _symmetry_equiv_pos_site_id
 _symmetry_equiv_pos_as_xyz
  1  'x, y, z'
loop_
 _atom_site_type_symbol
 _atom_site_label
 _atom_site_symmetry_multiplicity
 _atom_site_fract_x
 _atom_site_fract_y
 _atom_site_fract_z
 _atom_site_occupancy
  Ba  Ba0  1  0.75762200  0.49254800  0.36023400  1
  Ba  Ba1  1  0.74237800  0.99254800  0.86023400  1
  Ba  Ba2  1  0.24237800  0.50745200  0.63976600  1
  Ba  Ba3  1  0.25762200  0.00745200  0.13976600  1
  Ba  Ba4  1  0.75232500  0.99313000  0.38383800  1
  Ba  Ba5  1  0.74767500  0.49313000  0.88383800  1
  Ba  Ba6  1  0.24767500  0.00687000  0.61616200  1
  Ba  Ba7  1  0.25232500  0.50687000  0.11616200  1
  Y  Y8  1  0.74862800  0.26423300  0.62843800  1
  Y  Y9  1  0.75137200  0.76423300  0.12843800  1
  Y  Y10  1  0.25137200  0.73576700  0.37156200  1
  Y  Y11  1  0.24862800  0.23576700  0.87156200  1
  Co  Co12  1  0.74149900  0.74661600  0.59286400  1
  Co  Co13  1  0.75850100  0.24661600  0.09286400  1
  Co  Co14  1  0.25850100  0.25338400  0.40713600  1
  Co  Co15  1  0.24149900  0.75338400  0.90713600  1
  O  O16  1  0.75346800  0.97200100  0.63266100  1
  O  O17  1  0.74653200  0.47200100  0.13266100  1
  O  O18  1  0.24653200  0.02799900  0.36733900  1
  O  O19  1  0.25346800  0.52799900  0.86733900  1
  O  O20  1  0.73922900  0.05747400  0.17235600  1
  O  O21  1  0.76077100  0.55747400  0.67235600  1
  O  O22  1  0.26077100  0.94252600  0.82764400  1
  O  O23  1  0.23922900  0.44252600  0.32764400  1
  O  O24  1  0.53985500  0.74605000  0.26969200  1
  O  O25  1  0.96014500  0.24605000  0.76969200  1
  O  O26  1  0.46014500  0.25395000  0.73030800  1
  O  O27  1  0.03985500  0.75395000  0.23030800  1
  O  O28  1  0.52871900  0.22851800  0.98953600  1
  O  O29  1  0.97128100  0.72851800  0.48953600  1
  O  O30  1  0.47128100  0.77148200  0.01046400  1
  O  O31  1  0.02871900  0.27148200  0.51046400  1
  O  O32  1  0.02856100  0.23363700  0.01847100  1
  O  O33  1  0.47143900  0.73363700  0.51847100  1
  O  O34  1  0.97143900  0.76636300  0.98152900  1
  O  O35  1  0.52856100  0.26636300  0.48152900  1
