# generated using pymatgen
data_Sm14Au51
_symmetry_space_group_name_H-M   'P 1'
_cell_length_a   12.92818197
_cell_length_b   12.92818197
_cell_length_c   9.35715300
_cell_angle_alpha   90.00000000
_cell_angle_beta   90.00000000
_cell_angle_gamma   119.99999984
_symmetry_Int_Tables_number   1
_chemical_formula_structural   Sm14Au51
_chemical_formula_sum   'Sm14 Au51'
_cell_volume   1354.40726844
_cell_formula_units_Z   1
loop_
 _symmetry_equiv_pos_site_id
 _symmetry_equiv_pos_as_xyz
  1  'x, y, z'
loop_
 _atom_site_type_symbol
 _atom_site_label
 _atom_site_symmetry_multiplicity
 _atom_site_fract_x
 _atom_site_fract_y
 _atom_site_fract_z
 _atom_site_occupancy
  Sm  Sm0  1  0.34281800  0.86910700  0.50000000  1
  Sm  Sm1  1  0.13089300  0.47371100  0.50000000  1
  Sm  Sm2  1  0.52628900  0.65718200  0.50000000  1
  Sm  Sm3  1  0.99097800  0.79922100  0.50000000  1
  Sm  Sm4  1  0.20077900  0.19175700  0.50000000  1
  Sm  Sm5  1  0.80824300  0.00902200  0.50000000  1
  Sm  Sm6  1  0.93721600  0.21913900  0.00000000  1
  Sm  Sm7  1  0.78086100  0.71807800  0.00000000  1
  Sm  Sm8  1  0.28192200  0.06278400  0.00000000  1
  Sm  Sm9  1  0.38459800  0.45196900  0.00000000  1
  Sm  Sm10  1  0.54803100  0.93262900  0.00000000  1
  Sm  Sm11  1  0.06737100  0.61540200  0.00000000  1
  Sm  Sm12  1  0.66666700  0.33333300  0.29796200  1
  Sm  Sm13  1  0.66666700  0.33333300  0.70203800  1
  Au  Au14  1  0.28888700  0.84006400  0.15262700  1
  Au  Au15  1  0.15993600  0.44882300  0.15262700  1
  Au  Au16  1  0.55117700  0.71111300  0.15262700  1
  Au  Au17  1  0.04777100  0.83078300  0.15048000  1
  Au  Au18  1  0.16921700  0.21698800  0.15048000  1
  Au  Au19  1  0.78301200  0.95222900  0.15048000  1
  Au  Au20  1  0.04777100  0.83078300  0.84952000  1
  Au  Au21  1  0.16921700  0.21698800  0.84952000  1
  Au  Au22  1  0.78301200  0.95222900  0.84952000  1
  Au  Au23  1  0.28888700  0.84006400  0.84737300  1
  Au  Au24  1  0.15993600  0.44882300  0.84737300  1
  Au  Au25  1  0.55117700  0.71111300  0.84737300  1
  Au  Au26  1  0.33333300  0.66666700  0.00000000  1
  Au  Au27  1  0.00000000  0.00000000  0.00000000  1
  Au  Au28  1  0.00347000  0.22850000  0.33610400  1
  Au  Au29  1  0.77150000  0.77497000  0.33610400  1
  Au  Au30  1  0.22503000  0.99653000  0.33610400  1
  Au  Au31  1  0.32767700  0.43765600  0.33727200  1
  Au  Au32  1  0.56234400  0.89002100  0.33727200  1
  Au  Au33  1  0.10997900  0.67232300  0.33727200  1
  Au  Au34  1  0.32767700  0.43765600  0.66272800  1
  Au  Au35  1  0.56234400  0.89002100  0.66272800  1
  Au  Au36  1  0.10997900  0.67232300  0.66272800  1
  Au  Au37  1  0.00347000  0.22850000  0.66389600  1
  Au  Au38  1  0.77150000  0.77497000  0.66389600  1
  Au  Au39  1  0.22503000  0.99653000  0.66389600  1
  Au  Au40  1  0.74333000  0.13868100  0.23597800  1
  Au  Au41  1  0.86131900  0.60464900  0.23597800  1
  Au  Au42  1  0.39535100  0.25667000  0.23597800  1
  Au  Au43  1  0.59464200  0.52630800  0.22816100  1
  Au  Au44  1  0.47369200  0.06833400  0.22816100  1
  Au  Au45  1  0.93166600  0.40535800  0.22816100  1
  Au  Au46  1  0.59464200  0.52630800  0.77183900  1
  Au  Au47  1  0.47369200  0.06833400  0.77183900  1
  Au  Au48  1  0.93166600  0.40535800  0.77183900  1
  Au  Au49  1  0.74333000  0.13868100  0.76402200  1
  Au  Au50  1  0.86131900  0.60464900  0.76402200  1
  Au  Au51  1  0.39535100  0.25667000  0.76402200  1
  Au  Au52  1  0.33333300  0.66666700  0.30964300  1
  Au  Au53  1  0.00000000  0.00000000  0.30942200  1
  Au  Au54  1  0.00000000  0.00000000  0.69057800  1
  Au  Au55  1  0.33333300  0.66666700  0.69035700  1
  Au  Au56  1  0.84354200  0.27305900  0.50000000  1
  Au  Au57  1  0.72694100  0.57048300  0.50000000  1
  Au  Au58  1  0.42951700  0.15645800  0.50000000  1
  Au  Au59  1  0.48938700  0.39513900  0.50000000  1
  Au  Au60  1  0.60486100  0.09424800  0.50000000  1
  Au  Au61  1  0.90575200  0.51061300  0.50000000  1
  Au  Au62  1  0.64115800  0.19490800  0.00000000  1
  Au  Au63  1  0.80509200  0.44625000  0.00000000  1
  Au  Au64  1  0.55375000  0.35884200  0.00000000  1
