# generated using pymatgen
data_Sr5V3HO13
_symmetry_space_group_name_H-M   'P 1'
_cell_length_a   7.49179900
_cell_length_b   10.23078968
_cell_length_c   10.23086851
_cell_angle_alpha   120.00172721
_cell_angle_beta   90.00000000
_cell_angle_gamma   90.00000000
_symmetry_Int_Tables_number   1
_chemical_formula_structural   Sr5V3HO13
_chemical_formula_sum   'Sr10 V6 H2 O26'
_cell_volume   679.09549510
_cell_formula_units_Z   2
loop_
 _symmetry_equiv_pos_site_id
 _symmetry_equiv_pos_as_xyz
  1  'x, y, z'
loop_
 _atom_site_type_symbol
 _atom_site_label
 _atom_site_symmetry_multiplicity
 _atom_site_fract_x
 _atom_site_fract_y
 _atom_site_fract_z
 _atom_site_occupancy
  Sr  Sr0  1  0.00099400  0.33336000  0.66667800  1
  Sr  Sr1  1  0.50099400  0.66664000  0.33332200  1
  Sr  Sr2  1  0.99893800  0.66663900  0.33332100  1
  Sr  Sr3  1  0.49893800  0.33336100  0.66667900  1
  Sr  Sr4  1  0.24910300  0.74757800  0.99443000  1
  Sr  Sr5  1  0.24910200  0.00558300  0.75314300  1
  Sr  Sr6  1  0.24910100  0.24684400  0.25243400  1
  Sr  Sr7  1  0.74910300  0.25242200  0.00557000  1
  Sr  Sr8  1  0.74910200  0.99441700  0.24685700  1
  Sr  Sr9  1  0.74910100  0.75315600  0.74756600  1
  V  V10  1  0.24945400  0.96946300  0.36755500  1
  V  V11  1  0.24945300  0.63245600  0.60192300  1
  V  V12  1  0.24946600  0.39808600  0.03053000  1
  V  V13  1  0.74945400  0.03053700  0.63244500  1
  V  V14  1  0.74945300  0.36754400  0.39807700  1
  V  V15  1  0.74946600  0.60191400  0.96947000  1
  H  H16  1  0.57265500  0.00000000  0.00000100  1
  H  H17  1  0.07265500  0.00000000  0.99999900  1
  O  O18  1  0.25021600  0.87165700  0.46759500  1
  O  O19  1  0.25021600  0.53239000  0.40406100  1
  O  O20  1  0.25022100  0.59593100  0.12833000  1
  O  O21  1  0.75021600  0.12834300  0.53240500  1
  O  O22  1  0.75021600  0.46761000  0.59593900  1
  O  O23  1  0.75022100  0.40406900  0.87167000  1
  O  O24  1  0.24961100  0.16558500  0.48480600  1
  O  O25  1  0.24961300  0.51520800  0.68078300  1
  O  O26  1  0.24961500  0.31922000  0.83441500  1
  O  O27  1  0.74961100  0.83441500  0.51519400  1
  O  O28  1  0.74961300  0.48479200  0.31921700  1
  O  O29  1  0.74961500  0.68078000  0.16558500  1
  O  O30  1  0.06470800  0.90784900  0.24997900  1
  O  O31  1  0.06470400  0.75002100  0.65787100  1
  O  O32  1  0.06471800  0.34213600  0.09214500  1
  O  O33  1  0.56470800  0.09215100  0.75002100  1
  O  O34  1  0.56470400  0.24997900  0.34212900  1
  O  O35  1  0.56471800  0.65786400  0.90785500  1
  O  O36  1  0.93342400  0.09138800  0.75164100  1
  O  O37  1  0.93342900  0.24836100  0.33974900  1
  O  O38  1  0.93344200  0.66025300  0.90861000  1
  O  O39  1  0.43342400  0.90861200  0.24835900  1
  O  O40  1  0.43342900  0.75163900  0.66025100  1
  O  O41  1  0.43344200  0.33974700  0.09139000  1
  O  O42  1  0.20341600  0.00000200  0.99999600  1
  O  O43  1  0.70341600  0.99999800  0.00000400  1
