# generated using pymatgen
data_InSb(P2O7)2
_symmetry_space_group_name_H-M   'P 1'
_cell_length_a   8.08790300
_cell_length_b   8.12305900
_cell_length_c   16.38977700
_cell_angle_alpha   90.00000000
_cell_angle_beta   90.00000000
_cell_angle_gamma   90.00000000
_symmetry_Int_Tables_number   1
_chemical_formula_structural   InSb(P2O7)2
_chemical_formula_sum   'In4 Sb4 P16 O56'
_cell_volume   1076.78398149
_cell_formula_units_Z   4
loop_
 _symmetry_equiv_pos_site_id
 _symmetry_equiv_pos_as_xyz
  1  'x, y, z'
loop_
 _atom_site_type_symbol
 _atom_site_label
 _atom_site_symmetry_multiplicity
 _atom_site_fract_x
 _atom_site_fract_y
 _atom_site_fract_z
 _atom_site_occupancy
  In  In0  1  0.98642600  0.24623600  0.37273700  1
  In  In1  1  0.01357400  0.74623600  0.62726300  1
  In  In2  1  0.51357400  0.74623600  0.87273700  1
  In  In3  1  0.48642600  0.24623600  0.12726300  1
  Sb  Sb4  1  0.98590600  0.74535600  0.12219700  1
  Sb  Sb5  1  0.01409400  0.24535600  0.87780300  1
  Sb  Sb6  1  0.51409400  0.24535600  0.62219700  1
  Sb  Sb7  1  0.48590600  0.74535600  0.37780300  1
  P  P8  1  0.09056200  0.36624100  0.06694900  1
  P  P9  1  0.90943800  0.86624100  0.93305100  1
  P  P10  1  0.40943800  0.86624100  0.56694900  1
  P  P11  1  0.59056200  0.36624100  0.43305100  1
  P  P12  1  0.89310700  0.12988200  0.16950800  1
  P  P13  1  0.10689300  0.62988200  0.83049200  1
  P  P14  1  0.60689300  0.62988200  0.66950800  1
  P  P15  1  0.39310700  0.12988200  0.33049200  1
  P  P16  1  0.10057400  0.64440000  0.31346600  1
  P  P17  1  0.89942600  0.14440000  0.68653400  1
  P  P18  1  0.39942600  0.14440000  0.81346600  1
  P  P19  1  0.60057400  0.64440000  0.18653400  1
  P  P20  1  0.87827900  0.84674100  0.42400000  1
  P  P21  1  0.12172100  0.34674100  0.57600000  1
  P  P22  1  0.62172100  0.34674100  0.92400000  1
  P  P23  1  0.37827900  0.84674100  0.07600000  1
  O  O24  1  0.14104500  0.52662100  0.59715100  1
  O  O25  1  0.85895500  0.02662100  0.40284900  1
  O  O26  1  0.35895500  0.02662100  0.09715100  1
  O  O27  1  0.64104500  0.52662100  0.90284900  1
  O  O28  1  0.02275000  0.29899100  0.50264400  1
  O  O29  1  0.97725000  0.79899100  0.49735600  1
  O  O30  1  0.47725000  0.79899100  0.00264400  1
  O  O31  1  0.52275000  0.29899100  0.99735600  1
  O  O32  1  0.92065000  0.13446200  0.78019800  1
  O  O33  1  0.07935000  0.63446200  0.21980200  1
  O  O34  1  0.57935000  0.63446200  0.28019800  1
  O  O35  1  0.42065000  0.13446200  0.71980200  1
  O  O36  1  0.04536100  0.26038300  0.65739900  1
  O  O37  1  0.95463900  0.76038300  0.34260100  1
  O  O38  1  0.45463900  0.76038300  0.15739900  1
  O  O39  1  0.54536100  0.26038300  0.84260100  1
  O  O40  1  0.23721200  0.23708000  0.82959400  1
  O  O41  1  0.76278800  0.73708000  0.17040600  1
  O  O42  1  0.26278800  0.73708000  0.32959400  1
  O  O43  1  0.73721200  0.23708000  0.67040600  1
  O  O44  1  0.47217000  0.51792500  0.42490700  1
  O  O45  1  0.52783000  0.01792500  0.57509300  1
  O  O46  1  0.02783000  0.01792500  0.92490700  1
  O  O47  1  0.97217000  0.51792500  0.07509300  1
  O  O48  1  0.20359800  0.76389200  0.06902400  1
  O  O49  1  0.79640100  0.26389200  0.93097600  1
  O  O50  1  0.29640100  0.26389200  0.56902400  1
  O  O51  1  0.70359900  0.76389200  0.43097600  1
  O  O52  1  0.02196200  0.71392800  0.91000000  1
  O  O53  1  0.97803800  0.21392800  0.09000000  1
  O  O54  1  0.47803800  0.21392800  0.41000000  1
  O  O55  1  0.52196200  0.71392800  0.59000000  1
  O  O56  1  0.09949600  0.47852200  0.35292800  1
  O  O57  1  0.90050400  0.97852200  0.64707200  1
  O  O58  1  0.40050400  0.97852200  0.85292800  1
  O  O59  1  0.59949600  0.47852200  0.14707200  1
  O  O60  1  0.50541600  0.46424100  0.67608700  1
  O  O61  1  0.49458400  0.96424100  0.32391300  1
  O  O62  1  0.99458400  0.96424100  0.17608700  1
  O  O63  1  0.00541600  0.46424100  0.82391300  1
  O  O64  1  0.06876200  0.73302000  0.75659900  1
  O  O65  1  0.93123800  0.23302000  0.24340100  1
  O  O66  1  0.43123800  0.23302000  0.25659900  1
  O  O67  1  0.56876200  0.73302000  0.74340100  1
  O  O68  1  0.37168300  0.83673200  0.47499800  1
  O  O69  1  0.62831700  0.33673200  0.52500200  1
  O  O70  1  0.12831700  0.33673200  0.97499800  1
  O  O71  1  0.87168300  0.83673200  0.02500200  1
  O  O72  1  0.24771200  0.37688700  0.11491000  1
  O  O73  1  0.75228800  0.87688700  0.88509000  1
  O  O74  1  0.25228800  0.87688700  0.61491000  1
  O  O75  1  0.74771200  0.37688700  0.38509000  1
  O  O76  1  0.28604500  0.60586000  0.85377700  1
  O  O77  1  0.71395500  0.10586000  0.14622300  1
  O  O78  1  0.21395500  0.10586000  0.35377700  1
  O  O79  1  0.78604500  0.60586000  0.64622300  1
