# generated using pymatgen
data_Ca(GaSe2)2
_symmetry_space_group_name_H-M   'P 1'
_cell_length_a   15.09142586
_cell_length_b   12.47352715
_cell_length_c   12.43271931
_cell_angle_alpha   74.59129261
_cell_angle_beta   52.82760374
_cell_angle_gamma   52.58110365
_symmetry_Int_Tables_number   1
_chemical_formula_structural   Ca(GaSe2)2
_chemical_formula_sum   'Ca8 Ga16 Se32'
_cell_volume   1461.94776073
_cell_formula_units_Z   8
loop_
 _symmetry_equiv_pos_site_id
 _symmetry_equiv_pos_as_xyz
  1  'x, y, z'
loop_
 _atom_site_type_symbol
 _atom_site_label
 _atom_site_symmetry_multiplicity
 _atom_site_fract_x
 _atom_site_fract_y
 _atom_site_fract_z
 _atom_site_occupancy
  Ca  Ca0  1  0.50000000  0.50000000  0.50000000  1
  Ca  Ca1  1  0.75000000  0.75000000  0.75000000  1
  Ca  Ca2  1  0.00000000  0.00000000  0.00000000  1
  Ca  Ca3  1  0.25000000  0.25000000  0.25000000  1
  Ca  Ca4  1  0.24788800  0.24788800  0.75211200  1
  Ca  Ca5  1  0.75211200  0.75211200  0.24788800  1
  Ca  Ca6  1  0.00211200  0.00211200  0.49788800  1
  Ca  Ca7  1  0.49788800  0.49788800  0.00211200  1
  Ga  Ga8  1  0.09483200  0.65550400  0.26407400  1
  Ga  Ga9  1  0.98559000  0.26407400  0.65550400  1
  Ga  Ga10  1  0.26407400  0.98559000  0.09483200  1
  Ga  Ga11  1  0.65550400  0.09483200  0.98559000  1
  Ga  Ga12  1  0.15516800  0.59449600  0.98592600  1
  Ga  Ga13  1  0.26441000  0.98592600  0.59449600  1
  Ga  Ga14  1  0.98592600  0.26441000  0.15516800  1
  Ga  Ga15  1  0.59449600  0.15516800  0.26441000  1
  Ga  Ga16  1  0.73797900  0.01330400  0.48934300  1
  Ga  Ga17  1  0.75937300  0.48934300  0.01330400  1
  Ga  Ga18  1  0.48934300  0.75937300  0.73797900  1
  Ga  Ga19  1  0.01330400  0.73797900  0.75937300  1
  Ga  Ga20  1  0.51202100  0.23669600  0.76065700  1
  Ga  Ga21  1  0.49062700  0.76065700  0.23669600  1
  Ga  Ga22  1  0.76065700  0.49062700  0.51202100  1
  Ga  Ga23  1  0.23669600  0.51202100  0.49062700  1
  Se  Se24  1  0.53979400  0.53614900  0.71073900  1
  Se  Se25  1  0.21331800  0.71073900  0.53614900  1
  Se  Se26  1  0.71073900  0.21331800  0.53979400  1
  Se  Se27  1  0.53614900  0.53979400  0.21331800  1
  Se  Se28  1  0.71020600  0.71385100  0.53926100  1
  Se  Se29  1  0.03668200  0.53926100  0.71385100  1
  Se  Se30  1  0.53926100  0.03668200  0.71020600  1
  Se  Se31  1  0.71385100  0.71020600  0.03668200  1
  Se  Se32  1  0.03878400  0.03617600  0.71078400  1
  Se  Se33  1  0.21425600  0.71078400  0.03617600  1
  Se  Se34  1  0.71078400  0.21425600  0.03878400  1
  Se  Se35  1  0.03617600  0.03878400  0.21425600  1
  Se  Se36  1  0.21121600  0.21382400  0.53921600  1
  Se  Se37  1  0.03574400  0.53921600  0.21382400  1
  Se  Se38  1  0.53921600  0.03574400  0.21121600  1
  Se  Se39  1  0.21382400  0.21121600  0.03574400  1
  Se  Se40  1  0.46293200  0.28424800  0.97352000  1
  Se  Se41  1  0.27930000  0.97352000  0.28424800  1
  Se  Se42  1  0.97352000  0.27930000  0.46293200  1
  Se  Se43  1  0.28424800  0.46293200  0.27930000  1
  Se  Se44  1  0.78706800  0.96575200  0.27648000  1
  Se  Se45  1  0.97070000  0.27648000  0.96575200  1
  Se  Se46  1  0.27648000  0.97070000  0.78706800  1
  Se  Se47  1  0.96575200  0.78706800  0.97070000  1
  Se  Se48  1  0.80936400  0.94323900  0.77284000  1
  Se  Se49  1  0.47455700  0.77284000  0.94323900  1
  Se  Se50  1  0.77284000  0.47455700  0.80936400  1
  Se  Se51  1  0.94323900  0.80936400  0.47455700  1
  Se  Se52  1  0.44063600  0.30676100  0.47716000  1
  Se  Se53  1  0.77544300  0.47716000  0.30676100  1
  Se  Se54  1  0.47716000  0.77544300  0.44063600  1
  Se  Se55  1  0.30676100  0.44063600  0.77544300  1
