# generated using pymatgen
data_YbAsPt
_symmetry_space_group_name_H-M   'P 1'
_cell_length_a   4.30925226
_cell_length_b   4.30925226
_cell_length_c   15.56882200
_cell_angle_alpha   90.00000000
_cell_angle_beta   90.00000000
_cell_angle_gamma   120.00000394
_symmetry_Int_Tables_number   1
_chemical_formula_structural   YbAsPt
_chemical_formula_sum   'Yb4 As4 Pt4'
_cell_volume   250.37456242
_cell_formula_units_Z   4
loop_
 _symmetry_equiv_pos_site_id
 _symmetry_equiv_pos_as_xyz
  1  'x, y, z'
loop_
 _atom_site_type_symbol
 _atom_site_label
 _atom_site_symmetry_multiplicity
 _atom_site_fract_x
 _atom_site_fract_y
 _atom_site_fract_z
 _atom_site_occupancy
  Yb  Yb0  1  0.00000000  0.00000000  0.50000000  1
  Yb  Yb1  1  0.00000000  0.00000000  0.00000000  1
  Yb  Yb2  1  0.00000000  0.00000000  0.25000000  1
  Yb  Yb3  1  0.00000000  0.00000000  0.75000000  1
  As  As4  1  0.33333300  0.66666700  0.87081600  1
  As  As5  1  0.66666700  0.33333300  0.12918400  1
  As  As6  1  0.66666700  0.33333300  0.37081600  1
  As  As7  1  0.33333300  0.66666700  0.62918400  1
  Pt  Pt8  1  0.33333300  0.66666700  0.37816400  1
  Pt  Pt9  1  0.66666700  0.33333300  0.62183600  1
  Pt  Pt10  1  0.66666700  0.33333300  0.87816400  1
  Pt  Pt11  1  0.33333300  0.66666700  0.12183600  1
