# generated using pymatgen
data_Li2CuSn2
_symmetry_space_group_name_H-M   'P 1'
_cell_length_a   10.24443788
_cell_length_b   10.24443788
_cell_length_c   10.24443788
_cell_angle_alpha   155.08220179
_cell_angle_beta   155.08220179
_cell_angle_gamma   35.52852000
_symmetry_Int_Tables_number   1
_chemical_formula_structural   Li2CuSn2
_chemical_formula_sum   'Li4 Cu2 Sn4'
_cell_volume   190.61867307
_cell_formula_units_Z   2
loop_
 _symmetry_equiv_pos_site_id
 _symmetry_equiv_pos_as_xyz
  1  'x, y, z'
loop_
 _atom_site_type_symbol
 _atom_site_label
 _atom_site_symmetry_multiplicity
 _atom_site_fract_x
 _atom_site_fract_y
 _atom_site_fract_z
 _atom_site_occupancy
  Li  Li0  1  0.82610900  0.82610900  0.00000000  1
  Li  Li1  1  0.57610900  0.07610900  0.50000000  1
  Li  Li2  1  0.92389100  0.42389100  0.50000000  1
  Li  Li3  1  0.17389100  0.17389100  0.00000000  1
  Cu  Cu4  1  0.75000000  0.25000000  0.50000000  1
  Cu  Cu5  1  0.00000000  0.00000000  0.00000000  1
  Sn  Sn6  1  0.32336000  0.32336000  0.00000000  1
  Sn  Sn7  1  0.07336000  0.57336000  0.50000000  1
  Sn  Sn8  1  0.42664000  0.92664000  0.50000000  1
  Sn  Sn9  1  0.67664000  0.67664000  0.00000000  1
