# generated using pymatgen
data_HoCoB4
_symmetry_space_group_name_H-M   'P 1'
_cell_length_a   3.37503300
_cell_length_b   5.88653900
_cell_length_c   11.39122200
_cell_angle_alpha   90.00000000
_cell_angle_beta   90.00000000
_cell_angle_gamma   90.00000000
_symmetry_Int_Tables_number   1
_chemical_formula_structural   HoCoB4
_chemical_formula_sum   'Ho4 Co4 B16'
_cell_volume   226.31240770
_cell_formula_units_Z   4
loop_
 _symmetry_equiv_pos_site_id
 _symmetry_equiv_pos_as_xyz
  1  'x, y, z'
loop_
 _atom_site_type_symbol
 _atom_site_label
 _atom_site_symmetry_multiplicity
 _atom_site_fract_x
 _atom_site_fract_y
 _atom_site_fract_z
 _atom_site_occupancy
  Ho  Ho0  1  0.50000000  0.37264600  0.14988300  1
  Ho  Ho1  1  0.50000000  0.62735400  0.85011700  1
  Ho  Ho2  1  0.50000000  0.12735400  0.64988300  1
  Ho  Ho3  1  0.50000000  0.87264600  0.35011700  1
  Co  Co4  1  0.50000000  0.36519400  0.41064200  1
  Co  Co5  1  0.50000000  0.63480600  0.58935800  1
  Co  Co6  1  0.50000000  0.13480600  0.91064200  1
  Co  Co7  1  0.50000000  0.86519400  0.08935800  1
  B  B8  1  0.00000000  0.11145200  0.04610100  1
  B  B9  1  0.00000000  0.88854800  0.95389900  1
  B  B10  1  0.00000000  0.38854800  0.54610100  1
  B  B11  1  0.00000000  0.61145200  0.45389900  1
  B  B12  1  0.00000000  0.13875900  0.46771200  1
  B  B13  1  0.00000000  0.86124100  0.53228800  1
  B  B14  1  0.00000000  0.36124100  0.96771200  1
  B  B15  1  0.00000000  0.63875900  0.03228800  1
  B  B16  1  0.00000000  0.02329400  0.19103800  1
  B  B17  1  0.00000000  0.97670600  0.80896200  1
  B  B18  1  0.00000000  0.47670600  0.69103800  1
  B  B19  1  0.00000000  0.52329400  0.30896200  1
  B  B20  1  0.00000000  0.21818100  0.31505900  1
  B  B21  1  0.00000000  0.78181900  0.68494100  1
  B  B22  1  0.00000000  0.28181900  0.81505900  1
  B  B23  1  0.00000000  0.71818100  0.18494100  1
