# generated using pymatgen
data_Ba6Nd2Y(MoO6)3
_symmetry_space_group_name_H-M   'P 1'
_cell_length_a   10.48681976
_cell_length_b   10.48681976
_cell_length_c   6.09081929
_cell_angle_alpha   73.28227308
_cell_angle_beta   73.28227308
_cell_angle_gamma   48.76219795
_symmetry_Int_Tables_number   1
_chemical_formula_structural   Ba6Nd2Y(MoO6)3
_chemical_formula_sum   'Ba6 Nd2 Y1 Mo3 O18'
_cell_volume   477.91740519
_cell_formula_units_Z   1
loop_
 _symmetry_equiv_pos_site_id
 _symmetry_equiv_pos_as_xyz
  1  'x, y, z'
loop_
 _atom_site_type_symbol
 _atom_site_label
 _atom_site_symmetry_multiplicity
 _atom_site_fract_x
 _atom_site_fract_y
 _atom_site_fract_z
 _atom_site_occupancy
  Ba  Ba0  1  0.91635800  0.41574300  0.33407400  1
  Ba  Ba1  1  0.25020500  0.74979500  0.00000000  1
  Ba  Ba2  1  0.58425700  0.08364200  0.66592600  1
  Ba  Ba3  1  0.74979500  0.25020500  0.00000000  1
  Ba  Ba4  1  0.08364200  0.58425700  0.66592600  1
  Ba  Ba5  1  0.41574300  0.91635800  0.33407400  1
  Nd  Nd6  1  0.16668100  0.16668100  0.83344400  1
  Nd  Nd7  1  0.83331900  0.83331900  0.16655600  1
  Y  Y8  1  0.50000000  0.50000000  0.50000000  1
  Mo  Mo9  1  0.00000000  0.00000000  0.50000000  1
  Mo  Mo10  1  0.33498200  0.33498200  0.16415500  1
  Mo  Mo11  1  0.66501800  0.66501800  0.83584500  1
  O  O12  1  0.89964300  0.43196800  0.83359100  1
  O  O13  1  0.23121900  0.76878100  0.50000000  1
  O  O14  1  0.56803200  0.10035700  0.16640900  1
  O  O15  1  0.76878100  0.23121900  0.50000000  1
  O  O16  1  0.10035700  0.56803200  0.16640900  1
  O  O17  1  0.43196800  0.89964300  0.83359100  1
  O  O18  1  0.75144200  0.75144200  0.54708200  1
  O  O19  1  0.42244000  0.42244000  0.86782800  1
  O  O20  1  0.08992900  0.08992900  0.21226200  1
  O  O21  1  0.91007100  0.91007100  0.78773800  1
  O  O22  1  0.57756000  0.57756000  0.13217200  1
  O  O23  1  0.24855800  0.24855800  0.45291800  1
  O  O24  1  0.06707700  0.06707700  0.69840700  1
  O  O25  1  0.72961300  0.72961300  0.03306200  1
  O  O26  1  0.40241200  0.40241200  0.36284800  1
  O  O27  1  0.93292300  0.93292300  0.30159300  1
  O  O28  1  0.59758800  0.59758800  0.63715200  1
  O  O29  1  0.27038700  0.27038700  0.96693800  1
