# generated using pymatgen
data_Rb2EuCl5
_symmetry_space_group_name_H-M   'P 1'
_cell_length_a   8.30574200
_cell_length_b   9.01203100
_cell_length_c   13.50026000
_cell_angle_alpha   90.00000000
_cell_angle_beta   90.00000000
_cell_angle_gamma   90.00000000
_symmetry_Int_Tables_number   1
_chemical_formula_structural   Rb2EuCl5
_chemical_formula_sum   'Rb8 Eu4 Cl20'
_cell_volume   1010.51612057
_cell_formula_units_Z   4
loop_
 _symmetry_equiv_pos_site_id
 _symmetry_equiv_pos_as_xyz
  1  'x, y, z'
loop_
 _atom_site_type_symbol
 _atom_site_label
 _atom_site_symmetry_multiplicity
 _atom_site_fract_x
 _atom_site_fract_y
 _atom_site_fract_z
 _atom_site_occupancy
  Rb  Rb0  1  0.55018700  0.49494100  0.67172000  1
  Rb  Rb1  1  0.44981300  0.50505900  0.32828000  1
  Rb  Rb2  1  0.05018700  0.50505900  0.82828000  1
  Rb  Rb3  1  0.44981300  0.99494100  0.32828000  1
  Rb  Rb4  1  0.94981300  0.49494100  0.17172000  1
  Rb  Rb5  1  0.55018700  0.00505900  0.67172000  1
  Rb  Rb6  1  0.94981300  0.00505900  0.17172000  1
  Rb  Rb7  1  0.05018700  0.99494100  0.82828000  1
  Eu  Eu8  1  0.56808600  0.75000000  0.99601500  1
  Eu  Eu9  1  0.43191400  0.25000000  0.00398500  1
  Eu  Eu10  1  0.06808600  0.25000000  0.50398500  1
  Eu  Eu11  1  0.93191400  0.75000000  0.49601500  1
  Cl  Cl12  1  0.38214600  0.75000000  0.82648600  1
  Cl  Cl13  1  0.61785400  0.25000000  0.17351400  1
  Cl  Cl14  1  0.88214600  0.25000000  0.67351400  1
  Cl  Cl15  1  0.11785400  0.75000000  0.32648600  1
  Cl  Cl16  1  0.65524000  0.45967800  0.92636400  1
  Cl  Cl17  1  0.34476000  0.54032200  0.07363600  1
  Cl  Cl18  1  0.15524000  0.54032200  0.57363600  1
  Cl  Cl19  1  0.34476000  0.95967800  0.07363600  1
  Cl  Cl20  1  0.84476000  0.45967800  0.42636400  1
  Cl  Cl21  1  0.65524000  0.04032200  0.92636400  1
  Cl  Cl22  1  0.84476000  0.04032200  0.42636400  1
  Cl  Cl23  1  0.15524000  0.95967800  0.57363600  1
  Cl  Cl24  1  0.91321600  0.75000000  0.99355400  1
  Cl  Cl25  1  0.08678400  0.25000000  0.00644600  1
  Cl  Cl26  1  0.41321600  0.25000000  0.50644600  1
  Cl  Cl27  1  0.58678400  0.75000000  0.49355400  1
  Cl  Cl28  1  0.83753500  0.75000000  0.69606700  1
  Cl  Cl29  1  0.16246500  0.25000000  0.30393300  1
  Cl  Cl30  1  0.33753500  0.25000000  0.80393300  1
  Cl  Cl31  1  0.66246500  0.75000000  0.19606700  1
