# generated using pymatgen
data_Yb2SnS5
_symmetry_space_group_name_H-M   'P 1'
_cell_length_a   3.87402600
_cell_length_b   11.45367500
_cell_length_c   15.12453700
_cell_angle_alpha   90.00000000
_cell_angle_beta   90.00000000
_cell_angle_gamma   90.00000000
_symmetry_Int_Tables_number   1
_chemical_formula_structural   Yb2SnS5
_chemical_formula_sum   'Yb8 Sn4 S20'
_cell_volume   671.10345637
_cell_formula_units_Z   4
loop_
 _symmetry_equiv_pos_site_id
 _symmetry_equiv_pos_as_xyz
  1  'x, y, z'
loop_
 _atom_site_type_symbol
 _atom_site_label
 _atom_site_symmetry_multiplicity
 _atom_site_fract_x
 _atom_site_fract_y
 _atom_site_fract_z
 _atom_site_occupancy
  Yb  Yb0  1  0.01979500  0.74205900  0.42494700  1
  Yb  Yb1  1  0.01979500  0.25794100  0.57505300  1
  Yb  Yb2  1  0.98020500  0.24205900  0.07505300  1
  Yb  Yb3  1  0.98020500  0.75794100  0.92494700  1
  Yb  Yb4  1  0.98949900  0.87741200  0.17663200  1
  Yb  Yb5  1  0.98949900  0.12258800  0.82336800  1
  Yb  Yb6  1  0.01050100  0.37741200  0.32336800  1
  Yb  Yb7  1  0.01050100  0.62258800  0.67663200  1
  Sn  Sn8  1  0.52910400  0.06328400  0.37101000  1
  Sn  Sn9  1  0.52910400  0.93671600  0.62899000  1
  Sn  Sn10  1  0.47089600  0.56328400  0.12899000  1
  Sn  Sn11  1  0.47089600  0.43671600  0.87101000  1
  S  S12  1  0.52822100  0.25909700  0.43688400  1
  S  S13  1  0.52822100  0.74090300  0.56311600  1
  S  S14  1  0.47177900  0.75909700  0.06311600  1
  S  S15  1  0.47177900  0.24090300  0.93688400  1
  S  S16  1  0.98186500  0.50000000  0.00000000  1
  S  S17  1  0.01813500  0.00000000  0.50000000  1
  S  S18  1  0.51081900  0.85782000  0.31840600  1
  S  S19  1  0.51081900  0.14218000  0.68159400  1
  S  S20  1  0.48918100  0.35782000  0.18159400  1
  S  S21  1  0.48918100  0.64218000  0.81840600  1
  S  S22  1  0.51107900  0.55046500  0.39093100  1
  S  S23  1  0.51107900  0.44953500  0.60906900  1
  S  S24  1  0.48892100  0.05046500  0.10906900  1
  S  S25  1  0.48892100  0.94953500  0.89093100  1
  S  S26  1  0.96634000  0.61997000  0.23170600  1
  S  S27  1  0.96634000  0.38003000  0.76829400  1
  S  S28  1  0.03366000  0.11997000  0.26829400  1
  S  S29  1  0.03366000  0.88003000  0.73170600  1
  S  S30  1  0.20781600  0.50000000  0.50000000  1
  S  S31  1  0.79218400  0.00000000  0.00000000  1
