# generated using pymatgen
data_CsTb2Cl7
_symmetry_space_group_name_H-M   'P 1'
_cell_length_a   7.06236100
_cell_length_b   12.77271700
_cell_length_c   13.96975600
_cell_angle_alpha   90.00000000
_cell_angle_beta   90.00000000
_cell_angle_gamma   90.00000000
_symmetry_Int_Tables_number   1
_chemical_formula_structural   CsTb2Cl7
_chemical_formula_sum   'Cs4 Tb8 Cl28'
_cell_volume   1260.14936136
_cell_formula_units_Z   4
loop_
 _symmetry_equiv_pos_site_id
 _symmetry_equiv_pos_as_xyz
  1  'x, y, z'
loop_
 _atom_site_type_symbol
 _atom_site_label
 _atom_site_symmetry_multiplicity
 _atom_site_fract_x
 _atom_site_fract_y
 _atom_site_fract_z
 _atom_site_occupancy
  Cs  Cs0  1  0.25000000  0.80374400  0.04124300  1
  Cs  Cs1  1  0.75000000  0.19625600  0.95875700  1
  Cs  Cs2  1  0.75000000  0.30374400  0.45875700  1
  Cs  Cs3  1  0.25000000  0.69625600  0.54124300  1
  Tb  Tb4  1  0.25000000  0.45959600  0.23745000  1
  Tb  Tb5  1  0.75000000  0.54040400  0.76255000  1
  Tb  Tb6  1  0.75000000  0.95959600  0.26255000  1
  Tb  Tb7  1  0.25000000  0.04040400  0.73745000  1
  Tb  Tb8  1  0.25000000  0.15624600  0.24987900  1
  Tb  Tb9  1  0.75000000  0.84375400  0.75012100  1
  Tb  Tb10  1  0.75000000  0.65624600  0.25012100  1
  Tb  Tb11  1  0.25000000  0.34375400  0.74987900  1
  Cl  Cl12  1  0.01297200  0.30612800  0.17790500  1
  Cl  Cl13  1  0.98702800  0.69387200  0.82209500  1
  Cl  Cl14  1  0.98702800  0.80612800  0.32209500  1
  Cl  Cl15  1  0.51297200  0.69387200  0.82209500  1
  Cl  Cl16  1  0.01297200  0.19387200  0.67790500  1
  Cl  Cl17  1  0.48702800  0.30612800  0.17790500  1
  Cl  Cl18  1  0.48702800  0.19387200  0.67790500  1
  Cl  Cl19  1  0.51297200  0.80612800  0.32209500  1
  Cl  Cl20  1  0.00866700  0.57499000  0.12677700  1
  Cl  Cl21  1  0.99133300  0.42501000  0.87322300  1
  Cl  Cl22  1  0.99133300  0.07499000  0.37322300  1
  Cl  Cl23  1  0.50866700  0.42501000  0.87322300  1
  Cl  Cl24  1  0.00866700  0.92501000  0.62677700  1
  Cl  Cl25  1  0.49133300  0.57499000  0.12677700  1
  Cl  Cl26  1  0.49133300  0.92501000  0.62677700  1
  Cl  Cl27  1  0.50866700  0.07499000  0.37322300  1
  Cl  Cl28  1  0.00908200  0.04029400  0.13774400  1
  Cl  Cl29  1  0.99091800  0.95970600  0.86225600  1
  Cl  Cl30  1  0.99091800  0.54029400  0.36225600  1
  Cl  Cl31  1  0.50908200  0.95970600  0.86225600  1
  Cl  Cl32  1  0.00908200  0.45970600  0.63774400  1
  Cl  Cl33  1  0.49091800  0.04029400  0.13774400  1
  Cl  Cl34  1  0.49091800  0.45970600  0.63774400  1
  Cl  Cl35  1  0.50908200  0.54029400  0.36225600  1
  Cl  Cl36  1  0.25000000  0.31113900  0.38536300  1
  Cl  Cl37  1  0.75000000  0.68886100  0.61463700  1
  Cl  Cl38  1  0.75000000  0.81113900  0.11463700  1
  Cl  Cl39  1  0.25000000  0.18886100  0.88536300  1
