# generated using pymatgen
data_Tb11(In3Si2)2
_symmetry_space_group_name_H-M   'P 1'
_cell_length_a   11.53485944
_cell_length_b   11.53485944
_cell_length_c   11.53485944
_cell_angle_alpha   119.83609709
_cell_angle_beta   119.83609709
_cell_angle_gamma   90.28412338
_symmetry_Int_Tables_number   1
_chemical_formula_structural   Tb11(In3Si2)2
_chemical_formula_sum   'Tb22 In12 Si8'
_cell_volume   1087.90438312
_cell_formula_units_Z   2
loop_
 _symmetry_equiv_pos_site_id
 _symmetry_equiv_pos_as_xyz
  1  'x, y, z'
loop_
 _atom_site_type_symbol
 _atom_site_label
 _atom_site_symmetry_multiplicity
 _atom_site_fract_x
 _atom_site_fract_y
 _atom_site_fract_z
 _atom_site_occupancy
  Tb  Tb0  1  0.68462100  0.93476000  0.25013800  1
  Tb  Tb1  1  0.68462100  0.43448300  0.74986200  1
  Tb  Tb2  1  0.93476000  0.68462100  0.25013800  1
  Tb  Tb3  1  0.43448300  0.68462100  0.74986200  1
  Tb  Tb4  1  0.31537900  0.06524000  0.74986200  1
  Tb  Tb5  1  0.31537900  0.56551700  0.25013800  1
  Tb  Tb6  1  0.06524000  0.31537900  0.74986200  1
  Tb  Tb7  1  0.56551700  0.31537900  0.25013800  1
  Tb  Tb8  1  0.89923400  0.24652600  0.34729200  1
  Tb  Tb9  1  0.89923400  0.55194100  0.65270800  1
  Tb  Tb10  1  0.24652600  0.89923400  0.34729200  1
  Tb  Tb11  1  0.55194100  0.89923400  0.65270800  1
  Tb  Tb12  1  0.10076600  0.75347400  0.65270800  1
  Tb  Tb13  1  0.10076600  0.44805900  0.34729200  1
  Tb  Tb14  1  0.75347400  0.10076600  0.65270800  1
  Tb  Tb15  1  0.44805900  0.10076600  0.34729200  1
  Tb  Tb16  1  0.33274300  0.33274300  0.66548500  1
  Tb  Tb17  1  0.66725700  0.66725700  0.33451500  1
  Tb  Tb18  1  0.33274300  0.66725700  0.00000000  1
  Tb  Tb19  1  0.66725700  0.33274300  0.00000000  1
  Tb  Tb20  1  0.83200800  0.83200800  0.00000000  1
  Tb  Tb21  1  0.16799200  0.16799200  0.00000000  1
  In  In22  1  0.03377300  0.03377300  0.41059300  1
  In  In23  1  0.62318000  0.62318000  0.58940700  1
  In  In24  1  0.03377300  0.62318000  0.00000000  1
  In  In25  1  0.62318000  0.03377300  0.00000000  1
  In  In26  1  0.96622700  0.96622700  0.58940700  1
  In  In27  1  0.37682000  0.37682000  0.41059300  1
  In  In28  1  0.96622700  0.37682000  0.00000000  1
  In  In29  1  0.37682000  0.96622700  0.00000000  1
  In  In30  1  0.12929000  0.12929000  0.25858000  1
  In  In31  1  0.87071000  0.87071000  0.74142000  1
  In  In32  1  0.12929000  0.87071000  0.00000000  1
  In  In33  1  0.87071000  0.12929000  0.00000000  1
  Si  Si34  1  0.15361000  0.50000000  0.65361000  1
  Si  Si35  1  0.84639000  0.50000000  0.34639000  1
  Si  Si36  1  0.50000000  0.84639000  0.34639000  1
  Si  Si37  1  0.50000000  0.15361000  0.65361000  1
  Si  Si38  1  0.61705400  0.61705400  0.00000000  1
  Si  Si39  1  0.38294600  0.38294600  0.00000000  1
  Si  Si40  1  0.75000000  0.25000000  0.50000000  1
  Si  Si41  1  0.25000000  0.75000000  0.50000000  1
