# generated using pymatgen
data_Si3Mo5
_symmetry_space_group_name_H-M   'P 1'
_cell_length_a   7.28393111
_cell_length_b   7.28393111
_cell_length_c   7.28393111
_cell_angle_alpha   96.59132022
_cell_angle_beta   96.59132022
_cell_angle_gamma   140.39221939
_symmetry_Int_Tables_number   1
_chemical_formula_structural   Si3Mo5
_chemical_formula_sum   'Si6 Mo10'
_cell_volume   231.80411837
_cell_formula_units_Z   2
loop_
 _symmetry_equiv_pos_site_id
 _symmetry_equiv_pos_as_xyz
  1  'x, y, z'
loop_
 _atom_site_type_symbol
 _atom_site_label
 _atom_site_symmetry_multiplicity
 _atom_site_fract_x
 _atom_site_fract_y
 _atom_site_fract_z
 _atom_site_occupancy
  Si  Si0  1  0.16735900  0.66735900  0.83471800  1
  Si  Si1  1  0.33264100  0.16735900  0.50000000  1
  Si  Si2  1  0.66735900  0.83264100  0.50000000  1
  Si  Si3  1  0.83264100  0.33264100  0.16528200  1
  Si  Si4  1  0.75000000  0.75000000  0.00000000  1
  Si  Si5  1  0.25000000  0.25000000  0.00000000  1
  Mo  Mo6  1  0.72393800  0.57654500  0.30048200  1
  Mo  Mo7  1  0.27606200  0.42345500  0.69951800  1
  Mo  Mo8  1  0.57654500  0.27606200  0.85260700  1
  Mo  Mo9  1  0.42345500  0.72393800  0.14739300  1
  Mo  Mo10  1  0.07654500  0.22393800  0.30048200  1
  Mo  Mo11  1  0.77606200  0.07654500  0.85260700  1
  Mo  Mo12  1  0.22393800  0.92345500  0.14739300  1
  Mo  Mo13  1  0.92345500  0.77606200  0.69951800  1
  Mo  Mo14  1  0.75000000  0.25000000  0.50000000  1
  Mo  Mo15  1  0.25000000  0.75000000  0.50000000  1
