# generated using pymatgen
data_Rb2MnP2H3(O4F)2
_symmetry_space_group_name_H-M   'P 1'
_cell_length_a   8.10560500
_cell_length_b   7.52465200
_cell_length_c   8.64414198
_cell_angle_alpha   65.09763488
_cell_angle_beta   90.00000000
_cell_angle_gamma   90.00000000
_symmetry_Int_Tables_number   1
_chemical_formula_structural   Rb2MnP2H3(O4F)2
_chemical_formula_sum   'Rb4 Mn2 P4 H6 O16 F4'
_cell_volume   478.20464109
_cell_formula_units_Z   2
loop_
 _symmetry_equiv_pos_site_id
 _symmetry_equiv_pos_as_xyz
  1  'x, y, z'
loop_
 _atom_site_type_symbol
 _atom_site_label
 _atom_site_symmetry_multiplicity
 _atom_site_fract_x
 _atom_site_fract_y
 _atom_site_fract_z
 _atom_site_occupancy
  Rb  Rb0  1  0.66624600  0.86307700  0.43984600  1
  Rb  Rb1  1  0.16624600  0.13692300  0.56015400  1
  Rb  Rb2  1  0.33832100  0.13095600  0.05456000  1
  Rb  Rb3  1  0.83832100  0.86904400  0.94544000  1
  Mn  Mn4  1  0.49766800  0.49940200  0.25294300  1
  Mn  Mn5  1  0.99766800  0.50059800  0.74705700  1
  P  P6  1  0.86130600  0.32526500  0.13301800  1
  P  P7  1  0.36130600  0.67473500  0.86698200  1
  P  P8  1  0.13269500  0.68817700  0.36039600  1
  P  P9  1  0.63269500  0.31182300  0.63960400  1
  H  H10  1  0.71510000  0.28652000  0.93794400  1
  H  H11  1  0.21510000  0.71348000  0.06205600  1
  H  H12  1  0.28810100  0.71090900  0.55627000  1
  H  H13  1  0.78810100  0.28909100  0.44373000  1
  H  H14  1  0.99781400  0.02593800  0.24869500  1
  H  H15  1  0.49781400  0.97406200  0.75130500  1
  O  O16  1  0.73549900  0.20897300  0.06765600  1
  O  O17  1  0.23549900  0.79102700  0.93234400  1
  O  O18  1  0.26486100  0.79498700  0.43143900  1
  O  O19  1  0.76486100  0.20501300  0.56856100  1
  O  O20  1  0.54774400  0.47495800  0.48310600  1
  O  O21  1  0.04774400  0.52504200  0.51689400  1
  O  O22  1  0.45066500  0.51939900  0.02286500  1
  O  O23  1  0.95066500  0.48060100  0.97713500  1
  O  O24  1  0.98229300  0.16665200  0.25665300  1
  O  O25  1  0.48229300  0.83334800  0.74334700  1
  O  O26  1  0.01561600  0.84919700  0.24457100  1
  O  O27  1  0.51561600  0.15080300  0.75542900  1
  O  O28  1  0.77482000  0.42162300  0.23510400  1
  O  O29  1  0.27482000  0.57837700  0.76489600  1
  O  O30  1  0.22270800  0.59289700  0.25715100  1
  O  O31  1  0.72270800  0.40710300  0.74284900  1
  F  F32  1  0.55320400  0.76718800  0.16563200  1
  F  F33  1  0.05320400  0.23281200  0.83436800  1
  F  F34  1  0.44433800  0.23179100  0.33709300  1
  F  F35  1  0.94433800  0.76820900  0.66290700  1
