# generated using pymatgen
data_BaB8H4O15
_symmetry_space_group_name_H-M   'P 1'
_cell_length_a   8.06950800
_cell_length_b   14.28234400
_cell_length_c   12.88338942
_cell_angle_alpha   90.00000000
_cell_angle_beta   128.56622449
_cell_angle_gamma   90.00000000
_symmetry_Int_Tables_number   1
_chemical_formula_structural   BaB8H4O15
_chemical_formula_sum   'Ba4 B32 H16 O60'
_cell_volume   1160.97077818
_cell_formula_units_Z   4
loop_
 _symmetry_equiv_pos_site_id
 _symmetry_equiv_pos_as_xyz
  1  'x, y, z'
loop_
 _atom_site_type_symbol
 _atom_site_label
 _atom_site_symmetry_multiplicity
 _atom_site_fract_x
 _atom_site_fract_y
 _atom_site_fract_z
 _atom_site_occupancy
  Ba  Ba0  1  0.79801000  0.15786600  0.87757000  1
  Ba  Ba1  1  0.79801000  0.34213400  0.37757000  1
  Ba  Ba2  1  0.20199000  0.84213400  0.12243000  1
  Ba  Ba3  1  0.20199000  0.65786600  0.62243000  1
  B  B4  1  0.38492600  0.30354600  0.38153700  1
  B  B5  1  0.38492600  0.19645400  0.88153700  1
  B  B6  1  0.61507400  0.69645400  0.61846300  1
  B  B7  1  0.61507400  0.80354600  0.11846300  1
  B  B8  1  0.21740200  0.25841100  0.14739600  1
  B  B9  1  0.21740200  0.24158900  0.64739600  1
  B  B10  1  0.78259800  0.74158900  0.85260400  1
  B  B11  1  0.78259800  0.75841100  0.35260400  1
  B  B12  1  0.32363700  0.31783200  0.00833800  1
  B  B13  1  0.32363700  0.18216800  0.50833800  1
  B  B14  1  0.67636300  0.68216800  0.99166200  1
  B  B15  1  0.67636300  0.81783200  0.49166200  1
  B  B16  1  0.12096600  0.45941400  0.87630000  1
  B  B17  1  0.12096600  0.04058600  0.37630000  1
  B  B18  1  0.87903400  0.54058600  0.12370000  1
  B  B19  1  0.87903400  0.95941400  0.62370000  1
  B  B20  1  0.06037600  0.31346300  0.74732400  1
  B  B21  1  0.06037600  0.18653700  0.24732400  1
  B  B22  1  0.93962400  0.68653700  0.25267600  1
  B  B23  1  0.93962400  0.81346300  0.75267600  1
  B  B24  1  0.68320900  0.25036700  0.60754900  1
  B  B25  1  0.68320900  0.24963300  0.10754900  1
  B  B26  1  0.31679100  0.74963300  0.39245100  1
  B  B27  1  0.31679100  0.75036700  0.89245100  1
  B  B28  1  0.67913200  0.92803200  0.00240100  1
  B  B29  1  0.67913200  0.57196800  0.50240100  1
  B  B30  1  0.32086800  0.07196800  0.99759900  1
  B  B31  1  0.32086800  0.42803200  0.49759900  1
  B  B32  1  0.44610700  0.92452800  0.74963700  1
  B  B33  1  0.44610700  0.57547200  0.24963700  1
  B  B34  1  0.55389300  0.07547200  0.25036300  1
  B  B35  1  0.55389300  0.42452800  0.75036300  1
  H  H36  1  0.90391600  0.02457200  0.11645600  1
  H  H37  1  0.90391600  0.47542800  0.61645600  1
  H  H38  1  0.09608400  0.97542800  0.88354400  1
  H  H39  1  0.09608400  0.52457200  0.38354400  1
  H  H40  1  0.22518800  0.89439700  0.55688900  1
  H  H41  1  0.22518800  0.60560300  0.05688900  1
  H  H42  1  0.77481200  0.10560300  0.44311100  1
  H  H43  1  0.77481200  0.39439700  0.94311100  1
  H  H44  1  0.44106700  0.02308100  0.63843000  1
  H  H45  1  0.44106700  0.47691900  0.13843000  1
  H  H46  1  0.55893300  0.97691900  0.36157000  1
  H  H47  1  0.55893300  0.52308100  0.86157000  1
  H  H48  1  0.94998400  0.57544700  0.79090800  1
  H  H49  1  0.94998400  0.92455300  0.29090800  1
  H  H50  1  0.05001600  0.42455300  0.20909200  1
  H  H51  1  0.05001600  0.07544700  0.70909200  1
  O  O52  1  0.61114500  0.29560000  0.49236400  1
  O  O53  1  0.61114500  0.20440000  0.99236400  1
  O  O54  1  0.38885500  0.70440000  0.50763600  1
  O  O55  1  0.38885500  0.79560000  0.00763600  1
  O  O56  1  0.28913100  0.38846900  0.38983000  1
  O  O57  1  0.28913100  0.11153100  0.88983000  1
  O  O58  1  0.71086900  0.61153100  0.61017000  1
  O  O59  1  0.71086900  0.88846900  0.11017000  1
  O  O60  1  0.36191600  0.30874500  0.25976900  1
  O  O61  1  0.36191600  0.19125500  0.75976900  1
  O  O62  1  0.63808400  0.69125500  0.74023100  1
  O  O63  1  0.63808400  0.80874500  0.24023100  1
  O  O64  1  0.19503700  0.26406200  0.03282500  1
  O  O65  1  0.19503700  0.23593800  0.53282500  1
  O  O66  1  0.80496300  0.73593800  0.96717500  1
  O  O67  1  0.80496300  0.76406200  0.46717500  1
  O  O68  1  0.27423400  0.41813400  0.99577500  1
  O  O69  1  0.27423400  0.08186600  0.49577500  1
  O  O70  1  0.72576600  0.58186600  0.00422500  1
  O  O71  1  0.72576600  0.91813400  0.50422500  1
  O  O72  1  0.51544100  0.89970600  0.87467600  1
  O  O73  1  0.51544100  0.60029400  0.37467600  1
  O  O74  1  0.48455900  0.10029400  0.12532400  1
  O  O75  1  0.48455900  0.39970600  0.62532400  1
  O  O76  1  0.02353600  0.41291100  0.75778300  1
  O  O77  1  0.02353600  0.08708900  0.25778300  1
  O  O78  1  0.97646400  0.58708900  0.24221700  1
  O  O79  1  0.97646400  0.91291100  0.74221700  1
  O  O80  1  0.26843700  0.28286500  0.87817700  1
  O  O81  1  0.26843700  0.21713500  0.37817700  1
  O  O82  1  0.73156300  0.71713500  0.12182300  1
  O  O83  1  0.73156300  0.78286500  0.62182300  1
  O  O84  1  0.08121300  0.30371100  0.64292700  1
  O  O85  1  0.08121300  0.19628900  0.14292700  1
  O  O86  1  0.91878700  0.69628900  0.35707300  1
  O  O87  1  0.91878700  0.80371100  0.85707300  1
  O  O88  1  0.88956100  0.25444800  0.72175700  1
  O  O89  1  0.88956100  0.24555200  0.22175700  1
  O  O90  1  0.11043900  0.74555200  0.27824300  1
  O  O91  1  0.11043900  0.75444800  0.77824300  1
  O  O92  1  0.55031200  0.19360100  0.61314900  1
  O  O93  1  0.55031200  0.30639900  0.11314900  1
  O  O94  1  0.44968800  0.80639900  0.38685100  1
  O  O95  1  0.44968800  0.69360100  0.88685100  1
  O  O96  1  0.82278800  0.99590000  0.02563600  1
  O  O97  1  0.82278800  0.50410000  0.52563600  1
  O  O98  1  0.17721200  0.00410000  0.97436400  1
  O  O99  1  0.17721200  0.49590000  0.47436400  1
  O  O100  1  0.28796600  0.86909200  0.64568500  1
  O  O101  1  0.28796600  0.63090800  0.14568500  1
  O  O102  1  0.71203400  0.13090800  0.35431500  1
  O  O103  1  0.71203400  0.36909200  0.85431500  1
  O  O104  1  0.53267700  0.99970900  0.73219700  1
  O  O105  1  0.53267700  0.50029100  0.23219700  1
  O  O106  1  0.46732300  0.00029100  0.26780300  1
  O  O107  1  0.46732300  0.49970900  0.76780300  1
  O  O108  1  0.07134300  0.55183000  0.87854600  1
  O  O109  1  0.07134300  0.94817000  0.37854600  1
  O  O110  1  0.92865700  0.44817000  0.12145400  1
  O  O111  1  0.92865700  0.05183000  0.62145400  1
