# generated using pymatgen
data_Pr2US5
_symmetry_space_group_name_H-M   'P 1'
_cell_length_a   7.54289400
_cell_length_b   8.12021400
_cell_length_c   11.99006500
_cell_angle_alpha   90.00000000
_cell_angle_beta   90.00000000
_cell_angle_gamma   90.00000000
_symmetry_Int_Tables_number   1
_chemical_formula_structural   Pr2US5
_chemical_formula_sum   'Pr8 U4 S20'
_cell_volume   734.39044362
_cell_formula_units_Z   4
loop_
 _symmetry_equiv_pos_site_id
 _symmetry_equiv_pos_as_xyz
  1  'x, y, z'
loop_
 _atom_site_type_symbol
 _atom_site_label
 _atom_site_symmetry_multiplicity
 _atom_site_fract_x
 _atom_site_fract_y
 _atom_site_fract_z
 _atom_site_occupancy
  Pr  Pr0  1  0.52382800  0.49970900  0.32294900  1
  Pr  Pr1  1  0.97617200  0.00029100  0.82294900  1
  Pr  Pr2  1  0.47617200  0.99970900  0.67705100  1
  Pr  Pr3  1  0.02382800  0.50029100  0.17705100  1
  Pr  Pr4  1  0.47617200  0.50029100  0.67705100  1
  Pr  Pr5  1  0.02382800  0.99970900  0.17705100  1
  Pr  Pr6  1  0.52382800  0.00029100  0.32294900  1
  Pr  Pr7  1  0.97617200  0.49970900  0.82294900  1
  U  U8  1  0.07155500  0.75000000  0.49068200  1
  U  U9  1  0.42844500  0.75000000  0.99068200  1
  U  U10  1  0.92844500  0.25000000  0.50931800  1
  U  U11  1  0.57155500  0.25000000  0.00931800  1
  S  S12  1  0.84041900  0.95769600  0.59409400  1
  S  S13  1  0.65958100  0.54230400  0.09409400  1
  S  S14  1  0.15958100  0.45769600  0.40590600  1
  S  S15  1  0.34041900  0.04230400  0.90590600  1
  S  S16  1  0.15958100  0.04230400  0.40590600  1
  S  S17  1  0.34041900  0.45769600  0.90590600  1
  S  S18  1  0.84041900  0.54230400  0.59409400  1
  S  S19  1  0.65958100  0.95769600  0.09409400  1
  S  S20  1  0.83084900  0.75000000  0.31456600  1
  S  S21  1  0.66915100  0.75000000  0.81456600  1
  S  S22  1  0.16915100  0.25000000  0.68543400  1
  S  S23  1  0.33084900  0.25000000  0.18543400  1
  S  S24  1  0.45352600  0.75000000  0.49922600  1
  S  S25  1  0.04647400  0.75000000  0.99922600  1
  S  S26  1  0.54647400  0.25000000  0.50077400  1
  S  S27  1  0.95352600  0.25000000  0.00077400  1
  S  S28  1  0.19643400  0.75000000  0.71341800  1
  S  S29  1  0.30356600  0.75000000  0.21341800  1
  S  S30  1  0.80356600  0.25000000  0.28658200  1
  S  S31  1  0.69643400  0.25000000  0.78658200  1
