# generated using pymatgen
data_K5NaNi5(P2O7)4
_symmetry_space_group_name_H-M   'P 1'
_cell_length_a   7.28442000
_cell_length_b   9.42186592
_cell_length_c   10.21851011
_cell_angle_alpha   109.52659473
_cell_angle_beta   89.48213067
_cell_angle_gamma   104.18916524
_symmetry_Int_Tables_number   1
_chemical_formula_structural   K5NaNi5(P2O7)4
_chemical_formula_sum   'K5 Na1 Ni5 P8 O28'
_cell_volume   638.78152550
_cell_formula_units_Z   1
loop_
 _symmetry_equiv_pos_site_id
 _symmetry_equiv_pos_as_xyz
  1  'x, y, z'
loop_
 _atom_site_type_symbol
 _atom_site_label
 _atom_site_symmetry_multiplicity
 _atom_site_fract_x
 _atom_site_fract_y
 _atom_site_fract_z
 _atom_site_occupancy
  K  K0  1  0.99983100  0.55067700  0.82470200  1
  K  K1  1  0.00097700  0.45469900  0.18449600  1
  K  K2  1  0.95005000  0.80230600  0.57504400  1
  K  K3  1  0.05425100  0.18831800  0.41537000  1
  K  K4  1  0.50186500  0.99608300  0.49616500  1
  Na  Na5  1  0.56620500  0.62792000  0.32556100  1
  Ni  Ni6  1  0.00120700  0.99966700  0.99832700  1
  Ni  Ni7  1  0.63970000  0.04060600  0.12874200  1
  Ni  Ni8  1  0.36314200  0.95864700  0.87708400  1
  Ni  Ni9  1  0.50351100  0.50575700  0.00133500  1
  Ni  Ni10  1  0.42233000  0.37821800  0.68292700  1
  P  P11  1  0.75124600  0.18940700  0.87496500  1
  P  P12  1  0.25099600  0.81024900  0.12366100  1
  P  P13  1  0.15128500  0.18725000  0.77831600  1
  P  P14  1  0.85332000  0.81655000  0.21729000  1
  P  P15  1  0.33832300  0.65574000  0.60712300  1
  P  P16  1  0.64924700  0.34280100  0.40274900  1
  P  P17  1  0.63880500  0.74021800  0.82714700  1
  P  P18  1  0.36179300  0.25985000  0.16578300  1
  O  O19  1  0.56464400  0.71665700  0.67005300  1
  O  O20  1  0.43254800  0.29350800  0.32659700  1
  O  O21  1  0.93113800  0.19143800  0.76787200  1
  O  O22  1  0.07605100  0.81179000  0.22944200  1
  O  O23  1  0.33764300  0.67294300  0.46556400  1
  O  O24  1  0.61093300  0.32224700  0.54528800  1
  O  O25  1  0.26775200  0.48621400  0.60639400  1
  O  O26  1  0.74826100  0.50724800  0.41052800  1
  O  O27  1  0.27272500  0.35483400  0.85647800  1
  O  O28  1  0.74019000  0.65269300  0.12980100  1
  O  O29  1  0.23772700  0.76438000  0.71123200  1
  O  O30  1  0.74700300  0.22188300  0.31130600  1
  O  O31  1  0.82599100  0.14220200  0.99186500  1
  O  O32  1  0.17860600  0.85948100  0.00669000  1
  O  O33  1  0.15953400  0.06621700  0.84642500  1
  O  O34  1  0.84965000  0.94061600  0.14997000  1
  O  O35  1  0.21408100  0.14579500  0.62885400  1
  O  O36  1  0.80167500  0.86729200  0.36766500  1
  O  O37  1  0.58318700  0.06760600  0.78027400  1
  O  O38  1  0.42157000  0.92901900  0.21769600  1
  O  O39  1  0.73091000  0.35539200  0.92482800  1
  O  O40  1  0.27108400  0.64364200  0.07052100  1
  O  O41  1  0.54168400  0.85025400  0.93302500  1
  O  O42  1  0.46312900  0.14533200  0.06751300  1
  O  O43  1  0.85215300  0.80298900  0.83524400  1
  O  O44  1  0.14882700  0.19239300  0.16062300  1
  O  O45  1  0.58125000  0.57266500  0.83400400  1
  O  O46  1  0.41197200  0.41831000  0.14746300  1
