# generated using pymatgen
data_Zr5Re24
_symmetry_space_group_name_H-M   'P 1'
_cell_length_a   8.49382128
_cell_length_b   8.49382128
_cell_length_c   8.49382128
_cell_angle_alpha   109.47122063
_cell_angle_beta   109.47122063
_cell_angle_gamma   109.47122063
_symmetry_Int_Tables_number   1
_chemical_formula_structural   Zr5Re24
_chemical_formula_sum   'Zr5 Re24'
_cell_volume   471.72344838
_cell_formula_units_Z   1
loop_
 _symmetry_equiv_pos_site_id
 _symmetry_equiv_pos_as_xyz
  1  'x, y, z'
loop_
 _atom_site_type_symbol
 _atom_site_label
 _atom_site_symmetry_multiplicity
 _atom_site_fract_x
 _atom_site_fract_y
 _atom_site_fract_z
 _atom_site_occupancy
  Zr  Zr0  1  0.00000000  0.00000000  0.00000000  1
  Zr  Zr1  1  0.62951500  0.00000000  0.00000000  1
  Zr  Zr2  1  0.00000000  0.62951500  0.00000000  1
  Zr  Zr3  1  0.00000000  0.00000000  0.62951500  1
  Zr  Zr4  1  0.37048500  0.37048500  0.37048500  1
  Re  Re5  1  0.39560200  0.67710200  0.00000000  1
  Re  Re6  1  0.71850000  0.32289800  0.32289800  1
  Re  Re7  1  0.39560200  0.00000000  0.67710200  1
  Re  Re8  1  0.67710200  0.39560200  0.00000000  1
  Re  Re9  1  0.00000000  0.39560200  0.67710200  1
  Re  Re10  1  0.32289800  0.71850000  0.32289800  1
  Re  Re11  1  0.32289800  0.32289800  0.71850000  1
  Re  Re12  1  0.00000000  0.67710200  0.39560200  1
  Re  Re13  1  0.67710200  0.00000000  0.39560200  1
  Re  Re14  1  0.60439800  0.60439800  0.28150000  1
  Re  Re15  1  0.28150000  0.60439800  0.60439800  1
  Re  Re16  1  0.60439800  0.28150000  0.60439800  1
  Re  Re17  1  0.37669100  0.19452800  0.00000000  1
  Re  Re18  1  0.18216300  0.80547200  0.80547200  1
  Re  Re19  1  0.37669100  0.00000000  0.19452800  1
  Re  Re20  1  0.19452800  0.37669100  0.00000000  1
  Re  Re21  1  0.00000000  0.37669100  0.19452800  1
  Re  Re22  1  0.80547200  0.18216300  0.80547200  1
  Re  Re23  1  0.80547200  0.80547200  0.18216300  1
  Re  Re24  1  0.00000000  0.19452800  0.37669100  1
  Re  Re25  1  0.19452800  0.00000000  0.37669100  1
  Re  Re26  1  0.62330900  0.62330900  0.81783700  1
  Re  Re27  1  0.81783700  0.62330900  0.62330900  1
  Re  Re28  1  0.62330900  0.81783700  0.62330900  1
