# generated using pymatgen
data_Tb12(MnC3)5
_symmetry_space_group_name_H-M   'P 1'
_cell_length_a   5.08913100
_cell_length_b   10.49711676
_cell_length_c   10.49711676
_cell_angle_alpha   120.00000479
_cell_angle_beta   90.00000000
_cell_angle_gamma   90.00000000
_symmetry_Int_Tables_number   1
_chemical_formula_structural   Tb12(MnC3)5
_chemical_formula_sum   'Tb12 Mn5 C15'
_cell_volume   485.63982820
_cell_formula_units_Z   1
loop_
 _symmetry_equiv_pos_site_id
 _symmetry_equiv_pos_as_xyz
  1  'x, y, z'
loop_
 _atom_site_type_symbol
 _atom_site_label
 _atom_site_symmetry_multiplicity
 _atom_site_fract_x
 _atom_site_fract_y
 _atom_site_fract_z
 _atom_site_occupancy
  Tb  Tb0  1  0.50000000  0.20645100  0.20645100  1
  Tb  Tb1  1  0.50000000  0.00000000  0.79354900  1
  Tb  Tb2  1  0.50000000  0.79354900  0.00000000  1
  Tb  Tb3  1  0.00000000  0.73006600  0.18553200  1
  Tb  Tb4  1  0.00000000  0.45546600  0.26993400  1
  Tb  Tb5  1  0.00000000  0.54453400  0.81446800  1
  Tb  Tb6  1  0.00000000  0.81446800  0.54453400  1
  Tb  Tb7  1  0.00000000  0.18553200  0.73006600  1
  Tb  Tb8  1  0.00000000  0.26993400  0.45546600  1
  Tb  Tb9  1  0.50000000  0.57289000  0.57289000  1
  Tb  Tb10  1  0.50000000  0.00000000  0.42711000  1
  Tb  Tb11  1  0.50000000  0.42711000  0.00000000  1
  Mn  Mn12  1  0.00000000  0.84724500  0.84724500  1
  Mn  Mn13  1  0.00000000  0.00000000  0.15275500  1
  Mn  Mn14  1  0.00000000  0.15275500  0.00000000  1
  Mn  Mn15  1  0.50000000  0.66666700  0.33333300  1
  Mn  Mn16  1  0.50000000  0.33333300  0.66666700  1
  C  C17  1  0.00000000  0.67665200  0.67665200  1
  C  C18  1  0.00000000  0.00000000  0.32334800  1
  C  C19  1  0.00000000  0.32334800  0.00000000  1
  C  C20  1  0.00000000  0.20019300  0.20019300  1
  C  C21  1  0.00000000  0.00000000  0.79980700  1
  C  C22  1  0.00000000  0.79980700  0.00000000  1
  C  C23  1  0.00000000  0.54799000  0.54799000  1
  C  C24  1  0.00000000  0.00000000  0.45201000  1
  C  C25  1  0.00000000  0.45201000  0.00000000  1
  C  C26  1  0.50000000  0.71400100  0.19226900  1
  C  C27  1  0.50000000  0.47826800  0.28599900  1
  C  C28  1  0.50000000  0.52173200  0.80773100  1
  C  C29  1  0.50000000  0.80773100  0.52173200  1
  C  C30  1  0.50000000  0.19226900  0.71400100  1
  C  C31  1  0.50000000  0.28599900  0.47826800  1
