# generated using pymatgen
data_Hf3TePb4O13
_symmetry_space_group_name_H-M   'P 1'
_cell_length_a   7.62706301
_cell_length_b   7.62706301
_cell_length_c   7.62706322
_cell_angle_alpha   60.09613214
_cell_angle_beta   60.09613214
_cell_angle_gamma   60.09612579
_symmetry_Int_Tables_number   1
_chemical_formula_structural   Hf3TePb4O13
_chemical_formula_sum   'Hf3 Te1 Pb4 O13'
_cell_volume   314.41406230
_cell_formula_units_Z   1
loop_
 _symmetry_equiv_pos_site_id
 _symmetry_equiv_pos_as_xyz
  1  'x, y, z'
loop_
 _atom_site_type_symbol
 _atom_site_label
 _atom_site_symmetry_multiplicity
 _atom_site_fract_x
 _atom_site_fract_y
 _atom_site_fract_z
 _atom_site_occupancy
  Hf  Hf0  1  0.99895500  0.50062000  0.50062000  1
  Hf  Hf1  1  0.50062000  0.50062000  0.99895500  1
  Hf  Hf2  1  0.50062000  0.99895500  0.50062000  1
  Te  Te3  1  0.50035000  0.50035000  0.50035000  1
  Pb  Pb4  1  0.50017800  0.00075200  0.00075200  1
  Pb  Pb5  1  0.00075200  0.00075200  0.50017800  1
  Pb  Pb6  1  0.00075200  0.50017800  0.00075200  1
  Pb  Pb7  1  0.99943100  0.99943100  0.99943100  1
  O  O8  1  0.17185400  0.56889800  0.17185400  1
  O  O9  1  0.56624100  0.19674800  0.56624100  1
  O  O10  1  0.17185400  0.17185400  0.56889800  1
  O  O11  1  0.56624100  0.56624100  0.19674800  1
  O  O12  1  0.56889800  0.17185400  0.17185400  1
  O  O13  1  0.19674800  0.56624100  0.56624100  1
  O  O14  1  0.82462900  0.43628400  0.82462900  1
  O  O15  1  0.43576600  0.80241300  0.43576600  1
  O  O16  1  0.82462900  0.82462900  0.43628400  1
  O  O17  1  0.43576600  0.43576600  0.80241300  1
  O  O18  1  0.43628400  0.82462900  0.82462900  1
  O  O19  1  0.80241300  0.43576600  0.43576600  1
  O  O20  1  0.87201600  0.87201600  0.87201600  1
