# generated using pymatgen
data_Gd2C3
_symmetry_space_group_name_H-M   'P 1'
_cell_length_a   7.23304071
_cell_length_b   7.23304071
_cell_length_c   7.23304071
_cell_angle_alpha   109.47122063
_cell_angle_beta   109.47122063
_cell_angle_gamma   109.47122063
_symmetry_Int_Tables_number   1
_chemical_formula_structural   Gd2C3
_chemical_formula_sum   'Gd8 C12'
_cell_volume   291.30023657
_cell_formula_units_Z   4
loop_
 _symmetry_equiv_pos_site_id
 _symmetry_equiv_pos_as_xyz
  1  'x, y, z'
loop_
 _atom_site_type_symbol
 _atom_site_label
 _atom_site_symmetry_multiplicity
 _atom_site_fract_x
 _atom_site_fract_y
 _atom_site_fract_z
 _atom_site_occupancy
  Gd  Gd0  1  0.60291300  0.50000000  0.00000000  1
  Gd  Gd1  1  0.50000000  0.00000000  0.60291300  1
  Gd  Gd2  1  0.00000000  0.60291300  0.50000000  1
  Gd  Gd3  1  0.89708700  0.89708700  0.89708700  1
  Gd  Gd4  1  0.50000000  0.00000000  0.10291300  1
  Gd  Gd5  1  0.10291300  0.50000000  0.00000000  1
  Gd  Gd6  1  0.00000000  0.10291300  0.50000000  1
  Gd  Gd7  1  0.39708700  0.39708700  0.39708700  1
  C  C8  1  0.79475100  0.25000000  0.04475100  1
  C  C9  1  0.70524900  0.75000000  0.45524900  1
  C  C10  1  0.54475100  0.75000000  0.29475100  1
  C  C11  1  0.95524900  0.25000000  0.20524900  1
  C  C12  1  0.25000000  0.04475100  0.79475100  1
  C  C13  1  0.75000000  0.45524900  0.70524900  1
  C  C14  1  0.75000000  0.29475100  0.54475100  1
  C  C15  1  0.25000000  0.20524900  0.95524900  1
  C  C16  1  0.04475100  0.79475100  0.25000000  1
  C  C17  1  0.45524900  0.70524900  0.75000000  1
  C  C18  1  0.29475100  0.54475100  0.75000000  1
  C  C19  1  0.20524900  0.95524900  0.25000000  1
