# generated using pymatgen
data_Cs7NaSi8
_symmetry_space_group_name_H-M   'P 1'
_cell_length_a   13.61452400
_cell_length_b   13.61452400
_cell_length_c   13.61452400
_cell_angle_alpha   90.00000000
_cell_angle_beta   90.00000000
_cell_angle_gamma   90.00000000
_symmetry_Int_Tables_number   1
_chemical_formula_structural   Cs7NaSi8
_chemical_formula_sum   'Cs28 Na4 Si32'
_cell_volume   2523.52368680
_cell_formula_units_Z   4
loop_
 _symmetry_equiv_pos_site_id
 _symmetry_equiv_pos_as_xyz
  1  'x, y, z'
loop_
 _atom_site_type_symbol
 _atom_site_label
 _atom_site_symmetry_multiplicity
 _atom_site_fract_x
 _atom_site_fract_y
 _atom_site_fract_z
 _atom_site_occupancy
  Cs  Cs0  1  0.22614500  0.68728300  0.45643000  1
  Cs  Cs1  1  0.77385500  0.18728300  0.04357000  1
  Cs  Cs2  1  0.27385500  0.31271700  0.95643000  1
  Cs  Cs3  1  0.72614500  0.81271700  0.54357000  1
  Cs  Cs4  1  0.45643000  0.22614500  0.68728300  1
  Cs  Cs5  1  0.04357000  0.77385500  0.18728300  1
  Cs  Cs6  1  0.95643000  0.27385500  0.31271700  1
  Cs  Cs7  1  0.54357000  0.72614500  0.81271700  1
  Cs  Cs8  1  0.68728300  0.45643000  0.22614500  1
  Cs  Cs9  1  0.18728300  0.04357000  0.77385500  1
  Cs  Cs10  1  0.31271700  0.95643000  0.27385500  1
  Cs  Cs11  1  0.81271700  0.54357000  0.72614500  1
  Cs  Cs12  1  0.77385500  0.31271700  0.54357000  1
  Cs  Cs13  1  0.22614500  0.81271700  0.95643000  1
  Cs  Cs14  1  0.72614500  0.68728300  0.04357000  1
  Cs  Cs15  1  0.27385500  0.18728300  0.45643000  1
  Cs  Cs16  1  0.54357000  0.77385500  0.31271700  1
  Cs  Cs17  1  0.95643000  0.22614500  0.81271700  1
  Cs  Cs18  1  0.04357000  0.72614500  0.68728300  1
  Cs  Cs19  1  0.45643000  0.27385500  0.18728300  1
  Cs  Cs20  1  0.31271700  0.54357000  0.77385500  1
  Cs  Cs21  1  0.81271700  0.95643000  0.22614500  1
  Cs  Cs22  1  0.68728300  0.04357000  0.72614500  1
  Cs  Cs23  1  0.18728300  0.45643000  0.27385500  1
  Cs  Cs24  1  0.00000000  0.00000000  0.50000000  1
  Cs  Cs25  1  0.00000000  0.50000000  0.00000000  1
  Cs  Cs26  1  0.50000000  0.00000000  0.00000000  1
  Cs  Cs27  1  0.50000000  0.50000000  0.50000000  1
  Na  Na28  1  0.50000000  0.50000000  0.00000000  1
  Na  Na29  1  0.50000000  0.00000000  0.50000000  1
  Na  Na30  1  0.00000000  0.50000000  0.50000000  1
  Na  Na31  1  0.00000000  0.00000000  0.00000000  1
  Si  Si32  1  0.30513800  0.69486200  0.19486200  1
  Si  Si33  1  0.69486200  0.19486200  0.30513800  1
  Si  Si34  1  0.19486200  0.30513800  0.69486200  1
  Si  Si35  1  0.80513800  0.80513800  0.80513800  1
  Si  Si36  1  0.69486200  0.30513800  0.80513800  1
  Si  Si37  1  0.30513800  0.80513800  0.69486200  1
  Si  Si38  1  0.80513800  0.69486200  0.30513800  1
  Si  Si39  1  0.19486200  0.19486200  0.19486200  1
  Si  Si40  1  0.42311700  0.56203500  0.19733100  1
  Si  Si41  1  0.57688300  0.06203500  0.30266900  1
  Si  Si42  1  0.07688300  0.43796500  0.69733100  1
  Si  Si43  1  0.92311700  0.93796500  0.80266900  1
  Si  Si44  1  0.19733100  0.42311700  0.56203500  1
  Si  Si45  1  0.30266900  0.57688300  0.06203500  1
  Si  Si46  1  0.69733100  0.07688300  0.43796500  1
  Si  Si47  1  0.80266900  0.92311700  0.93796500  1
  Si  Si48  1  0.56203500  0.19733100  0.42311700  1
  Si  Si49  1  0.06203500  0.30266900  0.57688300  1
  Si  Si50  1  0.43796500  0.69733100  0.07688300  1
  Si  Si51  1  0.93796500  0.80266900  0.92311700  1
  Si  Si52  1  0.57688300  0.43796500  0.80266900  1
  Si  Si53  1  0.42311700  0.93796500  0.69733100  1
  Si  Si54  1  0.92311700  0.56203500  0.30266900  1
  Si  Si55  1  0.07688300  0.06203500  0.19733100  1
  Si  Si56  1  0.80266900  0.57688300  0.43796500  1
  Si  Si57  1  0.69733100  0.42311700  0.93796500  1
  Si  Si58  1  0.30266900  0.92311700  0.56203500  1
  Si  Si59  1  0.19733100  0.07688300  0.06203500  1
  Si  Si60  1  0.43796500  0.80266900  0.57688300  1
  Si  Si61  1  0.93796500  0.69733100  0.42311700  1
  Si  Si62  1  0.56203500  0.30266900  0.92311700  1
  Si  Si63  1  0.06203500  0.19733100  0.07688300  1
