# generated using pymatgen
data_In6Te10Pb
_symmetry_space_group_name_H-M   'P 1'
_cell_length_a   10.96871317
_cell_length_b   10.96871317
_cell_length_c   10.91714107
_cell_angle_alpha   89.54822898
_cell_angle_beta   89.54822898
_cell_angle_gamma   89.08460835
_symmetry_Int_Tables_number   1
_chemical_formula_structural   In6Te10Pb
_chemical_formula_sum   'In12 Te20 Pb2'
_cell_volume   1313.22238062
_cell_formula_units_Z   2
loop_
 _symmetry_equiv_pos_site_id
 _symmetry_equiv_pos_as_xyz
  1  'x, y, z'
loop_
 _atom_site_type_symbol
 _atom_site_label
 _atom_site_symmetry_multiplicity
 _atom_site_fract_x
 _atom_site_fract_y
 _atom_site_fract_z
 _atom_site_occupancy
  In  In0  1  0.74318200  0.17543000  0.33285800  1
  In  In1  1  0.17269300  0.33898600  0.74472400  1
  In  In2  1  0.34076400  0.74467800  0.17325600  1
  In  In3  1  0.25532200  0.65923600  0.82674400  1
  In  In4  1  0.82457000  0.25681800  0.66714200  1
  In  In5  1  0.66101400  0.82730700  0.25527600  1
  In  In6  1  0.84323600  0.87587100  0.57650800  1
  In  In7  1  0.87138100  0.57246600  0.84375600  1
  In  In8  1  0.57580100  0.84415700  0.87592600  1
  In  In9  1  0.15584300  0.42419900  0.12407400  1
  In  In10  1  0.12412900  0.15676400  0.42349200  1
  In  In11  1  0.42753400  0.12861900  0.15624400  1
  Te  Te12  1  0.16911500  0.83088500  0.00000000  1
  Te  Te13  1  0.83061800  0.99557700  0.16831800  1
  Te  Te14  1  0.00442300  0.16938200  0.83168200  1
  Te  Te15  1  0.83623000  0.83504400  0.83693500  1
  Te  Te16  1  0.16495600  0.16377000  0.16306500  1
  Te  Te17  1  0.76735500  0.67340600  0.43629900  1
  Te  Te18  1  0.67509400  0.44217400  0.75713400  1
  Te  Te19  1  0.43542500  0.76494800  0.67449600  1
  Te  Te20  1  0.23505200  0.56457500  0.32550400  1
  Te  Te21  1  0.32659400  0.23264500  0.56370100  1
  Te  Te22  1  0.55782600  0.32490600  0.24286600  1
  Te  Te23  1  0.08995800  0.91004200  0.50000000  1
  Te  Te24  1  0.91162100  0.50394100  0.09309000  1
  Te  Te25  1  0.49605900  0.08837900  0.90691000  1
  Te  Te26  1  0.66942400  0.07068700  0.56834000  1
  Te  Te27  1  0.07002300  0.56972200  0.66799400  1
  Te  Te28  1  0.56997900  0.66560900  0.06970300  1
  Te  Te29  1  0.33439100  0.43002100  0.93029700  1
  Te  Te30  1  0.92931300  0.33057600  0.43166000  1
  Te  Te31  1  0.43027800  0.92997700  0.33200600  1
  Pb  Pb32  1  0.26524200  0.00394800  0.74230800  1
  Pb  Pb33  1  0.99605200  0.73475800  0.25769200  1
