# generated using pymatgen
data_Pr6Mg(GeS7)2
_symmetry_space_group_name_H-M   'P 1'
_cell_length_a   10.29496146
_cell_length_b   10.29496146
_cell_length_c   5.84403300
_cell_angle_alpha   90.00000000
_cell_angle_beta   90.00000000
_cell_angle_gamma   119.99999653
_symmetry_Int_Tables_number   1
_chemical_formula_structural   Pr6Mg(GeS7)2
_chemical_formula_sum   'Pr6 Mg1 Ge2 S14'
_cell_volume   536.40492519
_cell_formula_units_Z   1
loop_
 _symmetry_equiv_pos_site_id
 _symmetry_equiv_pos_as_xyz
  1  'x, y, z'
loop_
 _atom_site_type_symbol
 _atom_site_label
 _atom_site_symmetry_multiplicity
 _atom_site_fract_x
 _atom_site_fract_y
 _atom_site_fract_z
 _atom_site_occupancy
  Pr  Pr0  1  0.22956500  0.35872200  0.24580100  1
  Pr  Pr1  1  0.12915700  0.77043500  0.24580100  1
  Pr  Pr2  1  0.64127800  0.87084300  0.24580100  1
  Pr  Pr3  1  0.77254800  0.64371100  0.74933700  1
  Pr  Pr4  1  0.87116300  0.22745200  0.74933700  1
  Pr  Pr5  1  0.35628900  0.12883700  0.74933700  1
  Mg  Mg6  1  0.00000000  0.00000000  0.46709500  1
  Ge  Ge7  1  0.33333300  0.66666700  0.82950300  1
  Ge  Ge8  1  0.66666700  0.33333300  0.33413600  1
  S  S9  1  0.91119600  0.15892700  0.23544500  1
  S  S10  1  0.24773000  0.08880400  0.23544500  1
  S  S11  1  0.84107300  0.75227000  0.23544500  1
  S  S12  1  0.09073300  0.84415300  0.71147500  1
  S  S13  1  0.75342000  0.90926700  0.71147500  1
  S  S14  1  0.15584700  0.24658000  0.71147500  1
  S  S15  1  0.33333300  0.66666700  0.45419600  1
  S  S16  1  0.66666700  0.33333300  0.95630600  1
  S  S17  1  0.41418700  0.89476300  0.98233600  1
  S  S18  1  0.48057700  0.58581300  0.98233600  1
  S  S19  1  0.10523700  0.51942300  0.98233600  1
  S  S20  1  0.58472700  0.10545300  0.48609200  1
  S  S21  1  0.52072500  0.41527300  0.48609200  1
  S  S22  1  0.89454700  0.47927500  0.48609200  1
