# generated using pymatgen
data_Np2Tc4O23
_symmetry_space_group_name_H-M   'P 1'
_cell_length_a   5.65006300
_cell_length_b   13.36834576
_cell_length_c   15.39653337
_cell_angle_alpha   106.57609845
_cell_angle_beta   97.58706683
_cell_angle_gamma   93.10684494
_symmetry_Int_Tables_number   1
_chemical_formula_structural   Np2Tc4O23
_chemical_formula_sum   'Np4 Tc8 O46'
_cell_volume   1099.66623237
_cell_formula_units_Z   2
loop_
 _symmetry_equiv_pos_site_id
 _symmetry_equiv_pos_as_xyz
  1  'x, y, z'
loop_
 _atom_site_type_symbol
 _atom_site_label
 _atom_site_symmetry_multiplicity
 _atom_site_fract_x
 _atom_site_fract_y
 _atom_site_fract_z
 _atom_site_occupancy
  Np  Np0  1  0.24674200  0.64847500  0.67201300  1
  Np  Np1  1  0.75325800  0.35152500  0.32798700  1
  Np  Np2  1  0.24825200  0.20241200  0.81310200  1
  Np  Np3  1  0.75174800  0.79758800  0.18689800  1
  Tc  Tc4  1  0.51055800  0.63362400  0.43549900  1
  Tc  Tc5  1  0.48944200  0.36637600  0.56450100  1
  Tc  Tc6  1  0.01311200  0.50343700  0.84728100  1
  Tc  Tc7  1  0.98688800  0.49656300  0.15271900  1
  Tc  Tc8  1  0.40212400  0.93037400  0.63112000  1
  Tc  Tc9  1  0.59787600  0.06962600  0.36888000  1
  Tc  Tc10  1  0.98750500  0.85518900  0.87053300  1
  Tc  Tc11  1  0.01249500  0.14481100  0.12946700  1
  O  O12  1  0.96153900  0.62178400  0.60199500  1
  O  O13  1  0.03846100  0.37821600  0.39800500  1
  O  O14  1  0.53929500  0.66846700  0.73601800  1
  O  O15  1  0.46070500  0.33153300  0.26398200  1
  O  O16  1  0.98611100  0.15177100  0.84916300  1
  O  O17  1  0.01388900  0.84822900  0.15083700  1
  O  O18  1  0.51112700  0.25170900  0.77617500  1
  O  O19  1  0.48887300  0.74829100  0.22382500  1
  O  O20  1  0.40856600  0.61164000  0.53303800  1
  O  O21  1  0.59143400  0.38836000  0.46696200  1
  O  O22  1  0.68187000  0.53224100  0.38293200  1
  O  O23  1  0.31813000  0.46775900  0.61706800  1
  O  O24  1  0.26574600  0.63864000  0.35888400  1
  O  O25  1  0.73425400  0.36136000  0.64111600  1
  O  O26  1  0.67929600  0.75222200  0.46794300  1
  O  O27  1  0.32070400  0.24777800  0.53205700  1
  O  O28  1  0.10797100  0.56564000  0.76645700  1
  O  O29  1  0.89202900  0.43436000  0.23354300  1
  O  O30  1  0.08407900  0.37327300  0.82026200  1
  O  O31  1  0.91592100  0.62672700  0.17973800  1
  O  O32  1  0.15774400  0.56910700  0.95491700  1
  O  O33  1  0.84225600  0.43089300  0.04508300  1
  O  O34  1  0.71058000  0.50606100  0.84641200  1
  O  O35  1  0.28942000  0.49393900  0.15358800  1
  O  O36  1  0.32686400  0.80039700  0.63639700  1
  O  O37  1  0.67313600  0.19960300  0.36360300  1
  O  O38  1  0.30122800  0.02263600  0.72206700  1
  O  O39  1  0.69877200  0.97736400  0.27793300  1
  O  O40  1  0.26553300  0.94168600  0.52901700  1
  O  O41  1  0.73446700  0.05831400  0.47098300  1
  O  O42  1  0.70500900  0.95514500  0.63778800  1
  O  O43  1  0.29499100  0.04485500  0.36221200  1
  O  O44  1  0.11736000  0.77171000  0.77481100  1
  O  O45  1  0.88264000  0.22829000  0.22518900  1
  O  O46  1  0.20095900  0.95155800  0.93848700  1
  O  O47  1  0.79904100  0.04844200  0.06151300  1
  O  O48  1  0.74852900  0.91163100  0.82948500  1
  O  O49  1  0.25147100  0.08836900  0.17051500  1
  O  O50  1  0.89405100  0.77753400  0.93357900  1
  O  O51  1  0.10594900  0.22246600  0.06642100  1
  O  O52  1  0.44756700  0.13479000  0.88382100  1
  O  O53  1  0.55243300  0.86521000  0.11617900  1
  O  O54  1  0.33856200  0.29606300  0.93056400  1
  O  O55  1  0.66143800  0.70393700  0.06943600  1
  O  O56  1  0.07973600  0.18642300  0.70222300  1
  O  O57  1  0.92026400  0.81357700  0.29777700  1
