# generated using pymatgen
data_CaNdAl3O7
_symmetry_space_group_name_H-M   'P 1'
_cell_length_a   7.82002781
_cell_length_b   7.82002781
_cell_length_c   5.16375900
_cell_angle_alpha   90.00000000
_cell_angle_beta   90.00000000
_cell_angle_gamma   90.82324096
_symmetry_Int_Tables_number   1
_chemical_formula_structural   CaNdAl3O7
_chemical_formula_sum   'Ca2 Nd2 Al6 O14'
_cell_volume   315.74590686
_cell_formula_units_Z   2
loop_
 _symmetry_equiv_pos_site_id
 _symmetry_equiv_pos_as_xyz
  1  'x, y, z'
loop_
 _atom_site_type_symbol
 _atom_site_label
 _atom_site_symmetry_multiplicity
 _atom_site_fract_x
 _atom_site_fract_y
 _atom_site_fract_z
 _atom_site_occupancy
  Ca  Ca0  1  0.65972500  0.65972500  0.48390800  1
  Ca  Ca1  1  0.34027500  0.34027500  0.48390800  1
  Nd  Nd2  1  0.83658600  0.16341400  0.50947900  1
  Nd  Nd3  1  0.16341400  0.83658600  0.50947900  1
  Al  Al4  1  0.85463900  0.85463900  0.04083400  1
  Al  Al5  1  0.64165800  0.35834200  0.95758400  1
  Al  Al6  1  0.14536100  0.14536100  0.04083400  1
  Al  Al7  1  0.35834200  0.64165800  0.95758400  1
  Al  Al8  1  0.50000000  0.00000000  0.00417900  1
  Al  Al9  1  0.00000000  0.50000000  0.00417900  1
  O  O10  1  0.66333300  0.91389200  0.19950500  1
  O  O11  1  0.84036800  0.40712200  0.80382100  1
  O  O12  1  0.33666700  0.08610800  0.19950500  1
  O  O13  1  0.15963200  0.59287800  0.80382100  1
  O  O14  1  0.40712200  0.84036800  0.80382100  1
  O  O15  1  0.08610800  0.33666700  0.19950500  1
  O  O16  1  0.59287800  0.15963200  0.80382100  1
  O  O17  1  0.91389200  0.66333300  0.19950500  1
  O  O18  1  0.86305400  0.86305400  0.70241900  1
  O  O19  1  0.64504300  0.35495700  0.29486700  1
  O  O20  1  0.13694600  0.13694600  0.70241900  1
  O  O21  1  0.35495700  0.64504300  0.29486700  1
  O  O22  1  0.50000000  0.50000000  0.81116400  1
  O  O23  1  0.00000000  0.00000000  0.18899600  1
