# generated using pymatgen
data_Nd5Si9Au
_symmetry_space_group_name_H-M   'P 1'
_cell_length_a   4.17134200
_cell_length_b   4.24053600
_cell_length_c   35.61345275
_cell_angle_alpha   86.58684349
_cell_angle_beta   86.64260128
_cell_angle_gamma   90.00000000
_symmetry_Int_Tables_number   1
_chemical_formula_structural   Nd5Si9Au
_chemical_formula_sum   'Nd10 Si18 Au2'
_cell_volume   627.75602552
_cell_formula_units_Z   2
loop_
 _symmetry_equiv_pos_site_id
 _symmetry_equiv_pos_as_xyz
  1  'x, y, z'
loop_
 _atom_site_type_symbol
 _atom_site_label
 _atom_site_symmetry_multiplicity
 _atom_site_fract_x
 _atom_site_fract_y
 _atom_site_fract_z
 _atom_site_occupancy
  Nd  Nd0  1  0.95066700  0.45066700  0.09866600  1
  Nd  Nd1  1  0.34971100  0.84971100  0.30057900  1
  Nd  Nd2  1  0.75107100  0.25107100  0.49785800  1
  Nd  Nd3  1  0.14933900  0.64933900  0.70132200  1
  Nd  Nd4  1  0.54781000  0.04781000  0.90438100  1
  Nd  Nd5  1  0.00011300  0.00011300  0.99977500  1
  Nd  Nd6  1  0.40062900  0.40062900  0.19874100  1
  Nd  Nd7  1  0.80007800  0.80007800  0.39984400  1
  Nd  Nd8  1  0.20237200  0.20237200  0.59525600  1
  Nd  Nd9  1  0.60155900  0.60155900  0.79688100  1
  Si  Si10  1  0.46747900  0.96747900  0.06504300  1
  Si  Si11  1  0.86683000  0.36683000  0.26633900  1
  Si  Si12  1  0.26731000  0.76731000  0.46538000  1
  Si  Si13  1  0.66693800  0.16693800  0.66612400  1
  Si  Si14  1  0.06601200  0.56601200  0.86797600  1
  Si  Si15  1  0.91729700  0.91729700  0.16540700  1
  Si  Si16  1  0.31631600  0.31631600  0.36736800  1
  Si  Si17  1  0.71783700  0.71783700  0.56432500  1
  Si  Si18  1  0.11678400  0.11678400  0.76643200  1
  Si  Si19  1  0.51628000  0.51628000  0.96743900  1
  Si  Si20  1  0.43420400  0.93420400  0.13159100  1
  Si  Si21  1  0.83311200  0.33311200  0.33377700  1
  Si  Si22  1  0.23417200  0.73417200  0.53165700  1
  Si  Si23  1  0.63392900  0.13392900  0.73214100  1
  Si  Si24  1  0.03306500  0.53306500  0.93387100  1
  Si  Si25  1  0.48336800  0.48336800  0.03326400  1
  Si  Si26  1  0.88350800  0.88350800  0.23298400  1
  Si  Si27  1  0.28314800  0.28314800  0.43370300  1
  Au  Au28  1  0.68371900  0.68371900  0.63256100  1
  Au  Au29  1  0.08254200  0.08254200  0.83491500  1
