# generated using pymatgen
data_CeN2
_symmetry_space_group_name_H-M   'P 1'
_cell_length_a   4.77209079
_cell_length_b   6.39509928
_cell_length_c   5.90748466
_cell_angle_alpha   65.09182600
_cell_angle_beta   90.00894200
_cell_angle_gamma   111.91597990
_symmetry_Int_Tables_number   1
_chemical_formula_structural   CeN2
_chemical_formula_sum   'Ce3 N6'
_cell_volume   149.03287273
_cell_formula_units_Z   3
loop_
 _symmetry_equiv_pos_site_id
 _symmetry_equiv_pos_as_xyz
  1  'x, y, z'
loop_
 _atom_site_type_symbol
 _atom_site_label
 _atom_site_symmetry_multiplicity
 _atom_site_fract_x
 _atom_site_fract_y
 _atom_site_fract_z
 _atom_site_occupancy
  Ce  Ce0  1  0.62978200  0.25955800  0.09860000  1
  Ce  Ce1  1  0.83529700  0.67065800  0.46481400  1
  Ce  Ce2  1  0.41106500  0.82189700  0.84667300  1
  N  N3  1  0.84832800  0.69667800  0.83561000  1
  N  N4  1  0.38454500  0.76907000  0.26315700  1
  N  N5  1  0.18023600  0.36044100  0.06529500  1
  N  N6  1  0.62830500  0.25682800  0.73004500  1
  N  N7  1  0.39562000  0.79128600  0.47143200  1
  N  N8  1  0.06427300  0.12858400  0.18022300  1
