# generated using pymatgen
data_ZrAs
_symmetry_space_group_name_H-M   'P 1'
_cell_length_a   3.83817247
_cell_length_b   3.83817247
_cell_length_c   13.00719400
_cell_angle_alpha   90.00000000
_cell_angle_beta   90.00000000
_cell_angle_gamma   120.00000812
_symmetry_Int_Tables_number   1
_chemical_formula_structural   ZrAs
_chemical_formula_sum   'Zr4 As4'
_cell_volume   165.94462355
_cell_formula_units_Z   4
loop_
 _symmetry_equiv_pos_site_id
 _symmetry_equiv_pos_as_xyz
  1  'x, y, z'
loop_
 _atom_site_type_symbol
 _atom_site_label
 _atom_site_symmetry_multiplicity
 _atom_site_fract_x
 _atom_site_fract_y
 _atom_site_fract_z
 _atom_site_occupancy
  Zr  Zr0  1  0.33333300  0.66666700  0.11628900  1
  Zr  Zr1  1  0.66666700  0.33333300  0.61628900  1
  Zr  Zr2  1  0.66666700  0.33333300  0.88371100  1
  Zr  Zr3  1  0.33333300  0.66666700  0.38371100  1
  As  As4  1  0.00000000  0.00000000  0.00000000  1
  As  As5  1  0.00000000  0.00000000  0.50000000  1
  As  As6  1  0.33333300  0.66666700  0.75000000  1
  As  As7  1  0.66666700  0.33333300  0.25000000  1
