# generated using pymatgen
data_La7Ta3(W2O15)2
_symmetry_space_group_name_H-M   'P 1'
_cell_length_a   6.95117600
_cell_length_b   10.23757520
_cell_length_c   10.24452198
_cell_angle_alpha   115.08493082
_cell_angle_beta   103.26254081
_cell_angle_gamma   102.71692435
_symmetry_Int_Tables_number   1
_chemical_formula_structural   La7Ta3(W2O15)2
_chemical_formula_sum   'La7 Ta3 W4 O30'
_cell_volume   599.55831234
_cell_formula_units_Z   1
loop_
 _symmetry_equiv_pos_site_id
 _symmetry_equiv_pos_as_xyz
  1  'x, y, z'
loop_
 _atom_site_type_symbol
 _atom_site_label
 _atom_site_symmetry_multiplicity
 _atom_site_fract_x
 _atom_site_fract_y
 _atom_site_fract_z
 _atom_site_occupancy
  La  La0  1  0.63646300  0.75988200  0.19175600  1
  La  La1  1  0.87709300  0.43490400  0.23425700  1
  La  La2  1  0.44935500  0.81362500  0.56712300  1
  La  La3  1  0.36353700  0.24011800  0.80824400  1
  La  La4  1  0.12290700  0.56509600  0.76574300  1
  La  La5  1  0.55064500  0.18637500  0.43287700  1
  La  La6  1  0.00000000  0.00000000  0.00000000  1
  Ta  Ta7  1  0.50000000  0.00000000  0.00000000  1
  Ta  Ta8  1  0.85229700  0.21390600  0.82960100  1
  Ta  Ta9  1  0.14770300  0.78609400  0.17039900  1
  W  W10  1  0.64076900  0.62109200  0.78796600  1
  W  W11  1  0.01765800  0.16593100  0.37717000  1
  W  W12  1  0.35923100  0.37890800  0.21203400  1
  W  W13  1  0.98234300  0.83406900  0.62283000  1
  O  O14  1  0.06849100  0.28058800  0.05744500  1
  O  O15  1  0.78415900  0.77279000  0.71851600  1
  O  O16  1  0.00912200  0.94909600  0.22495100  1
  O  O17  1  0.93150900  0.71941200  0.94255500  1
  O  O18  1  0.21584100  0.22721000  0.28148400  1
  O  O19  1  0.99087800  0.05090400  0.77504900  1
  O  O20  1  0.73604800  0.34424800  0.95732700  1
  O  O21  1  0.39680500  0.61169800  0.65594400  1
  O  O22  1  0.78837500  0.04559500  0.39179800  1
  O  O23  1  0.26395200  0.65575200  0.04267300  1
  O  O24  1  0.60319500  0.38830200  0.34405600  1
  O  O25  1  0.21162500  0.95440500  0.60820200  1
  O  O26  1  0.05628500  0.33549200  0.79229500  1
  O  O27  1  0.71284800  0.46103500  0.66391500  1
  O  O28  1  0.25090600  0.20290400  0.53702200  1
  O  O29  1  0.94371500  0.66450800  0.20770500  1
  O  O30  1  0.28715200  0.53896500  0.33608500  1
  O  O31  1  0.74909400  0.79709600  0.46297800  1
  O  O32  1  0.61453200  0.13479600  0.64938200  1
  O  O33  1  0.49223200  0.51818800  0.86556100  1
  O  O34  1  0.97067800  0.34664000  0.48031700  1
  O  O35  1  0.38546800  0.86520400  0.35061800  1
  O  O36  1  0.50776800  0.48181200  0.13443900  1
  O  O37  1  0.02932200  0.65336000  0.51968300  1
  O  O38  1  0.78450900  0.13800400  0.17488200  1
  O  O39  1  0.63832100  0.03211300  0.85912100  1
  O  O40  1  0.60736100  0.82317400  0.96292800  1
  O  O41  1  0.21549100  0.86199600  0.82511800  1
  O  O42  1  0.36167900  0.96788700  0.14087900  1
  O  O43  1  0.39263900  0.17682600  0.03707200  1
