# generated using pymatgen
data_YbCuSb
_symmetry_space_group_name_H-M   'P 1'
_cell_length_a   4.50664967
_cell_length_b   4.50664967
_cell_length_c   7.45498700
_cell_angle_alpha   90.00000000
_cell_angle_beta   90.00000000
_cell_angle_gamma   119.99999509
_symmetry_Int_Tables_number   1
_chemical_formula_structural   YbCuSb
_chemical_formula_sum   'Yb2 Cu2 Sb2'
_cell_volume   131.12489117
_cell_formula_units_Z   2
loop_
 _symmetry_equiv_pos_site_id
 _symmetry_equiv_pos_as_xyz
  1  'x, y, z'
loop_
 _atom_site_type_symbol
 _atom_site_label
 _atom_site_symmetry_multiplicity
 _atom_site_fract_x
 _atom_site_fract_y
 _atom_site_fract_z
 _atom_site_occupancy
  Yb  Yb0  1  0.00000000  0.00000000  0.73480800  1
  Yb  Yb1  1  0.00000000  0.00000000  0.23480800  1
  Cu  Cu2  1  0.66666700  0.33333300  0.55233100  1
  Cu  Cu3  1  0.33333300  0.66666700  0.05233100  1
  Sb  Sb4  1  0.33333300  0.66666700  0.46386100  1
  Sb  Sb5  1  0.66666700  0.33333300  0.96386100  1
