# generated using pymatgen
data_LiU4As3O20
_symmetry_space_group_name_H-M   'P 1'
_cell_length_a   17.98000541
_cell_length_b   17.98000541
_cell_length_c   17.98000541
_cell_angle_alpha   156.56001464
_cell_angle_beta   156.56001464
_cell_angle_gamma   33.38890091
_symmetry_Int_Tables_number   1
_chemical_formula_structural   LiU4As3O20
_chemical_formula_sum   'Li2 U8 As6 O40'
_cell_volume   918.90546290
_cell_formula_units_Z   2
loop_
 _symmetry_equiv_pos_site_id
 _symmetry_equiv_pos_as_xyz
  1  'x, y, z'
loop_
 _atom_site_type_symbol
 _atom_site_label
 _atom_site_symmetry_multiplicity
 _atom_site_fract_x
 _atom_site_fract_y
 _atom_site_fract_z
 _atom_site_occupancy
  Li  Li0  1  0.54756400  0.04756400  0.50000000  1
  Li  Li1  1  0.79756400  0.79756400  0.00000000  1
  U  U2  1  0.52950400  0.52950400  0.00000000  1
  U  U3  1  0.27950400  0.77950400  0.50000000  1
  U  U4  1  0.97060500  0.47060500  0.50000000  1
  U  U5  1  0.22060500  0.22060500  0.00000000  1
  U  U6  1  0.65383700  0.65383700  0.00000000  1
  U  U7  1  0.40383700  0.90383700  0.50000000  1
  U  U8  1  0.84607500  0.34607500  0.50000000  1
  U  U9  1  0.09607500  0.09607500  0.00000000  1
  As  As10  1  0.43260100  0.43260100  0.00000000  1
  As  As11  1  0.18260100  0.68260100  0.50000000  1
  As  As12  1  0.06775200  0.56775200  0.50000000  1
  As  As13  1  0.31775200  0.31775200  0.00000000  1
  As  As14  1  0.62675800  0.12675800  0.50000000  1
  As  As15  1  0.87675800  0.87675800  0.00000000  1
  O  O16  1  0.29060700  0.46629900  0.82430800  1
  O  O17  1  0.64199000  0.46629900  0.17569200  1
  O  O18  1  0.21629900  0.54060700  0.32430800  1
  O  O19  1  0.21629900  0.89199000  0.67569200  1
  O  O20  1  0.21461700  0.53500800  0.67960800  1
  O  O21  1  0.85540000  0.53500800  0.32039200  1
  O  O22  1  0.28500800  0.46461700  0.17960800  1
  O  O23  1  0.28500800  0.10540000  0.82039200  1
  O  O24  1  0.40487300  0.59755300  0.19268000  1
  O  O25  1  0.34755300  0.65487300  0.69268000  1
  O  O26  1  0.96219300  0.65487300  0.30732000  1
  O  O27  1  0.40487300  0.21219300  0.80732000  1
  O  O28  1  0.09501000  0.40103200  0.30602200  1
  O  O29  1  0.15103200  0.34501000  0.80602200  1
  O  O30  1  0.53898900  0.34501000  0.19397800  1
  O  O31  1  0.09501000  0.78898900  0.69397800  1
  O  O32  1  0.59717300  0.59717300  0.00000000  1
  O  O33  1  0.34717300  0.84717300  0.50000000  1
  O  O34  1  0.90134500  0.40134500  0.50000000  1
  O  O35  1  0.15134500  0.15134500  0.00000000  1
  O  O36  1  0.65422900  0.96005300  0.30582300  1
  O  O37  1  0.71005300  0.90422900  0.80582300  1
  O  O38  1  0.09840600  0.90422900  0.19417700  1
  O  O39  1  0.65422900  0.34840600  0.69417700  1
  O  O40  1  0.84468500  0.02850800  0.18382300  1
  O  O41  1  0.77850800  0.09468500  0.68382300  1
  O  O42  1  0.41086100  0.09468500  0.31617700  1
  O  O43  1  0.84468500  0.66086100  0.81617700  1
  O  O44  1  0.70632200  0.70632200  0.00000000  1
  O  O45  1  0.45632200  0.95632200  0.50000000  1
  O  O46  1  0.79375900  0.29375900  0.50000000  1
  O  O47  1  0.04375900  0.04375900  0.00000000  1
  O  O48  1  0.52946700  0.28082900  0.75136300  1
  O  O49  1  0.03082900  0.77946700  0.25136300  1
  O  O50  1  0.52810400  0.77946700  0.74863700  1
  O  O51  1  0.52946700  0.77810400  0.24863700  1
  O  O52  1  0.97078100  0.71534300  0.74456200  1
  O  O53  1  0.46534300  0.22078100  0.24456200  1
  O  O54  1  0.97621900  0.22078100  0.75543800  1
  O  O55  1  0.97078100  0.22621900  0.25543800  1
