# generated using pymatgen
data_Cs3U2PO10
_symmetry_space_group_name_H-M   'P 1'
_cell_length_a   8.03827863
_cell_length_b   8.03827863
_cell_length_c   12.59744133
_cell_angle_alpha   69.24493011
_cell_angle_beta   69.24493011
_cell_angle_gamma   62.00962052
_symmetry_Int_Tables_number   1
_chemical_formula_structural   Cs3U2PO10
_chemical_formula_sum   'Cs6 U4 P2 O20'
_cell_volume   654.44920550
_cell_formula_units_Z   2
loop_
 _symmetry_equiv_pos_site_id
 _symmetry_equiv_pos_as_xyz
  1  'x, y, z'
loop_
 _atom_site_type_symbol
 _atom_site_label
 _atom_site_symmetry_multiplicity
 _atom_site_fract_x
 _atom_site_fract_y
 _atom_site_fract_z
 _atom_site_occupancy
  Cs  Cs0  1  0.91353900  0.48560000  0.18317400  1
  Cs  Cs1  1  0.51440000  0.08646100  0.31682600  1
  Cs  Cs2  1  0.08646100  0.51440000  0.81682600  1
  Cs  Cs3  1  0.48560000  0.91353900  0.68317400  1
  Cs  Cs4  1  0.50000000  0.50000000  0.00000000  1
  Cs  Cs5  1  0.50000000  0.50000000  0.50000000  1
  U  U6  1  0.50000000  0.00000000  0.00000000  1
  U  U7  1  0.00000000  0.50000000  0.50000000  1
  U  U8  1  0.00000000  0.00000000  0.00000000  1
  U  U9  1  0.00000000  0.00000000  0.50000000  1
  P  P10  1  0.23233300  0.76766700  0.25000000  1
  P  P11  1  0.76766700  0.23233300  0.75000000  1
  O  O12  1  0.71497000  0.99094900  0.06806500  1
  O  O13  1  0.00905100  0.28503000  0.43193500  1
  O  O14  1  0.28503000  0.00905100  0.93193500  1
  O  O15  1  0.99094900  0.71497000  0.56806500  1
  O  O16  1  0.31633600  0.20365300  0.07205300  1
  O  O17  1  0.79634700  0.68366400  0.42794700  1
  O  O18  1  0.68366400  0.79634700  0.92794700  1
  O  O19  1  0.20365300  0.31633600  0.57205300  1
  O  O20  1  0.43438000  0.75440200  0.16710600  1
  O  O21  1  0.24559800  0.56562000  0.33289400  1
  O  O22  1  0.56562000  0.24559800  0.83289400  1
  O  O23  1  0.75440200  0.43438000  0.66710600  1
  O  O24  1  0.90014300  0.23785400  0.04229500  1
  O  O25  1  0.76214600  0.09985700  0.45770500  1
  O  O26  1  0.09985700  0.76214600  0.95770500  1
  O  O27  1  0.23785400  0.90014300  0.54229500  1
  O  O28  1  0.08548600  0.83102700  0.17560100  1
  O  O29  1  0.16897300  0.91451400  0.32439900  1
  O  O30  1  0.91451400  0.16897300  0.82439900  1
  O  O31  1  0.83102700  0.08548600  0.67560100  1
