# generated using pymatgen
data_CdCu2SiTe4
_symmetry_space_group_name_H-M   'P 1'
_cell_length_a   7.43453554
_cell_length_b   7.43453554
_cell_length_c   7.43453554
_cell_angle_alpha   130.97671949
_cell_angle_beta   130.97671949
_cell_angle_gamma   71.85006950
_symmetry_Int_Tables_number   1
_chemical_formula_structural   CdCu2SiTe4
_chemical_formula_sum   'Cd1 Cu2 Si1 Te4'
_cell_volume   229.10388938
_cell_formula_units_Z   1
loop_
 _symmetry_equiv_pos_site_id
 _symmetry_equiv_pos_as_xyz
  1  'x, y, z'
loop_
 _atom_site_type_symbol
 _atom_site_label
 _atom_site_symmetry_multiplicity
 _atom_site_fract_x
 _atom_site_fract_y
 _atom_site_fract_z
 _atom_site_occupancy
  Cd  Cd0  1  0.00000000  0.00000000  0.00000000  1
  Cu  Cu1  1  0.75000000  0.25000000  0.50000000  1
  Cu  Cu2  1  0.25000000  0.75000000  0.50000000  1
  Si  Si3  1  0.50000000  0.50000000  0.00000000  1
  Te  Te4  1  0.86478500  0.40397400  0.00000000  1
  Te  Te5  1  0.40397400  0.86478500  0.00000000  1
  Te  Te6  1  0.13521500  0.13521500  0.53918900  1
  Te  Te7  1  0.59602600  0.59602600  0.46081100  1
