# generated using pymatgen
data_Ca2B2O5
_symmetry_space_group_name_H-M   'P 1'
_cell_length_a   3.59473800
_cell_length_b   6.39858400
_cell_length_c   19.38930300
_cell_angle_alpha   90.00000000
_cell_angle_beta   90.00000000
_cell_angle_gamma   90.00000000
_symmetry_Int_Tables_number   1
_chemical_formula_structural   Ca2B2O5
_chemical_formula_sum   'Ca8 B8 O20'
_cell_volume   445.97787700
_cell_formula_units_Z   4
loop_
 _symmetry_equiv_pos_site_id
 _symmetry_equiv_pos_as_xyz
  1  'x, y, z'
loop_
 _atom_site_type_symbol
 _atom_site_label
 _atom_site_symmetry_multiplicity
 _atom_site_fract_x
 _atom_site_fract_y
 _atom_site_fract_z
 _atom_site_occupancy
  Ca  Ca0  1  0.70298600  0.70180900  0.29010800  1
  Ca  Ca1  1  0.79701400  0.29819100  0.79010800  1
  Ca  Ca2  1  0.20298600  0.79819100  0.70989200  1
  Ca  Ca3  1  0.29701400  0.20180900  0.20989200  1
  Ca  Ca4  1  0.20277100  0.94542400  0.43844100  1
  Ca  Ca5  1  0.29722900  0.05457600  0.93844100  1
  Ca  Ca6  1  0.70277100  0.55457600  0.56155900  1
  Ca  Ca7  1  0.79722900  0.44542400  0.06155900  1
  B  B8  1  0.81490800  0.21837900  0.34333500  1
  B  B9  1  0.68509200  0.78162100  0.84333500  1
  B  B10  1  0.31490800  0.28162100  0.65666500  1
  B  B11  1  0.18509200  0.71837900  0.15666500  1
  B  B12  1  0.85788300  0.00297200  0.08236800  1
  B  B13  1  0.64211700  0.99702800  0.58236800  1
  B  B14  1  0.35788300  0.49702800  0.91763200  1
  B  B15  1  0.14211700  0.50297200  0.41763200  1
  O  O16  1  0.20003100  0.55572700  0.48500500  1
  O  O17  1  0.29996900  0.44427300  0.98500500  1
  O  O18  1  0.70003100  0.94427300  0.51499500  1
  O  O19  1  0.79996900  0.05572700  0.01499500  1
  O  O20  1  0.20415500  0.64376200  0.36570500  1
  O  O21  1  0.29584500  0.35623800  0.86570500  1
  O  O22  1  0.70415500  0.85623800  0.63429500  1
  O  O23  1  0.79584500  0.14376200  0.13429500  1
  O  O24  1  0.68724400  0.01861000  0.35242600  1
  O  O25  1  0.81275600  0.98139000  0.85242600  1
  O  O26  1  0.18724400  0.48139000  0.64757400  1
  O  O27  1  0.31275600  0.51861000  0.14757400  1
  O  O28  1  0.99646100  0.30064500  0.40340500  1
  O  O29  1  0.50353900  0.69935500  0.90340500  1
  O  O30  1  0.49646100  0.19935500  0.59659500  1
  O  O31  1  0.00353900  0.80064500  0.09659500  1
  O  O32  1  0.79082400  0.32727200  0.28271900  1
  O  O33  1  0.70917600  0.67272800  0.78271900  1
  O  O34  1  0.29082400  0.17272800  0.71728100  1
  O  O35  1  0.20917600  0.82727200  0.21728100  1
