# generated using pymatgen
data_Sm6Fe13Pb
_symmetry_space_group_name_H-M   'P 1'
_cell_length_a   8.02696400
_cell_length_b   8.02696400
_cell_length_c   12.97298624
_cell_angle_alpha   108.02140835
_cell_angle_beta   108.02140835
_cell_angle_gamma   90.00000000
_symmetry_Int_Tables_number   1
_chemical_formula_structural   Sm6Fe13Pb
_chemical_formula_sum   'Sm12 Fe26 Pb2'
_cell_volume   751.62881234
_cell_formula_units_Z   2
loop_
 _symmetry_equiv_pos_site_id
 _symmetry_equiv_pos_as_xyz
  1  'x, y, z'
loop_
 _atom_site_type_symbol
 _atom_site_label
 _atom_site_symmetry_multiplicity
 _atom_site_fract_x
 _atom_site_fract_y
 _atom_site_fract_z
 _atom_site_occupancy
  Sm  Sm0  1  0.60325500  0.60325500  0.20651100  1
  Sm  Sm1  1  0.10325500  0.10325500  0.20651100  1
  Sm  Sm2  1  0.39674500  0.39674500  0.79348900  1
  Sm  Sm3  1  0.89674500  0.89674500  0.79348900  1
  Sm  Sm4  1  0.97813900  0.47813900  0.63221300  1
  Sm  Sm5  1  0.65407400  0.15407400  0.63221300  1
  Sm  Sm6  1  0.15407400  0.97813900  0.63221300  1
  Sm  Sm7  1  0.47813900  0.65407400  0.63221300  1
  Sm  Sm8  1  0.02186100  0.52186100  0.36778700  1
  Sm  Sm9  1  0.34592600  0.84592600  0.36778700  1
  Sm  Sm10  1  0.84592600  0.02186100  0.36778700  1
  Sm  Sm11  1  0.52186100  0.34592600  0.36778700  1
  Fe  Fe12  1  0.00000000  0.50000000  0.00000000  1
  Fe  Fe13  1  0.50000000  0.00000000  0.00000000  1
  Fe  Fe14  1  0.70925500  0.56603800  0.00000000  1
  Fe  Fe15  1  0.29074500  0.43396200  0.00000000  1
  Fe  Fe16  1  0.79074500  0.06603800  0.00000000  1
  Fe  Fe17  1  0.20925500  0.93396200  0.00000000  1
  Fe  Fe18  1  0.56603800  0.29074500  0.00000000  1
  Fe  Fe19  1  0.43396200  0.70925500  0.00000000  1
  Fe  Fe20  1  0.06603800  0.20925500  0.00000000  1
  Fe  Fe21  1  0.93396200  0.79074500  0.00000000  1
  Fe  Fe22  1  0.11950000  0.61950000  0.88085500  1
  Fe  Fe23  1  0.76135500  0.26135500  0.88085500  1
  Fe  Fe24  1  0.26135500  0.11950000  0.88085500  1
  Fe  Fe25  1  0.61950000  0.76135500  0.88085500  1
  Fe  Fe26  1  0.88050000  0.38050000  0.11914500  1
  Fe  Fe27  1  0.23864500  0.73864500  0.11914500  1
  Fe  Fe28  1  0.73864500  0.88050000  0.11914500  1
  Fe  Fe29  1  0.38050000  0.23864500  0.11914500  1
  Fe  Fe30  1  0.29204100  0.79204100  0.81114400  1
  Fe  Fe31  1  0.51910300  0.01910300  0.81114400  1
  Fe  Fe32  1  0.01910300  0.29204100  0.81114400  1
  Fe  Fe33  1  0.79204100  0.51910300  0.81114400  1
  Fe  Fe34  1  0.70795900  0.20795900  0.18885600  1
  Fe  Fe35  1  0.48089700  0.98089700  0.18885600  1
  Fe  Fe36  1  0.98089700  0.70795900  0.18885600  1
  Fe  Fe37  1  0.20795900  0.48089700  0.18885600  1
  Pb  Pb38  1  0.25000000  0.25000000  0.50000000  1
  Pb  Pb39  1  0.75000000  0.75000000  0.50000000  1
