# generated using pymatgen
data_Nd(LuS2)3
_symmetry_space_group_name_H-M   'P 1'
_cell_length_a   3.93436600
_cell_length_b   10.98481300
_cell_length_c   11.18301612
_cell_angle_alpha   70.94735958
_cell_angle_beta   90.00000000
_cell_angle_gamma   90.00000000
_symmetry_Int_Tables_number   1
_chemical_formula_structural   Nd(LuS2)3
_chemical_formula_sum   'Nd2 Lu6 S12'
_cell_volume   456.83445177
_cell_formula_units_Z   2
loop_
 _symmetry_equiv_pos_site_id
 _symmetry_equiv_pos_as_xyz
  1  'x, y, z'
loop_
 _atom_site_type_symbol
 _atom_site_label
 _atom_site_symmetry_multiplicity
 _atom_site_fract_x
 _atom_site_fract_y
 _atom_site_fract_z
 _atom_site_occupancy
  Nd  Nd0  1  0.75000000  0.55036800  0.80452200  1
  Nd  Nd1  1  0.25000000  0.44963200  0.19547800  1
  Lu  Lu2  1  0.75000000  0.17953500  0.99986200  1
  Lu  Lu3  1  0.25000000  0.82046500  0.00013800  1
  Lu  Lu4  1  0.75000000  0.94323400  0.66599000  1
  Lu  Lu5  1  0.25000000  0.05676600  0.33401000  1
  Lu  Lu6  1  0.75000000  0.66075400  0.41318600  1
  Lu  Lu7  1  0.25000000  0.33924600  0.58681400  1
  S  S8  1  0.75000000  0.97824000  0.88813500  1
  S  S9  1  0.25000000  0.02176000  0.11186500  1
  S  S10  1  0.75000000  0.30262600  0.74877500  1
  S  S11  1  0.25000000  0.69737400  0.25122500  1
  S  S12  1  0.75000000  0.89257900  0.44235700  1
  S  S13  1  0.25000000  0.10742100  0.55764300  1
  S  S14  1  0.75000000  0.41936700  0.40669800  1
  S  S15  1  0.25000000  0.58063300  0.59330200  1
  S  S16  1  0.75000000  0.23127100  0.23003600  1
  S  S17  1  0.25000000  0.76872900  0.76996400  1
  S  S18  1  0.75000000  0.62002200  0.03619800  1
  S  S19  1  0.25000000  0.37997800  0.96380200  1
