# generated using pymatgen
data_Cs3Pr(MoO4)3
_symmetry_space_group_name_H-M   'P 1'
_cell_length_a   6.54947200
_cell_length_b   9.55722900
_cell_length_c   26.50951800
_cell_angle_alpha   90.00000000
_cell_angle_beta   90.00000000
_cell_angle_gamma   90.00000000
_symmetry_Int_Tables_number   1
_chemical_formula_structural   Cs3Pr(MoO4)3
_chemical_formula_sum   'Cs12 Pr4 Mo12 O48'
_cell_volume   1659.35807627
_cell_formula_units_Z   4
loop_
 _symmetry_equiv_pos_site_id
 _symmetry_equiv_pos_as_xyz
  1  'x, y, z'
loop_
 _atom_site_type_symbol
 _atom_site_label
 _atom_site_symmetry_multiplicity
 _atom_site_fract_x
 _atom_site_fract_y
 _atom_site_fract_z
 _atom_site_occupancy
  Cs  Cs0  1  0.25000000  0.52472800  0.09216900  1
  Cs  Cs1  1  0.75000000  0.47527200  0.90783100  1
  Cs  Cs2  1  0.75000000  0.97527200  0.59216900  1
  Cs  Cs3  1  0.25000000  0.02472800  0.40783100  1
  Cs  Cs4  1  0.25000000  0.60390200  0.67994100  1
  Cs  Cs5  1  0.75000000  0.39609800  0.32005900  1
  Cs  Cs6  1  0.75000000  0.89609800  0.17994100  1
  Cs  Cs7  1  0.25000000  0.10390200  0.82005900  1
  Cs  Cs8  1  0.25000000  0.68843400  0.25899600  1
  Cs  Cs9  1  0.75000000  0.31156600  0.74100400  1
  Cs  Cs10  1  0.75000000  0.81156600  0.75899600  1
  Cs  Cs11  1  0.25000000  0.18843400  0.24100400  1
  Pr  Pr12  1  0.25000000  0.81845400  0.95928300  1
  Pr  Pr13  1  0.75000000  0.18154600  0.04071700  1
  Pr  Pr14  1  0.75000000  0.68154600  0.45928300  1
  Pr  Pr15  1  0.25000000  0.31845400  0.54071700  1
  Mo  Mo16  1  0.25000000  0.61502600  0.82552100  1
  Mo  Mo17  1  0.75000000  0.38497400  0.17447900  1
  Mo  Mo18  1  0.75000000  0.88497400  0.32552100  1
  Mo  Mo19  1  0.25000000  0.11502600  0.67447900  1
  Mo  Mo20  1  0.25000000  0.75361800  0.52433300  1
  Mo  Mo21  1  0.75000000  0.24638200  0.47566700  1
  Mo  Mo22  1  0.75000000  0.74638200  0.02433300  1
  Mo  Mo23  1  0.25000000  0.25361800  0.97566700  1
  Mo  Mo24  1  0.25000000  0.98021200  0.09974700  1
  Mo  Mo25  1  0.75000000  0.01978800  0.90025300  1
  Mo  Mo26  1  0.75000000  0.51978800  0.59974700  1
  Mo  Mo27  1  0.25000000  0.48021200  0.40025300  1
  O  O28  1  0.25000000  0.77871200  0.79227000  1
  O  O29  1  0.75000000  0.22128800  0.20773000  1
  O  O30  1  0.75000000  0.72128800  0.29227000  1
  O  O31  1  0.25000000  0.27871200  0.70773000  1
  O  O32  1  0.25000000  0.84180800  0.05401500  1
  O  O33  1  0.75000000  0.15819200  0.94598500  1
  O  O34  1  0.75000000  0.65819200  0.55401500  1
  O  O35  1  0.25000000  0.34180800  0.44598500  1
  O  O36  1  0.25000000  0.64623200  0.89339700  1
  O  O37  1  0.75000000  0.35376800  0.10660300  1
  O  O38  1  0.75000000  0.85376800  0.39339700  1
  O  O39  1  0.25000000  0.14623200  0.60660300  1
  O  O40  1  0.25000000  0.80149700  0.58847800  1
  O  O41  1  0.75000000  0.19850300  0.41152200  1
  O  O42  1  0.75000000  0.69850300  0.08847800  1
  O  O43  1  0.25000000  0.30149700  0.91152200  1
  O  O44  1  0.52752900  0.67722300  0.99241100  1
  O  O45  1  0.47247100  0.32277700  0.00758900  1
  O  O46  1  0.47247100  0.82277700  0.49241100  1
  O  O47  1  0.02752900  0.32277700  0.00758900  1
  O  O48  1  0.52752900  0.17722300  0.50758900  1
  O  O49  1  0.97247100  0.67722300  0.99241100  1
  O  O50  1  0.97247100  0.17722300  0.50758900  1
  O  O51  1  0.02752900  0.82277700  0.49241100  1
  O  O52  1  0.25000000  0.56552000  0.51857000  1
  O  O53  1  0.75000000  0.43448000  0.48143000  1
  O  O54  1  0.75000000  0.93448000  0.01857000  1
  O  O55  1  0.25000000  0.06552000  0.98143000  1
  O  O56  1  0.52225300  0.91465900  0.90556300  1
  O  O57  1  0.47774700  0.08534100  0.09443700  1
  O  O58  1  0.47774700  0.58534100  0.40556300  1
  O  O59  1  0.02225300  0.08534100  0.09443700  1
  O  O60  1  0.52225300  0.41465900  0.59443700  1
  O  O61  1  0.97774700  0.91465900  0.90556300  1
  O  O62  1  0.97774700  0.41465900  0.59443700  1
  O  O63  1  0.02225300  0.58534100  0.40556300  1
  O  O64  1  0.02481900  0.52164500  0.80664900  1
  O  O65  1  0.97518100  0.47835500  0.19335100  1
  O  O66  1  0.97518100  0.97835500  0.30664900  1
  O  O67  1  0.52481900  0.47835500  0.19335100  1
  O  O68  1  0.02481900  0.02164500  0.69335100  1
  O  O69  1  0.47518100  0.52164500  0.80664900  1
  O  O70  1  0.47518100  0.02164500  0.69335100  1
  O  O71  1  0.52481900  0.97835500  0.30664900  1
  O  O72  1  0.25000000  0.90383200  0.16131200  1
  O  O73  1  0.75000000  0.09616800  0.83868800  1
  O  O74  1  0.75000000  0.59616800  0.66131200  1
  O  O75  1  0.25000000  0.40383200  0.33868800  1
