# generated using pymatgen
data_RbMn4(AsO4)3
_symmetry_space_group_name_H-M   'P 1'
_cell_length_a   6.65885000
_cell_length_b   10.33637400
_cell_length_c   17.68711400
_cell_angle_alpha   90.00000000
_cell_angle_beta   90.00000000
_cell_angle_gamma   90.00000000
_symmetry_Int_Tables_number   1
_chemical_formula_structural   RbMn4(AsO4)3
_chemical_formula_sum   'Rb4 Mn16 As12 O48'
_cell_volume   1217.37512068
_cell_formula_units_Z   4
loop_
 _symmetry_equiv_pos_site_id
 _symmetry_equiv_pos_as_xyz
  1  'x, y, z'
loop_
 _atom_site_type_symbol
 _atom_site_label
 _atom_site_symmetry_multiplicity
 _atom_site_fract_x
 _atom_site_fract_y
 _atom_site_fract_z
 _atom_site_occupancy
  Rb  Rb0  1  0.50000000  0.19998200  0.96470500  1
  Rb  Rb1  1  0.50000000  0.80001800  0.03529500  1
  Rb  Rb2  1  0.00000000  0.69998200  0.53529500  1
  Rb  Rb3  1  0.00000000  0.30001800  0.46470500  1
  Mn  Mn4  1  0.75238100  0.74589600  0.29848800  1
  Mn  Mn5  1  0.75238100  0.25410400  0.70151200  1
  Mn  Mn6  1  0.74761900  0.24589600  0.20151200  1
  Mn  Mn7  1  0.74761900  0.75410400  0.79848800  1
  Mn  Mn8  1  0.24761800  0.25410400  0.70151200  1
  Mn  Mn9  1  0.24761800  0.74589600  0.29848800  1
  Mn  Mn10  1  0.25238200  0.75410400  0.79848800  1
  Mn  Mn11  1  0.25238200  0.24589600  0.20151200  1
  Mn  Mn12  1  0.50000000  0.52211700  0.64448300  1
  Mn  Mn13  1  0.50000000  0.47788300  0.35551600  1
  Mn  Mn14  1  0.00000000  0.02211700  0.85551700  1
  Mn  Mn15  1  0.00000000  0.97788300  0.14448300  1
  Mn  Mn16  1  0.50000000  0.96465900  0.59227500  1
  Mn  Mn17  1  0.50000000  0.03534100  0.40772500  1
  Mn  Mn18  1  0.00000000  0.46465900  0.90772500  1
  Mn  Mn19  1  0.00000000  0.53534100  0.09227500  1
  As  As20  1  0.50000000  0.29366600  0.53669200  1
  As  As21  1  0.50000000  0.70633400  0.46330700  1
  As  As22  1  0.00000000  0.79366600  0.96330800  1
  As  As23  1  0.00000000  0.20633400  0.03669300  1
  As  As24  1  0.50000000  0.04528200  0.77812600  1
  As  As25  1  0.50000000  0.95471800  0.22187300  1
  As  As26  1  0.00000000  0.54528200  0.72187400  1
  As  As27  1  0.00000000  0.45471800  0.27812600  1
  As  As28  1  0.50000000  0.45887800  0.83444400  1
  As  As29  1  0.50000000  0.54112200  0.16555500  1
  As  As30  1  0.00000000  0.95887800  0.66555600  1
  As  As31  1  0.00000000  0.04112200  0.33444500  1
  O  O32  1  0.50000000  0.12914700  0.51951000  1
  O  O33  1  0.50000000  0.87085300  0.48049000  1
  O  O34  1  0.00000000  0.62914700  0.98049000  1
  O  O35  1  0.00000000  0.37085300  0.01951000  1
  O  O36  1  0.71507200  0.89215300  0.18327100  1
  O  O37  1  0.71507200  0.10784700  0.81672900  1
  O  O38  1  0.78492900  0.39215300  0.31672900  1
  O  O39  1  0.78492900  0.60784700  0.68327100  1
  O  O40  1  0.28492900  0.10784700  0.81672900  1
  O  O41  1  0.28492900  0.89215300  0.18327100  1
  O  O42  1  0.21507100  0.60784700  0.68327100  1
  O  O43  1  0.21507100  0.39215300  0.31672900  1
  O  O44  1  0.70225100  0.65668200  0.40815400  1
  O  O45  1  0.70225100  0.34331800  0.59184600  1
  O  O46  1  0.79774800  0.15668200  0.09184600  1
  O  O47  1  0.79774800  0.84331800  0.90815400  1
  O  O48  1  0.29774900  0.34331800  0.59184600  1
  O  O49  1  0.29774900  0.65668200  0.40815400  1
  O  O50  1  0.20225100  0.84331800  0.90815400  1
  O  O51  1  0.70807200  0.59195800  0.11875800  1
  O  O52  1  0.50000000  0.63552300  0.54947100  1
  O  O53  1  0.50000000  0.36447700  0.45052900  1
  O  O54  1  0.00000000  0.13552300  0.95052900  1
  O  O55  1  0.00000000  0.86447700  0.04947100  1
  O  O56  1  0.50000000  0.38606200  0.74317300  1
  O  O57  1  0.50000000  0.61393800  0.25682700  1
  O  O58  1  0.00000000  0.88606200  0.75682700  1
  O  O59  1  0.00000000  0.11393800  0.24317300  1
  O  O60  1  0.50000000  0.11333700  0.68682300  1
  O  O61  1  0.50000000  0.88666300  0.31317700  1
  O  O62  1  0.00000000  0.61333700  0.81317700  1
  O  O63  1  0.00000000  0.38666300  0.18682400  1
  O  O64  1  0.00000000  0.12567600  0.67847900  1
  O  O65  1  0.00000000  0.87432400  0.32152200  1
  O  O66  1  0.50000000  0.62567600  0.82152100  1
  O  O67  1  0.50000000  0.37432400  0.17847900  1
  O  O68  1  0.00000000  0.62103200  0.27109600  1
  O  O69  1  0.00000000  0.37896900  0.72890500  1
  O  O70  1  0.50000000  0.12103100  0.22890500  1
  O  O71  1  0.50000000  0.87896900  0.77109500  1
  O  O72  1  0.20807300  0.09195800  0.38124200  1
  O  O73  1  0.20807300  0.90804200  0.61875900  1
  O  O74  1  0.29192700  0.59195800  0.11875800  1
  O  O75  1  0.29192700  0.40804200  0.88124100  1
  O  O76  1  0.79192700  0.90804200  0.61875900  1
  O  O77  1  0.79192700  0.09195800  0.38124200  1
  O  O78  1  0.70807200  0.40804200  0.88124100  1
  O  O79  1  0.20225100  0.15668200  0.09184600  1
