# generated using pymatgen
data_SmNbO4
_symmetry_space_group_name_H-M   'P 1'
_cell_length_a   6.74908716
_cell_length_b   6.74908716
_cell_length_c   5.21643713
_cell_angle_alpha   68.81588520
_cell_angle_beta   68.81588520
_cell_angle_gamma   114.54383988
_symmetry_Int_Tables_number   1
_chemical_formula_structural   SmNbO4
_chemical_formula_sum   'Sm2 Nb2 O8'
_cell_volume   160.76766808
_cell_formula_units_Z   2
loop_
 _symmetry_equiv_pos_site_id
 _symmetry_equiv_pos_as_xyz
  1  'x, y, z'
loop_
 _atom_site_type_symbol
 _atom_site_label
 _atom_site_symmetry_multiplicity
 _atom_site_fract_x
 _atom_site_fract_y
 _atom_site_fract_z
 _atom_site_occupancy
  Sm  Sm0  1  0.62796900  0.37203100  0.75000000  1
  Sm  Sm1  1  0.37203100  0.62796900  0.25000000  1
  Nb  Nb2  1  0.10867400  0.89132600  0.75000000  1
  Nb  Nb3  1  0.89132600  0.10867400  0.25000000  1
  O  O4  1  0.78601800  0.71947800  0.19285500  1
  O  O5  1  0.28052200  0.21398200  0.30714500  1
  O  O6  1  0.21398200  0.28052200  0.80714500  1
  O  O7  1  0.71947800  0.78601800  0.69285500  1
  O  O8  1  0.36469600  0.94759800  0.84125000  1
  O  O9  1  0.05240200  0.63530400  0.65875000  1
  O  O10  1  0.63530400  0.05240200  0.15875000  1
  O  O11  1  0.94759800  0.36469600  0.34125000  1
