# generated using pymatgen
data_Gd2Mo2C3
_symmetry_space_group_name_H-M   'P 1'
_cell_length_a   6.18186073
_cell_length_b   6.18186073
_cell_length_c   5.78490233
_cell_angle_alpha   67.65517837
_cell_angle_beta   67.65517837
_cell_angle_gamma   31.65982936
_symmetry_Int_Tables_number   1
_chemical_formula_structural   Gd2Mo2C3
_chemical_formula_sum   'Gd2 Mo2 C3'
_cell_volume   106.59120073
_cell_formula_units_Z   1
loop_
 _symmetry_equiv_pos_site_id
 _symmetry_equiv_pos_as_xyz
  1  'x, y, z'
loop_
 _atom_site_type_symbol
 _atom_site_label
 _atom_site_symmetry_multiplicity
 _atom_site_fract_x
 _atom_site_fract_y
 _atom_site_fract_z
 _atom_site_occupancy
  Gd  Gd0  1  0.39120700  0.39120700  0.82081400  1
  Gd  Gd1  1  0.60879300  0.60879300  0.17918600  1
  Mo  Mo2  1  0.15820900  0.15820900  0.67540700  1
  Mo  Mo3  1  0.84179100  0.84179100  0.32459300  1
  C  C4  1  0.00000000  0.00000000  0.00000000  1
  C  C5  1  0.24952600  0.24952600  0.26859600  1
  C  C6  1  0.75047400  0.75047400  0.73140400  1
