# generated using pymatgen
data_Cs4Ni3F10
_symmetry_space_group_name_H-M   'P 1'
_cell_length_a   7.94742752
_cell_length_b   7.94742752
_cell_length_c   13.93145000
_cell_angle_alpha   90.00000000
_cell_angle_beta   90.00000000
_cell_angle_gamma   133.80129791
_symmetry_Int_Tables_number   1
_chemical_formula_structural   Cs4Ni3F10
_chemical_formula_sum   'Cs8 Ni6 F20'
_cell_volume   635.08665220
_cell_formula_units_Z   2
loop_
 _symmetry_equiv_pos_site_id
 _symmetry_equiv_pos_as_xyz
  1  'x, y, z'
loop_
 _atom_site_type_symbol
 _atom_site_label
 _atom_site_symmetry_multiplicity
 _atom_site_fract_x
 _atom_site_fract_y
 _atom_site_fract_z
 _atom_site_occupancy
  Cs  Cs0  1  0.25386900  0.74613100  0.61290000  1
  Cs  Cs1  1  0.74613100  0.25386900  0.38710000  1
  Cs  Cs2  1  0.24613100  0.75386900  0.11290000  1
  Cs  Cs3  1  0.75386900  0.24613100  0.88710000  1
  Cs  Cs4  1  0.95281600  0.04718400  0.63903100  1
  Cs  Cs5  1  0.04718400  0.95281600  0.36096900  1
  Cs  Cs6  1  0.54718400  0.45281600  0.13903100  1
  Cs  Cs7  1  0.45281600  0.54718400  0.86096900  1
  Ni  Ni8  1  0.61723100  0.38276900  0.65426500  1
  Ni  Ni9  1  0.38276900  0.61723100  0.34573500  1
  Ni  Ni10  1  0.88276900  0.11723100  0.15426500  1
  Ni  Ni11  1  0.11723100  0.88276900  0.84573500  1
  Ni  Ni12  1  0.50000000  0.50000000  0.50000000  1
  Ni  Ni13  1  0.00000000  0.00000000  0.00000000  1
  F  F14  1  0.61413200  0.81134700  0.46088400  1
  F  F15  1  0.81134700  0.61413200  0.53911600  1
  F  F16  1  0.88586800  0.68865300  0.96088400  1
  F  F17  1  0.68865300  0.88586800  0.03911600  1
  F  F18  1  0.38586800  0.18865300  0.53911600  1
  F  F19  1  0.18865300  0.38586800  0.46088400  1
  F  F20  1  0.11413200  0.31134700  0.03911600  1
  F  F21  1  0.31134700  0.11413200  0.96088400  1
  F  F22  1  0.47329600  0.52670400  0.64349300  1
  F  F23  1  0.52670400  0.47329600  0.35650700  1
  F  F24  1  0.02670400  0.97329600  0.14349300  1
  F  F25  1  0.97329600  0.02670400  0.85650700  1
  F  F26  1  0.75138300  0.24861700  0.65089700  1
  F  F27  1  0.24861700  0.75138300  0.34910300  1
  F  F28  1  0.36126400  0.13873600  0.75000000  1
  F  F29  1  0.13873600  0.36126400  0.25000000  1
  F  F30  1  0.63873600  0.86126400  0.25000000  1
  F  F31  1  0.86126400  0.63873600  0.75000000  1
  F  F32  1  0.25138300  0.74861700  0.84910300  1
  F  F33  1  0.74861700  0.25138300  0.15089700  1
