# generated using pymatgen
data_KGd(BH4)4
_symmetry_space_group_name_H-M   'P 1'
_cell_length_a   7.76958030
_cell_length_b   8.25274500
_cell_length_c   7.75594807
_cell_angle_alpha   90.00000000
_cell_angle_beta   101.66364614
_cell_angle_gamma   90.00000000
_symmetry_Int_Tables_number   1
_chemical_formula_structural   KGd(BH4)4
_chemical_formula_sum   'K2 Gd2 B8 H32'
_cell_volume   487.04531937
_cell_formula_units_Z   2
loop_
 _symmetry_equiv_pos_site_id
 _symmetry_equiv_pos_as_xyz
  1  'x, y, z'
loop_
 _atom_site_type_symbol
 _atom_site_label
 _atom_site_symmetry_multiplicity
 _atom_site_fract_x
 _atom_site_fract_y
 _atom_site_fract_z
 _atom_site_occupancy
  K  K0  1  0.50000000  0.50000000  0.00000000  1
  K  K1  1  0.50000000  0.00000000  0.50000000  1
  Gd  Gd2  1  0.00000000  0.00000000  0.00000000  1
  Gd  Gd3  1  0.00000000  0.50000000  0.50000000  1
  B  B4  1  0.88617900  0.72718600  0.81101500  1
  B  B5  1  0.11382100  0.22718600  0.68898500  1
  B  B6  1  0.11382100  0.27281400  0.18898500  1
  B  B7  1  0.88617900  0.77281400  0.31101500  1
  B  B8  1  0.67216200  0.37934100  0.40158900  1
  B  B9  1  0.32783800  0.87934100  0.09841100  1
  B  B10  1  0.32783800  0.62065900  0.59841100  1
  B  B11  1  0.67216200  0.12065900  0.90158900  1
  H  H12  1  0.89259900  0.73403400  0.97231900  1
  H  H13  1  0.10740100  0.23403400  0.52768100  1
  H  H14  1  0.10740100  0.26596600  0.02768100  1
  H  H15  1  0.89259900  0.76596600  0.47231900  1
  H  H16  1  0.99334700  0.82491000  0.77205700  1
  H  H17  1  0.00665300  0.32491000  0.72794300  1
  H  H18  1  0.00665300  0.17509000  0.22794300  1
  H  H19  1  0.99334700  0.67509000  0.27205700  1
  H  H20  1  0.93651700  0.58866000  0.78416500  1
  H  H21  1  0.06348300  0.08866000  0.71583500  1
  H  H22  1  0.06348300  0.41134000  0.21583500  1
  H  H23  1  0.93651700  0.91134000  0.28416500  1
  H  H24  1  0.73900800  0.75605800  0.73225100  1
  H  H25  1  0.26099200  0.25605800  0.76774900  1
  H  H26  1  0.26099200  0.24394200  0.26774900  1
  H  H27  1  0.73900800  0.74394200  0.23225100  1
  H  H28  1  0.58427500  0.25711300  0.38745300  1
  H  H29  1  0.41572500  0.75711300  0.11254700  1
  H  H30  1  0.41572500  0.74288700  0.61254700  1
  H  H31  1  0.58427500  0.24288700  0.88745300  1
  H  H32  1  0.58249800  0.49688700  0.35050600  1
  H  H33  1  0.41750200  0.99688700  0.14949400  1
  H  H34  1  0.41750200  0.50311300  0.64949400  1
  H  H35  1  0.58249800  0.00311300  0.85050600  1
  H  H36  1  0.74258500  0.40006700  0.55828000  1
  H  H37  1  0.25741500  0.90006700  0.94172000  1
  H  H38  1  0.25741500  0.59993300  0.44172000  1
  H  H39  1  0.74258500  0.09993300  0.05828000  1
  H  H40  1  0.78706600  0.35858000  0.31318600  1
  H  H41  1  0.21293400  0.85858000  0.18681400  1
  H  H42  1  0.21293400  0.64142000  0.68681400  1
  H  H43  1  0.78706600  0.14142000  0.81318600  1
