# generated using pymatgen
data_Li5Ga4
_symmetry_space_group_name_H-M   'P 1'
_cell_length_a   4.38529040
_cell_length_b   4.38529040
_cell_length_c   8.31547400
_cell_angle_alpha   90.00000000
_cell_angle_beta   90.00000000
_cell_angle_gamma   120.00000597
_symmetry_Int_Tables_number   1
_chemical_formula_structural   Li5Ga4
_chemical_formula_sum   'Li5 Ga4'
_cell_volume   138.48869766
_cell_formula_units_Z   1
loop_
 _symmetry_equiv_pos_site_id
 _symmetry_equiv_pos_as_xyz
  1  'x, y, z'
loop_
 _atom_site_type_symbol
 _atom_site_label
 _atom_site_symmetry_multiplicity
 _atom_site_fract_x
 _atom_site_fract_y
 _atom_site_fract_z
 _atom_site_occupancy
  Li  Li0  1  0.33333300  0.66666700  0.11296600  1
  Li  Li1  1  0.66666700  0.33333300  0.88703400  1
  Li  Li2  1  0.33333300  0.66666700  0.44512600  1
  Li  Li3  1  0.66666700  0.33333300  0.55487400  1
  Li  Li4  1  0.00000000  0.00000000  0.00000000  1
  Ga  Ga5  1  0.33333300  0.66666700  0.77792900  1
  Ga  Ga6  1  0.66666700  0.33333300  0.22207100  1
  Ga  Ga7  1  0.00000000  0.00000000  0.33387800  1
  Ga  Ga8  1  0.00000000  0.00000000  0.66612200  1
