# generated using pymatgen
data_Tm5SbPd2
_symmetry_space_group_name_H-M   'P 1'
_cell_length_a   8.69128114
_cell_length_b   8.69128114
_cell_length_c   8.69128114
_cell_angle_alpha   127.93186422
_cell_angle_beta   127.93186422
_cell_angle_gamma   76.73543135
_symmetry_Int_Tables_number   1
_chemical_formula_structural   Tm5SbPd2
_chemical_formula_sum   'Tm10 Sb2 Pd4'
_cell_volume   396.63722907
_cell_formula_units_Z   2
loop_
 _symmetry_equiv_pos_site_id
 _symmetry_equiv_pos_as_xyz
  1  'x, y, z'
loop_
 _atom_site_type_symbol
 _atom_site_label
 _atom_site_symmetry_multiplicity
 _atom_site_fract_x
 _atom_site_fract_y
 _atom_site_fract_z
 _atom_site_occupancy
  Tm  Tm0  1  0.00000000  0.00000000  0.00000000  1
  Tm  Tm1  1  0.50000000  0.50000000  0.00000000  1
  Tm  Tm2  1  0.79968700  0.29968700  0.81467400  1
  Tm  Tm3  1  0.20031300  0.70031300  0.18532600  1
  Tm  Tm4  1  0.48501300  0.98501300  0.18532600  1
  Tm  Tm5  1  0.29968700  0.48501300  0.50000000  1
  Tm  Tm6  1  0.01498700  0.20031300  0.50000000  1
  Tm  Tm7  1  0.51498700  0.01498700  0.81467400  1
  Tm  Tm8  1  0.70031300  0.51498700  0.50000000  1
  Tm  Tm9  1  0.98501300  0.79968700  0.50000000  1
  Sb  Sb10  1  0.25000000  0.25000000  0.00000000  1
  Sb  Sb11  1  0.75000000  0.75000000  0.00000000  1
  Pd  Pd12  1  0.13611600  0.63611600  0.77223200  1
  Pd  Pd13  1  0.86388400  0.36388400  0.22776800  1
  Pd  Pd14  1  0.63611600  0.86388400  0.50000000  1
  Pd  Pd15  1  0.36388400  0.13611600  0.50000000  1
