# generated using pymatgen
data_HgP2Xe5F22
_symmetry_space_group_name_H-M   'P 1'
_cell_length_a   8.78334800
_cell_length_b   14.99821200
_cell_length_c   17.90401700
_cell_angle_alpha   90.00000000
_cell_angle_beta   90.00000000
_cell_angle_gamma   90.00000000
_symmetry_Int_Tables_number   1
_chemical_formula_structural   HgP2Xe5F22
_chemical_formula_sum   'Hg4 P8 Xe20 F88'
_cell_volume   2358.57700274
_cell_formula_units_Z   4
loop_
 _symmetry_equiv_pos_site_id
 _symmetry_equiv_pos_as_xyz
  1  'x, y, z'
loop_
 _atom_site_type_symbol
 _atom_site_label
 _atom_site_symmetry_multiplicity
 _atom_site_fract_x
 _atom_site_fract_y
 _atom_site_fract_z
 _atom_site_occupancy
  Hg  Hg0  1  0.25000000  0.07556000  0.25000000  1
  Hg  Hg1  1  0.75000000  0.42444000  0.75000000  1
  Hg  Hg2  1  0.75000000  0.92444000  0.75000000  1
  Hg  Hg3  1  0.25000000  0.57556000  0.25000000  1
  P  P4  1  0.99141200  0.22403900  0.12462300  1
  P  P5  1  0.50858800  0.22403900  0.37537700  1
  P  P6  1  0.00858800  0.27596100  0.62462300  1
  P  P7  1  0.49141200  0.27596100  0.87537700  1
  P  P8  1  0.00858800  0.77596100  0.87537700  1
  P  P9  1  0.49141200  0.77596100  0.62462300  1
  P  P10  1  0.99141200  0.72403900  0.37537700  1
  P  P11  1  0.50858800  0.72403900  0.12462300  1
  Xe  Xe12  1  0.75000000  0.99126800  0.25000000  1
  Xe  Xe13  1  0.25000000  0.50873200  0.75000000  1
  Xe  Xe14  1  0.25000000  0.00873200  0.75000000  1
  Xe  Xe15  1  0.75000000  0.49126800  0.25000000  1
  Xe  Xe16  1  0.27904300  0.97453800  0.03688800  1
  Xe  Xe17  1  0.22095700  0.97453800  0.46311200  1
  Xe  Xe18  1  0.72095700  0.52546200  0.53688800  1
  Xe  Xe19  1  0.77904300  0.52546200  0.96311200  1
  Xe  Xe20  1  0.72095700  0.02546200  0.96311200  1
  Xe  Xe21  1  0.77904300  0.02546200  0.53688800  1
  Xe  Xe22  1  0.27904300  0.47453800  0.46311200  1
  Xe  Xe23  1  0.22095700  0.47453800  0.03688800  1
  Xe  Xe24  1  0.00647000  0.26365600  0.37297600  1
  Xe  Xe25  1  0.49353000  0.26365600  0.12702400  1
  Xe  Xe26  1  0.99353000  0.23634400  0.87297600  1
  Xe  Xe27  1  0.50647000  0.23634400  0.62702400  1
  Xe  Xe28  1  0.99353000  0.73634400  0.62702400  1
  Xe  Xe29  1  0.50647000  0.73634400  0.87297600  1
  Xe  Xe30  1  0.00647000  0.76365600  0.12702400  1
  Xe  Xe31  1  0.49353000  0.76365600  0.37297600  1
  F  F32  1  0.98666000  0.98775200  0.25656400  1
  F  F33  1  0.51334000  0.98775200  0.24343600  1
  F  F34  1  0.01334000  0.51224800  0.75656400  1
  F  F35  1  0.48666000  0.51224800  0.74343600  1
  F  F36  1  0.01334000  0.01224800  0.74343600  1
  F  F37  1  0.48666000  0.01224800  0.75656400  1
  F  F38  1  0.98666000  0.48775200  0.24343600  1
  F  F39  1  0.51334000  0.48775200  0.25656400  1
  F  F40  1  0.22388700  0.97099700  0.15243600  1
  F  F41  1  0.27611300  0.97099700  0.34756400  1
  F  F42  1  0.77611300  0.52900300  0.65243600  1
  F  F43  1  0.72388700  0.52900300  0.84756400  1
  F  F44  1  0.77611300  0.02900300  0.84756400  1
  F  F45  1  0.72388700  0.02900300  0.65243600  1
  F  F46  1  0.22388700  0.47099700  0.34756400  1
  F  F47  1  0.27611300  0.47099700  0.15243600  1
  F  F48  1  0.34058300  0.97131900  0.92694600  1
  F  F49  1  0.15941700  0.97131900  0.57305400  1
  F  F50  1  0.65941700  0.52868100  0.42694600  1
  F  F51  1  0.84058300  0.52868100  0.07305400  1
  F  F52  1  0.65941700  0.02868100  0.07305400  1
  F  F53  1  0.84058300  0.02868100  0.42694600  1
  F  F54  1  0.34058300  0.47131900  0.57305400  1
  F  F55  1  0.15941700  0.47131900  0.92694600  1
  F  F56  1  0.09657900  0.13634600  0.34069500  1
  F  F57  1  0.40342100  0.13634600  0.15930500  1
  F  F58  1  0.90342100  0.36365400  0.84069500  1
  F  F59  1  0.59657900  0.36365400  0.65930500  1
  F  F60  1  0.90342100  0.86365400  0.65930500  1
  F  F61  1  0.59657900  0.86365400  0.84069500  1
  F  F62  1  0.09657900  0.63634600  0.15930500  1
  F  F63  1  0.40342100  0.63634600  0.34069500  1
  F  F64  1  0.91795400  0.38228800  0.40715600  1
  F  F65  1  0.58204600  0.38228800  0.09284400  1
  F  F66  1  0.08204600  0.11771200  0.90715600  1
  F  F67  1  0.41795400  0.11771200  0.59284400  1
  F  F68  1  0.08204600  0.61771200  0.59284400  1
  F  F69  1  0.41795400  0.61771200  0.90715600  1
  F  F70  1  0.91795400  0.88228800  0.09284400  1
  F  F71  1  0.58204600  0.88228800  0.40715600  1
  F  F72  1  0.01911500  0.11563100  0.12532300  1
  F  F73  1  0.48088500  0.11563100  0.37467700  1
  F  F74  1  0.98088500  0.38436900  0.62532300  1
  F  F75  1  0.51911500  0.38436900  0.87467700  1
  F  F76  1  0.98088500  0.88436900  0.87467700  1
  F  F77  1  0.51911500  0.88436900  0.62532300  1
  F  F78  1  0.01911500  0.61563100  0.37467700  1
  F  F79  1  0.48088500  0.61563100  0.12532300  1
  F  F80  1  0.12186300  0.23318200  0.19213200  1
  F  F81  1  0.37813700  0.23318200  0.30786800  1
  F  F82  1  0.87813700  0.26681800  0.69213200  1
  F  F83  1  0.62186300  0.26681800  0.80786800  1
  F  F84  1  0.87813700  0.76681800  0.80786800  1
  F  F85  1  0.62186300  0.76681800  0.69213200  1
  F  F86  1  0.12186300  0.73318200  0.30786800  1
  F  F87  1  0.37813700  0.73318200  0.19213200  1
  F  F88  1  0.86036900  0.21334800  0.18823800  1
  F  F89  1  0.63963100  0.21334800  0.31176200  1
  F  F90  1  0.13963100  0.28665200  0.68823800  1
  F  F91  1  0.36036900  0.28665200  0.81176200  1
  F  F92  1  0.13963100  0.78665200  0.81176200  1
  F  F93  1  0.36036900  0.78665200  0.68823800  1
  F  F94  1  0.86036900  0.71334800  0.31176200  1
  F  F95  1  0.63963100  0.71334800  0.18823800  1
  F  F96  1  0.96847400  0.33179800  0.12544100  1
  F  F97  1  0.53152600  0.33179800  0.37455900  1
  F  F98  1  0.03152600  0.16820200  0.62544100  1
  F  F99  1  0.46847400  0.16820200  0.87455900  1
  F  F100  1  0.03152600  0.66820200  0.87455900  1
  F  F101  1  0.46847400  0.66820200  0.62544100  1
  F  F102  1  0.96847400  0.83179800  0.37455900  1
  F  F103  1  0.53152600  0.83179800  0.12544100  1
  F  F104  1  0.86493100  0.21307800  0.05876700  1
  F  F105  1  0.63506900  0.21307800  0.44123300  1
  F  F106  1  0.13506900  0.28692200  0.55876700  1
  F  F107  1  0.36493100  0.28692200  0.94123300  1
  F  F108  1  0.13506900  0.78692200  0.94123300  1
  F  F109  1  0.36493100  0.78692200  0.55876700  1
  F  F110  1  0.86493100  0.71307800  0.44123300  1
  F  F111  1  0.63506900  0.71307800  0.05876700  1
  F  F112  1  0.12624300  0.23478100  0.06226300  1
  F  F113  1  0.37375700  0.23478100  0.43773700  1
  F  F114  1  0.87375700  0.26521900  0.56226300  1
  F  F115  1  0.62624300  0.26521900  0.93773700  1
  F  F116  1  0.87375700  0.76521900  0.93773700  1
  F  F117  1  0.62624300  0.76521900  0.56226300  1
  F  F118  1  0.12624300  0.73478100  0.43773700  1
  F  F119  1  0.37375700  0.73478100  0.06226300  1
