# generated using pymatgen
data_Ag3Sb
_symmetry_space_group_name_H-M   'P 1'
_cell_length_a   4.94835800
_cell_length_b   5.31827200
_cell_length_c   6.08450200
_cell_angle_alpha   90.00000000
_cell_angle_beta   90.00000000
_cell_angle_gamma   90.00000000
_symmetry_Int_Tables_number   1
_chemical_formula_structural   Ag3Sb
_chemical_formula_sum   'Ag6 Sb2'
_cell_volume   160.12409773
_cell_formula_units_Z   2
loop_
 _symmetry_equiv_pos_site_id
 _symmetry_equiv_pos_as_xyz
  1  'x, y, z'
loop_
 _atom_site_type_symbol
 _atom_site_label
 _atom_site_symmetry_multiplicity
 _atom_site_fract_x
 _atom_site_fract_y
 _atom_site_fract_z
 _atom_site_occupancy
  Ag  Ag0  1  0.50000000  0.32982900  0.00000000  1
  Ag  Ag1  1  0.00000000  0.67017100  0.50000000  1
  Ag  Ag2  1  0.00000000  0.15589200  0.25223300  1
  Ag  Ag3  1  0.50000000  0.84410800  0.24776700  1
  Ag  Ag4  1  0.00000000  0.15589200  0.74776700  1
  Ag  Ag5  1  0.50000000  0.84410800  0.75223300  1
  Sb  Sb6  1  0.00000000  0.66905300  0.00000000  1
  Sb  Sb7  1  0.50000000  0.33094700  0.50000000  1
