# generated using pymatgen
data_Dy3Ir
_symmetry_space_group_name_H-M   'P 1'
_cell_length_a   6.37017100
_cell_length_b   7.25959100
_cell_length_c   9.26266000
_cell_angle_alpha   90.00000000
_cell_angle_beta   90.00000000
_cell_angle_gamma   90.00000000
_symmetry_Int_Tables_number   1
_chemical_formula_structural   Dy3Ir
_chemical_formula_sum   'Dy12 Ir4'
_cell_volume   428.35019318
_cell_formula_units_Z   4
loop_
 _symmetry_equiv_pos_site_id
 _symmetry_equiv_pos_as_xyz
  1  'x, y, z'
loop_
 _atom_site_type_symbol
 _atom_site_label
 _atom_site_symmetry_multiplicity
 _atom_site_fract_x
 _atom_site_fract_y
 _atom_site_fract_z
 _atom_site_occupancy
  Dy  Dy0  1  0.32810900  0.67695900  0.06284100  1
  Dy  Dy1  1  0.17189100  0.17695900  0.43715900  1
  Dy  Dy2  1  0.67189100  0.32304100  0.56284100  1
  Dy  Dy3  1  0.82810900  0.82304100  0.93715900  1
  Dy  Dy4  1  0.67189100  0.32304100  0.93715900  1
  Dy  Dy5  1  0.82810900  0.82304100  0.56284100  1
  Dy  Dy6  1  0.32810900  0.67695900  0.43715900  1
  Dy  Dy7  1  0.17189100  0.17695900  0.06284100  1
  Dy  Dy8  1  0.86722300  0.53450200  0.25000000  1
  Dy  Dy9  1  0.63277700  0.03450200  0.25000000  1
  Dy  Dy10  1  0.13277700  0.46549800  0.75000000  1
  Dy  Dy11  1  0.36722300  0.96549800  0.75000000  1
  Ir  Ir12  1  0.04860100  0.88246300  0.25000000  1
  Ir  Ir13  1  0.45139900  0.38246300  0.25000000  1
  Ir  Ir14  1  0.95139900  0.11753700  0.75000000  1
  Ir  Ir15  1  0.54860100  0.61753700  0.75000000  1
