# generated using pymatgen
data_Nd10Se19
_symmetry_space_group_name_H-M   'P 1'
_cell_length_a   9.33813400
_cell_length_b   9.33813400
_cell_length_c   17.07018900
_cell_angle_alpha   90.00000000
_cell_angle_beta   90.00000000
_cell_angle_gamma   90.00000000
_symmetry_Int_Tables_number   1
_chemical_formula_structural   Nd10Se19
_chemical_formula_sum   'Nd20 Se38'
_cell_volume   1488.53322544
_cell_formula_units_Z   2
loop_
 _symmetry_equiv_pos_site_id
 _symmetry_equiv_pos_as_xyz
  1  'x, y, z'
loop_
 _atom_site_type_symbol
 _atom_site_label
 _atom_site_symmetry_multiplicity
 _atom_site_fract_x
 _atom_site_fract_y
 _atom_site_fract_z
 _atom_site_occupancy
  Nd  Nd0  1  0.00000000  0.50000000  0.86665400  1
  Nd  Nd1  1  0.00000000  0.50000000  0.36665400  1
  Nd  Nd2  1  0.50000000  0.00000000  0.63334600  1
  Nd  Nd3  1  0.50000000  0.00000000  0.13334600  1
  Nd  Nd4  1  0.30326000  0.39791600  0.64389600  1
  Nd  Nd5  1  0.10208400  0.80326000  0.14389600  1
  Nd  Nd6  1  0.89791600  0.19674000  0.14389600  1
  Nd  Nd7  1  0.69674000  0.60208400  0.64389600  1
  Nd  Nd8  1  0.19674000  0.10208400  0.85610400  1
  Nd  Nd9  1  0.39791600  0.69674000  0.35610400  1
  Nd  Nd10  1  0.60208400  0.30326000  0.35610400  1
  Nd  Nd11  1  0.80326000  0.89791600  0.85610400  1
  Nd  Nd12  1  0.20645700  0.09716600  0.36958700  1
  Nd  Nd13  1  0.40283400  0.70645700  0.86958700  1
  Nd  Nd14  1  0.59716600  0.29354300  0.86958700  1
  Nd  Nd15  1  0.79354300  0.90283400  0.36958700  1
  Nd  Nd16  1  0.29354300  0.40283400  0.13041300  1
  Nd  Nd17  1  0.09716600  0.79354300  0.63041300  1
  Nd  Nd18  1  0.90283400  0.20645700  0.63041300  1
  Nd  Nd19  1  0.70645700  0.59716600  0.13041300  1
  Se  Se20  1  0.50000000  0.00000000  0.81434700  1
  Se  Se21  1  0.50000000  0.00000000  0.31434700  1
  Se  Se22  1  0.00000000  0.50000000  0.68565300  1
  Se  Se23  1  0.00000000  0.50000000  0.18565300  1
  Se  Se24  1  0.60055900  0.30229200  0.68682200  1
  Se  Se25  1  0.19770800  0.10055900  0.18682200  1
  Se  Se26  1  0.80229200  0.89944100  0.18682200  1
  Se  Se27  1  0.39944100  0.69770800  0.68682200  1
  Se  Se28  1  0.89944100  0.19770800  0.81317800  1
  Se  Se29  1  0.30229200  0.39944100  0.31317800  1
  Se  Se30  1  0.69770800  0.60055900  0.31317800  1
  Se  Se31  1  0.10055900  0.80229200  0.81317800  1
  Se  Se32  1  0.20111000  0.09770900  0.67915300  1
  Se  Se33  1  0.40229100  0.70111000  0.17915300  1
  Se  Se34  1  0.59770900  0.29889000  0.17915300  1
  Se  Se35  1  0.79889000  0.90229100  0.67915300  1
  Se  Se36  1  0.29889000  0.40229100  0.82084700  1
  Se  Se37  1  0.09770900  0.79889000  0.32084700  1
  Se  Se38  1  0.90229100  0.20111000  0.32084700  1
  Se  Se39  1  0.70111000  0.59770900  0.82084700  1
  Se  Se40  1  0.63145100  0.81521600  0.99933100  1
  Se  Se41  1  0.68478400  0.13145100  0.49933100  1
  Se  Se42  1  0.31521600  0.86854900  0.49933100  1
  Se  Se43  1  0.36854900  0.18478400  0.99933100  1
  Se  Se44  1  0.86854900  0.68478400  0.50066900  1
  Se  Se45  1  0.81521600  0.36854900  0.00066900  1
  Se  Se46  1  0.18478400  0.63145100  0.00066900  1
  Se  Se47  1  0.13145100  0.31521600  0.50066900  1
  Se  Se48  1  0.72027800  0.07700100  0.00019100  1
  Se  Se49  1  0.42299900  0.22027800  0.50019100  1
  Se  Se50  1  0.57700100  0.77972200  0.50019100  1
  Se  Se51  1  0.27972200  0.92299900  0.00019100  1
  Se  Se52  1  0.77972200  0.42299900  0.49980900  1
  Se  Se53  1  0.07700100  0.27972200  0.99980900  1
  Se  Se54  1  0.92299900  0.72027800  0.99980900  1
  Se  Se55  1  0.22027800  0.57700100  0.49980900  1
  Se  Se56  1  0.50000000  0.50000000  0.00000000  1
  Se  Se57  1  0.00000000  0.00000000  0.50000000  1
