# generated using pymatgen
data_Rb3PuH4O7
_symmetry_space_group_name_H-M   'P 1'
_cell_length_a   6.62222103
_cell_length_b   11.52730000
_cell_length_c   12.09652971
_cell_angle_alpha   90.00000000
_cell_angle_beta   90.85940519
_cell_angle_gamma   90.00000000
_symmetry_Int_Tables_number   1
_chemical_formula_structural   Rb3PuH4O7
_chemical_formula_sum   'Rb12 Pu4 H16 O28'
_cell_volume   923.30079120
_cell_formula_units_Z   4
loop_
 _symmetry_equiv_pos_site_id
 _symmetry_equiv_pos_as_xyz
  1  'x, y, z'
loop_
 _atom_site_type_symbol
 _atom_site_label
 _atom_site_symmetry_multiplicity
 _atom_site_fract_x
 _atom_site_fract_y
 _atom_site_fract_z
 _atom_site_occupancy
  Rb  Rb0  1  0.79394100  0.12134600  0.55376400  1
  Rb  Rb1  1  0.29394100  0.37865400  0.05376400  1
  Rb  Rb2  1  0.20605900  0.87865400  0.44623600  1
  Rb  Rb3  1  0.70605900  0.62134600  0.94623600  1
  Rb  Rb4  1  0.76848100  0.27886200  0.25631200  1
  Rb  Rb5  1  0.26848100  0.22113800  0.75631200  1
  Rb  Rb6  1  0.23151900  0.72113800  0.74368800  1
  Rb  Rb7  1  0.73151900  0.77886200  0.24368800  1
  Rb  Rb8  1  0.82875000  0.96321700  0.86277600  1
  Rb  Rb9  1  0.32875000  0.53678300  0.36277600  1
  Rb  Rb10  1  0.17125000  0.03678300  0.13722400  1
  Rb  Rb11  1  0.67125000  0.46321700  0.63722400  1
  Pu  Pu12  1  0.78122600  0.29311700  0.90880900  1
  Pu  Pu13  1  0.28122600  0.20688300  0.40880900  1
  Pu  Pu14  1  0.21877400  0.70688300  0.09119100  1
  Pu  Pu15  1  0.71877400  0.79311700  0.59119100  1
  H  H16  1  0.06345900  0.47781500  0.86848900  1
  H  H17  1  0.56345900  0.02218500  0.36848900  1
  H  H18  1  0.93654100  0.52218500  0.13151100  1
  H  H19  1  0.43654100  0.97781500  0.63151100  1
  H  H20  1  0.46994900  0.11811200  0.94916400  1
  H  H21  1  0.96994900  0.38188800  0.44916400  1
  H  H22  1  0.53005100  0.88188800  0.05083600  1
  H  H23  1  0.03005100  0.61811200  0.55083600  1
  H  H24  1  0.12514700  0.45950700  0.70748100  1
  H  H25  1  0.62514700  0.04049300  0.20748100  1
  H  H26  1  0.87485300  0.54049300  0.29251900  1
  H  H27  1  0.37485300  0.95950700  0.79251900  1
  H  H28  1  0.15176800  0.42363200  0.58134600  1
  H  H29  1  0.65176800  0.07636800  0.08134600  1
  H  H30  1  0.84823200  0.57636800  0.41865400  1
  H  H31  1  0.34823200  0.92363200  0.91865400  1
  O  O32  1  0.75937300  0.20290300  0.77639200  1
  O  O33  1  0.25937300  0.29709700  0.27639200  1
  O  O34  1  0.24062700  0.79709700  0.22360800  1
  O  O35  1  0.74062700  0.70290300  0.72360800  1
  O  O36  1  0.55777500  0.38471000  0.86026200  1
  O  O37  1  0.05777500  0.11529000  0.36026200  1
  O  O38  1  0.44222500  0.61529000  0.13973800  1
  O  O39  1  0.94222500  0.88471000  0.63973800  1
  O  O40  1  0.80425500  0.38670700  0.03959500  1
  O  O41  1  0.30425500  0.11329300  0.53959500  1
  O  O42  1  0.19574500  0.61329300  0.96040500  1
  O  O43  1  0.69574500  0.88670700  0.46040500  1
  O  O44  1  0.00305900  0.20119000  0.95718700  1
  O  O45  1  0.50305900  0.29881000  0.45718700  1
  O  O46  1  0.99694100  0.79881000  0.04281300  1
  O  O47  1  0.49694100  0.70119000  0.54281300  1
  O  O48  1  0.00327000  0.42023500  0.81787800  1
  O  O49  1  0.50327000  0.07976500  0.31787800  1
  O  O50  1  0.99673000  0.57976500  0.18212200  1
  O  O51  1  0.49673000  0.92023500  0.68212200  1
  O  O52  1  0.55118100  0.16874400  0.99805800  1
  O  O53  1  0.05118100  0.33125600  0.49805800  1
  O  O54  1  0.44881900  0.83125600  0.00194200  1
  O  O55  1  0.94881900  0.66874400  0.50194200  1
  O  O56  1  0.19823900  0.48421200  0.63801100  1
  O  O57  1  0.69823900  0.01578800  0.13801100  1
  O  O58  1  0.80176100  0.51578800  0.36198900  1
  O  O59  1  0.30176100  0.98421200  0.86198900  1
