# generated using pymatgen
data_Na2UP2O9
_symmetry_space_group_name_H-M   'P 1'
_cell_length_a   7.04976600
_cell_length_b   8.28027100
_cell_length_c   13.42895400
_cell_angle_alpha   90.00000000
_cell_angle_beta   90.00000000
_cell_angle_gamma   90.00000000
_symmetry_Int_Tables_number   1
_chemical_formula_structural   Na2UP2O9
_chemical_formula_sum   'Na8 U4 P8 O36'
_cell_volume   783.90139777
_cell_formula_units_Z   4
loop_
 _symmetry_equiv_pos_site_id
 _symmetry_equiv_pos_as_xyz
  1  'x, y, z'
loop_
 _atom_site_type_symbol
 _atom_site_label
 _atom_site_symmetry_multiplicity
 _atom_site_fract_x
 _atom_site_fract_y
 _atom_site_fract_z
 _atom_site_occupancy
  Na  Na0  1  0.50769900  0.97877500  0.97234900  1
  Na  Na1  1  0.23712600  0.76779200  0.33629300  1
  Na  Na2  1  0.73712600  0.23220800  0.66370700  1
  Na  Na3  1  0.23712600  0.73220800  0.83629300  1
  Na  Na4  1  0.73712600  0.26779200  0.16370700  1
  Na  Na5  1  0.00769900  0.02122500  0.02765100  1
  Na  Na6  1  0.00769900  0.47877500  0.52765100  1
  Na  Na7  1  0.50769900  0.52122500  0.47234900  1
  U  U8  1  0.24410300  0.25189000  0.30151500  1
  U  U9  1  0.74410300  0.74811000  0.69848500  1
  U  U10  1  0.24410300  0.24811000  0.80151500  1
  U  U11  1  0.74410300  0.75189000  0.19848500  1
  P  P12  1  0.24317600  0.34631900  0.07870600  1
  P  P13  1  0.74383500  0.21175000  0.40157700  1
  P  P14  1  0.24317600  0.15368100  0.57870600  1
  P  P15  1  0.24383500  0.71175000  0.09842300  1
  P  P16  1  0.74383500  0.28825000  0.90157700  1
  P  P17  1  0.74317600  0.84631900  0.42129400  1
  P  P18  1  0.74317600  0.65368100  0.92129400  1
  P  P19  1  0.24383500  0.78825000  0.59842300  1
  O  O20  1  0.92386800  0.28138300  0.83755700  1
  O  O21  1  0.42386800  0.71861700  0.16244300  1
  O  O22  1  0.92386800  0.21861700  0.33755700  1
  O  O23  1  0.42386800  0.78138300  0.66244300  1
  O  O24  1  0.07012100  0.29939200  0.14259800  1
  O  O25  1  0.57012100  0.70060800  0.85740200  1
  O  O26  1  0.07012100  0.20060800  0.64259800  1
  O  O27  1  0.57012100  0.79939200  0.35740200  1
  O  O28  1  0.74499500  0.32874900  0.48837800  1
  O  O29  1  0.24499500  0.67125100  0.51162200  1
  O  O30  1  0.74499500  0.17125100  0.98837800  1
  O  O31  1  0.24499500  0.82874900  0.01162200  1
  O  O32  1  0.41449500  0.31577400  0.14641100  1
  O  O33  1  0.91449500  0.68422600  0.85358900  1
  O  O34  1  0.41449500  0.18422600  0.64641100  1
  O  O35  1  0.91449500  0.81577400  0.35358900  1
  O  O36  1  0.73402700  0.46651900  0.95408400  1
  O  O37  1  0.23402700  0.53348100  0.04591600  1
  O  O38  1  0.73402700  0.03348100  0.45408400  1
  O  O39  1  0.23402700  0.96651900  0.54591600  1
  O  O40  1  0.74859600  0.96275400  0.72461800  1
  O  O41  1  0.24859600  0.03724600  0.27538200  1
  O  O42  1  0.74859600  0.53724600  0.22461800  1
  O  O43  1  0.24859600  0.46275400  0.77538200  1
  O  O44  1  0.74500400  0.96865000  0.17125900  1
  O  O45  1  0.24500400  0.03135000  0.82874100  1
  O  O46  1  0.74500400  0.53135000  0.67125900  1
  O  O47  1  0.24500400  0.46865000  0.32874100  1
  O  O48  1  0.74820600  0.74596400  0.02015900  1
  O  O49  1  0.24820600  0.25403600  0.97984100  1
  O  O50  1  0.74820600  0.75403600  0.52015900  1
  O  O51  1  0.24820600  0.24596400  0.47984100  1
  O  O52  1  0.06674900  0.77056500  0.66425800  1
  O  O53  1  0.56674900  0.22943500  0.33574200  1
  O  O54  1  0.06674900  0.72943500  0.16425800  1
  O  O55  1  0.56674900  0.27056500  0.83574200  1
