# generated using pymatgen
data_CsSm2CuSe4
_symmetry_space_group_name_H-M   'P 1'
_cell_length_a   7.73186737
_cell_length_b   7.73186737
_cell_length_c   14.67989500
_cell_angle_alpha   90.00000000
_cell_angle_beta   90.00000000
_cell_angle_gamma   148.22369016
_symmetry_Int_Tables_number   1
_chemical_formula_structural   CsSm2CuSe4
_chemical_formula_sum   'Cs2 Sm4 Cu2 Se8'
_cell_volume   462.14278572
_cell_formula_units_Z   2
loop_
 _symmetry_equiv_pos_site_id
 _symmetry_equiv_pos_as_xyz
  1  'x, y, z'
loop_
 _atom_site_type_symbol
 _atom_site_label
 _atom_site_symmetry_multiplicity
 _atom_site_fract_x
 _atom_site_fract_y
 _atom_site_fract_z
 _atom_site_occupancy
  Cs  Cs0  1  0.89319500  0.10680500  0.75000000  1
  Cs  Cs1  1  0.10680500  0.89319500  0.25000000  1
  Sm  Sm2  1  0.36590600  0.63409400  0.06199200  1
  Sm  Sm3  1  0.63409400  0.36590600  0.93800800  1
  Sm  Sm4  1  0.36590600  0.63409400  0.43800800  1
  Sm  Sm5  1  0.63409400  0.36590600  0.56199200  1
  Cu  Cu6  1  0.16577700  0.83422300  0.75000000  1
  Cu  Cu7  1  0.83422300  0.16577700  0.25000000  1
  Se  Se8  1  0.42194000  0.57806000  0.25000000  1
  Se  Se9  1  0.57806000  0.42194000  0.75000000  1
  Se  Se10  1  0.74140300  0.25859700  0.10890600  1
  Se  Se11  1  0.25859700  0.74140300  0.89109400  1
  Se  Se12  1  0.00000000  0.00000000  0.50000000  1
  Se  Se13  1  0.00000000  0.00000000  0.00000000  1
  Se  Se14  1  0.74140300  0.25859700  0.39109400  1
  Se  Se15  1  0.25859700  0.74140300  0.60890600  1
