# generated using pymatgen
data_TbGdAl6
_symmetry_space_group_name_H-M   'P 1'
_cell_length_a   6.30057611
_cell_length_b   6.30057611
_cell_length_c   4.61954500
_cell_angle_alpha   90.00000000
_cell_angle_beta   90.00000000
_cell_angle_gamma   120.00000114
_symmetry_Int_Tables_number   1
_chemical_formula_structural   TbGdAl6
_chemical_formula_sum   'Tb1 Gd1 Al6'
_cell_volume   158.81457358
_cell_formula_units_Z   1
loop_
 _symmetry_equiv_pos_site_id
 _symmetry_equiv_pos_as_xyz
  1  'x, y, z'
loop_
 _atom_site_type_symbol
 _atom_site_label
 _atom_site_symmetry_multiplicity
 _atom_site_fract_x
 _atom_site_fract_y
 _atom_site_fract_z
 _atom_site_occupancy
  Tb  Tb0  1  0.00000000  0.00000000  0.50000000  1
  Gd  Gd1  1  0.33333300  0.66666700  0.00000000  1
  Al  Al2  1  0.37349000  0.18674500  0.00000000  1
  Al  Al3  1  0.81325500  0.18674500  0.00000000  1
  Al  Al4  1  0.81325500  0.62651000  0.00000000  1
  Al  Al5  1  0.96034700  0.48017300  0.50000000  1
  Al  Al6  1  0.51982700  0.48017300  0.50000000  1
  Al  Al7  1  0.51982700  0.03965300  0.50000000  1
