# generated using pymatgen
data_Rb2NbAgS4
_symmetry_space_group_name_H-M   'P 1'
_cell_length_a   13.92598086
_cell_length_b   12.41543394
_cell_length_c   7.59468772
_cell_angle_alpha   84.55662052
_cell_angle_beta   62.56198879
_cell_angle_gamma   32.88139069
_symmetry_Int_Tables_number   1
_chemical_formula_structural   Rb2NbAgS4
_chemical_formula_sum   'Rb4 Nb2 Ag2 S8'
_cell_volume   503.16648937
_cell_formula_units_Z   2
loop_
 _symmetry_equiv_pos_site_id
 _symmetry_equiv_pos_as_xyz
  1  'x, y, z'
loop_
 _atom_site_type_symbol
 _atom_site_label
 _atom_site_symmetry_multiplicity
 _atom_site_fract_x
 _atom_site_fract_y
 _atom_site_fract_z
 _atom_site_occupancy
  Rb  Rb0  1  0.07097800  0.07097800  0.42902200  1
  Rb  Rb1  1  0.17902200  0.17902200  0.82097800  1
  Rb  Rb2  1  0.42902200  0.42902200  0.07097800  1
  Rb  Rb3  1  0.82097800  0.82097800  0.17902200  1
  Nb  Nb4  1  0.00000000  0.00000000  0.00000000  1
  Nb  Nb5  1  0.25000000  0.25000000  0.25000000  1
  Ag  Ag6  1  0.50000000  0.50000000  0.50000000  1
  Ag  Ag7  1  0.75000000  0.75000000  0.75000000  1
  S  S8  1  0.06094600  0.82777800  0.74210800  1
  S  S9  1  0.36916900  0.74210800  0.82777800  1
  S  S10  1  0.74210800  0.36916900  0.06094600  1
  S  S11  1  0.82777800  0.06094600  0.36916900  1
  S  S12  1  0.18905400  0.42222200  0.50789200  1
  S  S13  1  0.42222200  0.18905400  0.88083100  1
  S  S14  1  0.50789200  0.88083100  0.18905400  1
  S  S15  1  0.88083100  0.50789200  0.42222200  1
