# generated using pymatgen
data_RhSCl5
_symmetry_space_group_name_H-M   'P 1'
_cell_length_a   13.90672218
_cell_length_b   13.90672218
_cell_length_c   27.49901185
_cell_angle_alpha   61.93167553
_cell_angle_beta   61.93167553
_cell_angle_gamma   29.05636284
_symmetry_Int_Tables_number   1
_chemical_formula_structural   RhSCl5
_chemical_formula_sum   'Rh12 S12 Cl60'
_cell_volume   2257.25343418
_cell_formula_units_Z   12
loop_
 _symmetry_equiv_pos_site_id
 _symmetry_equiv_pos_as_xyz
  1  'x, y, z'
loop_
 _atom_site_type_symbol
 _atom_site_label
 _atom_site_symmetry_multiplicity
 _atom_site_fract_x
 _atom_site_fract_y
 _atom_site_fract_z
 _atom_site_occupancy
  Rh  Rh0  1  0.93689500  0.84543900  0.93777600  1
  Rh  Rh1  1  0.31289200  0.06608300  0.41616700  1
  Rh  Rh2  1  0.06608300  0.31289200  0.91616700  1
  Rh  Rh3  1  0.01778000  0.64374300  0.85218100  1
  Rh  Rh4  1  0.68058500  0.94190900  0.58487500  1
  Rh  Rh5  1  0.15313800  0.06821800  0.56246500  1
  Rh  Rh6  1  0.06821800  0.15313800  0.06246500  1
  Rh  Rh7  1  0.94190900  0.68058500  0.08487500  1
  Rh  Rh8  1  0.35551200  0.98729500  0.64812500  1
  Rh  Rh9  1  0.64374300  0.01778000  0.35218100  1
  Rh  Rh10  1  0.84543900  0.93689500  0.43777600  1
  Rh  Rh11  1  0.98729500  0.35551200  0.14812500  1
  S  S12  1  0.91960000  0.29884000  0.91325600  1
  S  S13  1  0.29884000  0.91960000  0.41325600  1
  S  S14  1  0.75142400  0.54645400  0.21835400  1
  S  S15  1  0.70192900  0.08280600  0.58702300  1
  S  S16  1  0.08280600  0.70192900  0.08702300  1
  S  S17  1  0.72552700  0.13928500  0.88161000  1
  S  S18  1  0.25060500  0.45437800  0.78245200  1
  S  S19  1  0.27581500  0.86399500  0.11904500  1
  S  S20  1  0.54645400  0.75142400  0.71835400  1
  S  S21  1  0.45437800  0.25060500  0.28245200  1
  S  S22  1  0.13928500  0.72552700  0.38161000  1
  S  S23  1  0.86399500  0.27581500  0.61904500  1
  Cl  Cl24  1  0.17151300  0.22032100  0.56774700  1
  Cl  Cl25  1  0.38240200  0.44413000  0.06847300  1
  Cl  Cl26  1  0.93263400  0.32139000  0.83249200  1
  Cl  Cl27  1  0.55822900  0.61807600  0.43364900  1
  Cl  Cl28  1  0.53063300  0.15262700  0.50162800  1
  Cl  Cl29  1  0.44413000  0.38240200  0.56847300  1
  Cl  Cl30  1  0.69115800  0.86267800  0.15999400  1
  Cl  Cl31  1  0.68644600  0.06295900  0.66802200  1
  Cl  Cl32  1  0.15262700  0.53063300  0.00162800  1
  Cl  Cl33  1  0.57951200  0.35015400  0.91757800  1
  Cl  Cl34  1  0.64949400  0.42535600  0.58250500  1
  Cl  Cl35  1  0.37102700  0.14858800  0.64206100  1
  Cl  Cl36  1  0.14858800  0.37102700  0.14206100  1
  Cl  Cl37  1  0.33805000  0.83999600  0.63920700  1
  Cl  Cl38  1  0.22032100  0.17151300  0.06774700  1
  Cl  Cl39  1  0.32934400  0.55007100  0.73479600  1
  Cl  Cl40  1  0.12326100  0.88566000  0.31333400  1
  Cl  Cl41  1  0.90624300  0.15165900  0.05697900  1
  Cl  Cl42  1  0.27689000  0.01166100  0.97871500  1
  Cl  Cl43  1  0.13389500  0.31304900  0.34027400  1
  Cl  Cl44  1  0.82518800  0.78562800  0.43300000  1
  Cl  Cl45  1  0.55007100  0.32934400  0.23479600  1
  Cl  Cl46  1  0.61807600  0.55822900  0.93364900  1
  Cl  Cl47  1  0.32139000  0.93263400  0.33249200  1
  Cl  Cl48  1  0.44759700  0.89143000  0.77409600  1
  Cl  Cl49  1  0.66089000  0.16331400  0.36149000  1
  Cl  Cl50  1  0.83999600  0.33805000  0.13920700  1
  Cl  Cl51  1  0.35015400  0.57951200  0.41757800  1
  Cl  Cl52  1  0.31304900  0.13389500  0.84027400  1
  Cl  Cl53  1  0.62295800  0.85980900  0.35765400  1
  Cl  Cl54  1  0.45010500  0.67206500  0.76564300  1
  Cl  Cl55  1  0.77447800  0.67082500  0.08409100  1
  Cl  Cl56  1  0.85066100  0.09611100  0.44221700  1
  Cl  Cl57  1  0.04843000  0.20438400  0.70550900  1
  Cl  Cl58  1  0.01166100  0.27689000  0.47871500  1
  Cl  Cl59  1  0.09611100  0.85066100  0.94221700  1
  Cl  Cl60  1  0.16331400  0.66089000  0.86149000  1
  Cl  Cl61  1  0.11866300  0.87600200  0.18691200  1
  Cl  Cl62  1  0.11645700  0.54394800  0.72753400  1
  Cl  Cl63  1  0.67082500  0.77447800  0.58409100  1
  Cl  Cl64  1  0.06295900  0.68644600  0.16802200  1
  Cl  Cl65  1  0.85080800  0.47193100  0.99785600  1
  Cl  Cl66  1  0.89143000  0.44759700  0.27409600  1
  Cl  Cl67  1  0.86267800  0.69115800  0.65999400  1
  Cl  Cl68  1  0.78562800  0.82518800  0.93300000  1
  Cl  Cl69  1  0.22478700  0.33300100  0.91597900  1
  Cl  Cl70  1  0.80237900  0.94830600  0.79381200  1
  Cl  Cl71  1  0.98929400  0.72553300  0.52238300  1
  Cl  Cl72  1  0.47193100  0.85080800  0.49785600  1
  Cl  Cl73  1  0.15165900  0.90624300  0.55697900  1
  Cl  Cl74  1  0.88566000  0.12326100  0.81333400  1
  Cl  Cl75  1  0.42535600  0.64949400  0.08250500  1
  Cl  Cl76  1  0.33300100  0.22478700  0.41597900  1
  Cl  Cl77  1  0.67206500  0.45010500  0.26564300  1
  Cl  Cl78  1  0.87600200  0.11866300  0.68691200  1
  Cl  Cl79  1  0.94830600  0.80237900  0.29381200  1
  Cl  Cl80  1  0.54394800  0.11645700  0.22753400  1
  Cl  Cl81  1  0.85980900  0.62295800  0.85765400  1
  Cl  Cl82  1  0.20438400  0.04843000  0.20550900  1
  Cl  Cl83  1  0.72553300  0.98929400  0.02238300  1
