# generated using pymatgen
data_CsBePO4
_symmetry_space_group_name_H-M   'P 1'
_cell_length_a   5.19321900
_cell_length_b   8.85049100
_cell_length_c   8.94763500
_cell_angle_alpha   90.00000000
_cell_angle_beta   90.00000000
_cell_angle_gamma   90.00000000
_symmetry_Int_Tables_number   1
_chemical_formula_structural   CsBePO4
_chemical_formula_sum   'Cs4 Be4 P4 O16'
_cell_volume   411.25601388
_cell_formula_units_Z   4
loop_
 _symmetry_equiv_pos_site_id
 _symmetry_equiv_pos_as_xyz
  1  'x, y, z'
loop_
 _atom_site_type_symbol
 _atom_site_label
 _atom_site_symmetry_multiplicity
 _atom_site_fract_x
 _atom_site_fract_y
 _atom_site_fract_z
 _atom_site_occupancy
  Cs  Cs0  1  0.25000000  0.50804600  0.69402400  1
  Cs  Cs1  1  0.75000000  0.49195400  0.30597600  1
  Cs  Cs2  1  0.25000000  0.00804600  0.80597600  1
  Cs  Cs3  1  0.75000000  0.99195400  0.19402400  1
  Be  Be4  1  0.75000000  0.17275200  0.59044000  1
  Be  Be5  1  0.25000000  0.82724800  0.40956000  1
  Be  Be6  1  0.75000000  0.67275200  0.90956000  1
  Be  Be7  1  0.25000000  0.32724800  0.09044000  1
  P  P8  1  0.75000000  0.31777900  0.91605000  1
  P  P9  1  0.25000000  0.68222100  0.08395000  1
  P  P10  1  0.75000000  0.81777900  0.58395000  1
  P  P11  1  0.25000000  0.18222100  0.41605000  1
  O  O12  1  0.75000000  0.49018000  0.89652500  1
  O  O13  1  0.25000000  0.50982000  0.10347500  1
  O  O14  1  0.75000000  0.99018000  0.60347500  1
  O  O15  1  0.25000000  0.00982000  0.39652500  1
  O  O16  1  0.99226500  0.76494300  0.49666100  1
  O  O17  1  0.49226500  0.23505700  0.50333900  1
  O  O18  1  0.50773500  0.26494300  0.00333900  1
  O  O19  1  0.00773500  0.73505700  0.99666100  1
  O  O20  1  0.00773500  0.23505700  0.50333900  1
  O  O21  1  0.50773500  0.76494300  0.49666100  1
  O  O22  1  0.49226500  0.73505700  0.99666100  1
  O  O23  1  0.99226500  0.26494300  0.00333900  1
  O  O24  1  0.25000000  0.25882300  0.26156100  1
  O  O25  1  0.75000000  0.74117700  0.73843900  1
  O  O26  1  0.25000000  0.75882300  0.23843900  1
  O  O27  1  0.75000000  0.24117700  0.76156100  1
