# generated using pymatgen
data_ErCo3Si2
_symmetry_space_group_name_H-M   'P 1'
_cell_length_a   6.25282160
_cell_length_b   6.25282160
_cell_length_c   6.25282160
_cell_angle_alpha   130.73195542
_cell_angle_beta   112.52628294
_cell_angle_gamma   87.95821481
_symmetry_Int_Tables_number   1
_chemical_formula_structural   ErCo3Si2
_chemical_formula_sum   'Er2 Co6 Si4'
_cell_volume   162.89738826
_cell_formula_units_Z   2
loop_
 _symmetry_equiv_pos_site_id
 _symmetry_equiv_pos_as_xyz
  1  'x, y, z'
loop_
 _atom_site_type_symbol
 _atom_site_label
 _atom_site_symmetry_multiplicity
 _atom_site_fract_x
 _atom_site_fract_y
 _atom_site_fract_z
 _atom_site_occupancy
  Er  Er0  1  0.25000000  0.52656200  0.27656200  1
  Er  Er1  1  0.75000000  0.47343800  0.72343800  1
  Co  Co2  1  0.00000000  0.00000000  0.50000000  1
  Co  Co3  1  0.50000000  0.00000000  0.00000000  1
  Co  Co4  1  0.72666100  0.00000000  0.72666100  1
  Co  Co5  1  0.22666100  0.50000000  0.72666100  1
  Co  Co6  1  0.27333900  0.00000000  0.27333900  1
  Co  Co7  1  0.77333900  0.50000000  0.27333900  1
  Si  Si8  1  0.08182700  0.87091700  0.78909000  1
  Si  Si9  1  0.91817300  0.12908300  0.21091000  1
  Si  Si10  1  0.58182700  0.79273800  0.21091000  1
  Si  Si11  1  0.41817300  0.20726200  0.78909000  1
