# generated using pymatgen
data_K2La2Sb2S9
_symmetry_space_group_name_H-M   'P 1'
_cell_length_a   4.13578100
_cell_length_b   11.32786200
_cell_length_c   17.07950900
_cell_angle_alpha   90.00000000
_cell_angle_beta   90.00000000
_cell_angle_gamma   90.00000000
_symmetry_Int_Tables_number   1
_chemical_formula_structural   K2La2Sb2S9
_chemical_formula_sum   'K4 La4 Sb4 S18'
_cell_volume   800.16742070
_cell_formula_units_Z   2
loop_
 _symmetry_equiv_pos_site_id
 _symmetry_equiv_pos_as_xyz
  1  'x, y, z'
loop_
 _atom_site_type_symbol
 _atom_site_label
 _atom_site_symmetry_multiplicity
 _atom_site_fract_x
 _atom_site_fract_y
 _atom_site_fract_z
 _atom_site_occupancy
  K  K0  1  0.50000000  0.71832100  0.05745000  1
  K  K1  1  0.50000000  0.28167900  0.94255000  1
  K  K2  1  0.50000000  0.21832100  0.44255000  1
  K  K3  1  0.50000000  0.78167900  0.55745000  1
  La  La4  1  0.50000000  0.88353600  0.29470400  1
  La  La5  1  0.50000000  0.11646400  0.70529600  1
  La  La6  1  0.50000000  0.38353600  0.20529600  1
  La  La7  1  0.50000000  0.61646400  0.79470400  1
  Sb  Sb8  1  0.00000000  0.55249000  0.38377500  1
  Sb  Sb9  1  0.00000000  0.44751000  0.61622500  1
  Sb  Sb10  1  0.00000000  0.05249000  0.11622500  1
  Sb  Sb11  1  0.00000000  0.94751000  0.88377500  1
  S  S12  1  0.00000000  0.85047700  0.17248300  1
  S  S13  1  0.00000000  0.14952300  0.82751700  1
  S  S14  1  0.00000000  0.35047700  0.32751700  1
  S  S15  1  0.00000000  0.64952300  0.67248300  1
  S  S16  1  0.00000000  0.82883700  0.41186000  1
  S  S17  1  0.00000000  0.17116300  0.58814000  1
  S  S18  1  0.00000000  0.32883700  0.08814000  1
  S  S19  1  0.00000000  0.67116300  0.91186000  1
  S  S20  1  0.50000000  0.50000000  0.50000000  1
  S  S21  1  0.50000000  0.00000000  0.00000000  1
  S  S22  1  0.00000000  0.50847700  0.12082300  1
  S  S23  1  0.00000000  0.49152300  0.87917700  1
  S  S24  1  0.00000000  0.00847700  0.37917700  1
  S  S25  1  0.00000000  0.99152300  0.62082300  1
  S  S26  1  0.50000000  0.61407500  0.28819900  1
  S  S27  1  0.50000000  0.38592500  0.71180100  1
  S  S28  1  0.50000000  0.11407500  0.21180100  1
  S  S29  1  0.50000000  0.88592500  0.78819900  1
