# generated using pymatgen
data_K(Ti3Se4)2
_symmetry_space_group_name_H-M   'P 1'
_cell_length_a   9.95255348
_cell_length_b   9.95255348
_cell_length_c   3.58754200
_cell_angle_alpha   90.00000000
_cell_angle_beta   90.00000000
_cell_angle_gamma   119.99999657
_symmetry_Int_Tables_number   1
_chemical_formula_structural   K(Ti3Se4)2
_chemical_formula_sum   'K1 Ti6 Se8'
_cell_volume   307.74902171
_cell_formula_units_Z   1
loop_
 _symmetry_equiv_pos_site_id
 _symmetry_equiv_pos_as_xyz
  1  'x, y, z'
loop_
 _atom_site_type_symbol
 _atom_site_label
 _atom_site_symmetry_multiplicity
 _atom_site_fract_x
 _atom_site_fract_y
 _atom_site_fract_z
 _atom_site_occupancy
  K  K0  1  0.00000000  0.00000000  0.50000000  1
  Ti  Ti1  1  0.12949100  0.63729000  0.25048600  1
  Ti  Ti2  1  0.50780000  0.87050900  0.25048600  1
  Ti  Ti3  1  0.36271000  0.49220000  0.25048600  1
  Ti  Ti4  1  0.87050900  0.36271000  0.74951400  1
  Ti  Ti5  1  0.49220000  0.12949100  0.74951400  1
  Ti  Ti6  1  0.63729000  0.50780000  0.74951400  1
  Se  Se7  1  0.66666700  0.33333300  0.24989600  1
  Se  Se8  1  0.33333300  0.66666700  0.75010400  1
  Se  Se9  1  0.29990500  0.94938600  0.24824600  1
  Se  Se10  1  0.64948100  0.70009500  0.24824600  1
  Se  Se11  1  0.05061400  0.35051900  0.24824600  1
  Se  Se12  1  0.70009500  0.05061400  0.75175400  1
  Se  Se13  1  0.35051900  0.29990500  0.75175400  1
  Se  Se14  1  0.94938600  0.64948100  0.75175400  1
