# generated using pymatgen
data_Cs2CuP2O7
_symmetry_space_group_name_H-M   'P 1'
_cell_length_a   7.58078414
_cell_length_b   7.58078414
_cell_length_c   10.10376819
_cell_angle_alpha   79.26887343
_cell_angle_beta   79.26887343
_cell_angle_gamma   120.20160336
_symmetry_Int_Tables_number   1
_chemical_formula_structural   Cs2CuP2O7
_chemical_formula_sum   'Cs4 Cu2 P4 O14'
_cell_volume   465.50441861
_cell_formula_units_Z   2
loop_
 _symmetry_equiv_pos_site_id
 _symmetry_equiv_pos_as_xyz
  1  'x, y, z'
loop_
 _atom_site_type_symbol
 _atom_site_label
 _atom_site_symmetry_multiplicity
 _atom_site_fract_x
 _atom_site_fract_y
 _atom_site_fract_z
 _atom_site_occupancy
  Cs  Cs0  1  0.38154800  0.47030700  0.13130200  1
  Cs  Cs1  1  0.47030700  0.38154800  0.63130200  1
  Cs  Cs2  1  0.60069600  0.01920100  0.31193200  1
  Cs  Cs3  1  0.01920100  0.60069600  0.81193200  1
  Cu  Cu4  1  0.01375800  0.77836000  0.28903100  1
  Cu  Cu5  1  0.77836000  0.01375800  0.78903100  1
  P  P6  1  0.38646600  0.98534400  0.99816500  1
  P  P7  1  0.98534400  0.38646600  0.49816500  1
  P  P8  1  0.02428300  0.03613700  0.99325600  1
  P  P9  1  0.03613700  0.02428300  0.49325600  1
  O  O10  1  0.27220200  0.11401900  0.42282600  1
  O  O11  1  0.11401900  0.27220200  0.92282600  1
  O  O12  1  0.99095300  0.20834400  0.42836000  1
  O  O13  1  0.20834400  0.99095300  0.92836000  1
  O  O14  1  0.54613000  0.20773700  0.00113600  1
  O  O15  1  0.20773700  0.54613000  0.50113600  1
  O  O16  1  0.97759400  0.97321500  0.15643200  1
  O  O17  1  0.97321500  0.97759400  0.65643200  1
  O  O18  1  0.82655100  0.87958800  0.95524500  1
  O  O19  1  0.87958800  0.82655100  0.45524500  1
  O  O20  1  0.47913900  0.89766700  0.89969700  1
  O  O21  1  0.89766700  0.47913900  0.39969700  1
  O  O22  1  0.24917000  0.80837100  0.14756700  1
  O  O23  1  0.80837100  0.24917000  0.64756700  1
