# generated using pymatgen
data_Cs2Pr10Ru2I17
_symmetry_space_group_name_H-M   'P 1'
_cell_length_a   11.79736127
_cell_length_b   11.79736127
_cell_length_c   10.19011625
_cell_angle_alpha   86.30739483
_cell_angle_beta   86.30739483
_cell_angle_gamma   107.41000731
_symmetry_Int_Tables_number   1
_chemical_formula_structural   Cs2Pr10Ru2I17
_chemical_formula_sum   'Cs2 Pr10 Ru2 I17'
_cell_volume   1345.23163468
_cell_formula_units_Z   1
loop_
 _symmetry_equiv_pos_site_id
 _symmetry_equiv_pos_as_xyz
  1  'x, y, z'
loop_
 _atom_site_type_symbol
 _atom_site_label
 _atom_site_symmetry_multiplicity
 _atom_site_fract_x
 _atom_site_fract_y
 _atom_site_fract_z
 _atom_site_occupancy
  Cs  Cs0  1  0.67428300  0.32571700  0.00000000  1
  Cs  Cs1  1  0.32571700  0.67428300  0.00000000  1
  Pr  Pr2  1  0.71000300  0.00548500  0.42774800  1
  Pr  Pr3  1  0.28999700  0.99451500  0.57225200  1
  Pr  Pr4  1  0.99451500  0.28999700  0.57225200  1
  Pr  Pr5  1  0.00548500  0.71000300  0.42774800  1
  Pr  Pr6  1  0.67133900  0.67133900  0.55550400  1
  Pr  Pr7  1  0.32866100  0.32866100  0.44449600  1
  Pr  Pr8  1  0.93494100  0.93494100  0.68796200  1
  Pr  Pr9  1  0.06505900  0.06505900  0.31203800  1
  Pr  Pr10  1  0.79266600  0.79266600  0.18099900  1
  Pr  Pr11  1  0.20733400  0.20733400  0.81900100  1
  Ru  Ru12  1  0.85999800  0.85999800  0.43098300  1
  Ru  Ru13  1  0.14000200  0.14000200  0.56901700  1
  I  I14  1  0.61672100  0.94981900  0.14069200  1
  I  I15  1  0.38327900  0.05018100  0.85930800  1
  I  I16  1  0.05018100  0.38327900  0.85930800  1
  I  I17  1  0.94981900  0.61672100  0.14069200  1
  I  I18  1  0.52623600  0.18892600  0.42147600  1
  I  I19  1  0.47376400  0.81107400  0.57852400  1
  I  I20  1  0.81107400  0.47376400  0.57852400  1
  I  I21  1  0.18892600  0.52623600  0.42147600  1
  I  I22  1  0.56352100  0.56352100  0.28355400  1
  I  I23  1  0.43647900  0.43647900  0.71644600  1
  I  I24  1  0.24598800  0.89981100  0.27672700  1
  I  I25  1  0.75401200  0.10018900  0.72327300  1
  I  I26  1  0.10018900  0.75401200  0.72327300  1
  I  I27  1  0.89981100  0.24598800  0.27672700  1
  I  I28  1  0.28835600  0.28835600  0.13320500  1
  I  I29  1  0.71164400  0.71164400  0.86679500  1
  I  I30  1  0.00000000  0.00000000  0.00000000  1
