# generated using pymatgen
data_Rb4Mn(MoO4)3
_symmetry_space_group_name_H-M   'P 1'
_cell_length_a   6.22258862
_cell_length_b   6.22258862
_cell_length_c   24.22448700
_cell_angle_alpha   90.00000000
_cell_angle_beta   90.00000000
_cell_angle_gamma   120.00000658
_symmetry_Int_Tables_number   1
_chemical_formula_structural   Rb4Mn(MoO4)3
_chemical_formula_sum   'Rb8 Mn2 Mo6 O24'
_cell_volume   812.32042326
_cell_formula_units_Z   2
loop_
 _symmetry_equiv_pos_site_id
 _symmetry_equiv_pos_as_xyz
  1  'x, y, z'
loop_
 _atom_site_type_symbol
 _atom_site_label
 _atom_site_symmetry_multiplicity
 _atom_site_fract_x
 _atom_site_fract_y
 _atom_site_fract_z
 _atom_site_occupancy
  Rb  Rb0  1  0.66666700  0.33333300  0.97055100  1
  Rb  Rb1  1  0.66666700  0.33333300  0.52566100  1
  Rb  Rb2  1  0.33333300  0.66666700  0.47055100  1
  Rb  Rb3  1  0.33333300  0.66666700  0.02566100  1
  Rb  Rb4  1  0.33333300  0.66666700  0.84537600  1
  Rb  Rb5  1  0.33333300  0.66666700  0.65750900  1
  Rb  Rb6  1  0.66666700  0.33333300  0.34537600  1
  Rb  Rb7  1  0.66666700  0.33333300  0.15750900  1
  Mn  Mn8  1  0.00000000  0.00000000  0.74992500  1
  Mn  Mn9  1  0.00000000  0.00000000  0.24992500  1
  Mo  Mo10  1  0.00000000  0.00000000  0.90996300  1
  Mo  Mo11  1  0.00000000  0.00000000  0.58998400  1
  Mo  Mo12  1  0.00000000  0.00000000  0.40996300  1
  Mo  Mo13  1  0.00000000  0.00000000  0.08998400  1
  Mo  Mo14  1  0.66666700  0.33333300  0.77225400  1
  Mo  Mo15  1  0.33333300  0.66666700  0.27225400  1
  O  O16  1  0.00000000  0.00000000  0.83444100  1
  O  O17  1  0.00000000  0.00000000  0.66519300  1
  O  O18  1  0.00000000  0.00000000  0.33444100  1
  O  O19  1  0.00000000  0.00000000  0.16519300  1
  O  O20  1  0.68936500  0.81726100  0.93507200  1
  O  O21  1  0.18273900  0.87210400  0.93507200  1
  O  O22  1  0.12789600  0.31063500  0.93507200  1
  O  O23  1  0.68740800  0.81359800  0.56614000  1
  O  O24  1  0.18640200  0.87381000  0.56614000  1
  O  O25  1  0.12619000  0.31259200  0.56614000  1
  O  O26  1  0.31063500  0.12789600  0.43507200  1
  O  O27  1  0.81726100  0.68936500  0.43507200  1
  O  O28  1  0.87210400  0.18273900  0.43507200  1
  O  O29  1  0.31259200  0.12619000  0.06614000  1
  O  O30  1  0.81359800  0.68740800  0.06614000  1
  O  O31  1  0.87381000  0.18640200  0.06614000  1
  O  O32  1  0.66666700  0.33333300  0.84499600  1
  O  O33  1  0.33333300  0.66666700  0.34499600  1
  O  O34  1  0.68346000  0.61916200  0.74867400  1
  O  O35  1  0.38083800  0.06429800  0.74867400  1
  O  O36  1  0.93570200  0.31654000  0.74867400  1
  O  O37  1  0.31654000  0.93570200  0.24867400  1
  O  O38  1  0.61916200  0.68346000  0.24867400  1
  O  O39  1  0.06429800  0.38083800  0.24867400  1
