# generated using pymatgen
data_BaTi2As2O
_symmetry_space_group_name_H-M   'P 1'
_cell_length_a   4.06497100
_cell_length_b   4.06497100
_cell_length_c   7.36739300
_cell_angle_alpha   90.00000000
_cell_angle_beta   90.00000000
_cell_angle_gamma   90.00000000
_symmetry_Int_Tables_number   1
_chemical_formula_structural   BaTi2As2O
_chemical_formula_sum   'Ba1 Ti2 As2 O1'
_cell_volume   121.73872259
_cell_formula_units_Z   1
loop_
 _symmetry_equiv_pos_site_id
 _symmetry_equiv_pos_as_xyz
  1  'x, y, z'
loop_
 _atom_site_type_symbol
 _atom_site_label
 _atom_site_symmetry_multiplicity
 _atom_site_fract_x
 _atom_site_fract_y
 _atom_site_fract_z
 _atom_site_occupancy
  Ba  Ba0  1  0.50000000  0.50000000  0.50000000  1
  Ti  Ti1  1  0.00000000  0.50000000  0.00000000  1
  Ti  Ti2  1  0.50000000  0.00000000  0.00000000  1
  As  As3  1  0.00000000  0.00000000  0.24300500  1
  As  As4  1  0.00000000  0.00000000  0.75699500  1
  O  O5  1  0.50000000  0.50000000  0.00000000  1
