# generated using pymatgen
data_YbAlCu5
_symmetry_space_group_name_H-M   'P 1'
_cell_length_a   5.11215176
_cell_length_b   5.11215176
_cell_length_c   5.11215176
_cell_angle_alpha   103.19504365
_cell_angle_beta   103.19504365
_cell_angle_gamma   122.91994541
_symmetry_Int_Tables_number   1
_chemical_formula_structural   YbAlCu5
_chemical_formula_sum   'Yb1 Al1 Cu5'
_cell_volume   98.52120399
_cell_formula_units_Z   1
loop_
 _symmetry_equiv_pos_site_id
 _symmetry_equiv_pos_as_xyz
  1  'x, y, z'
loop_
 _atom_site_type_symbol
 _atom_site_label
 _atom_site_symmetry_multiplicity
 _atom_site_fract_x
 _atom_site_fract_y
 _atom_site_fract_z
 _atom_site_occupancy
  Yb  Yb0  1  0.00000000  0.00000000  0.00000000  1
  Al  Al1  1  0.25000000  0.75000000  0.50000000  1
  Cu  Cu2  1  0.69272300  0.30727700  0.00000000  1
  Cu  Cu3  1  0.30727700  0.69272300  0.00000000  1
  Cu  Cu4  1  0.30727700  0.30727700  0.61455500  1
  Cu  Cu5  1  0.69272300  0.69272300  0.38544500  1
  Cu  Cu6  1  0.75000000  0.25000000  0.50000000  1
