# generated using pymatgen
data_Sr5V3O13
_symmetry_space_group_name_H-M   'P 1'
_cell_length_a   10.26100835
_cell_length_b   10.26100835
_cell_length_c   7.46052900
_cell_angle_alpha   90.00000000
_cell_angle_beta   90.00000000
_cell_angle_gamma   120.00000225
_symmetry_Int_Tables_number   1
_chemical_formula_structural   Sr5V3O13
_chemical_formula_sum   'Sr10 V6 O26'
_cell_volume   680.26844578
_cell_formula_units_Z   2
loop_
 _symmetry_equiv_pos_site_id
 _symmetry_equiv_pos_as_xyz
  1  'x, y, z'
loop_
 _atom_site_type_symbol
 _atom_site_label
 _atom_site_symmetry_multiplicity
 _atom_site_fract_x
 _atom_site_fract_y
 _atom_site_fract_z
 _atom_site_occupancy
  Sr  Sr0  1  0.33333300  0.66666700  0.49757500  1
  Sr  Sr1  1  0.66666700  0.33333300  0.99757500  1
  Sr  Sr2  1  0.66666700  0.33333300  0.50025200  1
  Sr  Sr3  1  0.33333300  0.66666700  0.00025200  1
  Sr  Sr4  1  0.99673100  0.24723000  0.74607700  1
  Sr  Sr5  1  0.75277000  0.74950200  0.74607700  1
  Sr  Sr6  1  0.25049800  0.00326900  0.74607700  1
  Sr  Sr7  1  0.00326900  0.75277000  0.24607700  1
  Sr  Sr8  1  0.24723000  0.25049800  0.24607700  1
  Sr  Sr9  1  0.74950200  0.99673100  0.24607700  1
  V  V10  1  0.36931200  0.39997900  0.74730000  1
  V  V11  1  0.60002100  0.96933300  0.74730000  1
  V  V12  1  0.03066700  0.63068800  0.74730000  1
  V  V13  1  0.63068800  0.60002100  0.24730000  1
  V  V14  1  0.39997900  0.03066700  0.24730000  1
  V  V15  1  0.96933300  0.36931200  0.24730000  1
  O  O16  1  0.48721300  0.32286000  0.74719000  1
  O  O17  1  0.67714000  0.16435300  0.74719000  1
  O  O18  1  0.83564700  0.51278700  0.74719000  1
  O  O19  1  0.51278700  0.67714000  0.24719000  1
  O  O20  1  0.32286000  0.83564700  0.24719000  1
  O  O21  1  0.16435300  0.48721300  0.24719000  1
  O  O22  1  0.25347200  0.34613700  0.56075700  1
  O  O23  1  0.65386300  0.90733400  0.56075700  1
  O  O24  1  0.09266600  0.74652800  0.56075700  1
  O  O25  1  0.74652800  0.65386300  0.06075700  1
  O  O26  1  0.34613700  0.09266600  0.06075700  1
  O  O27  1  0.90733400  0.25347200  0.06075700  1
  O  O28  1  0.75104300  0.66174400  0.43034800  1
  O  O29  1  0.33825600  0.08929900  0.43034800  1
  O  O30  1  0.91070100  0.24895700  0.43034800  1
  O  O31  1  0.24895700  0.33825600  0.93034800  1
  O  O32  1  0.66174400  0.91070100  0.93034800  1
  O  O33  1  0.08929900  0.75104300  0.93034800  1
  O  O34  1  0.46816400  0.59751400  0.75091700  1
  O  O35  1  0.40248600  0.87064900  0.75091700  1
  O  O36  1  0.12935100  0.53183600  0.75091700  1
  O  O37  1  0.53183600  0.40248600  0.25091700  1
  O  O38  1  0.59751400  0.12935100  0.25091700  1
  O  O39  1  0.87064900  0.46816400  0.25091700  1
  O  O40  1  0.00000000  0.00000000  0.71250200  1
  O  O41  1  0.00000000  0.00000000  0.21250200  1
