# generated using pymatgen
data_Yb2FeSbO7
_symmetry_space_group_name_H-M   'P 1'
_cell_length_a   7.22457234
_cell_length_b   7.22457234
_cell_length_c   7.22457234
_cell_angle_alpha   120.09714112
_cell_angle_beta   119.36904841
_cell_angle_gamma   90.46406570
_symmetry_Int_Tables_number   1
_chemical_formula_structural   Yb2FeSbO7
_chemical_formula_sum   'Yb4 Fe2 Sb2 O14'
_cell_volume   267.69043059
_cell_formula_units_Z   2
loop_
 _symmetry_equiv_pos_site_id
 _symmetry_equiv_pos_as_xyz
  1  'x, y, z'
loop_
 _atom_site_type_symbol
 _atom_site_label
 _atom_site_symmetry_multiplicity
 _atom_site_fract_x
 _atom_site_fract_y
 _atom_site_fract_z
 _atom_site_occupancy
  Yb  Yb0  1  0.00000000  0.00000000  0.50000000  1
  Yb  Yb1  1  0.00000000  0.50000000  0.00000000  1
  Yb  Yb2  1  0.00000000  0.00000000  0.00000000  1
  Yb  Yb3  1  0.50000000  0.00000000  0.50000000  1
  Fe  Fe4  1  0.50000000  0.50000000  0.50000000  1
  Fe  Fe5  1  0.50000000  0.00000000  0.00000000  1
  Sb  Sb6  1  0.50000000  0.50000000  0.00000000  1
  Sb  Sb7  1  0.00000000  0.50000000  0.50000000  1
  O  O8  1  0.43070500  0.18070500  0.25000000  1
  O  O9  1  0.83427000  0.58427000  0.25000000  1
  O  O10  1  0.42517500  0.58283000  0.25756000  1
  O  O11  1  0.82527100  0.16761500  0.24244000  1
  O  O12  1  0.42517500  0.16761500  0.84234400  1
  O  O13  1  0.82527100  0.58283000  0.65765600  1
  O  O14  1  0.56929500  0.81929500  0.75000000  1
  O  O15  1  0.16573000  0.41573000  0.75000000  1
  O  O16  1  0.57482500  0.41717000  0.74244000  1
  O  O17  1  0.17472900  0.83238500  0.75756000  1
  O  O18  1  0.57482500  0.83238500  0.15765600  1
  O  O19  1  0.17472900  0.41717000  0.34234400  1
  O  O20  1  0.12693500  0.87693500  0.25000000  1
  O  O21  1  0.87306500  0.12306500  0.75000000  1
