# generated using pymatgen
data_MnPb2WO6
_symmetry_space_group_name_H-M   'P 1'
_cell_length_a   5.92744900
_cell_length_b   8.16926000
_cell_length_c   11.82941100
_cell_angle_alpha   90.00000000
_cell_angle_beta   90.00000000
_cell_angle_gamma   90.00000000
_symmetry_Int_Tables_number   1
_chemical_formula_structural   MnPb2WO6
_chemical_formula_sum   'Mn4 Pb8 W4 O24'
_cell_volume   572.81405490
_cell_formula_units_Z   4
loop_
 _symmetry_equiv_pos_site_id
 _symmetry_equiv_pos_as_xyz
  1  'x, y, z'
loop_
 _atom_site_type_symbol
 _atom_site_label
 _atom_site_symmetry_multiplicity
 _atom_site_fract_x
 _atom_site_fract_y
 _atom_site_fract_z
 _atom_site_occupancy
  Mn  Mn0  1  0.23772800  0.25000000  0.11710100  1
  Mn  Mn1  1  0.26227200  0.25000000  0.61710100  1
  Mn  Mn2  1  0.73772800  0.75000000  0.38289900  1
  Mn  Mn3  1  0.76227200  0.75000000  0.88289900  1
  Pb  Pb4  1  0.70161200  0.99387800  0.14714000  1
  Pb  Pb5  1  0.70161200  0.50612200  0.14714000  1
  Pb  Pb6  1  0.79838800  0.50612200  0.64714000  1
  Pb  Pb7  1  0.79838800  0.99387800  0.64714000  1
  Pb  Pb8  1  0.29838800  0.00612200  0.85286000  1
  Pb  Pb9  1  0.29838800  0.49387800  0.85286000  1
  Pb  Pb10  1  0.20161200  0.49387800  0.35286000  1
  Pb  Pb11  1  0.20161200  0.00612200  0.35286000  1
  W  W12  1  0.24802900  0.75000000  0.11897700  1
  W  W13  1  0.25197100  0.75000000  0.61897700  1
  W  W14  1  0.75197100  0.25000000  0.88102300  1
  W  W15  1  0.74802900  0.25000000  0.38102300  1
  O  O16  1  0.47795600  0.75000000  0.00384500  1
  O  O17  1  0.02204400  0.75000000  0.50384500  1
  O  O18  1  0.05360200  0.75000000  0.25361400  1
  O  O19  1  0.44639800  0.75000000  0.75361400  1
  O  O20  1  0.52204400  0.25000000  0.99615500  1
  O  O21  1  0.97795600  0.25000000  0.49615500  1
  O  O22  1  0.98954900  0.25000000  0.98166500  1
  O  O23  1  0.51045100  0.25000000  0.48166400  1
  O  O24  1  0.01045100  0.75000000  0.01833500  1
  O  O25  1  0.48954900  0.75000000  0.51833500  1
  O  O26  1  0.94639800  0.25000000  0.74638600  1
  O  O27  1  0.55360200  0.25000000  0.24638600  1
  O  O28  1  0.71677100  0.01229500  0.86105700  1
  O  O29  1  0.71677100  0.48770500  0.86105700  1
  O  O30  1  0.78322900  0.48770500  0.36105700  1
  O  O31  1  0.78322900  0.01229500  0.36105700  1
  O  O32  1  0.03773100  0.25000000  0.26994500  1
  O  O33  1  0.46226900  0.25000000  0.76994500  1
  O  O34  1  0.28322900  0.98770500  0.13894300  1
  O  O35  1  0.28322900  0.51229500  0.13894300  1
  O  O36  1  0.21677100  0.51229500  0.63894300  1
  O  O37  1  0.21677100  0.98770500  0.63894300  1
  O  O38  1  0.53773100  0.75000000  0.23005500  1
  O  O39  1  0.96226900  0.75000000  0.73005500  1
