# generated using pymatgen
data_DyNi4B
_symmetry_space_group_name_H-M   'P 1'
_cell_length_a   4.98063200
_cell_length_b   4.99232111
_cell_length_c   6.95596400
_cell_angle_alpha   90.00000000
_cell_angle_beta   90.00000000
_cell_angle_gamma   119.92257668
_symmetry_Int_Tables_number   1
_chemical_formula_structural   DyNi4B
_chemical_formula_sum   'Dy2 Ni8 B2'
_cell_volume   149.90399889
_cell_formula_units_Z   2
loop_
 _symmetry_equiv_pos_site_id
 _symmetry_equiv_pos_as_xyz
  1  'x, y, z'
loop_
 _atom_site_type_symbol
 _atom_site_label
 _atom_site_symmetry_multiplicity
 _atom_site_fract_x
 _atom_site_fract_y
 _atom_site_fract_z
 _atom_site_occupancy
  Dy  Dy0  1  0.50000000  0.00000000  0.00000000  1
  Dy  Dy1  1  0.50000000  0.00000000  0.50000000  1
  Ni  Ni2  1  0.83332900  0.66665800  0.00000000  1
  Ni  Ni3  1  0.16667100  0.33334200  0.00000000  1
  Ni  Ni4  1  0.00000000  0.00000000  0.70708300  1
  Ni  Ni5  1  0.50000000  0.50000000  0.70736100  1
  Ni  Ni6  1  0.00000000  0.50000000  0.70736100  1
  Ni  Ni7  1  0.00000000  0.00000000  0.29291700  1
  Ni  Ni8  1  0.50000000  0.50000000  0.29263900  1
  Ni  Ni9  1  0.00000000  0.50000000  0.29263900  1
  B  B10  1  0.83334100  0.66668100  0.50000000  1
  B  B11  1  0.16665900  0.33331900  0.50000000  1
