# generated using pymatgen
data_TlSb(PS3)2
_symmetry_space_group_name_H-M   'P 1'
_cell_length_a   7.88197000
_cell_length_b   6.78761800
_cell_length_c   9.87880785
_cell_angle_alpha   88.04318501
_cell_angle_beta   90.00000000
_cell_angle_gamma   90.00000000
_symmetry_Int_Tables_number   1
_chemical_formula_structural   TlSb(PS3)2
_chemical_formula_sum   'Tl2 Sb2 P4 S12'
_cell_volume   528.20605418
_cell_formula_units_Z   2
loop_
 _symmetry_equiv_pos_site_id
 _symmetry_equiv_pos_as_xyz
  1  'x, y, z'
loop_
 _atom_site_type_symbol
 _atom_site_label
 _atom_site_symmetry_multiplicity
 _atom_site_fract_x
 _atom_site_fract_y
 _atom_site_fract_z
 _atom_site_occupancy
  Tl  Tl0  1  0.78508700  0.19071700  0.99344800  1
  Tl  Tl1  1  0.28508700  0.80928300  0.00655200  1
  Sb  Sb2  1  0.49286000  0.31433500  0.51926500  1
  Sb  Sb3  1  0.99286000  0.68566500  0.48073500  1
  P  P4  1  0.29782300  0.29676800  0.80339900  1
  P  P5  1  0.79782300  0.70323200  0.19660100  1
  P  P6  1  0.08035500  0.19697000  0.67236700  1
  P  P7  1  0.58035500  0.80303000  0.32763300  1
  S  S8  1  0.89372600  0.41052300  0.67123000  1
  S  S9  1  0.39372600  0.58947700  0.32877000  1
  S  S10  1  0.48001800  0.09162600  0.76773600  1
  S  S11  1  0.98001800  0.90837400  0.23226400  1
  S  S12  1  0.19401600  0.17415500  0.48236800  1
  S  S13  1  0.69401600  0.82584500  0.51763200  1
  S  S14  1  0.37348400  0.54939400  0.69621500  1
  S  S15  1  0.87348400  0.45060600  0.30378500  1
  S  S16  1  0.49290200  0.06187200  0.25305100  1
  S  S17  1  0.99290200  0.93812800  0.74694900  1
  S  S18  1  0.21871900  0.32583400  0.99115600  1
  S  S19  1  0.71871900  0.67416600  0.00884400  1
