# generated using pymatgen
data_CaAgGe
_symmetry_space_group_name_H-M   'P 1'
_cell_length_a   4.61849800
_cell_length_b   7.93340100
_cell_length_c   21.76807900
_cell_angle_alpha   90.00000000
_cell_angle_beta   90.00000000
_cell_angle_gamma   90.00000000
_symmetry_Int_Tables_number   1
_chemical_formula_structural   CaAgGe
_chemical_formula_sum   'Ca12 Ag12 Ge12'
_cell_volume   797.59104891
_cell_formula_units_Z   12
loop_
 _symmetry_equiv_pos_site_id
 _symmetry_equiv_pos_as_xyz
  1  'x, y, z'
loop_
 _atom_site_type_symbol
 _atom_site_label
 _atom_site_symmetry_multiplicity
 _atom_site_fract_x
 _atom_site_fract_y
 _atom_site_fract_z
 _atom_site_occupancy
  Ca  Ca0  1  0.25000000  0.21954400  0.00058800  1
  Ca  Ca1  1  0.25000000  0.28045600  0.50058800  1
  Ca  Ca2  1  0.75000000  0.78045600  0.99941200  1
  Ca  Ca3  1  0.75000000  0.71954400  0.49941200  1
  Ca  Ca4  1  0.25000000  0.20705900  0.33363300  1
  Ca  Ca5  1  0.25000000  0.29294100  0.83363300  1
  Ca  Ca6  1  0.75000000  0.79294100  0.66636700  1
  Ca  Ca7  1  0.75000000  0.70705900  0.16636700  1
  Ca  Ca8  1  0.25000000  0.20799700  0.66735700  1
  Ca  Ca9  1  0.25000000  0.29200300  0.16735700  1
  Ca  Ca10  1  0.75000000  0.79200300  0.33264300  1
  Ca  Ca11  1  0.75000000  0.70799700  0.83264300  1
  Ag  Ag12  1  0.25000000  0.91263300  0.76353100  1
  Ag  Ag13  1  0.25000000  0.58736700  0.26353100  1
  Ag  Ag14  1  0.75000000  0.08736700  0.23646900  1
  Ag  Ag15  1  0.75000000  0.41263300  0.73646900  1
  Ag  Ag16  1  0.25000000  0.92000900  0.90420100  1
  Ag  Ag17  1  0.25000000  0.57999100  0.40420100  1
  Ag  Ag18  1  0.75000000  0.07999100  0.09579900  1
  Ag  Ag19  1  0.75000000  0.42000900  0.59579900  1
  Ag  Ag20  1  0.25000000  0.91830400  0.56431500  1
  Ag  Ag21  1  0.25000000  0.58169600  0.06431500  1
  Ag  Ag22  1  0.75000000  0.08169600  0.43568500  1
  Ag  Ag23  1  0.75000000  0.41830400  0.93568500  1
  Ge  Ge24  1  0.25000000  0.58236100  0.72770400  1
  Ge  Ge25  1  0.25000000  0.91763900  0.22770400  1
  Ge  Ge26  1  0.75000000  0.41763900  0.27229600  1
  Ge  Ge27  1  0.75000000  0.08236100  0.77229600  1
  Ge  Ge28  1  0.25000000  0.91108600  0.10299800  1
  Ge  Ge29  1  0.25000000  0.58891400  0.60299800  1
  Ge  Ge30  1  0.75000000  0.08891400  0.89700200  1
  Ge  Ge31  1  0.75000000  0.41108600  0.39700200  1
  Ge  Ge32  1  0.25000000  0.59202400  0.92714200  1
  Ge  Ge33  1  0.25000000  0.90797600  0.42714200  1
  Ge  Ge34  1  0.75000000  0.40797600  0.07285800  1
  Ge  Ge35  1  0.75000000  0.09202400  0.57285800  1
