# generated using pymatgen
data_Tm(BRu)4
_symmetry_space_group_name_H-M   'P 1'
_cell_length_a   9.19485621
_cell_length_b   9.19485621
_cell_length_c   9.19485621
_cell_angle_alpha   132.06048077
_cell_angle_beta   132.06048077
_cell_angle_gamma   70.13352085
_symmetry_Int_Tables_number   1
_chemical_formula_structural   Tm(BRu)4
_chemical_formula_sum   'Tm4 B16 Ru16'
_cell_volume   420.04978962
_cell_formula_units_Z   4
loop_
 _symmetry_equiv_pos_site_id
 _symmetry_equiv_pos_as_xyz
  1  'x, y, z'
loop_
 _atom_site_type_symbol
 _atom_site_label
 _atom_site_symmetry_multiplicity
 _atom_site_fract_x
 _atom_site_fract_y
 _atom_site_fract_z
 _atom_site_occupancy
  Tm  Tm0  1  0.75000000  0.75000000  0.00000000  1
  Tm  Tm1  1  0.25000000  0.25000000  0.00000000  1
  Tm  Tm2  1  0.00000000  0.50000000  0.50000000  1
  Tm  Tm3  1  0.50000000  0.00000000  0.50000000  1
  B  B4  1  0.72229400  0.41323100  0.97220100  1
  B  B5  1  0.22229400  0.25009300  0.30906300  1
  B  B6  1  0.66323100  0.47229400  0.47220100  1
  B  B7  1  0.16323100  0.69103000  0.19093700  1
  B  B8  1  0.02770600  0.83676900  0.52779900  1
  B  B9  1  0.52770600  0.99990700  0.19093700  1
  B  B10  1  0.08676900  0.77770600  0.02779900  1
  B  B11  1  0.58676900  0.55897000  0.30906300  1
  B  B12  1  0.94103000  0.91323100  0.69093700  1
  B  B13  1  0.44103000  0.75009300  0.02779900  1
  B  B14  1  0.50009300  0.97229400  0.80906300  1
  B  B15  1  0.00009300  0.19103000  0.52779900  1
  B  B16  1  0.80897000  0.33676900  0.80906300  1
  B  B17  1  0.30897000  0.49990700  0.47220100  1
  B  B18  1  0.24990700  0.27770600  0.69093700  1
  B  B19  1  0.74990700  0.05897000  0.97220100  1
  Ru  Ru20  1  0.03906200  0.57204300  0.23497600  1
  Ru  Ru21  1  0.53906200  0.30408600  0.46701900  1
  Ru  Ru22  1  0.82204300  0.78906200  0.73497600  1
  Ru  Ru23  1  0.32204300  0.58706700  0.03298100  1
  Ru  Ru24  1  0.71093800  0.67795700  0.26502400  1
  Ru  Ru25  1  0.21093800  0.94591400  0.03298100  1
  Ru  Ru26  1  0.92795700  0.46093800  0.76502400  1
  Ru  Ru27  1  0.42795700  0.66293300  0.46701900  1
  Ru  Ru28  1  0.83706700  0.07204300  0.53298100  1
  Ru  Ru29  1  0.33706700  0.80408600  0.76502400  1
  Ru  Ru30  1  0.55408600  0.28906200  0.96701900  1
  Ru  Ru31  1  0.05408600  0.08706700  0.26502400  1
  Ru  Ru32  1  0.91293300  0.17795700  0.96701900  1
  Ru  Ru33  1  0.41293300  0.44591400  0.73497600  1
  Ru  Ru34  1  0.19591400  0.96093800  0.53298100  1
  Ru  Ru35  1  0.69591400  0.16293300  0.23497600  1
