# generated using pymatgen
data_EuSbPd
_symmetry_space_group_name_H-M   'P 1'
_cell_length_a   4.76396400
_cell_length_b   7.70080400
_cell_length_c   8.04227100
_cell_angle_alpha   90.00000000
_cell_angle_beta   90.00000000
_cell_angle_gamma   90.00000000
_symmetry_Int_Tables_number   1
_chemical_formula_structural   EuSbPd
_chemical_formula_sum   'Eu4 Sb4 Pd4'
_cell_volume   295.04159305
_cell_formula_units_Z   4
loop_
 _symmetry_equiv_pos_site_id
 _symmetry_equiv_pos_as_xyz
  1  'x, y, z'
loop_
 _atom_site_type_symbol
 _atom_site_label
 _atom_site_symmetry_multiplicity
 _atom_site_fract_x
 _atom_site_fract_y
 _atom_site_fract_z
 _atom_site_occupancy
  Eu  Eu0  1  0.25000000  0.00734700  0.30078400  1
  Eu  Eu1  1  0.25000000  0.50734700  0.19921600  1
  Eu  Eu2  1  0.75000000  0.99265300  0.69921600  1
  Eu  Eu3  1  0.75000000  0.49265300  0.80078400  1
  Sb  Sb4  1  0.25000000  0.69340800  0.59218100  1
  Sb  Sb5  1  0.25000000  0.19340800  0.90781900  1
  Sb  Sb6  1  0.75000000  0.30659200  0.40781900  1
  Sb  Sb7  1  0.75000000  0.80659200  0.09218100  1
  Pd  Pd8  1  0.25000000  0.31504600  0.58125600  1
  Pd  Pd9  1  0.25000000  0.81504600  0.91874400  1
  Pd  Pd10  1  0.75000000  0.68495400  0.41874400  1
  Pd  Pd11  1  0.75000000  0.18495400  0.08125600  1
