# generated using pymatgen
data_Li2TcO3
_symmetry_space_group_name_H-M   'P 1'
_cell_length_a   4.84975612
_cell_length_b   4.84975612
_cell_length_c   10.30570351
_cell_angle_alpha   85.54725548
_cell_angle_beta   85.54725548
_cell_angle_gamma   119.93958643
_symmetry_Int_Tables_number   1
_chemical_formula_structural   Li2TcO3
_chemical_formula_sum   'Li8 Tc4 O12'
_cell_volume   207.50204008
_cell_formula_units_Z   4
loop_
 _symmetry_equiv_pos_site_id
 _symmetry_equiv_pos_as_xyz
  1  'x, y, z'
loop_
 _atom_site_type_symbol
 _atom_site_label
 _atom_site_symmetry_multiplicity
 _atom_site_fract_x
 _atom_site_fract_y
 _atom_site_fract_z
 _atom_site_occupancy
  Li  Li0  1  0.66014600  0.81928400  0.50030900  1
  Li  Li1  1  0.33985400  0.18071600  0.49969100  1
  Li  Li2  1  0.18071600  0.33985400  0.99969100  1
  Li  Li3  1  0.81928400  0.66014600  0.00030900  1
  Li  Li4  1  0.58413600  0.41586400  0.75000000  1
  Li  Li5  1  0.41586400  0.58413600  0.25000000  1
  Li  Li6  1  0.50000000  0.00000000  0.00000000  1
  Li  Li7  1  0.00000000  0.50000000  0.50000000  1
  Tc  Tc8  1  0.24970800  0.75029200  0.75000000  1
  Tc  Tc9  1  0.75029200  0.24970800  0.25000000  1
  Tc  Tc10  1  0.91700500  0.08299500  0.75000000  1
  Tc  Tc11  1  0.08299500  0.91700500  0.25000000  1
  O  O12  1  0.78392900  0.95060700  0.12761300  1
  O  O13  1  0.21607100  0.04939300  0.87238700  1
  O  O14  1  0.04939300  0.21607100  0.37238700  1
  O  O15  1  0.95060700  0.78392900  0.62761300  1
  O  O16  1  0.54321100  0.70162000  0.87099400  1
  O  O17  1  0.45678900  0.29838000  0.12900600  1
  O  O18  1  0.29838000  0.45678900  0.62900600  1
  O  O19  1  0.70162000  0.54321100  0.37099400  1
  O  O20  1  0.62397900  0.13037300  0.62779400  1
  O  O21  1  0.37602100  0.86962700  0.37220600  1
  O  O22  1  0.86962700  0.37602100  0.87220600  1
  O  O23  1  0.13037300  0.62397900  0.12779400  1
