# generated using pymatgen
data_K3SbO4
_symmetry_space_group_name_H-M   'P 1'
_cell_length_a   7.47660100
_cell_length_b   5.78026900
_cell_length_c   6.63620247
_cell_angle_alpha   71.51557624
_cell_angle_beta   90.00000000
_cell_angle_gamma   90.00000000
_symmetry_Int_Tables_number   1
_chemical_formula_structural   K3SbO4
_chemical_formula_sum   'K6 Sb2 O8'
_cell_volume   271.99940414
_cell_formula_units_Z   2
loop_
 _symmetry_equiv_pos_site_id
 _symmetry_equiv_pos_as_xyz
  1  'x, y, z'
loop_
 _atom_site_type_symbol
 _atom_site_label
 _atom_site_symmetry_multiplicity
 _atom_site_fract_x
 _atom_site_fract_y
 _atom_site_fract_z
 _atom_site_occupancy
  K  K0  1  0.62539600  0.25000000  0.00000000  1
  K  K1  1  0.37460400  0.75000000  0.00000000  1
  K  K2  1  0.61131600  0.75000000  0.50000000  1
  K  K3  1  0.38868400  0.25000000  0.50000000  1
  K  K4  1  0.89120300  0.75000000  0.00000000  1
  K  K5  1  0.10879700  0.25000000  0.00000000  1
  Sb  Sb6  1  0.88665100  0.25000000  0.50000000  1
  Sb  Sb7  1  0.11334900  0.75000000  0.50000000  1
  O  O8  1  0.08725800  0.00565300  0.66853500  1
  O  O9  1  0.08725800  0.49434700  0.33146500  1
  O  O10  1  0.70433500  0.42846900  0.29149500  1
  O  O11  1  0.70433500  0.07153100  0.70850500  1
  O  O12  1  0.29566500  0.57153100  0.70850500  1
  O  O13  1  0.29566500  0.92846900  0.29149500  1
  O  O14  1  0.91274200  0.99434700  0.33146500  1
  O  O15  1  0.91274200  0.50565300  0.66853500  1
