# generated using pymatgen
data_Ca2Pr4(Mo2O7)3
_symmetry_space_group_name_H-M   'P 1'
_cell_length_a   16.78914493
_cell_length_b   16.78552055
_cell_length_c   7.49269736
_cell_angle_alpha   77.13200827
_cell_angle_beta   77.07797568
_cell_angle_gamma   25.79001605
_symmetry_Int_Tables_number   1
_chemical_formula_structural   Ca2Pr4(Mo2O7)3
_chemical_formula_sum   'Ca4 Pr8 Mo12 O42'
_cell_volume   894.27995961
_cell_formula_units_Z   2
loop_
 _symmetry_equiv_pos_site_id
 _symmetry_equiv_pos_as_xyz
  1  'x, y, z'
loop_
 _atom_site_type_symbol
 _atom_site_label
 _atom_site_symmetry_multiplicity
 _atom_site_fract_x
 _atom_site_fract_y
 _atom_site_fract_z
 _atom_site_occupancy
  Ca  Ca0  1  0.17289700  0.74629700  0.58193000  1
  Ca  Ca1  1  0.50370200  0.07710300  0.75112400  1
  Ca  Ca2  1  0.49887600  0.58193000  0.74629700  1
  Ca  Ca3  1  0.66807000  0.75112400  0.07710300  1
  Pr  Pr4  1  0.50485300  0.07707300  0.24902000  1
  Pr  Pr5  1  0.82434800  0.42456600  0.91811200  1
  Pr  Pr6  1  0.82543400  0.42565200  0.41702700  1
  Pr  Pr7  1  0.17292700  0.74514700  0.08094500  1
  Pr  Pr8  1  0.83297300  0.91811200  0.42456600  1
  Pr  Pr9  1  0.16905400  0.24902000  0.07707300  1
  Pr  Pr10  1  0.00098000  0.08094600  0.74514700  1
  Pr  Pr11  1  0.33188800  0.41702700  0.42565200  1
  Mo  Mo12  1  0.66673800  0.25115700  0.08127200  1
  Mo  Mo13  1  0.99762300  0.58540000  0.74986100  1
  Mo  Mo14  1  0.33409000  0.91657200  0.41699400  1
  Mo  Mo15  1  0.66460000  0.25237700  0.58288400  1
  Mo  Mo16  1  0.99884300  0.58326200  0.24916700  1
  Mo  Mo17  1  0.33342800  0.91591000  0.91765500  1
  Mo  Mo18  1  0.33234500  0.41699400  0.91657200  1
  Mo  Mo19  1  0.66711600  0.74986100  0.58540000  1
  Mo  Mo20  1  0.00083300  0.08127200  0.25115700  1
  Mo  Mo21  1  0.83300600  0.91765500  0.91591000  1
  Mo  Mo22  1  0.16872800  0.24916700  0.58326200  1
  Mo  Mo23  1  0.50013900  0.58288400  0.25237700  1
  O  O24  1  0.21232000  0.78768000  0.78768000  1
  O  O25  1  0.54107300  0.12350700  0.46483600  1
  O  O26  1  0.87058400  0.46483600  0.12350700  1
  O  O27  1  0.46232000  0.03768000  0.03768000  1
  O  O28  1  0.78516400  0.37941600  0.70892700  1
  O  O29  1  0.12649300  0.70892700  0.37941600  1
  O  O30  1  0.98098000  0.54970100  0.03249800  1
  O  O31  1  0.30718100  0.89349900  0.69174900  1
  O  O32  1  0.63703900  0.22422700  0.35409200  1
  O  O33  1  0.10757100  0.69174900  0.89349900  1
  O  O34  1  0.43682100  0.03249800  0.54970100  1
  O  O35  1  0.78464200  0.35409200  0.22422700  1
  O  O36  1  0.24240700  0.42469400  0.75458300  1
  O  O37  1  0.57831600  0.75458300  0.42469400  1
  O  O38  1  0.90987100  0.09012900  0.09012900  1
  O  O39  1  0.83449500  0.83248700  0.15924300  1
  O  O40  1  0.17377400  0.15924300  0.83248700  1
  O  O41  1  0.50769900  0.49230100  0.49230100  1
  O  O42  1  0.24657500  0.41895300  0.16021600  1
  O  O43  1  0.57740600  0.75353500  0.82721600  1
  O  O44  1  0.90728100  0.09654000  0.49506800  1
  O  O45  1  0.84184300  0.82721600  0.75353500  1
  O  O46  1  0.17425700  0.16021600  0.41895300  1
  O  O47  1  0.50111000  0.49506800  0.09654000  1
  O  O48  1  0.70029900  0.26902000  0.81317900  1
  O  O49  1  0.02577300  0.61296100  0.46535800  1
  O  O50  1  0.35650100  0.94281900  0.14242900  1
  O  O51  1  0.55825100  0.14242900  0.94281900  1
  O  O52  1  0.89590800  0.46535800  0.61296100  1
  O  O53  1  0.21750200  0.81317900  0.26902000  1
  O  O54  1  0.41751300  0.41550500  0.07622600  1
  O  O55  1  0.75769900  0.74230100  0.74230100  1
  O  O56  1  0.09075700  0.07622600  0.41550500  1
  O  O57  1  0.82530600  0.00759300  0.67168400  1
  O  O58  1  0.15987100  0.34012900  0.34012900  1
  O  O59  1  0.49541700  0.67168400  0.00759300  1
  O  O60  1  0.42278400  0.40815700  0.67259400  1
  O  O61  1  0.75493200  0.74889000  0.34271900  1
  O  O62  1  0.08978400  0.07574300  0.00342500  1
  O  O63  1  0.83104700  0.00342500  0.07574300  1
  O  O64  1  0.15346000  0.34271900  0.74889000  1
  O  O65  1  0.49646500  0.67259400  0.40815700  1
