# generated using pymatgen
data_H9Rh(NCl)3
_symmetry_space_group_name_H-M   'P 1'
_cell_length_a   5.58884144
_cell_length_b   7.04632052
_cell_length_c   9.87035600
_cell_angle_alpha   90.00000000
_cell_angle_beta   90.00000000
_cell_angle_gamma   93.28575848
_symmetry_Int_Tables_number   1
_chemical_formula_structural   H9Rh(NCl)3
_chemical_formula_sum   'H18 Rh2 N6 Cl6'
_cell_volume   388.06321053
_cell_formula_units_Z   2
loop_
 _symmetry_equiv_pos_site_id
 _symmetry_equiv_pos_as_xyz
  1  'x, y, z'
loop_
 _atom_site_type_symbol
 _atom_site_label
 _atom_site_symmetry_multiplicity
 _atom_site_fract_x
 _atom_site_fract_y
 _atom_site_fract_z
 _atom_site_occupancy
  H  H0  1  0.08691800  0.15535800  0.38850400  1
  H  H1  1  0.91308200  0.84464200  0.88850400  1
  H  H2  1  0.91308200  0.84464200  0.61149600  1
  H  H3  1  0.08691800  0.15535800  0.11149600  1
  H  H4  1  0.32182000  0.16142500  0.49148600  1
  H  H5  1  0.67818000  0.83857500  0.99148600  1
  H  H6  1  0.67818000  0.83857500  0.50851400  1
  H  H7  1  0.32182000  0.16142500  0.00851400  1
  H  H8  1  0.25922800  0.96894300  0.39947100  1
  H  H9  1  0.74077200  0.03105700  0.89947100  1
  H  H10  1  0.74077200  0.03105700  0.60052900  1
  H  H11  1  0.25922800  0.96894300  0.10052900  1
  H  H12  1  0.38561300  0.55479000  0.33456600  1
  H  H13  1  0.61438700  0.44521000  0.83456600  1
  H  H14  1  0.61438700  0.44521000  0.66543400  1
  H  H15  1  0.38561300  0.55479000  0.16543400  1
  H  H16  1  0.14782400  0.46541000  0.25000000  1
  H  H17  1  0.85217600  0.53459000  0.75000000  1
  Rh  Rh18  1  0.49400400  0.22004000  0.25000000  1
  Rh  Rh19  1  0.50599600  0.77996000  0.75000000  1
  N  N20  1  0.26034600  0.11494100  0.39818700  1
  N  N21  1  0.73965400  0.88505900  0.89818700  1
  N  N22  1  0.73965400  0.88505900  0.60181300  1
  N  N23  1  0.26034600  0.11494100  0.10181300  1
  N  N24  1  0.33253600  0.47882600  0.25000000  1
  N  N25  1  0.66746400  0.52117400  0.75000000  1
  Cl  Cl26  1  0.66503100  0.91499200  0.25000000  1
  Cl  Cl27  1  0.33496900  0.08500800  0.75000000  1
  Cl  Cl28  1  0.75620800  0.34320400  0.42532400  1
  Cl  Cl29  1  0.24379200  0.65679600  0.92532400  1
  Cl  Cl30  1  0.24379200  0.65679600  0.57467600  1
  Cl  Cl31  1  0.75620800  0.34320400  0.07467600  1
