# generated using pymatgen
data_V3Pb5O12F
_symmetry_space_group_name_H-M   'P 1'
_cell_length_a   10.29992550
_cell_length_b   10.29992550
_cell_length_c   7.54654000
_cell_angle_alpha   90.00000000
_cell_angle_beta   90.00000000
_cell_angle_gamma   119.99999681
_symmetry_Int_Tables_number   1
_chemical_formula_structural   V3Pb5O12F
_chemical_formula_sum   'V6 Pb10 O24 F2'
_cell_volume   693.34069453
_cell_formula_units_Z   2
loop_
 _symmetry_equiv_pos_site_id
 _symmetry_equiv_pos_as_xyz
  1  'x, y, z'
loop_
 _atom_site_type_symbol
 _atom_site_label
 _atom_site_symmetry_multiplicity
 _atom_site_fract_x
 _atom_site_fract_y
 _atom_site_fract_z
 _atom_site_occupancy
  V  V0  1  0.39915200  0.02825100  0.75000000  1
  V  V1  1  0.60084800  0.97174900  0.25000000  1
  V  V2  1  0.97174900  0.37090000  0.75000000  1
  V  V3  1  0.02825100  0.62910000  0.25000000  1
  V  V4  1  0.62910000  0.60084800  0.75000000  1
  V  V5  1  0.37090000  0.39915200  0.25000000  1
  Pb  Pb6  1  0.33333300  0.66666700  0.50716800  1
  Pb  Pb7  1  0.66666700  0.33333300  0.49283200  1
  Pb  Pb8  1  0.66666700  0.33333300  0.00716800  1
  Pb  Pb9  1  0.33333300  0.66666700  0.99283200  1
  Pb  Pb10  1  0.24658200  0.24261000  0.75000000  1
  Pb  Pb11  1  0.75341800  0.75739000  0.25000000  1
  Pb  Pb12  1  0.75739000  0.00397300  0.75000000  1
  Pb  Pb13  1  0.24261000  0.99602700  0.25000000  1
  Pb  Pb14  1  0.99602700  0.75341800  0.75000000  1
  Pb  Pb15  1  0.00397300  0.24658200  0.25000000  1
  O  O16  1  0.16688900  0.49069300  0.75000000  1
  O  O17  1  0.83311100  0.50930700  0.25000000  1
  O  O18  1  0.50930700  0.67619600  0.75000000  1
  O  O19  1  0.49069300  0.32380400  0.25000000  1
  O  O20  1  0.32380400  0.83311100  0.75000000  1
  O  O21  1  0.67619600  0.16688900  0.25000000  1
  O  O22  1  0.59643900  0.12303700  0.75000000  1
  O  O23  1  0.40356100  0.87696300  0.25000000  1
  O  O24  1  0.87696300  0.47340200  0.75000000  1
  O  O25  1  0.12303700  0.52659800  0.25000000  1
  O  O26  1  0.52659800  0.40356100  0.75000000  1
  O  O27  1  0.47340200  0.59643900  0.25000000  1
  O  O28  1  0.34104500  0.08877200  0.56752800  1
  O  O29  1  0.65895500  0.91122800  0.43247200  1
  O  O30  1  0.91122800  0.25227300  0.56752800  1
  O  O31  1  0.65895500  0.91122800  0.06752800  1
  O  O32  1  0.08877200  0.74772700  0.43247200  1
  O  O33  1  0.34104500  0.08877200  0.93247200  1
  O  O34  1  0.74772700  0.65895500  0.56752800  1
  O  O35  1  0.08877200  0.74772700  0.06752800  1
  O  O36  1  0.25227300  0.34104500  0.43247200  1
  O  O37  1  0.91122800  0.25227300  0.93247200  1
  O  O38  1  0.25227300  0.34104500  0.06752800  1
  O  O39  1  0.74772700  0.65895500  0.93247200  1
  F  F40  1  0.00000000  0.00000000  0.75000000  1
  F  F41  1  0.00000000  0.00000000  0.25000000  1
