# generated using pymatgen
data_ThCu6
_symmetry_space_group_name_H-M   'P 1'
_cell_length_a   5.07840600
_cell_length_b   8.10591300
_cell_length_c   10.11906000
_cell_angle_alpha   90.00000000
_cell_angle_beta   90.00000000
_cell_angle_gamma   90.00000000
_symmetry_Int_Tables_number   1
_chemical_formula_structural   ThCu6
_chemical_formula_sum   'Th4 Cu24'
_cell_volume   416.55229100
_cell_formula_units_Z   4
loop_
 _symmetry_equiv_pos_site_id
 _symmetry_equiv_pos_as_xyz
  1  'x, y, z'
loop_
 _atom_site_type_symbol
 _atom_site_label
 _atom_site_symmetry_multiplicity
 _atom_site_fract_x
 _atom_site_fract_y
 _atom_site_fract_z
 _atom_site_occupancy
  Th  Th0  1  0.25000000  0.26010800  0.56466800  1
  Th  Th1  1  0.75000000  0.73989200  0.43533200  1
  Th  Th2  1  0.25000000  0.76010800  0.93533200  1
  Th  Th3  1  0.75000000  0.23989200  0.06466800  1
  Cu  Cu4  1  0.50523500  0.56414200  0.19149400  1
  Cu  Cu5  1  0.00523500  0.43585800  0.80850600  1
  Cu  Cu6  1  0.99476500  0.06414200  0.30850600  1
  Cu  Cu7  1  0.49476500  0.93585800  0.69149400  1
  Cu  Cu8  1  0.75000000  0.35388100  0.35725200  1
  Cu  Cu9  1  0.25000000  0.64611900  0.64274800  1
  Cu  Cu10  1  0.75000000  0.85388100  0.14274800  1
  Cu  Cu11  1  0.25000000  0.14611900  0.85725200  1
  Cu  Cu12  1  0.75000000  0.68278300  0.74394000  1
  Cu  Cu13  1  0.25000000  0.31721700  0.25606000  1
  Cu  Cu14  1  0.75000000  0.18278300  0.75606000  1
  Cu  Cu15  1  0.25000000  0.81721700  0.24394000  1
  Cu  Cu16  1  0.75000000  0.93772900  0.90356700  1
  Cu  Cu17  1  0.25000000  0.06227100  0.09643300  1
  Cu  Cu18  1  0.75000000  0.43772900  0.59643300  1
  Cu  Cu19  1  0.25000000  0.56227100  0.40356700  1
  Cu  Cu20  1  0.75000000  0.59859400  0.98464100  1
  Cu  Cu21  1  0.25000000  0.40140600  0.01535900  1
  Cu  Cu22  1  0.75000000  0.09859400  0.51535900  1
  Cu  Cu23  1  0.25000000  0.90140600  0.48464100  1
  Cu  Cu24  1  0.50523500  0.06414200  0.30850600  1
  Cu  Cu25  1  0.00523500  0.93585800  0.69149400  1
  Cu  Cu26  1  0.99476500  0.56414200  0.19149400  1
  Cu  Cu27  1  0.49476500  0.43585800  0.80850600  1
