# generated using pymatgen
data_Nd2SO6
_symmetry_space_group_name_H-M   'P 1'
_cell_length_a   4.17976700
_cell_length_b   4.19282800
_cell_length_c   7.93930817
_cell_angle_alpha   105.31080817
_cell_angle_beta   105.26194705
_cell_angle_gamma   90.00000000
_symmetry_Int_Tables_number   1
_chemical_formula_structural   Nd2SO6
_chemical_formula_sum   'Nd2 S1 O6'
_cell_volume   129.10386298
_cell_formula_units_Z   1
loop_
 _symmetry_equiv_pos_site_id
 _symmetry_equiv_pos_as_xyz
  1  'x, y, z'
loop_
 _atom_site_type_symbol
 _atom_site_label
 _atom_site_symmetry_multiplicity
 _atom_site_fract_x
 _atom_site_fract_y
 _atom_site_fract_z
 _atom_site_occupancy
  Nd  Nd0  1  0.82649000  0.32649000  0.65298100  1
  Nd  Nd1  1  0.17351000  0.67351000  0.34701900  1
  S  S2  1  0.50000000  0.00000000  0.00000000  1
  O  O3  1  0.23807500  0.73863900  0.88090900  1
  O  O4  1  0.64283400  0.14227000  0.88090900  1
  O  O5  1  0.35716600  0.26136100  0.11909100  1
  O  O6  1  0.76192500  0.85773000  0.11909100  1
  O  O7  1  0.75003600  0.75003600  0.50007200  1
  O  O8  1  0.24996400  0.24996400  0.49992800  1
