# generated using pymatgen
data_CsUTe6
_symmetry_space_group_name_H-M   'P 1'
_cell_length_a   8.28274300
_cell_length_b   9.50651000
_cell_length_c   31.60179800
_cell_angle_alpha   90.00000000
_cell_angle_beta   90.00000000
_cell_angle_gamma   90.00000000
_symmetry_Int_Tables_number   1
_chemical_formula_structural   CsUTe6
_chemical_formula_sum   'Cs8 U8 Te48'
_cell_volume   2488.32491584
_cell_formula_units_Z   8
loop_
 _symmetry_equiv_pos_site_id
 _symmetry_equiv_pos_as_xyz
  1  'x, y, z'
loop_
 _atom_site_type_symbol
 _atom_site_label
 _atom_site_symmetry_multiplicity
 _atom_site_fract_x
 _atom_site_fract_y
 _atom_site_fract_z
 _atom_site_occupancy
  Cs  Cs0  1  0.25000000  0.08627500  0.53858700  1
  Cs  Cs1  1  0.25000000  0.41372500  0.03858700  1
  Cs  Cs2  1  0.75000000  0.91372500  0.46141300  1
  Cs  Cs3  1  0.75000000  0.58627500  0.96141300  1
  Cs  Cs4  1  0.25000000  0.60380900  0.79379600  1
  Cs  Cs5  1  0.25000000  0.89619100  0.29379600  1
  Cs  Cs6  1  0.75000000  0.39619100  0.20620400  1
  Cs  Cs7  1  0.75000000  0.10380900  0.70620400  1
  U  U8  1  0.25000000  0.09920400  0.87612700  1
  U  U9  1  0.25000000  0.40079600  0.37612700  1
  U  U10  1  0.75000000  0.90079600  0.12387300  1
  U  U11  1  0.75000000  0.59920400  0.62387300  1
  U  U12  1  0.25000000  0.88087600  0.12378400  1
  U  U13  1  0.25000000  0.61912400  0.62378400  1
  U  U14  1  0.75000000  0.11912400  0.87621600  1
  U  U15  1  0.75000000  0.38087600  0.37621600  1
  Te  Te16  1  0.01284300  0.35478600  0.62146500  1
  Te  Te17  1  0.48715700  0.14521400  0.12146500  1
  Te  Te18  1  0.51284300  0.64521400  0.37853500  1
  Te  Te19  1  0.98715700  0.85478600  0.87853500  1
  Te  Te20  1  0.98715700  0.64521400  0.37853500  1
  Te  Te21  1  0.51284300  0.85478600  0.87853500  1
  Te  Te22  1  0.48715700  0.35478600  0.62146500  1
  Te  Te23  1  0.01284300  0.14521400  0.12146500  1
  Te  Te24  1  0.00319400  0.23392400  0.80981600  1
  Te  Te25  1  0.49680600  0.26607600  0.30981600  1
  Te  Te26  1  0.50319400  0.76607600  0.19018400  1
  Te  Te27  1  0.99680600  0.73392400  0.69018400  1
  Te  Te28  1  0.99680600  0.76607600  0.19018400  1
  Te  Te29  1  0.50319400  0.73392400  0.69018400  1
  Te  Te30  1  0.49680600  0.23392400  0.80981600  1
  Te  Te31  1  0.00319400  0.26607600  0.30981600  1
  Te  Te32  1  0.00692700  0.22763600  0.94176900  1
  Te  Te33  1  0.49307300  0.27236400  0.44176900  1
  Te  Te34  1  0.50692700  0.77236400  0.05823100  1
  Te  Te35  1  0.99307300  0.72763600  0.55823100  1
  Te  Te36  1  0.99307300  0.77236400  0.05823100  1
  Te  Te37  1  0.50692700  0.72763600  0.55823100  1
  Te  Te38  1  0.49307300  0.22763600  0.94176900  1
  Te  Te39  1  0.00692700  0.27236400  0.44176900  1
  Te  Te40  1  0.25000000  0.49910300  0.53118600  1
  Te  Te41  1  0.25000000  0.00089700  0.03118600  1
  Te  Te42  1  0.75000000  0.50089700  0.46881400  1
  Te  Te43  1  0.75000000  0.99910300  0.96881400  1
  Te  Te44  1  0.25000000  0.92606500  0.65184900  1
  Te  Te45  1  0.25000000  0.57393500  0.15184900  1
  Te  Te46  1  0.75000000  0.07393500  0.34815100  1
  Te  Te47  1  0.75000000  0.42606500  0.84815100  1
  Te  Te48  1  0.25000000  0.37061400  0.68974300  1
  Te  Te49  1  0.25000000  0.12938600  0.18974300  1
  Te  Te50  1  0.75000000  0.62938600  0.31025700  1
  Te  Te51  1  0.75000000  0.87061400  0.81025700  1
  Te  Te52  1  0.25000000  0.01939600  0.78241000  1
  Te  Te53  1  0.25000000  0.48060400  0.28241000  1
  Te  Te54  1  0.75000000  0.98060400  0.21759000  1
  Te  Te55  1  0.75000000  0.51939600  0.71759000  1
  Te  Te56  1  0.25000000  0.41969800  0.90625500  1
  Te  Te57  1  0.25000000  0.08030200  0.40625500  1
  Te  Te58  1  0.75000000  0.58030200  0.09374500  1
  Te  Te59  1  0.75000000  0.91969800  0.59374500  1
  Te  Te60  1  0.25000000  0.85745100  0.94773900  1
  Te  Te61  1  0.25000000  0.64254900  0.44773900  1
  Te  Te62  1  0.75000000  0.14254900  0.05226100  1
  Te  Te63  1  0.75000000  0.35745100  0.55226100  1
