# generated using pymatgen
data_Rb2La10Co2I17
_symmetry_space_group_name_H-M   'P 1'
_cell_length_a   11.89987528
_cell_length_b   11.89987528
_cell_length_c   10.00550367
_cell_angle_alpha   86.74870007
_cell_angle_beta   86.74870007
_cell_angle_gamma   108.03863440
_symmetry_Int_Tables_number   1
_chemical_formula_structural   Rb2La10Co2I17
_chemical_formula_sum   'Rb2 La10 Co2 I17'
_cell_volume   1340.91658447
_cell_formula_units_Z   1
loop_
 _symmetry_equiv_pos_site_id
 _symmetry_equiv_pos_as_xyz
  1  'x, y, z'
loop_
 _atom_site_type_symbol
 _atom_site_label
 _atom_site_symmetry_multiplicity
 _atom_site_fract_x
 _atom_site_fract_y
 _atom_site_fract_z
 _atom_site_occupancy
  Rb  Rb0  1  0.67494000  0.32506000  0.50000000  1
  Rb  Rb1  1  0.32506000  0.67494000  0.50000000  1
  La  La2  1  0.70631700  0.00726800  0.92728200  1
  La  La3  1  0.29368300  0.99273200  0.07271800  1
  La  La4  1  0.99273200  0.29368300  0.07271800  1
  La  La5  1  0.00726800  0.70631700  0.92728200  1
  La  La6  1  0.67101200  0.67101200  0.05773200  1
  La  La7  1  0.32898800  0.32898800  0.94226800  1
  La  La8  1  0.93850300  0.93850300  0.16758000  1
  La  La9  1  0.06149700  0.06149700  0.83242000  1
  La  La10  1  0.79569900  0.79569900  0.68788600  1
  La  La11  1  0.20430100  0.20430100  0.31211400  1
  Co  Co12  1  0.85512600  0.85512600  0.92911300  1
  Co  Co13  1  0.14487400  0.14487400  0.07088700  1
  I  I14  1  0.61456600  0.94899300  0.63663400  1
  I  I15  1  0.38543400  0.05100700  0.36336600  1
  I  I16  1  0.05100700  0.38543400  0.36336600  1
  I  I17  1  0.94899300  0.61456600  0.63663400  1
  I  I18  1  0.52813100  0.18950900  0.91959700  1
  I  I19  1  0.47186900  0.81049100  0.08040300  1
  I  I20  1  0.81049100  0.47186900  0.08040300  1
  I  I21  1  0.18950900  0.52813100  0.91959700  1
  I  I22  1  0.56213600  0.56213600  0.78113600  1
  I  I23  1  0.43786400  0.43786400  0.21886400  1
  I  I24  1  0.24686100  0.89904200  0.77243900  1
  I  I25  1  0.75313900  0.10095800  0.22756100  1
  I  I26  1  0.10095800  0.75313900  0.22756100  1
  I  I27  1  0.89904200  0.24686100  0.77243900  1
  I  I28  1  0.28754200  0.28754200  0.62960000  1
  I  I29  1  0.71245800  0.71245800  0.37040000  1
  I  I30  1  0.00000000  0.00000000  0.50000000  1
