# generated using pymatgen
data_Cs3Nb2I9
_symmetry_space_group_name_H-M   'P 1'
_cell_length_a   8.60415765
_cell_length_b   8.60415765
_cell_length_c   19.93706200
_cell_angle_alpha   90.00000000
_cell_angle_beta   90.00000000
_cell_angle_gamma   119.99999730
_symmetry_Int_Tables_number   1
_chemical_formula_structural   Cs3Nb2I9
_chemical_formula_sum   'Cs6 Nb4 I18'
_cell_volume   1278.22857228
_cell_formula_units_Z   2
loop_
 _symmetry_equiv_pos_site_id
 _symmetry_equiv_pos_as_xyz
  1  'x, y, z'
loop_
 _atom_site_type_symbol
 _atom_site_label
 _atom_site_symmetry_multiplicity
 _atom_site_fract_x
 _atom_site_fract_y
 _atom_site_fract_z
 _atom_site_occupancy
  Cs  Cs0  1  0.00000000  0.00000000  0.25000000  1
  Cs  Cs1  1  0.00000000  0.00000000  0.75000000  1
  Cs  Cs2  1  0.33333300  0.66666700  0.43123800  1
  Cs  Cs3  1  0.66666700  0.33333300  0.56876200  1
  Cs  Cs4  1  0.66666700  0.33333300  0.93123800  1
  Cs  Cs5  1  0.33333300  0.66666700  0.06876200  1
  Nb  Nb6  1  0.33333300  0.66666700  0.67937500  1
  Nb  Nb7  1  0.66666700  0.33333300  0.32062500  1
  Nb  Nb8  1  0.66666700  0.33333300  0.17937500  1
  Nb  Nb9  1  0.33333300  0.66666700  0.82062500  1
  I  I10  1  0.49829600  0.50170400  0.25000000  1
  I  I11  1  0.49829600  0.99659100  0.25000000  1
  I  I12  1  0.00340900  0.50170400  0.25000000  1
  I  I13  1  0.50170400  0.49829600  0.75000000  1
  I  I14  1  0.50170400  0.00340900  0.75000000  1
  I  I15  1  0.99659100  0.49829600  0.75000000  1
  I  I16  1  0.82310900  0.17689100  0.40502400  1
  I  I17  1  0.82310900  0.64621900  0.40502400  1
  I  I18  1  0.35378100  0.17689100  0.40502400  1
  I  I19  1  0.17689100  0.82310900  0.59497600  1
  I  I20  1  0.17689100  0.35378100  0.59497600  1
  I  I21  1  0.64621900  0.82310900  0.59497600  1
  I  I22  1  0.17689100  0.82310900  0.90502400  1
  I  I23  1  0.17689100  0.35378100  0.90502400  1
  I  I24  1  0.64621900  0.82310900  0.90502400  1
  I  I25  1  0.82310900  0.17689100  0.09497600  1
  I  I26  1  0.82310900  0.64621900  0.09497600  1
  I  I27  1  0.35378100  0.17689100  0.09497600  1
