# generated using pymatgen
data_Rb4LiH3(SO4)4
_symmetry_space_group_name_H-M   'P 1'
_cell_length_a   7.80652800
_cell_length_b   7.80652800
_cell_length_c   30.07754800
_cell_angle_alpha   90.00000000
_cell_angle_beta   90.00000000
_cell_angle_gamma   90.00000000
_symmetry_Int_Tables_number   1
_chemical_formula_structural   Rb4LiH3(SO4)4
_chemical_formula_sum   'Rb16 Li4 H12 S16 O64'
_cell_volume   1832.98230331
_cell_formula_units_Z   4
loop_
 _symmetry_equiv_pos_site_id
 _symmetry_equiv_pos_as_xyz
  1  'x, y, z'
loop_
 _atom_site_type_symbol
 _atom_site_label
 _atom_site_symmetry_multiplicity
 _atom_site_fract_x
 _atom_site_fract_y
 _atom_site_fract_z
 _atom_site_occupancy
  Rb  Rb0  1  0.11493200  0.86473700  0.28898200  1
  Rb  Rb1  1  0.88506800  0.13526300  0.78898200  1
  Rb  Rb2  1  0.86473700  0.88506800  0.03898200  1
  Rb  Rb3  1  0.13526300  0.11493200  0.53898200  1
  Rb  Rb4  1  0.61569200  0.56419100  0.30231800  1
  Rb  Rb5  1  0.38430800  0.43580900  0.80231800  1
  Rb  Rb6  1  0.56419100  0.38430800  0.05231800  1
  Rb  Rb7  1  0.43580900  0.61569200  0.55231800  1
  Rb  Rb8  1  0.02937700  0.47658200  0.41711000  1
  Rb  Rb9  1  0.97062300  0.52341800  0.91711000  1
  Rb  Rb10  1  0.47658200  0.97062300  0.16711000  1
  Rb  Rb11  1  0.52341800  0.02937700  0.66711000  1
  Rb  Rb12  1  0.72652500  0.97978300  0.40753200  1
  Rb  Rb13  1  0.27347500  0.02021700  0.90753200  1
  Rb  Rb14  1  0.97978300  0.27347500  0.15753200  1
  Rb  Rb15  1  0.02021700  0.72652500  0.65753200  1
  Li  Li16  1  0.37091400  0.22080000  0.35451100  1
  Li  Li17  1  0.62908600  0.77920000  0.85451100  1
  Li  Li18  1  0.22080000  0.62908600  0.10451100  1
  Li  Li19  1  0.77920000  0.37091400  0.60451100  1
  H  H20  1  0.34037700  0.76402100  0.45357700  1
  H  H21  1  0.65962300  0.23597900  0.95357700  1
  H  H22  1  0.76402100  0.65962300  0.20357700  1
  H  H23  1  0.23597900  0.34037700  0.70357700  1
  H  H24  1  0.57551400  0.28687800  0.48361700  1
  H  H25  1  0.42448600  0.71312200  0.98361700  1
  H  H26  1  0.28687800  0.42448600  0.23361700  1
  H  H27  1  0.71312200  0.57551400  0.73361700  1
  H  H28  1  0.81000400  0.81550700  0.50382100  1
  H  H29  1  0.18999600  0.18449300  0.00382100  1
  H  H30  1  0.81550700  0.18999600  0.25382100  1
  H  H31  1  0.18449300  0.81000400  0.75382100  1
  S  S32  1  0.19768100  0.96200900  0.41712400  1
  S  S33  1  0.80231900  0.03799100  0.91712400  1
  S  S34  1  0.96200900  0.80231900  0.16712400  1
  S  S35  1  0.03799100  0.19768100  0.66712400  1
  S  S36  1  0.53584900  0.49357000  0.42129900  1
  S  S37  1  0.46415100  0.50643000  0.92129900  1
  S  S38  1  0.49357000  0.46415100  0.17129900  1
  S  S39  1  0.50643000  0.53584900  0.67129900  1
  S  S40  1  0.62400200  0.09135800  0.53951900  1
  S  S41  1  0.37599800  0.90864200  0.03951900  1
  S  S42  1  0.09135800  0.37599800  0.28951900  1
  S  S43  1  0.90864200  0.62400200  0.78951900  1
  S  S44  1  0.96176900  0.62433900  0.53881500  1
  S  S45  1  0.03823100  0.37566100  0.03881500  1
  S  S46  1  0.62433900  0.03823100  0.28881500  1
  S  S47  1  0.37566100  0.96176900  0.78881500  1
  O  O48  1  0.10018100  0.10673800  0.43502800  1
  O  O49  1  0.89981900  0.89326200  0.93502800  1
  O  O50  1  0.10673800  0.89981900  0.18502800  1
  O  O51  1  0.89326200  0.10018100  0.68502800  1
  O  O52  1  0.09073200  0.83535100  0.39396800  1
  O  O53  1  0.90926800  0.16464900  0.89396800  1
  O  O54  1  0.83535100  0.90926800  0.14396800  1
  O  O55  1  0.16464900  0.09073200  0.64396800  1
  O  O56  1  0.34643900  0.01282900  0.38982300  1
  O  O57  1  0.65356100  0.98717100  0.88982300  1
  O  O58  1  0.01282900  0.65356100  0.13982300  1
  O  O59  1  0.98717100  0.34643900  0.63982300  1
  O  O60  1  0.27335800  0.87393600  0.46058400  1
  O  O61  1  0.72664200  0.12606400  0.96058400  1
  O  O62  1  0.87393600  0.72664200  0.21058400  1
  O  O63  1  0.12606400  0.27335800  0.71058400  1
  O  O64  1  0.66769900  0.60288200  0.40047900  1
  O  O65  1  0.33230100  0.39711800  0.90047900  1
  O  O66  1  0.60288200  0.33230100  0.15047900  1
  O  O67  1  0.39711800  0.66769900  0.65047900  1
  O  O68  1  0.41516500  0.42810200  0.38699800  1
  O  O69  1  0.58483500  0.57189800  0.88699800  1
  O  O70  1  0.42810200  0.58483500  0.13699800  1
  O  O71  1  0.57189800  0.41516500  0.63699800  1
  O  O72  1  0.43692600  0.58848900  0.45606200  1
  O  O73  1  0.56307400  0.41151100  0.95606200  1
  O  O74  1  0.58848900  0.56307400  0.20606200  1
  O  O75  1  0.41151100  0.43692600  0.70606200  1
  O  O76  1  0.62546300  0.34327300  0.44357100  1
  O  O77  1  0.37453700  0.65672700  0.94357100  1
  O  O78  1  0.34327300  0.37453700  0.19357100  1
  O  O79  1  0.65672700  0.62546300  0.69357100  1
  O  O80  1  0.49171000  0.99435700  0.56316400  1
  O  O81  1  0.50829000  0.00564300  0.06316400  1
  O  O82  1  0.99435700  0.50829000  0.31316400  1
  O  O83  1  0.00564300  0.49171000  0.81316400  1
  O  O84  1  0.75381600  0.16247300  0.56995700  1
  O  O85  1  0.24618400  0.83752700  0.06995700  1
  O  O86  1  0.16247300  0.24618400  0.31995700  1
  O  O87  1  0.83752700  0.75381600  0.81995700  1
  O  O88  1  0.52817000  0.24340100  0.51669900  1
  O  O89  1  0.47183000  0.75659900  0.01669900  1
  O  O90  1  0.24340100  0.47183000  0.26669900  1
  O  O91  1  0.75659900  0.52817000  0.76669900  1
  O  O92  1  0.70799400  0.99107600  0.50359400  1
  O  O93  1  0.29200600  0.00892400  0.00359400  1
  O  O94  1  0.99107600  0.29200600  0.25359400  1
  O  O95  1  0.00892400  0.70799400  0.75359400  1
  O  O96  1  0.05644100  0.47843500  0.52077800  1
  O  O97  1  0.94355900  0.52156500  0.02077800  1
  O  O98  1  0.47843500  0.94355900  0.27077800  1
  O  O99  1  0.52156500  0.05644100  0.77077800  1
  O  O100  1  0.07196800  0.75421800  0.55964100  1
  O  O101  1  0.92803200  0.24578200  0.05964100  1
  O  O102  1  0.75421800  0.92803200  0.30964100  1
  O  O103  1  0.24578200  0.07196800  0.80964100  1
  O  O104  1  0.81872000  0.57686000  0.56850000  1
  O  O105  1  0.18128000  0.42314000  0.06850000  1
  O  O106  1  0.57686000  0.18128000  0.31850000  1
  O  O107  1  0.42314000  0.81872000  0.81850000  1
  O  O108  1  0.87721400  0.70795700  0.49589100  1
  O  O109  1  0.12278600  0.29204300  0.99589100  1
  O  O110  1  0.70795700  0.12278600  0.24589100  1
  O  O111  1  0.29204300  0.87721400  0.74589100  1
