# generated using pymatgen
data_Mg2Ir3
_symmetry_space_group_name_H-M   'P 1'
_cell_length_a   9.71686192
_cell_length_b   9.71686192
_cell_length_c   8.55842711
_cell_angle_alpha   83.10838629
_cell_angle_beta   83.10838629
_cell_angle_gamma   31.35109850
_symmetry_Int_Tables_number   1
_chemical_formula_structural   Mg2Ir3
_chemical_formula_sum   'Mg10 Ir15'
_cell_volume   417.14282462
_cell_formula_units_Z   5
loop_
 _symmetry_equiv_pos_site_id
 _symmetry_equiv_pos_as_xyz
  1  'x, y, z'
loop_
 _atom_site_type_symbol
 _atom_site_label
 _atom_site_symmetry_multiplicity
 _atom_site_fract_x
 _atom_site_fract_y
 _atom_site_fract_z
 _atom_site_occupancy
  Mg  Mg0  1  0.72038900  0.72038900  0.08575600  1
  Mg  Mg1  1  0.27961100  0.27961100  0.91424400  1
  Mg  Mg2  1  0.44568100  0.44568100  0.38258900  1
  Mg  Mg3  1  0.55431900  0.55431900  0.61741100  1
  Mg  Mg4  1  0.70897400  0.70897400  0.44653000  1
  Mg  Mg5  1  0.29102600  0.29102600  0.55347000  1
  Mg  Mg6  1  0.57747900  0.57747900  0.00782300  1
  Mg  Mg7  1  0.42252100  0.42252100  0.99217700  1
  Mg  Mg8  1  0.97851700  0.97851700  0.18136000  1
  Mg  Mg9  1  0.02148300  0.02148300  0.81864000  1
  Ir  Ir10  1  0.13029400  0.13029400  0.02984900  1
  Ir  Ir11  1  0.86970600  0.86970600  0.97015100  1
  Ir  Ir12  1  0.58164400  0.08325900  0.22711500  1
  Ir  Ir13  1  0.41835600  0.91674100  0.77288500  1
  Ir  Ir14  1  0.91674100  0.41835600  0.77288500  1
  Ir  Ir15  1  0.08325900  0.58164400  0.22711500  1
  Ir  Ir16  1  0.00000000  0.00000000  0.50000000  1
  Ir  Ir17  1  0.78387600  0.78387600  0.74204600  1
  Ir  Ir18  1  0.21612400  0.21612400  0.25795400  1
  Ir  Ir19  1  0.86378000  0.86378000  0.46537700  1
  Ir  Ir20  1  0.13622000  0.13622000  0.53462300  1
  Ir  Ir21  1  0.35707800  0.82480200  0.29805500  1
  Ir  Ir22  1  0.64292200  0.17519800  0.70194500  1
  Ir  Ir23  1  0.17519800  0.64292200  0.70194500  1
  Ir  Ir24  1  0.82480200  0.35707800  0.29805500  1
