# generated using pymatgen
data_Nb4H3S8
_symmetry_space_group_name_H-M   'P 1'
_cell_length_a   3.35740387
_cell_length_b   3.35740387
_cell_length_c   27.08397100
_cell_angle_alpha   90.00000000
_cell_angle_beta   90.00000000
_cell_angle_gamma   119.99999736
_symmetry_Int_Tables_number   1
_chemical_formula_structural   Nb4H3S8
_chemical_formula_sum   'Nb4 H3 S8'
_cell_volume   264.39312359
_cell_formula_units_Z   1
loop_
 _symmetry_equiv_pos_site_id
 _symmetry_equiv_pos_as_xyz
  1  'x, y, z'
loop_
 _atom_site_type_symbol
 _atom_site_label
 _atom_site_symmetry_multiplicity
 _atom_site_fract_x
 _atom_site_fract_y
 _atom_site_fract_z
 _atom_site_occupancy
  Nb  Nb0  1  0.66666700  0.33333300  0.00000000  1
  Nb  Nb1  1  0.66666700  0.33333300  0.50000000  1
  Nb  Nb2  1  0.33333300  0.66666700  0.24967700  1
  Nb  Nb3  1  0.33333300  0.66666700  0.75032300  1
  H  H4  1  0.00000000  0.00000000  0.50000000  1
  H  H5  1  0.00000000  0.00000000  0.24965900  1
  H  H6  1  0.00000000  0.00000000  0.75034100  1
  S  S7  1  0.66666700  0.33333300  0.31049100  1
  S  S8  1  0.66666700  0.33333300  0.81114600  1
  S  S9  1  0.33333300  0.66666700  0.94201700  1
  S  S10  1  0.33333300  0.66666700  0.43921700  1
  S  S11  1  0.33333300  0.66666700  0.05798300  1
  S  S12  1  0.33333300  0.66666700  0.56078300  1
  S  S13  1  0.66666700  0.33333300  0.18885400  1
  S  S14  1  0.66666700  0.33333300  0.68950900  1
