# generated using pymatgen
data_Dy2Si4Mo3
_symmetry_space_group_name_H-M   'P 1'
_cell_length_a   6.92245600
_cell_length_b   6.74778300
_cell_length_c   6.86123535
_cell_angle_alpha   71.14818276
_cell_angle_beta   90.00000000
_cell_angle_gamma   90.00000000
_symmetry_Int_Tables_number   1
_chemical_formula_structural   Dy2Si4Mo3
_chemical_formula_sum   'Dy4 Si8 Mo6'
_cell_volume   303.30447706
_cell_formula_units_Z   2
loop_
 _symmetry_equiv_pos_site_id
 _symmetry_equiv_pos_as_xyz
  1  'x, y, z'
loop_
 _atom_site_type_symbol
 _atom_site_label
 _atom_site_symmetry_multiplicity
 _atom_site_fract_x
 _atom_site_fract_y
 _atom_site_fract_z
 _atom_site_occupancy
  Dy  Dy0  1  0.66883100  0.43928400  0.19060200  1
  Dy  Dy1  1  0.16883100  0.06071600  0.80939800  1
  Dy  Dy2  1  0.33116900  0.56071600  0.80939800  1
  Dy  Dy3  1  0.83116900  0.93928400  0.19060200  1
  Si  Si4  1  0.45546400  0.13104000  0.09078600  1
  Si  Si5  1  0.95546400  0.36896000  0.90921400  1
  Si  Si6  1  0.54453600  0.86896000  0.90921400  1
  Si  Si7  1  0.04453600  0.63104000  0.09078600  1
  Si  Si8  1  0.86792400  0.12928100  0.50491100  1
  Si  Si9  1  0.36792400  0.37071900  0.49508900  1
  Si  Si10  1  0.13207600  0.87071900  0.49508900  1
  Si  Si11  1  0.63207600  0.62928100  0.50491100  1
  Mo  Mo12  1  0.50000000  0.00000000  0.50000000  1
  Mo  Mo13  1  0.00000000  0.50000000  0.50000000  1
  Mo  Mo14  1  0.16263800  0.24975600  0.24895600  1
  Mo  Mo15  1  0.66263800  0.25024400  0.75104400  1
  Mo  Mo16  1  0.83736200  0.75024400  0.75104400  1
  Mo  Mo17  1  0.33736200  0.74975600  0.24895600  1
