# generated using pymatgen
data_Rb3Er(PO4)2
_symmetry_space_group_name_H-M   'P 1'
_cell_length_a   5.70991922
_cell_length_b   5.70995964
_cell_length_c   8.33556400
_cell_angle_alpha   89.99999684
_cell_angle_beta   89.99773567
_cell_angle_gamma   120.00023673
_symmetry_Int_Tables_number   1
_chemical_formula_structural   Rb3Er(PO4)2
_chemical_formula_sum   'Rb3 Er1 P2 O8'
_cell_volume   235.35725422
_cell_formula_units_Z   1
loop_
 _symmetry_equiv_pos_site_id
 _symmetry_equiv_pos_as_xyz
  1  'x, y, z'
loop_
 _atom_site_type_symbol
 _atom_site_label
 _atom_site_symmetry_multiplicity
 _atom_site_fract_x
 _atom_site_fract_y
 _atom_site_fract_z
 _atom_site_occupancy
  Rb  Rb0  1  0.00000000  0.00000000  0.50000000  1
  Rb  Rb1  1  0.66664500  0.33332300  0.74064900  1
  Rb  Rb2  1  0.33335500  0.66667700  0.25935100  1
  Er  Er3  1  0.00000000  0.00000000  0.00000000  1
  P  P4  1  0.66665400  0.33332700  0.21913400  1
  P  P5  1  0.33334600  0.66667300  0.78086600  1
  O  O6  1  0.36889800  0.18444900  0.15533600  1
  O  O7  1  0.81554000  0.18444900  0.15534500  1
  O  O8  1  0.81554000  0.63109100  0.15534500  1
  O  O9  1  0.63110200  0.81555100  0.84466400  1
  O  O10  1  0.18446000  0.81555100  0.84465500  1
  O  O11  1  0.18446000  0.36890900  0.84465500  1
  O  O12  1  0.66662200  0.33331100  0.40330400  1
  O  O13  1  0.33337800  0.66668900  0.59669600  1
