# generated using pymatgen
data_TiAg
_symmetry_space_group_name_H-M   'P 1'
_cell_length_a   2.91873600
_cell_length_b   2.91873600
_cell_length_c   8.27101800
_cell_angle_alpha   90.00000000
_cell_angle_beta   90.00000000
_cell_angle_gamma   90.00000000
_symmetry_Int_Tables_number   1
_chemical_formula_structural   TiAg
_chemical_formula_sum   'Ti2 Ag2'
_cell_volume   70.46096642
_cell_formula_units_Z   2
loop_
 _symmetry_equiv_pos_site_id
 _symmetry_equiv_pos_as_xyz
  1  'x, y, z'
loop_
 _atom_site_type_symbol
 _atom_site_label
 _atom_site_symmetry_multiplicity
 _atom_site_fract_x
 _atom_site_fract_y
 _atom_site_fract_z
 _atom_site_occupancy
  Ti  Ti0  1  0.00000000  0.50000000  0.88628800  1
  Ti  Ti1  1  0.50000000  0.00000000  0.11371200  1
  Ag  Ag2  1  0.00000000  0.50000000  0.37004200  1
  Ag  Ag3  1  0.50000000  0.00000000  0.62995800  1
