# generated using pymatgen
data_Dy5(In2Pt)2
_symmetry_space_group_name_H-M   'P 1'
_cell_length_a   3.62208700
_cell_length_b   8.18794900
_cell_length_c   18.36243500
_cell_angle_alpha   90.00000000
_cell_angle_beta   90.00000000
_cell_angle_gamma   90.00000000
_symmetry_Int_Tables_number   1
_chemical_formula_structural   Dy5(In2Pt)2
_chemical_formula_sum   'Dy10 In8 Pt4'
_cell_volume   544.58324816
_cell_formula_units_Z   2
loop_
 _symmetry_equiv_pos_site_id
 _symmetry_equiv_pos_as_xyz
  1  'x, y, z'
loop_
 _atom_site_type_symbol
 _atom_site_label
 _atom_site_symmetry_multiplicity
 _atom_site_fract_x
 _atom_site_fract_y
 _atom_site_fract_z
 _atom_site_occupancy
  Dy  Dy0  1  0.00000000  0.11563900  0.41375700  1
  Dy  Dy1  1  0.00000000  0.88436100  0.58624300  1
  Dy  Dy2  1  0.00000000  0.38436100  0.91375700  1
  Dy  Dy3  1  0.00000000  0.61563900  0.08624300  1
  Dy  Dy4  1  0.00000000  0.24445700  0.22026200  1
  Dy  Dy5  1  0.00000000  0.75554300  0.77973800  1
  Dy  Dy6  1  0.00000000  0.25554300  0.72026200  1
  Dy  Dy7  1  0.00000000  0.74445700  0.27973800  1
  Dy  Dy8  1  0.00000000  0.00000000  0.00000000  1
  Dy  Dy9  1  0.00000000  0.50000000  0.50000000  1
  In  In10  1  0.50000000  0.42614600  0.35130700  1
  In  In11  1  0.50000000  0.57385400  0.64869300  1
  In  In12  1  0.50000000  0.07385400  0.85130700  1
  In  In13  1  0.50000000  0.92614600  0.14869300  1
  In  In14  1  0.50000000  0.29199600  0.06741700  1
  In  In15  1  0.50000000  0.70800400  0.93258300  1
  In  In16  1  0.50000000  0.20800400  0.56741700  1
  In  In17  1  0.50000000  0.79199600  0.43258300  1
  Pt  Pt18  1  0.50000000  0.02530500  0.30298100  1
  Pt  Pt19  1  0.50000000  0.97469500  0.69701900  1
  Pt  Pt20  1  0.50000000  0.47469500  0.80298100  1
  Pt  Pt21  1  0.50000000  0.52530500  0.19701900  1
