# generated using pymatgen
data_Dy6Al43W4
_symmetry_space_group_name_H-M   'P 1'
_cell_length_a   11.06029350
_cell_length_b   11.06029350
_cell_length_c   17.60830300
_cell_angle_alpha   90.00000000
_cell_angle_beta   90.00000000
_cell_angle_gamma   119.99999701
_symmetry_Int_Tables_number   1
_chemical_formula_structural   Dy6Al43W4
_chemical_formula_sum   'Dy12 Al86 W8'
_cell_volume   1865.44071356
_cell_formula_units_Z   2
loop_
 _symmetry_equiv_pos_site_id
 _symmetry_equiv_pos_as_xyz
  1  'x, y, z'
loop_
 _atom_site_type_symbol
 _atom_site_label
 _atom_site_symmetry_multiplicity
 _atom_site_fract_x
 _atom_site_fract_y
 _atom_site_fract_z
 _atom_site_occupancy
  Dy  Dy0  1  0.46907400  0.46907400  0.90437700  1
  Dy  Dy1  1  0.53092600  0.00000000  0.90437700  1
  Dy  Dy2  1  0.00000000  0.53092600  0.90437700  1
  Dy  Dy3  1  0.53092600  0.53092600  0.09562300  1
  Dy  Dy4  1  0.46907400  0.00000000  0.09562300  1
  Dy  Dy5  1  0.00000000  0.46907400  0.09562300  1
  Dy  Dy6  1  0.53092600  0.53092600  0.40437700  1
  Dy  Dy7  1  0.46907400  0.00000000  0.40437700  1
  Dy  Dy8  1  0.00000000  0.46907400  0.40437700  1
  Dy  Dy9  1  0.46907400  0.46907400  0.59562300  1
  Dy  Dy10  1  0.53092600  0.00000000  0.59562300  1
  Dy  Dy11  1  0.00000000  0.53092600  0.59562300  1
  Al  Al12  1  0.84143200  0.23635300  0.83642300  1
  Al  Al13  1  0.76364700  0.60507900  0.83642300  1
  Al  Al14  1  0.39492100  0.15856800  0.83642300  1
  Al  Al15  1  0.23635300  0.84143200  0.83642300  1
  Al  Al16  1  0.60507900  0.76364700  0.83642300  1
  Al  Al17  1  0.15856800  0.39492100  0.83642300  1
  Al  Al18  1  0.15856800  0.76364700  0.16357700  1
  Al  Al19  1  0.23635300  0.39492100  0.16357700  1
  Al  Al20  1  0.60507900  0.84143200  0.16357700  1
  Al  Al21  1  0.76364700  0.15856800  0.16357700  1
  Al  Al22  1  0.39492100  0.23635300  0.16357700  1
  Al  Al23  1  0.84143200  0.60507900  0.16357700  1
  Al  Al24  1  0.15856800  0.76364700  0.33642300  1
  Al  Al25  1  0.23635300  0.39492100  0.33642300  1
  Al  Al26  1  0.60507900  0.84143200  0.33642300  1
  Al  Al27  1  0.76364700  0.15856800  0.33642300  1
  Al  Al28  1  0.39492100  0.23635300  0.33642300  1
  Al  Al29  1  0.84143200  0.60507900  0.33642300  1
  Al  Al30  1  0.84143200  0.23635300  0.66357700  1
  Al  Al31  1  0.76364700  0.60507900  0.66357700  1
  Al  Al32  1  0.39492100  0.15856800  0.66357700  1
  Al  Al33  1  0.23635300  0.84143200  0.66357700  1
  Al  Al34  1  0.60507900  0.76364700  0.66357700  1
  Al  Al35  1  0.15856800  0.39492100  0.66357700  1
  Al  Al36  1  0.84040000  0.84040000  0.38529100  1
  Al  Al37  1  0.15960000  0.00000000  0.38529100  1
  Al  Al38  1  0.00000000  0.15960000  0.38529100  1
  Al  Al39  1  0.15960000  0.15960000  0.61470900  1
  Al  Al40  1  0.84040000  0.00000000  0.61470900  1
  Al  Al41  1  0.00000000  0.84040000  0.61470900  1
  Al  Al42  1  0.15960000  0.15960000  0.88529100  1
  Al  Al43  1  0.84040000  0.00000000  0.88529100  1
  Al  Al44  1  0.00000000  0.84040000  0.88529100  1
  Al  Al45  1  0.84040000  0.84040000  0.11470900  1
  Al  Al46  1  0.15960000  0.00000000  0.11470900  1
  Al  Al47  1  0.00000000  0.15960000  0.11470900  1
  Al  Al48  1  0.74580000  0.74580000  0.96912900  1
  Al  Al49  1  0.25420000  0.00000000  0.96912900  1
  Al  Al50  1  0.00000000  0.25420000  0.96912900  1
  Al  Al51  1  0.25420000  0.25420000  0.03087100  1
  Al  Al52  1  0.74580000  0.00000000  0.03087100  1
  Al  Al53  1  0.00000000  0.74580000  0.03087100  1
  Al  Al54  1  0.25420000  0.25420000  0.46912900  1
  Al  Al55  1  0.74580000  0.00000000  0.46912900  1
  Al  Al56  1  0.00000000  0.74580000  0.46912900  1
  Al  Al57  1  0.74580000  0.74580000  0.53087100  1
  Al  Al58  1  0.25420000  0.00000000  0.53087100  1
  Al  Al59  1  0.00000000  0.25420000  0.53087100  1
  Al  Al60  1  0.85295500  0.44809700  0.75000000  1
  Al  Al61  1  0.55190300  0.40485800  0.75000000  1
  Al  Al62  1  0.59514200  0.14704500  0.75000000  1
  Al  Al63  1  0.44809700  0.85295500  0.75000000  1
  Al  Al64  1  0.40485800  0.55190300  0.75000000  1
  Al  Al65  1  0.14704500  0.59514200  0.75000000  1
  Al  Al66  1  0.14704500  0.55190300  0.25000000  1
  Al  Al67  1  0.44809700  0.59514200  0.25000000  1
  Al  Al68  1  0.40485800  0.85295500  0.25000000  1
  Al  Al69  1  0.55190300  0.14704500  0.25000000  1
  Al  Al70  1  0.59514200  0.44809700  0.25000000  1
  Al  Al71  1  0.85295500  0.40485800  0.25000000  1
  Al  Al72  1  0.75311400  0.24688600  0.00000000  1
  Al  Al73  1  0.75311400  0.50622700  0.00000000  1
  Al  Al74  1  0.49377300  0.24688600  0.00000000  1
  Al  Al75  1  0.24688600  0.75311400  0.00000000  1
  Al  Al76  1  0.50622700  0.75311400  0.00000000  1
  Al  Al77  1  0.24688600  0.49377300  0.00000000  1
  Al  Al78  1  0.24688600  0.75311400  0.50000000  1
  Al  Al79  1  0.24688600  0.49377300  0.50000000  1
  Al  Al80  1  0.50622700  0.75311400  0.50000000  1
  Al  Al81  1  0.75311400  0.24688600  0.50000000  1
  Al  Al82  1  0.49377300  0.24688600  0.50000000  1
  Al  Al83  1  0.75311400  0.50622700  0.50000000  1
  Al  Al84  1  0.66666700  0.33333300  0.87376000  1
  Al  Al85  1  0.33333300  0.66666700  0.87376000  1
  Al  Al86  1  0.33333300  0.66666700  0.12624000  1
  Al  Al87  1  0.66666700  0.33333300  0.12624000  1
  Al  Al88  1  0.33333300  0.66666700  0.37376000  1
  Al  Al89  1  0.66666700  0.33333300  0.37376000  1
  Al  Al90  1  0.66666700  0.33333300  0.62624000  1
  Al  Al91  1  0.33333300  0.66666700  0.62624000  1
  Al  Al92  1  0.85226300  0.85226300  0.75000000  1
  Al  Al93  1  0.14773700  0.00000000  0.75000000  1
  Al  Al94  1  0.00000000  0.14773700  0.75000000  1
  Al  Al95  1  0.14773700  0.14773700  0.25000000  1
  Al  Al96  1  0.85226300  0.00000000  0.25000000  1
  Al  Al97  1  0.00000000  0.85226300  0.25000000  1
  W  W98  1  0.27071600  0.27071600  0.75000000  1
  W  W99  1  0.72928400  0.00000000  0.75000000  1
  W  W100  1  0.00000000  0.72928400  0.75000000  1
  W  W101  1  0.72928400  0.72928400  0.25000000  1
  W  W102  1  0.27071600  0.00000000  0.25000000  1
  W  W103  1  0.00000000  0.27071600  0.25000000  1
  W  W104  1  0.00000000  0.00000000  0.00000000  1
  W  W105  1  0.00000000  0.00000000  0.50000000  1
