# generated using pymatgen
data_NaMnAsO4
_symmetry_space_group_name_H-M   'P 1'
_cell_length_a   5.24512800
_cell_length_b   6.47898800
_cell_length_c   10.93253300
_cell_angle_alpha   90.00000000
_cell_angle_beta   90.00000000
_cell_angle_gamma   90.00000000
_symmetry_Int_Tables_number   1
_chemical_formula_structural   NaMnAsO4
_chemical_formula_sum   'Na4 Mn4 As4 O16'
_cell_volume   371.52159583
_cell_formula_units_Z   4
loop_
 _symmetry_equiv_pos_site_id
 _symmetry_equiv_pos_as_xyz
  1  'x, y, z'
loop_
 _atom_site_type_symbol
 _atom_site_label
 _atom_site_symmetry_multiplicity
 _atom_site_fract_x
 _atom_site_fract_y
 _atom_site_fract_z
 _atom_site_occupancy
  Na  Na0  1  0.50000000  0.50000000  0.50000000  1
  Na  Na1  1  0.00000000  0.50000000  0.00000000  1
  Na  Na2  1  0.50000000  0.00000000  0.50000000  1
  Na  Na3  1  0.00000000  0.00000000  0.00000000  1
  Mn  Mn4  1  0.49392200  0.25000000  0.21867300  1
  Mn  Mn5  1  0.99392200  0.75000000  0.28132700  1
  Mn  Mn6  1  0.50607800  0.75000000  0.78132700  1
  Mn  Mn7  1  0.00607800  0.25000000  0.71867300  1
  As  As8  1  0.94515700  0.25000000  0.39522900  1
  As  As9  1  0.44515700  0.75000000  0.10477100  1
  As  As10  1  0.05484300  0.75000000  0.60477100  1
  As  As11  1  0.55484300  0.25000000  0.89522900  1
  O  O12  1  0.29778200  0.95699000  0.17785100  1
  O  O13  1  0.79778200  0.04301000  0.32214900  1
  O  O14  1  0.70221800  0.45699000  0.82214900  1
  O  O15  1  0.20221800  0.54301000  0.67785100  1
  O  O16  1  0.70221800  0.04301000  0.82214900  1
  O  O17  1  0.20221800  0.95699000  0.67785100  1
  O  O18  1  0.29778200  0.54301000  0.17785100  1
  O  O19  1  0.79778200  0.45699000  0.32214900  1
  O  O20  1  0.22843500  0.25000000  0.88776700  1
  O  O21  1  0.72843500  0.75000000  0.61223300  1
  O  O22  1  0.77156500  0.75000000  0.11223300  1
  O  O23  1  0.27156500  0.25000000  0.38776700  1
  O  O24  1  0.83266100  0.25000000  0.54422300  1
  O  O25  1  0.33266100  0.75000000  0.95577700  1
  O  O26  1  0.16733900  0.75000000  0.45577700  1
  O  O27  1  0.66733900  0.25000000  0.04422300  1
