# generated using pymatgen
data_La7Pt3
_symmetry_space_group_name_H-M   'P 1'
_cell_length_a   10.35683010
_cell_length_b   10.35683010
_cell_length_c   6.62291900
_cell_angle_alpha   90.00000000
_cell_angle_beta   90.00000000
_cell_angle_gamma   120.00000065
_symmetry_Int_Tables_number   1
_chemical_formula_structural   La7Pt3
_chemical_formula_sum   'La14 Pt6'
_cell_volume   615.22471855
_cell_formula_units_Z   2
loop_
 _symmetry_equiv_pos_site_id
 _symmetry_equiv_pos_as_xyz
  1  'x, y, z'
loop_
 _atom_site_type_symbol
 _atom_site_label
 _atom_site_symmetry_multiplicity
 _atom_site_fract_x
 _atom_site_fract_y
 _atom_site_fract_z
 _atom_site_occupancy
  La  La0  1  0.66666700  0.33333300  0.53827400  1
  La  La1  1  0.33333300  0.66666700  0.03827400  1
  La  La2  1  0.87415700  0.74831400  0.74983300  1
  La  La3  1  0.25168600  0.12584300  0.74983300  1
  La  La4  1  0.87415700  0.12584300  0.74983300  1
  La  La5  1  0.12584300  0.25168600  0.24983300  1
  La  La6  1  0.74831400  0.87415700  0.24983300  1
  La  La7  1  0.12584300  0.87415700  0.24983300  1
  La  La8  1  0.46173400  0.92346800  0.56281500  1
  La  La9  1  0.07653200  0.53826600  0.56281500  1
  La  La10  1  0.46173400  0.53826600  0.56281500  1
  La  La11  1  0.53826600  0.07653200  0.06281500  1
  La  La12  1  0.92346800  0.46173400  0.06281500  1
  La  La13  1  0.53826600  0.46173400  0.06281500  1
  Pt  Pt14  1  0.18827700  0.37655500  0.81034800  1
  Pt  Pt15  1  0.62344500  0.81172300  0.81034800  1
  Pt  Pt16  1  0.18827700  0.81172300  0.81034800  1
  Pt  Pt17  1  0.81172300  0.62344500  0.31034800  1
  Pt  Pt18  1  0.37655500  0.18827700  0.31034800  1
  Pt  Pt19  1  0.81172300  0.18827700  0.31034800  1
