# generated using pymatgen
data_Na2MgScF7
_symmetry_space_group_name_H-M   'P 1'
_cell_length_a   7.49820343
_cell_length_b   7.49820343
_cell_length_c   7.49820343
_cell_angle_alpha   120.95032011
_cell_angle_beta   118.95162388
_cell_angle_gamma   90.09364213
_symmetry_Int_Tables_number   1
_chemical_formula_structural   Na2MgScF7
_chemical_formula_sum   'Na4 Mg2 Sc2 F14'
_cell_volume   298.20360254
_cell_formula_units_Z   2
loop_
 _symmetry_equiv_pos_site_id
 _symmetry_equiv_pos_as_xyz
  1  'x, y, z'
loop_
 _atom_site_type_symbol
 _atom_site_label
 _atom_site_symmetry_multiplicity
 _atom_site_fract_x
 _atom_site_fract_y
 _atom_site_fract_z
 _atom_site_occupancy
  Na  Na0  1  0.50000000  0.50000000  0.00000000  1
  Na  Na1  1  0.00000000  0.00000000  0.00000000  1
  Na  Na2  1  0.00000000  0.50000000  0.00000000  1
  Na  Na3  1  0.00000000  0.00000000  0.50000000  1
  Mg  Mg4  1  0.50000000  0.50000000  0.50000000  1
  Mg  Mg5  1  0.50000000  0.00000000  0.00000000  1
  Sc  Sc6  1  0.00000000  0.50000000  0.50000000  1
  Sc  Sc7  1  0.50000000  0.00000000  0.50000000  1
  F  F8  1  0.86145600  0.59652800  0.26492800  1
  F  F9  1  0.16840100  0.90347200  0.26492800  1
  F  F10  1  0.18300500  0.82325200  0.77131900  1
  F  F11  1  0.44806800  0.67674800  0.35975300  1
  F  F12  1  0.44806800  0.08831500  0.77131900  1
  F  F13  1  0.18300500  0.41168500  0.35975300  1
  F  F14  1  0.81699500  0.58831500  0.64024700  1
  F  F15  1  0.55193200  0.91168500  0.22868100  1
  F  F16  1  0.55193200  0.32325200  0.64024700  1
  F  F17  1  0.81699500  0.17674800  0.22868100  1
  F  F18  1  0.42050600  0.25000000  0.17050600  1
  F  F19  1  0.13854400  0.40347200  0.73507200  1
  F  F20  1  0.83159900  0.09652800  0.73507200  1
  F  F21  1  0.57949400  0.75000000  0.82949400  1
