# generated using pymatgen
data_Ba3CeIr2O9
_symmetry_space_group_name_H-M   'P 1'
_cell_length_a   5.98867279
_cell_length_b   5.98867279
_cell_length_c   14.76048400
_cell_angle_alpha   90.00000000
_cell_angle_beta   90.00000000
_cell_angle_gamma   120.00000874
_symmetry_Int_Tables_number   1
_chemical_formula_structural   Ba3CeIr2O9
_chemical_formula_sum   'Ba6 Ce2 Ir4 O18'
_cell_volume   458.45040560
_cell_formula_units_Z   2
loop_
 _symmetry_equiv_pos_site_id
 _symmetry_equiv_pos_as_xyz
  1  'x, y, z'
loop_
 _atom_site_type_symbol
 _atom_site_label
 _atom_site_symmetry_multiplicity
 _atom_site_fract_x
 _atom_site_fract_y
 _atom_site_fract_z
 _atom_site_occupancy
  Ba  Ba0  1  0.33333300  0.66666700  0.09650000  1
  Ba  Ba1  1  0.66666700  0.33333300  0.90350000  1
  Ba  Ba2  1  0.66666700  0.33333300  0.59650000  1
  Ba  Ba3  1  0.33333300  0.66666700  0.40350000  1
  Ba  Ba4  1  0.00000000  0.00000000  0.25000000  1
  Ba  Ba5  1  0.00000000  0.00000000  0.75000000  1
  Ce  Ce6  1  0.00000000  0.00000000  0.00000000  1
  Ce  Ce7  1  0.00000000  0.00000000  0.50000000  1
  Ir  Ir8  1  0.33333300  0.66666700  0.66492600  1
  Ir  Ir9  1  0.66666700  0.33333300  0.33507400  1
  Ir  Ir10  1  0.66666700  0.33333300  0.16492600  1
  Ir  Ir11  1  0.33333300  0.66666700  0.83507400  1
  O  O12  1  0.50836300  0.01672600  0.25000000  1
  O  O13  1  0.49163700  0.98327400  0.75000000  1
  O  O14  1  0.98327400  0.49163700  0.25000000  1
  O  O15  1  0.01672600  0.50836300  0.75000000  1
  O  O16  1  0.50836300  0.49163700  0.25000000  1
  O  O17  1  0.49163700  0.50836300  0.75000000  1
  O  O18  1  0.17537800  0.35075600  0.58665400  1
  O  O19  1  0.82462200  0.64924400  0.41334600  1
  O  O20  1  0.64924400  0.82462200  0.58665400  1
  O  O21  1  0.82462200  0.64924400  0.08665400  1
  O  O22  1  0.35075600  0.17537800  0.41334600  1
  O  O23  1  0.17537800  0.35075600  0.91334600  1
  O  O24  1  0.17537800  0.82462200  0.58665400  1
  O  O25  1  0.35075600  0.17537800  0.08665400  1
  O  O26  1  0.82462200  0.17537800  0.41334600  1
  O  O27  1  0.64924400  0.82462200  0.91334600  1
  O  O28  1  0.82462200  0.17537800  0.08665400  1
  O  O29  1  0.17537800  0.82462200  0.91334600  1
