# generated using pymatgen
data_KDy(MoO4)2
_symmetry_space_group_name_H-M   'P 1'
_cell_length_a   5.14558900
_cell_length_b   8.13448800
_cell_length_c   18.44763100
_cell_angle_alpha   90.00000000
_cell_angle_beta   90.00000000
_cell_angle_gamma   90.00000000
_symmetry_Int_Tables_number   1
_chemical_formula_structural   KDy(MoO4)2
_chemical_formula_sum   'K4 Dy4 Mo8 O32'
_cell_volume   772.15754631
_cell_formula_units_Z   4
loop_
 _symmetry_equiv_pos_site_id
 _symmetry_equiv_pos_as_xyz
  1  'x, y, z'
loop_
 _atom_site_type_symbol
 _atom_site_label
 _atom_site_symmetry_multiplicity
 _atom_site_fract_x
 _atom_site_fract_y
 _atom_site_fract_z
 _atom_site_occupancy
  K  K0  1  0.00000000  0.75000000  0.76989600  1
  K  K1  1  0.00000000  0.25000000  0.23010400  1
  K  K2  1  0.50000000  0.25000000  0.73010400  1
  K  K3  1  0.50000000  0.75000000  0.26989600  1
  Dy  Dy4  1  0.00000000  0.75000000  0.00596100  1
  Dy  Dy5  1  0.00000000  0.25000000  0.99403900  1
  Dy  Dy6  1  0.50000000  0.25000000  0.49403900  1
  Dy  Dy7  1  0.50000000  0.75000000  0.50596100  1
  Mo  Mo8  1  0.02305600  0.51628000  0.39918500  1
  Mo  Mo9  1  0.97694400  0.48372000  0.60081500  1
  Mo  Mo10  1  0.47694400  0.01628000  0.10081500  1
  Mo  Mo11  1  0.97694400  0.98372000  0.39918500  1
  Mo  Mo12  1  0.52305600  0.98372000  0.89918500  1
  Mo  Mo13  1  0.02305600  0.01628000  0.60081500  1
  Mo  Mo14  1  0.52305600  0.48372000  0.10081500  1
  Mo  Mo15  1  0.47694400  0.51628000  0.89918500  1
  O  O16  1  0.10226100  0.97446700  0.31071800  1
  O  O17  1  0.89773900  0.02553300  0.68928200  1
  O  O18  1  0.39773900  0.47446700  0.18928200  1
  O  O19  1  0.89773900  0.52553300  0.31071800  1
  O  O20  1  0.60226100  0.52553300  0.81071800  1
  O  O21  1  0.10226100  0.47446700  0.68928200  1
  O  O22  1  0.60226100  0.02553300  0.18928200  1
  O  O23  1  0.39773900  0.97446700  0.81071800  1
  O  O24  1  0.26932800  0.83845000  0.09883100  1
  O  O25  1  0.73067200  0.16155000  0.90116900  1
  O  O26  1  0.23067200  0.33845000  0.40116900  1
  O  O27  1  0.73067200  0.66155000  0.09883100  1
  O  O28  1  0.76932800  0.66155000  0.59883100  1
  O  O29  1  0.26932800  0.33845000  0.90116900  1
  O  O30  1  0.76932800  0.16155000  0.40116900  1
  O  O31  1  0.23067200  0.83845000  0.59883100  1
  O  O32  1  0.24878600  0.50433500  0.03492900  1
  O  O33  1  0.75121400  0.49566500  0.96507100  1
  O  O34  1  0.25121400  0.00433500  0.46507100  1
  O  O35  1  0.75121400  0.99566500  0.03492900  1
  O  O36  1  0.74878600  0.99566500  0.53492900  1
  O  O37  1  0.24878600  0.00433500  0.96507100  1
  O  O38  1  0.74878600  0.49566500  0.46507100  1
  O  O39  1  0.25121400  0.50433500  0.53492900  1
  O  O40  1  0.24597300  0.68927200  0.40758600  1
  O  O41  1  0.75402700  0.31072800  0.59241400  1
  O  O42  1  0.25402700  0.18927200  0.09241400  1
  O  O43  1  0.75402700  0.81072800  0.40758600  1
  O  O44  1  0.74597300  0.81072800  0.90758600  1
  O  O45  1  0.24597300  0.18927200  0.59241400  1
  O  O46  1  0.74597300  0.31072800  0.09241400  1
  O  O47  1  0.25402700  0.68927200  0.90758600  1
