# generated using pymatgen
data_SrLaB12
_symmetry_space_group_name_H-M   'P 1'
_cell_length_a   4.17262400
_cell_length_b   4.17262400
_cell_length_c   8.35109000
_cell_angle_alpha   90.00000000
_cell_angle_beta   90.00000000
_cell_angle_gamma   90.00000000
_symmetry_Int_Tables_number   1
_chemical_formula_structural   SrLaB12
_chemical_formula_sum   'Sr1 La1 B12'
_cell_volume   145.39908299
_cell_formula_units_Z   1
loop_
 _symmetry_equiv_pos_site_id
 _symmetry_equiv_pos_as_xyz
  1  'x, y, z'
loop_
 _atom_site_type_symbol
 _atom_site_label
 _atom_site_symmetry_multiplicity
 _atom_site_fract_x
 _atom_site_fract_y
 _atom_site_fract_z
 _atom_site_occupancy
  Sr  Sr0  1  0.00000000  0.00000000  0.50000000  1
  La  La1  1  0.00000000  0.00000000  0.00000000  1
  B  B2  1  0.20129600  0.50000000  0.24966500  1
  B  B3  1  0.20129600  0.50000000  0.75033500  1
  B  B4  1  0.50000000  0.50000000  0.39890900  1
  B  B5  1  0.50000000  0.50000000  0.89962700  1
  B  B6  1  0.50000000  0.20129600  0.24966500  1
  B  B7  1  0.50000000  0.20129600  0.75033500  1
  B  B8  1  0.50000000  0.50000000  0.10037300  1
  B  B9  1  0.50000000  0.50000000  0.60109100  1
  B  B10  1  0.50000000  0.79870400  0.24966500  1
  B  B11  1  0.50000000  0.79870400  0.75033500  1
  B  B12  1  0.79870400  0.50000000  0.24966500  1
  B  B13  1  0.79870400  0.50000000  0.75033500  1
