# generated using pymatgen
data_YbNiAs
_symmetry_space_group_name_H-M   'P 1'
_cell_length_a   4.00513282
_cell_length_b   4.00513282
_cell_length_c   16.18999300
_cell_angle_alpha   90.00000000
_cell_angle_beta   90.00000000
_cell_angle_gamma   120.00001348
_symmetry_Int_Tables_number   1
_chemical_formula_structural   YbNiAs
_chemical_formula_sum   'Yb4 Ni4 As4'
_cell_volume   224.91119792
_cell_formula_units_Z   4
loop_
 _symmetry_equiv_pos_site_id
 _symmetry_equiv_pos_as_xyz
  1  'x, y, z'
loop_
 _atom_site_type_symbol
 _atom_site_label
 _atom_site_symmetry_multiplicity
 _atom_site_fract_x
 _atom_site_fract_y
 _atom_site_fract_z
 _atom_site_occupancy
  Yb  Yb0  1  0.00000000  0.00000000  0.25000000  1
  Yb  Yb1  1  0.00000000  0.00000000  0.75000000  1
  Yb  Yb2  1  0.00000000  0.00000000  0.00000000  1
  Yb  Yb3  1  0.00000000  0.00000000  0.50000000  1
  Ni  Ni4  1  0.33333300  0.66666700  0.12550900  1
  Ni  Ni5  1  0.66666700  0.33333300  0.87449100  1
  Ni  Ni6  1  0.66666700  0.33333300  0.62550900  1
  Ni  Ni7  1  0.33333300  0.66666700  0.37449100  1
  As  As8  1  0.33333300  0.66666700  0.62528400  1
  As  As9  1  0.66666700  0.33333300  0.37471600  1
  As  As10  1  0.66666700  0.33333300  0.12528400  1
  As  As11  1  0.33333300  0.66666700  0.87471600  1
