# generated using pymatgen
data_Y5Ir3
_symmetry_space_group_name_H-M   'P 1'
_cell_length_a   10.94927000
_cell_length_b   10.94927000
_cell_length_c   6.40150200
_cell_angle_alpha   90.00000000
_cell_angle_beta   90.00000000
_cell_angle_gamma   90.00000000
_symmetry_Int_Tables_number   1
_chemical_formula_structural   Y5Ir3
_chemical_formula_sum   'Y20 Ir12'
_cell_volume   767.45375615
_cell_formula_units_Z   4
loop_
 _symmetry_equiv_pos_site_id
 _symmetry_equiv_pos_as_xyz
  1  'x, y, z'
loop_
 _atom_site_type_symbol
 _atom_site_label
 _atom_site_symmetry_multiplicity
 _atom_site_fract_x
 _atom_site_fract_y
 _atom_site_fract_z
 _atom_site_occupancy
  Y  Y0  1  0.29139100  0.08804600  0.37780700  1
  Y  Y1  1  0.29139100  0.91195400  0.87780700  1
  Y  Y2  1  0.70860900  0.08804600  0.87780700  1
  Y  Y3  1  0.70860900  0.91195400  0.37780700  1
  Y  Y4  1  0.58804600  0.79139100  0.87780700  1
  Y  Y5  1  0.58804600  0.20860900  0.37780700  1
  Y  Y6  1  0.41195400  0.79139100  0.37780700  1
  Y  Y7  1  0.41195400  0.20860900  0.87780700  1
  Y  Y8  1  0.20860900  0.41195400  0.62219300  1
  Y  Y9  1  0.20860900  0.58804600  0.12219300  1
  Y  Y10  1  0.79139100  0.41195400  0.12219300  1
  Y  Y11  1  0.79139100  0.58804600  0.62219300  1
  Y  Y12  1  0.91195400  0.70860900  0.12219300  1
  Y  Y13  1  0.91195400  0.29139100  0.62219300  1
  Y  Y14  1  0.08804600  0.70860900  0.62219300  1
  Y  Y15  1  0.08804600  0.29139100  0.12219300  1
  Y  Y16  1  0.00000000  0.00000000  0.50000000  1
  Y  Y17  1  0.00000000  0.00000000  0.00000000  1
  Y  Y18  1  0.50000000  0.50000000  0.00000000  1
  Y  Y19  1  0.50000000  0.50000000  0.50000000  1
  Ir  Ir20  1  0.84666200  0.15333800  0.25000000  1
  Ir  Ir21  1  0.84666200  0.84666200  0.75000000  1
  Ir  Ir22  1  0.15333800  0.15333800  0.75000000  1
  Ir  Ir23  1  0.15333800  0.84666200  0.25000000  1
  Ir  Ir24  1  0.65333800  0.34666200  0.75000000  1
  Ir  Ir25  1  0.65333800  0.65333800  0.25000000  1
  Ir  Ir26  1  0.34666200  0.34666200  0.25000000  1
  Ir  Ir27  1  0.34666200  0.65333800  0.75000000  1
  Ir  Ir28  1  0.50000000  0.00000000  0.12313200  1
  Ir  Ir29  1  0.50000000  0.00000000  0.62313200  1
  Ir  Ir30  1  0.00000000  0.50000000  0.87686800  1
  Ir  Ir31  1  0.00000000  0.50000000  0.37686800  1
