# generated using pymatgen
data_Li3Tm(NO3)6
_symmetry_space_group_name_H-M   'P 1'
_cell_length_a   7.59268900
_cell_length_b   7.84746000
_cell_length_c   25.21931447
_cell_angle_alpha   73.14587590
_cell_angle_beta   90.00000000
_cell_angle_gamma   90.00000000
_symmetry_Int_Tables_number   1
_chemical_formula_structural   Li3Tm(NO3)6
_chemical_formula_sum   'Li12 Tm4 N24 O72'
_cell_volume   1438.10577049
_cell_formula_units_Z   4
loop_
 _symmetry_equiv_pos_site_id
 _symmetry_equiv_pos_as_xyz
  1  'x, y, z'
loop_
 _atom_site_type_symbol
 _atom_site_label
 _atom_site_symmetry_multiplicity
 _atom_site_fract_x
 _atom_site_fract_y
 _atom_site_fract_z
 _atom_site_occupancy
  Li  Li0  1  0.18418900  0.92757000  0.36591200  1
  Li  Li1  1  0.81581100  0.07243000  0.63408800  1
  Li  Li2  1  0.68418900  0.07243000  0.13408800  1
  Li  Li3  1  0.31581100  0.92757000  0.86591200  1
  Li  Li4  1  0.44222600  0.74483000  0.25464300  1
  Li  Li5  1  0.55777400  0.25517000  0.74535700  1
  Li  Li6  1  0.94222600  0.25517000  0.24535700  1
  Li  Li7  1  0.05777400  0.74483000  0.75464300  1
  Li  Li8  1  0.71004900  0.78335400  0.47408000  1
  Li  Li9  1  0.28995100  0.21664600  0.52592000  1
  Li  Li10  1  0.21004900  0.21664600  0.02592000  1
  Li  Li11  1  0.78995100  0.78335400  0.97408000  1
  Tm  Tm12  1  0.69406600  0.36693600  0.39032800  1
  Tm  Tm13  1  0.30593400  0.63306400  0.60967200  1
  Tm  Tm14  1  0.19406600  0.63306400  0.10967200  1
  Tm  Tm15  1  0.80593400  0.36693600  0.89032800  1
  N  N16  1  0.20174300  0.99983600  0.26475700  1
  N  N17  1  0.79825700  0.00016400  0.73524300  1
  N  N18  1  0.70174300  0.00016400  0.23524300  1
  N  N19  1  0.29825700  0.99983600  0.76475700  1
  N  N20  1  0.69803400  0.46868600  0.27045300  1
  N  N21  1  0.30196600  0.53131400  0.72954700  1
  N  N22  1  0.19803400  0.53131400  0.22954700  1
  N  N23  1  0.80196600  0.46868600  0.77045300  1
  N  N24  1  0.50630400  0.80012900  0.05427000  1
  N  N25  1  0.49369600  0.19987100  0.94573000  1
  N  N26  1  0.00630400  0.19987100  0.44573000  1
  N  N27  1  0.99369600  0.80012900  0.55427000  1
  N  N28  1  0.87228400  0.53555500  0.06413500  1
  N  N29  1  0.12771600  0.46444500  0.93586500  1
  N  N30  1  0.37228400  0.46444500  0.43586500  1
  N  N31  1  0.62771600  0.53555500  0.56413500  1
  N  N32  1  0.88517600  0.68025900  0.39343400  1
  N  N33  1  0.11482400  0.31974100  0.60656600  1
  N  N34  1  0.38517600  0.31974100  0.10656600  1
  N  N35  1  0.61482400  0.68025900  0.89343400  1
  N  N36  1  0.99323700  0.95537800  0.09748100  1
  N  N37  1  0.00676300  0.04462200  0.90251900  1
  N  N38  1  0.49323700  0.04462200  0.40251900  1
  N  N39  1  0.50676300  0.95537800  0.59748100  1
  O  O40  1  0.60295700  0.54767900  0.29869600  1
  O  O41  1  0.39704300  0.45232100  0.70130400  1
  O  O42  1  0.10295700  0.45232100  0.20130400  1
  O  O43  1  0.89704300  0.54767900  0.79869600  1
  O  O44  1  0.47514100  0.80442200  0.10347800  1
  O  O45  1  0.52485900  0.19557800  0.89652200  1
  O  O46  1  0.97514100  0.19557800  0.39652200  1
  O  O47  1  0.02485900  0.80442200  0.60347800  1
  O  O48  1  0.39178500  0.72134500  0.03221700  1
  O  O49  1  0.60821500  0.27865500  0.96778300  1
  O  O50  1  0.89178500  0.27865500  0.46778300  1
  O  O51  1  0.10821500  0.72134500  0.53221700  1
  O  O52  1  0.69974200  0.51129300  0.21982500  1
  O  O53  1  0.30025800  0.48870700  0.78017500  1
  O  O54  1  0.19974200  0.48870700  0.28017500  1
  O  O55  1  0.80025800  0.51129300  0.71982500  1
  O  O56  1  0.73648100  0.50063800  0.04241600  1
  O  O57  1  0.26351900  0.49936200  0.95758400  1
  O  O58  1  0.23648100  0.49936200  0.45758400  1
  O  O59  1  0.76351900  0.50063800  0.54241600  1
  O  O60  1  0.95140200  0.80932900  0.13273200  1
  O  O61  1  0.04859800  0.19067100  0.86726800  1
  O  O62  1  0.45140200  0.19067100  0.36726800  1
  O  O63  1  0.54859800  0.80932900  0.63273200  1
  O  O64  1  0.64169800  0.86920300  0.02896300  1
  O  O65  1  0.35830200  0.13079700  0.97103700  1
  O  O66  1  0.14169800  0.13079700  0.47103700  1
  O  O67  1  0.85830200  0.86920300  0.52896300  1
  O  O68  1  0.70361900  0.95879000  0.28658600  1
  O  O69  1  0.29638100  0.04121000  0.71341400  1
  O  O70  1  0.20361900  0.04121000  0.21341400  1
  O  O71  1  0.79638100  0.95879000  0.78658600  1
  O  O72  1  0.36168800  0.95595600  0.57075900  1
  O  O73  1  0.63831200  0.04404400  0.42924100  1
  O  O74  1  0.86168800  0.04404400  0.92924100  1
  O  O75  1  0.13831200  0.95595600  0.07075900  1
  O  O76  1  0.96669500  0.80850600  0.40085700  1
  O  O77  1  0.03330500  0.19149400  0.59914300  1
  O  O78  1  0.46669500  0.19149400  0.09914300  1
  O  O79  1  0.53330500  0.80850600  0.90085700  1
  O  O80  1  0.97916000  0.66076800  0.03566000  1
  O  O81  1  0.02084000  0.33923200  0.96434000  1
  O  O82  1  0.47916000  0.33923200  0.46434000  1
  O  O83  1  0.52084000  0.66076800  0.53566000  1
  O  O84  1  0.91789600  0.45937000  0.11337300  1
  O  O85  1  0.08210400  0.54063000  0.88662700  1
  O  O86  1  0.41789600  0.54063000  0.38662700  1
  O  O87  1  0.58210400  0.45937000  0.61337300  1
  O  O88  1  0.79191300  0.33884600  0.30064400  1
  O  O89  1  0.20808700  0.66115400  0.69935600  1
  O  O90  1  0.29191300  0.66115400  0.19935600  1
  O  O91  1  0.70808700  0.33884600  0.80064400  1
  O  O92  1  0.40185800  0.90772100  0.41193700  1
  O  O93  1  0.59814200  0.09227900  0.58806300  1
  O  O94  1  0.90185800  0.09227900  0.08806300  1
  O  O95  1  0.09814200  0.90772100  0.91193700  1
  O  O96  1  0.93615500  0.58929400  0.36230300  1
  O  O97  1  0.06384500  0.41070600  0.63769700  1
  O  O98  1  0.43615500  0.41070600  0.13769700  1
  O  O99  1  0.56384500  0.58929400  0.86230300  1
  O  O100  1  0.73794000  0.63257900  0.41926000  1
  O  O101  1  0.26206000  0.36742100  0.58074000  1
  O  O102  1  0.23794000  0.36742100  0.08074000  1
  O  O103  1  0.76206000  0.63257900  0.91926000  1
  O  O104  1  0.60858200  0.91471900  0.20884900  1
  O  O105  1  0.39141800  0.08528100  0.79115100  1
  O  O106  1  0.10858200  0.08528100  0.29115100  1
  O  O107  1  0.89141800  0.91471900  0.70884900  1
  O  O108  1  0.29164400  0.86969600  0.29515900  1
  O  O109  1  0.70835600  0.13030400  0.70484100  1
  O  O110  1  0.79164400  0.13030400  0.20484100  1
  O  O111  1  0.20835600  0.86969600  0.79515900  1
