# generated using pymatgen
data_RbSbS2
_symmetry_space_group_name_H-M   'P 1'
_cell_length_a   6.68923100
_cell_length_b   6.73209645
_cell_length_c   12.28329773
_cell_angle_alpha   99.05034247
_cell_angle_beta   100.66654303
_cell_angle_gamma   104.43217724
_symmetry_Int_Tables_number   1
_chemical_formula_structural   RbSbS2
_chemical_formula_sum   'Rb4 Sb4 S8'
_cell_volume   514.26900312
_cell_formula_units_Z   4
loop_
 _symmetry_equiv_pos_site_id
 _symmetry_equiv_pos_as_xyz
  1  'x, y, z'
loop_
 _atom_site_type_symbol
 _atom_site_label
 _atom_site_symmetry_multiplicity
 _atom_site_fract_x
 _atom_site_fract_y
 _atom_site_fract_z
 _atom_site_occupancy
  Rb  Rb0  1  0.56761500  0.32410400  0.15357800  1
  Rb  Rb1  1  0.43238500  0.67589600  0.84642200  1
  Rb  Rb2  1  0.89848100  0.72112200  0.58314600  1
  Rb  Rb3  1  0.10151900  0.27887800  0.41685400  1
  Sb  Sb4  1  0.58562400  0.18190400  0.65141000  1
  Sb  Sb5  1  0.99489500  0.79602900  0.08922000  1
  Sb  Sb6  1  0.00510500  0.20397100  0.91078000  1
  Sb  Sb7  1  0.41437600  0.81809600  0.34859000  1
  S  S8  1  0.97834200  0.83164000  0.86880900  1
  S  S9  1  0.02165800  0.16836000  0.13119100  1
  S  S10  1  0.42837400  0.80364600  0.59009200  1
  S  S11  1  0.37132700  0.80183000  0.12524600  1
  S  S12  1  0.57162600  0.19635400  0.40990800  1
  S  S13  1  0.02742300  0.76803900  0.31929600  1
  S  S14  1  0.97257700  0.23196100  0.68070400  1
  S  S15  1  0.62867300  0.19817000  0.87475400  1
