# generated using pymatgen
data_Rb3Er7S12
_symmetry_space_group_name_H-M   'P 1'
_cell_length_a   3.99389100
_cell_length_b   12.14651200
_cell_length_c   25.03283000
_cell_angle_alpha   90.00000000
_cell_angle_beta   90.00000000
_cell_angle_gamma   90.00000000
_symmetry_Int_Tables_number   1
_chemical_formula_structural   Rb3Er7S12
_chemical_formula_sum   'Rb6 Er14 S24'
_cell_volume   1214.38876782
_cell_formula_units_Z   2
loop_
 _symmetry_equiv_pos_site_id
 _symmetry_equiv_pos_as_xyz
  1  'x, y, z'
loop_
 _atom_site_type_symbol
 _atom_site_label
 _atom_site_symmetry_multiplicity
 _atom_site_fract_x
 _atom_site_fract_y
 _atom_site_fract_z
 _atom_site_occupancy
  Rb  Rb0  1  0.50000000  0.53863900  0.13263600  1
  Rb  Rb1  1  0.50000000  0.95480400  0.86470700  1
  Rb  Rb2  1  0.00000000  0.04519600  0.36470700  1
  Rb  Rb3  1  0.00000000  0.46136100  0.63263600  1
  Rb  Rb4  1  0.50000000  0.81181000  0.47048800  1
  Rb  Rb5  1  0.00000000  0.18819000  0.97048800  1
  Er  Er6  1  0.50000000  0.65479900  0.78900100  1
  Er  Er7  1  0.50000000  0.84578600  0.21076500  1
  Er  Er8  1  0.00000000  0.15421400  0.71076500  1
  Er  Er9  1  0.00000000  0.34520100  0.28900100  1
  Er  Er10  1  0.50000000  0.32375000  0.81785400  1
  Er  Er11  1  0.50000000  0.17940500  0.18075400  1
  Er  Er12  1  0.00000000  0.82059500  0.68075400  1
  Er  Er13  1  0.00000000  0.67625000  0.31785400  1
  Er  Er14  1  0.50000000  0.47302300  0.41911500  1
  Er  Er15  1  0.50000000  0.02750000  0.58279000  1
  Er  Er16  1  0.00000000  0.97250000  0.08279000  1
  Er  Er17  1  0.00000000  0.52697700  0.91911500  1
  Er  Er18  1  0.00000000  0.25048200  0.49998200  1
  Er  Er19  1  0.50000000  0.74951800  0.99998200  1
  S  S20  1  0.50000000  0.37527800  0.92246200  1
  S  S21  1  0.50000000  0.12428000  0.07599900  1
  S  S22  1  0.00000000  0.87572000  0.57599900  1
  S  S23  1  0.00000000  0.62472200  0.42246200  1
  S  S24  1  0.50000000  0.50928800  0.30595400  1
  S  S25  1  0.50000000  0.99104900  0.69433100  1
  S  S26  1  0.00000000  0.00895100  0.19433100  1
  S  S27  1  0.00000000  0.49071200  0.80595400  1
  S  S28  1  0.50000000  0.39853100  0.51892900  1
  S  S29  1  0.50000000  0.09632100  0.48052700  1
  S  S30  1  0.00000000  0.90367900  0.98052700  1
  S  S31  1  0.00000000  0.60146900  0.01892900  1
  S  S32  1  0.50000000  0.29921800  0.71207700  1
  S  S33  1  0.50000000  0.19989100  0.28784700  1
  S  S34  1  0.00000000  0.80010900  0.78784700  1
  S  S35  1  0.00000000  0.70078200  0.21207700  1
  S  S36  1  0.50000000  0.67347300  0.68076800  1
  S  S37  1  0.50000000  0.82699400  0.32159000  1
  S  S38  1  0.00000000  0.17300600  0.82159000  1
  S  S39  1  0.00000000  0.32652700  0.18076800  1
  S  S40  1  0.50000000  0.67485600  0.89771800  1
  S  S41  1  0.50000000  0.82385800  0.10260600  1
  S  S42  1  0.00000000  0.17614200  0.60260600  1
  S  S43  1  0.00000000  0.32514400  0.39771800  1
