# generated using pymatgen
data_Na3LiY3P3CO15F2
_symmetry_space_group_name_H-M   'P 1'
_cell_length_a   11.24797600
_cell_length_b   11.24797600
_cell_length_c   11.24797600
_cell_angle_alpha   90.00000000
_cell_angle_beta   90.00000000
_cell_angle_gamma   90.00000000
_symmetry_Int_Tables_number   1
_chemical_formula_structural   Na3LiY3P3CO15F2
_chemical_formula_sum   'Na12 Li4 Y12 P12 C4 O60 F8'
_cell_volume   1423.05977575
_cell_formula_units_Z   4
loop_
 _symmetry_equiv_pos_site_id
 _symmetry_equiv_pos_as_xyz
  1  'x, y, z'
loop_
 _atom_site_type_symbol
 _atom_site_label
 _atom_site_symmetry_multiplicity
 _atom_site_fract_x
 _atom_site_fract_y
 _atom_site_fract_z
 _atom_site_occupancy
  Na  Na0  1  0.33454100  0.33454100  0.00995300  1
  Na  Na1  1  0.33454100  0.66545900  0.99004700  1
  Na  Na2  1  0.66545900  0.66545900  0.00995300  1
  Na  Na3  1  0.66545900  0.33454100  0.99004700  1
  Na  Na4  1  0.99004700  0.66545900  0.33454100  1
  Na  Na5  1  0.99004700  0.33454100  0.66545900  1
  Na  Na6  1  0.00995300  0.33454100  0.33454100  1
  Na  Na7  1  0.00995300  0.66545900  0.66545900  1
  Na  Na8  1  0.66545900  0.99004700  0.33454100  1
  Na  Na9  1  0.66545900  0.00995300  0.66545900  1
  Na  Na10  1  0.33454100  0.00995300  0.33454100  1
  Na  Na11  1  0.33454100  0.99004700  0.66545900  1
  Li  Li12  1  0.80217500  0.80217500  0.80217500  1
  Li  Li13  1  0.80217500  0.19782500  0.19782500  1
  Li  Li14  1  0.19782500  0.19782500  0.80217500  1
  Li  Li15  1  0.19782500  0.80217500  0.19782500  1
  Y  Y16  1  0.68424500  0.00000000  0.00000000  1
  Y  Y17  1  0.31575500  0.00000000  0.00000000  1
  Y  Y18  1  0.00000000  0.68424500  0.00000000  1
  Y  Y19  1  0.00000000  0.31575500  0.00000000  1
  Y  Y20  1  0.00000000  0.00000000  0.68424500  1
  Y  Y21  1  0.00000000  0.00000000  0.31575500  1
  Y  Y22  1  0.50000000  0.50000000  0.74563400  1
  Y  Y23  1  0.50000000  0.50000000  0.25436600  1
  Y  Y24  1  0.50000000  0.74563400  0.50000000  1
  Y  Y25  1  0.50000000  0.25436600  0.50000000  1
  Y  Y26  1  0.74563400  0.50000000  0.50000000  1
  Y  Y27  1  0.25436600  0.50000000  0.50000000  1
  P  P28  1  0.48487600  0.18625000  0.81375000  1
  P  P29  1  0.48487600  0.81375000  0.18625000  1
  P  P30  1  0.51512400  0.81375000  0.81375000  1
  P  P31  1  0.51512400  0.18625000  0.18625000  1
  P  P32  1  0.81375000  0.51512400  0.81375000  1
  P  P33  1  0.81375000  0.48487600  0.18625000  1
  P  P34  1  0.18625000  0.48487600  0.81375000  1
  P  P35  1  0.18625000  0.51512400  0.18625000  1
  P  P36  1  0.81375000  0.18625000  0.48487600  1
  P  P37  1  0.81375000  0.81375000  0.51512400  1
  P  P38  1  0.18625000  0.81375000  0.48487600  1
  P  P39  1  0.18625000  0.18625000  0.51512400  1
  C  C40  1  0.88274000  0.11726000  0.88274000  1
  C  C41  1  0.88274000  0.88274000  0.11726000  1
  C  C42  1  0.11726000  0.88274000  0.88274000  1
  C  C43  1  0.11726000  0.11726000  0.11726000  1
  O  O44  1  0.14520800  0.35783200  0.85479200  1
  O  O45  1  0.14520800  0.64216800  0.14520800  1
  O  O46  1  0.85479200  0.64216800  0.85479200  1
  O  O47  1  0.85479200  0.35783200  0.14520800  1
  O  O48  1  0.50023000  0.68054800  0.84491200  1
  O  O49  1  0.50023000  0.31945200  0.15508800  1
  O  O50  1  0.49977000  0.31945200  0.84491200  1
  O  O51  1  0.49977000  0.68054800  0.15508800  1
  O  O52  1  0.49977000  0.15508800  0.68054800  1
  O  O53  1  0.49977000  0.84491200  0.31945200  1
  O  O54  1  0.50023000  0.84491200  0.68054800  1
  O  O55  1  0.50023000  0.15508800  0.31945200  1
  O  O56  1  0.84491200  0.50023000  0.68054800  1
  O  O57  1  0.84491200  0.49977000  0.31945200  1
  O  O58  1  0.15508800  0.49977000  0.68054800  1
  O  O59  1  0.15508800  0.50023000  0.31945200  1
  O  O60  1  0.68054800  0.50023000  0.84491200  1
  O  O61  1  0.68054800  0.49977000  0.15508800  1
  O  O62  1  0.31945200  0.49977000  0.84491200  1
  O  O63  1  0.31945200  0.50023000  0.15508800  1
  O  O64  1  0.35783200  0.14520800  0.85479200  1
  O  O65  1  0.35783200  0.85479200  0.14520800  1
  O  O66  1  0.64216800  0.85479200  0.85479200  1
  O  O67  1  0.64216800  0.14520800  0.14520800  1
  O  O68  1  0.88343800  0.41850400  0.88343800  1
  O  O69  1  0.88343800  0.58149600  0.11656200  1
  O  O70  1  0.11656200  0.58149600  0.88343800  1
  O  O71  1  0.11656200  0.41850400  0.11656200  1
  O  O72  1  0.58149600  0.11656200  0.88343800  1
  O  O73  1  0.58149600  0.88343800  0.11656200  1
  O  O74  1  0.41850400  0.88343800  0.88343800  1
  O  O75  1  0.41850400  0.11656200  0.11656200  1
  O  O76  1  0.15508800  0.68054800  0.49977000  1
  O  O77  1  0.15508800  0.31945200  0.50023000  1
  O  O78  1  0.84491200  0.31945200  0.49977000  1
  O  O79  1  0.84491200  0.68054800  0.50023000  1
  O  O80  1  0.68054800  0.15508800  0.49977000  1
  O  O81  1  0.68054800  0.84491200  0.50023000  1
  O  O82  1  0.31945200  0.84491200  0.49977000  1
  O  O83  1  0.31945200  0.15508800  0.50023000  1
  O  O84  1  0.85479200  0.14520800  0.35783200  1
  O  O85  1  0.85479200  0.85479200  0.64216800  1
  O  O86  1  0.14520800  0.85479200  0.35783200  1
  O  O87  1  0.14520800  0.14520800  0.64216800  1
  O  O88  1  0.88343800  0.11656200  0.58149600  1
  O  O89  1  0.88343800  0.88343800  0.41850400  1
  O  O90  1  0.11656200  0.88343800  0.58149600  1
  O  O91  1  0.11656200  0.11656200  0.41850400  1
  O  O92  1  0.83648100  0.83648100  0.02270200  1
  O  O93  1  0.83648100  0.16351900  0.97729800  1
  O  O94  1  0.16351900  0.16351900  0.02270200  1
  O  O95  1  0.16351900  0.83648100  0.97729800  1
  O  O96  1  0.97729800  0.83648100  0.16351900  1
  O  O97  1  0.97729800  0.16351900  0.83648100  1
  O  O98  1  0.02270200  0.16351900  0.16351900  1
  O  O99  1  0.02270200  0.83648100  0.83648100  1
  O  O100  1  0.83648100  0.02270200  0.83648100  1
  O  O101  1  0.83648100  0.97729800  0.16351900  1
  O  O102  1  0.16351900  0.97729800  0.83648100  1
  O  O103  1  0.16351900  0.02270200  0.16351900  1
  F  F104  1  0.61746700  0.61746700  0.61746700  1
  F  F105  1  0.61746700  0.38253300  0.38253300  1
  F  F106  1  0.38253300  0.38253300  0.61746700  1
  F  F107  1  0.38253300  0.61746700  0.38253300  1
  F  F108  1  0.61140700  0.61140700  0.38859300  1
  F  F109  1  0.61140700  0.38859300  0.61140700  1
  F  F110  1  0.38859300  0.38859300  0.38859300  1
  F  F111  1  0.38859300  0.61140700  0.61140700  1
