# generated using pymatgen
data_NbCl2O
_symmetry_space_group_name_H-M   'P 1'
_cell_length_a   7.32490311
_cell_length_b   7.32490311
_cell_length_c   6.76833142
_cell_angle_alpha   76.25426489
_cell_angle_beta   76.25426489
_cell_angle_gamma   31.40836825
_symmetry_Int_Tables_number   1
_chemical_formula_structural   NbCl2O
_chemical_formula_sum   'Nb2 Cl4 O2'
_cell_volume   183.39415422
_cell_formula_units_Z   2
loop_
 _symmetry_equiv_pos_site_id
 _symmetry_equiv_pos_as_xyz
  1  'x, y, z'
loop_
 _atom_site_type_symbol
 _atom_site_label
 _atom_site_symmetry_multiplicity
 _atom_site_fract_x
 _atom_site_fract_y
 _atom_site_fract_z
 _atom_site_occupancy
  Nb  Nb0  1  0.95712000  0.04270200  0.28011700  1
  Nb  Nb1  1  0.95729800  0.04288000  0.71988300  1
  Cl  Cl2  1  0.88572500  0.86738800  0.06302000  1
  Cl  Cl3  1  0.13261200  0.11427500  0.93698000  1
  Cl  Cl4  1  0.85731600  0.85633800  0.57381700  1
  Cl  Cl5  1  0.14366200  0.14268400  0.42618300  1
  O  O6  1  0.49680200  0.50253400  0.27282700  1
  O  O7  1  0.49746600  0.50319800  0.72717300  1
