# generated using pymatgen
data_Ba5Tm2ZrAl2O13
_symmetry_space_group_name_H-M   'P 1'
_cell_length_a   6.00699365
_cell_length_b   6.00699365
_cell_length_c   25.06399500
_cell_angle_alpha   90.00000000
_cell_angle_beta   90.00000000
_cell_angle_gamma   119.99999614
_symmetry_Int_Tables_number   1
_chemical_formula_structural   Ba5Tm2ZrAl2O13
_chemical_formula_sum   'Ba10 Tm4 Zr2 Al4 O26'
_cell_volume   783.24077684
_cell_formula_units_Z   2
loop_
 _symmetry_equiv_pos_site_id
 _symmetry_equiv_pos_as_xyz
  1  'x, y, z'
loop_
 _atom_site_type_symbol
 _atom_site_label
 _atom_site_symmetry_multiplicity
 _atom_site_fract_x
 _atom_site_fract_y
 _atom_site_fract_z
 _atom_site_occupancy
  Ba  Ba0  1  0.33333300  0.66666700  0.54260900  1
  Ba  Ba1  1  0.66666700  0.33333300  0.45739100  1
  Ba  Ba2  1  0.66666700  0.33333300  0.04260900  1
  Ba  Ba3  1  0.33333300  0.66666700  0.95739100  1
  Ba  Ba4  1  0.00000000  0.00000000  0.13842400  1
  Ba  Ba5  1  0.00000000  0.00000000  0.86157600  1
  Ba  Ba6  1  0.00000000  0.00000000  0.63842400  1
  Ba  Ba7  1  0.00000000  0.00000000  0.36157600  1
  Ba  Ba8  1  0.33333300  0.66666700  0.25000000  1
  Ba  Ba9  1  0.66666700  0.33333300  0.75000000  1
  Tm  Tm10  1  0.33333300  0.66666700  0.10376900  1
  Tm  Tm11  1  0.66666700  0.33333300  0.89623100  1
  Tm  Tm12  1  0.66666700  0.33333300  0.60376900  1
  Tm  Tm13  1  0.33333300  0.66666700  0.39623100  1
  Zr  Zr14  1  0.00000000  0.00000000  0.00000000  1
  Zr  Zr15  1  0.00000000  0.00000000  0.50000000  1
  Al  Al16  1  0.33333300  0.66666700  0.68081100  1
  Al  Al17  1  0.66666700  0.33333300  0.31918900  1
  Al  Al18  1  0.66666700  0.33333300  0.18081100  1
  Al  Al19  1  0.33333300  0.66666700  0.81918900  1
  O  O20  1  0.50454200  0.00908400  0.15805700  1
  O  O21  1  0.49545800  0.99091600  0.84194300  1
  O  O22  1  0.99091600  0.49545800  0.15805700  1
  O  O23  1  0.49545800  0.99091600  0.65805700  1
  O  O24  1  0.00908400  0.50454200  0.84194300  1
  O  O25  1  0.50454200  0.00908400  0.34194300  1
  O  O26  1  0.50454200  0.49545800  0.15805700  1
  O  O27  1  0.00908400  0.50454200  0.65805700  1
  O  O28  1  0.49545800  0.50454200  0.84194300  1
  O  O29  1  0.99091600  0.49545800  0.34194300  1
  O  O30  1  0.49545800  0.50454200  0.65805700  1
  O  O31  1  0.50454200  0.49545800  0.34194300  1
  O  O32  1  0.16320900  0.32641900  0.05104500  1
  O  O33  1  0.83679100  0.67358100  0.94895500  1
  O  O34  1  0.67358100  0.83679100  0.05104500  1
  O  O35  1  0.83679100  0.67358100  0.55104500  1
  O  O36  1  0.32641900  0.16320900  0.94895500  1
  O  O37  1  0.16320900  0.32641900  0.44895500  1
  O  O38  1  0.16320900  0.83679100  0.05104500  1
  O  O39  1  0.32641900  0.16320900  0.55104500  1
  O  O40  1  0.83679100  0.16320900  0.94895500  1
  O  O41  1  0.67358100  0.83679100  0.44895500  1
  O  O42  1  0.83679100  0.16320900  0.55104500  1
  O  O43  1  0.16320900  0.83679100  0.44895500  1
  O  O44  1  0.33333300  0.66666700  0.75000000  1
  O  O45  1  0.66666700  0.33333300  0.25000000  1
