# generated using pymatgen
data_Gd3Ge13Ir4
_symmetry_space_group_name_H-M   'P 1'
_cell_length_a   9.07664000
_cell_length_b   9.07664000
_cell_length_c   9.07664000
_cell_angle_alpha   90.00000000
_cell_angle_beta   90.00000000
_cell_angle_gamma   90.00000000
_symmetry_Int_Tables_number   1
_chemical_formula_structural   Gd3Ge13Ir4
_chemical_formula_sum   'Gd6 Ge26 Ir8'
_cell_volume   747.78255978
_cell_formula_units_Z   2
loop_
 _symmetry_equiv_pos_site_id
 _symmetry_equiv_pos_as_xyz
  1  'x, y, z'
loop_
 _atom_site_type_symbol
 _atom_site_label
 _atom_site_symmetry_multiplicity
 _atom_site_fract_x
 _atom_site_fract_y
 _atom_site_fract_z
 _atom_site_occupancy
  Gd  Gd0  1  0.00000000  0.50000000  0.75000000  1
  Gd  Gd1  1  0.50000000  0.25000000  0.00000000  1
  Gd  Gd2  1  0.75000000  0.00000000  0.50000000  1
  Gd  Gd3  1  0.00000000  0.50000000  0.25000000  1
  Gd  Gd4  1  0.50000000  0.75000000  0.00000000  1
  Gd  Gd5  1  0.25000000  0.00000000  0.50000000  1
  Ge  Ge6  1  0.50000000  0.50000000  0.50000000  1
  Ge  Ge7  1  0.00000000  0.00000000  0.00000000  1
  Ge  Ge8  1  0.80813500  0.35418800  0.50000000  1
  Ge  Ge9  1  0.64581200  0.50000000  0.80813500  1
  Ge  Ge10  1  0.50000000  0.19186500  0.64581200  1
  Ge  Ge11  1  0.19186500  0.64581200  0.50000000  1
  Ge  Ge12  1  0.35418800  0.50000000  0.19186500  1
  Ge  Ge13  1  0.50000000  0.80813500  0.35418800  1
  Ge  Ge14  1  0.80813500  0.64581200  0.50000000  1
  Ge  Ge15  1  0.64581200  0.50000000  0.19186500  1
  Ge  Ge16  1  0.19186500  0.35418800  0.50000000  1
  Ge  Ge17  1  0.35418800  0.50000000  0.80813500  1
  Ge  Ge18  1  0.50000000  0.80813500  0.64581200  1
  Ge  Ge19  1  0.50000000  0.19186500  0.35418800  1
  Ge  Ge20  1  0.30813500  0.00000000  0.85418800  1
  Ge  Ge21  1  0.14581200  0.30813500  0.00000000  1
  Ge  Ge22  1  0.00000000  0.14581200  0.69186500  1
  Ge  Ge23  1  0.69186500  0.00000000  0.14581200  1
  Ge  Ge24  1  0.85418800  0.69186500  0.00000000  1
  Ge  Ge25  1  0.00000000  0.85418800  0.30813500  1
  Ge  Ge26  1  0.30813500  0.00000000  0.14581200  1
  Ge  Ge27  1  0.14581200  0.69186500  0.00000000  1
  Ge  Ge28  1  0.69186500  0.00000000  0.85418800  1
  Ge  Ge29  1  0.85418800  0.30813500  0.00000000  1
  Ge  Ge30  1  0.00000000  0.14581200  0.30813500  1
  Ge  Ge31  1  0.00000000  0.85418800  0.69186500  1
  Ir  Ir32  1  0.75000000  0.25000000  0.75000000  1
  Ir  Ir33  1  0.25000000  0.75000000  0.25000000  1
  Ir  Ir34  1  0.75000000  0.75000000  0.25000000  1
  Ir  Ir35  1  0.25000000  0.25000000  0.75000000  1
  Ir  Ir36  1  0.25000000  0.75000000  0.75000000  1
  Ir  Ir37  1  0.75000000  0.25000000  0.25000000  1
  Ir  Ir38  1  0.25000000  0.25000000  0.25000000  1
  Ir  Ir39  1  0.75000000  0.75000000  0.75000000  1
