# generated using pymatgen
data_Al(BiCl)4
_symmetry_space_group_name_H-M   'P 1'
_cell_length_a   18.42966022
_cell_length_b   18.42966022
_cell_length_c   13.42008300
_cell_angle_alpha   90.00000000
_cell_angle_beta   90.00000000
_cell_angle_gamma   120.00000080
_symmetry_Int_Tables_number   1
_chemical_formula_structural   Al(BiCl)4
_chemical_formula_sum   'Al12 Bi48 Cl48'
_cell_volume   3947.48498659
_cell_formula_units_Z   12
loop_
 _symmetry_equiv_pos_site_id
 _symmetry_equiv_pos_as_xyz
  1  'x, y, z'
loop_
 _atom_site_type_symbol
 _atom_site_label
 _atom_site_symmetry_multiplicity
 _atom_site_fract_x
 _atom_site_fract_y
 _atom_site_fract_z
 _atom_site_occupancy
  Al  Al0  1  0.00000000  0.00000000  0.13026100  1
  Al  Al1  1  0.00000000  0.00000000  0.63026100  1
  Al  Al2  1  0.05483800  0.69391400  0.41254700  1
  Al  Al3  1  0.30608600  0.36092400  0.41254700  1
  Al  Al4  1  0.63907600  0.94516200  0.41254700  1
  Al  Al5  1  0.94516200  0.30608600  0.91254700  1
  Al  Al6  1  0.69391400  0.63907600  0.91254700  1
  Al  Al7  1  0.36092400  0.05483800  0.91254700  1
  Al  Al8  1  0.66666700  0.33333300  0.21897100  1
  Al  Al9  1  0.33333300  0.66666700  0.71897100  1
  Al  Al10  1  0.66666700  0.33333300  0.68766700  1
  Al  Al11  1  0.33333300  0.66666700  0.18766700  1
  Bi  Bi12  1  0.05110100  0.31566600  0.55046800  1
  Bi  Bi13  1  0.68433400  0.73543500  0.55046800  1
  Bi  Bi14  1  0.26456500  0.94889900  0.55046800  1
  Bi  Bi15  1  0.94889900  0.68433400  0.05046800  1
  Bi  Bi16  1  0.31566600  0.26456500  0.05046800  1
  Bi  Bi17  1  0.73543500  0.05110100  0.05046800  1
  Bi  Bi18  1  0.95825500  0.42413800  0.28158800  1
  Bi  Bi19  1  0.57586200  0.53411700  0.28158800  1
  Bi  Bi20  1  0.46588300  0.04174500  0.28158800  1
  Bi  Bi21  1  0.04174500  0.57586200  0.78158800  1
  Bi  Bi22  1  0.42413800  0.46588300  0.78158800  1
  Bi  Bi23  1  0.53411700  0.95825500  0.78158800  1
  Bi  Bi24  1  0.85787300  0.23116100  0.27285600  1
  Bi  Bi25  1  0.76883900  0.62671200  0.27285600  1
  Bi  Bi26  1  0.37328800  0.14212700  0.27285600  1
  Bi  Bi27  1  0.14212700  0.76883900  0.77285600  1
  Bi  Bi28  1  0.23116100  0.37328800  0.77285600  1
  Bi  Bi29  1  0.62671200  0.85787300  0.77285600  1
  Bi  Bi30  1  0.85608100  0.22387600  0.50251600  1
  Bi  Bi31  1  0.77612400  0.63220500  0.50251600  1
  Bi  Bi32  1  0.36779500  0.14391900  0.50251600  1
  Bi  Bi33  1  0.14391900  0.77612400  0.00251600  1
  Bi  Bi34  1  0.22387600  0.36779500  0.00251600  1
  Bi  Bi35  1  0.63220500  0.85608100  0.00251600  1
  Bi  Bi36  1  0.05398100  0.32626000  0.22992100  1
  Bi  Bi37  1  0.67374000  0.72772100  0.22992100  1
  Bi  Bi38  1  0.27227900  0.94601900  0.22992100  1
  Bi  Bi39  1  0.94601900  0.67374000  0.72992100  1
  Bi  Bi40  1  0.32626000  0.27227900  0.72992100  1
  Bi  Bi41  1  0.72772100  0.05398100  0.72992100  1
  Bi  Bi42  1  0.12468300  0.46016100  0.39583200  1
  Bi  Bi43  1  0.53983900  0.66452200  0.39583200  1
  Bi  Bi44  1  0.33547800  0.87531700  0.39583200  1
  Bi  Bi45  1  0.87531700  0.53983900  0.89583200  1
  Bi  Bi46  1  0.46016100  0.33547800  0.89583200  1
  Bi  Bi47  1  0.66452200  0.12468300  0.89583200  1
  Bi  Bi48  1  0.95713400  0.41688500  0.51229100  1
  Bi  Bi49  1  0.58311500  0.54024900  0.51229100  1
  Bi  Bi50  1  0.45975100  0.04286600  0.51229100  1
  Bi  Bi51  1  0.04286600  0.58311500  0.01229100  1
  Bi  Bi52  1  0.41688500  0.45975100  0.01229100  1
  Bi  Bi53  1  0.54024900  0.95713400  0.01229100  1
  Bi  Bi54  1  0.98059100  0.18219200  0.38409300  1
  Bi  Bi55  1  0.81780800  0.79840000  0.38409300  1
  Bi  Bi56  1  0.20160000  0.01940900  0.38409300  1
  Bi  Bi57  1  0.01940900  0.81780800  0.88409300  1
  Bi  Bi58  1  0.18219200  0.20160000  0.88409300  1
  Bi  Bi59  1  0.79840000  0.98059100  0.88409300  1
  Cl  Cl60  1  0.78063500  0.44227200  0.16590200  1
  Cl  Cl61  1  0.55772800  0.33836300  0.16590200  1
  Cl  Cl62  1  0.66163700  0.21936500  0.16590200  1
  Cl  Cl63  1  0.21936500  0.55772800  0.66590200  1
  Cl  Cl64  1  0.44227200  0.66163700  0.66590200  1
  Cl  Cl65  1  0.33836300  0.78063500  0.66590200  1
  Cl  Cl66  1  0.93025500  0.58376900  0.40418700  1
  Cl  Cl67  1  0.41623100  0.34648700  0.40418700  1
  Cl  Cl68  1  0.65351300  0.06974500  0.40418700  1
  Cl  Cl69  1  0.06974500  0.41623100  0.90418700  1
  Cl  Cl70  1  0.58376900  0.65351300  0.90418700  1
  Cl  Cl71  1  0.34648700  0.93025500  0.90418700  1
  Cl  Cl72  1  0.78138400  0.44110700  0.63488800  1
  Cl  Cl73  1  0.55889300  0.34027700  0.63488800  1
  Cl  Cl74  1  0.65972300  0.21861600  0.63488800  1
  Cl  Cl75  1  0.21861600  0.55889300  0.13488800  1
  Cl  Cl76  1  0.44110700  0.65972300  0.13488800  1
  Cl  Cl77  1  0.34027700  0.78138400  0.13488800  1
  Cl  Cl78  1  0.12976200  0.67607000  0.52269700  1
  Cl  Cl79  1  0.32393000  0.45369200  0.52269700  1
  Cl  Cl80  1  0.54630800  0.87023800  0.52269700  1
  Cl  Cl81  1  0.87023800  0.32393000  0.02269700  1
  Cl  Cl82  1  0.67607000  0.54630800  0.02269700  1
  Cl  Cl83  1  0.45369200  0.12976200  0.02269700  1
  Cl  Cl84  1  0.88377700  0.29004800  0.77029400  1
  Cl  Cl85  1  0.70995200  0.59372900  0.77029400  1
  Cl  Cl86  1  0.40627100  0.11622300  0.77029400  1
  Cl  Cl87  1  0.11622300  0.70995200  0.27029400  1
  Cl  Cl88  1  0.29004800  0.40627100  0.27029400  1
  Cl  Cl89  1  0.59372900  0.88377700  0.27029400  1
  Cl  Cl90  1  0.66666700  0.33333300  0.84865900  1
  Cl  Cl91  1  0.33333300  0.66666700  0.34865900  1
  Cl  Cl92  1  0.00000000  0.00000000  0.96848800  1
  Cl  Cl93  1  0.00000000  0.00000000  0.46848800  1
  Cl  Cl94  1  0.09841600  0.12001500  0.18365000  1
  Cl  Cl95  1  0.87998500  0.97840100  0.18365000  1
  Cl  Cl96  1  0.02159900  0.90158400  0.18365000  1
  Cl  Cl97  1  0.90158400  0.87998500  0.68365000  1
  Cl  Cl98  1  0.12001500  0.02159900  0.68365000  1
  Cl  Cl99  1  0.97840100  0.09841600  0.68365000  1
  Cl  Cl100  1  0.66666700  0.33333300  0.37854600  1
  Cl  Cl101  1  0.33333300  0.66666700  0.87854600  1
  Cl  Cl102  1  0.03909500  0.79824000  0.45259800  1
  Cl  Cl103  1  0.20176000  0.24085400  0.45259800  1
  Cl  Cl104  1  0.75914600  0.96090500  0.45259800  1
  Cl  Cl105  1  0.96090500  0.20176000  0.95259800  1
  Cl  Cl106  1  0.79824000  0.75914600  0.95259800  1
  Cl  Cl107  1  0.24085400  0.03909500  0.95259800  1
