# generated using pymatgen
data_NdCdPd
_symmetry_space_group_name_H-M   'P 1'
_cell_length_a   7.75522760
_cell_length_b   7.75522760
_cell_length_c   4.03694500
_cell_angle_alpha   90.00000000
_cell_angle_beta   90.00000000
_cell_angle_gamma   119.99999660
_symmetry_Int_Tables_number   1
_chemical_formula_structural   NdCdPd
_chemical_formula_sum   'Nd3 Cd3 Pd3'
_cell_volume   210.26770535
_cell_formula_units_Z   3
loop_
 _symmetry_equiv_pos_site_id
 _symmetry_equiv_pos_as_xyz
  1  'x, y, z'
loop_
 _atom_site_type_symbol
 _atom_site_label
 _atom_site_symmetry_multiplicity
 _atom_site_fract_x
 _atom_site_fract_y
 _atom_site_fract_z
 _atom_site_occupancy
  Nd  Nd0  1  0.59265000  0.00000000  0.00000000  1
  Nd  Nd1  1  0.00000000  0.59265000  0.00000000  1
  Nd  Nd2  1  0.40735000  0.40735000  0.00000000  1
  Cd  Cd3  1  0.25180600  0.00000000  0.50000000  1
  Cd  Cd4  1  0.00000000  0.25180600  0.50000000  1
  Cd  Cd5  1  0.74819400  0.74819400  0.50000000  1
  Pd  Pd6  1  0.33333300  0.66666700  0.50000000  1
  Pd  Pd7  1  0.66666700  0.33333300  0.50000000  1
  Pd  Pd8  1  0.00000000  0.00000000  0.00000000  1
