# generated using pymatgen
data_KMn(PO3)3
_symmetry_space_group_name_H-M   'P 1'
_cell_length_a   6.76044602
_cell_length_b   6.76044602
_cell_length_c   10.18438800
_cell_angle_alpha   90.00000000
_cell_angle_beta   90.00000000
_cell_angle_gamma   120.00000020
_symmetry_Int_Tables_number   1
_chemical_formula_structural   KMn(PO3)3
_chemical_formula_sum   'K2 Mn2 P6 O18'
_cell_volume   403.10321898
_cell_formula_units_Z   2
loop_
 _symmetry_equiv_pos_site_id
 _symmetry_equiv_pos_as_xyz
  1  'x, y, z'
loop_
 _atom_site_type_symbol
 _atom_site_label
 _atom_site_symmetry_multiplicity
 _atom_site_fract_x
 _atom_site_fract_y
 _atom_site_fract_z
 _atom_site_occupancy
  K  K0  1  0.00000000  0.00000000  0.00000000  1
  K  K1  1  0.00000000  0.00000000  0.50000000  1
  Mn  Mn2  1  0.66666700  0.33333300  0.00000000  1
  Mn  Mn3  1  0.66666700  0.33333300  0.50000000  1
  P  P4  1  0.38483000  0.43949300  0.25000000  1
  P  P5  1  0.56050700  0.94533800  0.25000000  1
  P  P6  1  0.38483000  0.94533800  0.75000000  1
  P  P7  1  0.05466200  0.61517000  0.25000000  1
  P  P8  1  0.56050700  0.61517000  0.75000000  1
  P  P9  1  0.05466200  0.43949300  0.75000000  1
  O  O10  1  0.93424000  0.59925700  0.12347100  1
  O  O11  1  0.40074300  0.33498300  0.12347100  1
  O  O12  1  0.93424000  0.59925700  0.37652900  1
  O  O13  1  0.93424000  0.33498300  0.62347100  1
  O  O14  1  0.66501700  0.06576000  0.12347100  1
  O  O15  1  0.40074300  0.33498300  0.37652900  1
  O  O16  1  0.40074300  0.06576000  0.62347100  1
  O  O17  1  0.93424000  0.33498300  0.87652900  1
  O  O18  1  0.66501700  0.06576000  0.37652900  1
  O  O19  1  0.40074300  0.06576000  0.87652900  1
  O  O20  1  0.66501700  0.59925700  0.62347100  1
  O  O21  1  0.66501700  0.59925700  0.87652900  1
  O  O22  1  0.14136400  0.43165900  0.25000000  1
  O  O23  1  0.56834100  0.70970500  0.25000000  1
  O  O24  1  0.14136400  0.70970500  0.75000000  1
  O  O25  1  0.29029500  0.85863600  0.25000000  1
  O  O26  1  0.56834100  0.85863600  0.75000000  1
  O  O27  1  0.29029500  0.43165900  0.75000000  1
