# generated using pymatgen
data_ScSnPt
_symmetry_space_group_name_H-M   'P 1'
_cell_length_a   7.45325820
_cell_length_b   7.45325820
_cell_length_c   7.43038400
_cell_angle_alpha   90.00000000
_cell_angle_beta   90.00000000
_cell_angle_gamma   120.00000178
_symmetry_Int_Tables_number   1
_chemical_formula_structural   ScSnPt
_chemical_formula_sum   'Sc6 Sn6 Pt6'
_cell_volume   357.46556785
_cell_formula_units_Z   6
loop_
 _symmetry_equiv_pos_site_id
 _symmetry_equiv_pos_as_xyz
  1  'x, y, z'
loop_
 _atom_site_type_symbol
 _atom_site_label
 _atom_site_symmetry_multiplicity
 _atom_site_fract_x
 _atom_site_fract_y
 _atom_site_fract_z
 _atom_site_occupancy
  Sc  Sc0  1  0.40458400  0.01801200  0.25000000  1
  Sc  Sc1  1  0.61342800  0.59541600  0.25000000  1
  Sc  Sc2  1  0.98198800  0.38657200  0.25000000  1
  Sc  Sc3  1  0.38657200  0.98198800  0.75000000  1
  Sc  Sc4  1  0.59541600  0.61342800  0.75000000  1
  Sc  Sc5  1  0.01801200  0.40458400  0.75000000  1
  Sn  Sn6  1  0.27260600  0.27260600  0.00000000  1
  Sn  Sn7  1  0.00000000  0.72739400  0.00000000  1
  Sn  Sn8  1  0.00000000  0.72739400  0.50000000  1
  Sn  Sn9  1  0.72739400  0.00000000  0.50000000  1
  Sn  Sn10  1  0.27260600  0.27260600  0.50000000  1
  Sn  Sn11  1  0.72739400  0.00000000  0.00000000  1
  Pt  Pt12  1  0.00000000  0.00000000  0.75000000  1
  Pt  Pt13  1  0.00000000  0.00000000  0.25000000  1
  Pt  Pt14  1  0.66666700  0.33333300  0.96342400  1
  Pt  Pt15  1  0.33333300  0.66666700  0.46342400  1
  Pt  Pt16  1  0.33333300  0.66666700  0.03657600  1
  Pt  Pt17  1  0.66666700  0.33333300  0.53657600  1
