# generated using pymatgen
data_K2Th(NO3)6
_symmetry_space_group_name_H-M   'P 1'
_cell_length_a   13.92749433
_cell_length_b   13.92749433
_cell_length_c   6.77078500
_cell_angle_alpha   90.00000000
_cell_angle_beta   90.00000000
_cell_angle_gamma   120.00000158
_symmetry_Int_Tables_number   1
_chemical_formula_structural   K2Th(NO3)6
_chemical_formula_sum   'K6 Th3 N18 O54'
_cell_volume   1137.40629891
_cell_formula_units_Z   3
loop_
 _symmetry_equiv_pos_site_id
 _symmetry_equiv_pos_as_xyz
  1  'x, y, z'
loop_
 _atom_site_type_symbol
 _atom_site_label
 _atom_site_symmetry_multiplicity
 _atom_site_fract_x
 _atom_site_fract_y
 _atom_site_fract_z
 _atom_site_occupancy
  K  K0  1  0.32503400  0.31783200  0.21919800  1
  K  K1  1  0.67496600  0.68216800  0.78080200  1
  K  K2  1  0.68216800  0.00720200  0.21919800  1
  K  K3  1  0.31783200  0.99279800  0.78080200  1
  K  K4  1  0.99279800  0.67496600  0.21919800  1
  K  K5  1  0.00720200  0.32503400  0.78080200  1
  Th  Th6  1  0.00000000  0.00000000  0.00000000  1
  Th  Th7  1  0.33333300  0.66666700  0.49423200  1
  Th  Th8  1  0.66666700  0.33333300  0.50576800  1
  N  N9  1  0.17888700  0.00642500  0.27202700  1
  N  N10  1  0.82111300  0.99357500  0.72797300  1
  N  N11  1  0.99357500  0.17246100  0.27202700  1
  N  N12  1  0.00642500  0.82753900  0.72797300  1
  N  N13  1  0.82753900  0.82111300  0.27202700  1
  N  N14  1  0.17246100  0.17888700  0.72797300  1
  N  N15  1  0.19851000  0.47043600  0.22250300  1
  N  N16  1  0.80149000  0.52956400  0.77749700  1
  N  N17  1  0.52956400  0.72807400  0.22250300  1
  N  N18  1  0.47043600  0.27192600  0.77749700  1
  N  N19  1  0.27192600  0.80149000  0.22250300  1
  N  N20  1  0.72807400  0.19851000  0.77749700  1
  N  N21  1  0.52043200  0.13566000  0.24390700  1
  N  N22  1  0.47956800  0.86434000  0.75609300  1
  N  N23  1  0.86434000  0.38477200  0.24390700  1
  N  N24  1  0.13566000  0.61522800  0.75609300  1
  N  N25  1  0.61522800  0.47956800  0.24390700  1
  N  N26  1  0.38477200  0.52043200  0.75609300  1
  O  O27  1  0.57762400  0.12717500  0.38723300  1
  O  O28  1  0.42237600  0.87282500  0.61276700  1
  O  O29  1  0.87282500  0.45044800  0.38723300  1
  O  O30  1  0.12717500  0.54955200  0.61276700  1
  O  O31  1  0.54955200  0.42237600  0.38723300  1
  O  O32  1  0.45044800  0.57762400  0.61276700  1
  O  O33  1  0.20280600  0.07159100  0.12054700  1
  O  O34  1  0.79719400  0.92840900  0.87945300  1
  O  O35  1  0.92840900  0.13121500  0.12054700  1
  O  O36  1  0.07159100  0.86878500  0.87945300  1
  O  O37  1  0.86878500  0.79719400  0.12054700  1
  O  O38  1  0.13121500  0.20280600  0.87945300  1
  O  O39  1  0.06562400  0.14117700  0.29094500  1
  O  O40  1  0.93437600  0.85882300  0.70905500  1
  O  O41  1  0.85882300  0.92444700  0.29094500  1
  O  O42  1  0.14117700  0.07555300  0.70905500  1
  O  O43  1  0.07555300  0.93437600  0.29094500  1
  O  O44  1  0.92444700  0.06562400  0.70905500  1
  O  O45  1  0.53032500  0.23187400  0.22325100  1
  O  O46  1  0.46967500  0.76812600  0.77674900  1
  O  O47  1  0.76812600  0.29845200  0.22325100  1
  O  O48  1  0.23187400  0.70154800  0.77674900  1
  O  O49  1  0.70154800  0.46967500  0.22325100  1
  O  O50  1  0.29845200  0.53032500  0.77674900  1
  O  O51  1  0.20153800  0.56250800  0.19770800  1
  O  O52  1  0.79846200  0.43749200  0.80229200  1
  O  O53  1  0.43749200  0.63903000  0.19770800  1
  O  O54  1  0.56250800  0.36097000  0.80229200  1
  O  O55  1  0.36097000  0.79846200  0.19770800  1
  O  O56  1  0.63903000  0.20153800  0.80229200  1
  O  O57  1  0.24928800  0.46338100  0.37755100  1
  O  O58  1  0.75071200  0.53661900  0.62244900  1
  O  O59  1  0.53661900  0.78590700  0.37755100  1
  O  O60  1  0.46338100  0.21409300  0.62244900  1
  O  O61  1  0.21409300  0.75071200  0.37755100  1
  O  O62  1  0.78590700  0.24928800  0.62244900  1
  O  O63  1  0.15201100  0.39168100  0.10700800  1
  O  O64  1  0.84798900  0.60831900  0.89299200  1
  O  O65  1  0.60831900  0.76033000  0.10700800  1
  O  O66  1  0.39168100  0.23967000  0.89299200  1
  O  O67  1  0.23967000  0.84798900  0.10700800  1
  O  O68  1  0.76033000  0.15201100  0.89299200  1
  O  O69  1  0.25026500  0.01388900  0.38685800  1
  O  O70  1  0.74973500  0.98611100  0.61314200  1
  O  O71  1  0.98611100  0.23637600  0.38685800  1
  O  O72  1  0.01388900  0.76362400  0.61314200  1
  O  O73  1  0.76362400  0.74973500  0.38685800  1
  O  O74  1  0.23637600  0.25026500  0.61314200  1
  O  O75  1  0.46176100  0.05706000  0.13645300  1
  O  O76  1  0.53823900  0.94294000  0.86354700  1
  O  O77  1  0.94294000  0.40470200  0.13645300  1
  O  O78  1  0.05706000  0.59529800  0.86354700  1
  O  O79  1  0.59529800  0.53823900  0.13645300  1
  O  O80  1  0.40470200  0.46176100  0.86354700  1
