# generated using pymatgen
data_ErVO4
_symmetry_space_group_name_H-M   'P 1'
_cell_length_a   5.96572486
_cell_length_b   5.96572486
_cell_length_c   5.96572486
_cell_angle_alpha   106.29777433
_cell_angle_beta   106.29777433
_cell_angle_gamma   116.02358913
_symmetry_Int_Tables_number   1
_chemical_formula_structural   ErVO4
_chemical_formula_sum   'Er2 V2 O8'
_cell_volume   161.82250787
_cell_formula_units_Z   2
loop_
 _symmetry_equiv_pos_site_id
 _symmetry_equiv_pos_as_xyz
  1  'x, y, z'
loop_
 _atom_site_type_symbol
 _atom_site_label
 _atom_site_symmetry_multiplicity
 _atom_site_fract_x
 _atom_site_fract_y
 _atom_site_fract_z
 _atom_site_occupancy
  Er  Er0  1  0.00000000  0.00000000  0.00000000  1
  Er  Er1  1  0.25000000  0.75000000  0.50000000  1
  V  V2  1  0.75000000  0.25000000  0.50000000  1
  V  V3  1  0.50000000  0.50000000  0.00000000  1
  O  O4  1  0.32282400  0.13686000  0.81403600  1
  O  O5  1  0.75878800  0.07282400  0.68596400  1
  O  O6  1  0.38686000  0.07282400  0.31403600  1
  O  O7  1  0.32282400  0.50878800  0.18596400  1
  O  O8  1  0.49121200  0.67717600  0.81403600  1
  O  O9  1  0.92717600  0.61314000  0.68596400  1
  O  O10  1  0.92717600  0.24121200  0.31403600  1
  O  O11  1  0.86314000  0.67717600  0.18596400  1
