# generated using pymatgen
data_Na3Pb2S3ClO12
_symmetry_space_group_name_H-M   'P 1'
_cell_length_a   7.14330100
_cell_length_b   10.01665355
_cell_length_c   17.37997986
_cell_angle_alpha   90.17984548
_cell_angle_beta   90.00000000
_cell_angle_gamma   90.00000000
_symmetry_Int_Tables_number   1
_chemical_formula_structural   Na3Pb2S3ClO12
_chemical_formula_sum   'Na12 Pb8 S12 Cl4 O48'
_cell_volume   1243.56569428
_cell_formula_units_Z   4
loop_
 _symmetry_equiv_pos_site_id
 _symmetry_equiv_pos_as_xyz
  1  'x, y, z'
loop_
 _atom_site_type_symbol
 _atom_site_label
 _atom_site_symmetry_multiplicity
 _atom_site_fract_x
 _atom_site_fract_y
 _atom_site_fract_z
 _atom_site_occupancy
  Na  Na0  1  0.74729200  0.73275700  0.00458100  1
  Na  Na1  1  0.24729200  0.26724300  0.99541900  1
  Na  Na2  1  0.75234000  0.63944200  0.63048200  1
  Na  Na3  1  0.25234000  0.36055800  0.36951800  1
  Na  Na4  1  0.50588600  0.50668900  0.83876900  1
  Na  Na5  1  0.00588600  0.49331100  0.16123100  1
  Na  Na6  1  0.49280400  0.49880600  0.16461200  1
  Na  Na7  1  0.99280400  0.50119400  0.83538800  1
  Na  Na8  1  0.49395900  0.99665100  0.66719000  1
  Na  Na9  1  0.99395900  0.00334900  0.33281000  1
  Na  Na10  1  0.50584800  0.00298200  0.33492200  1
  Na  Na11  1  0.00584800  0.99701800  0.66507800  1
  Pb  Pb12  1  0.75436800  0.12957600  0.11934700  1
  Pb  Pb13  1  0.25436800  0.87042400  0.88065300  1
  Pb  Pb14  1  0.74914200  0.61711600  0.37365900  1
  Pb  Pb15  1  0.24914200  0.38288400  0.62634100  1
  Pb  Pb16  1  0.74844800  0.24913100  0.49937900  1
  Pb  Pb17  1  0.24844800  0.75086900  0.50062100  1
  Pb  Pb18  1  0.74888800  0.12460200  0.87455900  1
  Pb  Pb19  1  0.24888800  0.87539800  0.12544100  1
  S  S20  1  0.74964600  0.27853900  0.68949000  1
  S  S21  1  0.24964600  0.72146100  0.31051000  1
  S  S22  1  0.75134200  0.83000200  0.79377800  1
  S  S23  1  0.25134200  0.16999800  0.20622200  1
  S  S24  1  0.75204500  0.32614900  0.29620300  1
  S  S25  1  0.25204500  0.67385100  0.70379700  1
  S  S26  1  0.74911800  0.77530600  0.19371900  1
  S  S27  1  0.24911800  0.22469400  0.80628100  1
  S  S28  1  0.75131100  0.89741700  0.51870000  1
  S  S29  1  0.25131100  0.10258300  0.48130000  1
  S  S30  1  0.74608400  0.39382300  0.01805800  1
  S  S31  1  0.24608400  0.60617700  0.98194200  1
  Cl  Cl32  1  0.52179200  0.98557800  0.00014000  1
  Cl  Cl33  1  0.02179200  0.01442200  0.99986000  1
  Cl  Cl34  1  0.48140900  0.49352500  0.49355900  1
  Cl  Cl35  1  0.98140900  0.50647500  0.50644100  1
  O  O36  1  0.90952700  0.78784100  0.13910700  1
  O  O37  1  0.40952700  0.21215900  0.86089300  1
  O  O38  1  0.07341600  0.22588400  0.85252400  1
  O  O39  1  0.57341600  0.77411600  0.14747600  1
  O  O40  1  0.91808100  0.40183000  0.32638800  1
  O  O41  1  0.41808100  0.59817000  0.67361200  1
  O  O42  1  0.08088300  0.59740100  0.68019700  1
  O  O43  1  0.58088300  0.40259900  0.31980300  1
  O  O44  1  0.92416100  0.82772000  0.54534600  1
  O  O45  1  0.42416100  0.17228000  0.45465400  1
  O  O46  1  0.08693100  0.18481800  0.45752700  1
  O  O47  1  0.58693100  0.81518200  0.54247300  1
  O  O48  1  0.92057100  0.27385200  0.63917600  1
  O  O49  1  0.42057100  0.72614800  0.36082400  1
  O  O50  1  0.08584100  0.71603300  0.36502700  1
  O  O51  1  0.58584100  0.28396700  0.63497300  1
  O  O52  1  0.74809200  0.41444200  0.93343400  1
  O  O53  1  0.24809200  0.58555800  0.06656600  1
  O  O54  1  0.76441100  0.64091600  0.23276800  1
  O  O55  1  0.26441100  0.35908400  0.76723200  1
  O  O56  1  0.75676400  0.82688200  0.70875100  1
  O  O57  1  0.25676400  0.17311800  0.29124900  1
  O  O58  1  0.74933700  0.69545600  0.82808900  1
  O  O59  1  0.24933700  0.30454400  0.17191100  1
  O  O60  1  0.91729600  0.91006400  0.82261600  1
  O  O61  1  0.41729600  0.08993600  0.17738400  1
  O  O62  1  0.08157000  0.08982200  0.18172800  1
  O  O63  1  0.58157000  0.91017800  0.81827200  1
  O  O64  1  0.73912200  0.14867400  0.73211700  1
  O  O65  1  0.23912200  0.85132600  0.26788300  1
  O  O66  1  0.74915100  0.18843300  0.32727300  1
  O  O67  1  0.24915100  0.81156700  0.67272700  1
  O  O68  1  0.74941500  0.88409700  0.25163000  1
  O  O69  1  0.24941500  0.11590300  0.74837000  1
  O  O70  1  0.76099500  0.32447000  0.20974200  1
  O  O71  1  0.26099500  0.67553000  0.79025800  1
  O  O72  1  0.75147900  0.39357000  0.74240500  1
  O  O73  1  0.25147900  0.60643000  0.25759500  1
  O  O74  1  0.91738200  0.31734100  0.04338100  1
  O  O75  1  0.41738200  0.68265900  0.95661900  1
  O  O76  1  0.08007900  0.69053600  0.95907900  1
  O  O77  1  0.58007900  0.30946400  0.04092100  1
  O  O78  1  0.74104300  0.02883800  0.56173800  1
  O  O79  1  0.24104300  0.97116200  0.43826200  1
  O  O80  1  0.73957300  0.52229400  0.06067900  1
  O  O81  1  0.23957300  0.47770600  0.93932100  1
  O  O82  1  0.75316300  0.91985200  0.43445000  1
  O  O83  1  0.25316300  0.08014800  0.56555000  1
