# generated using pymatgen
data_MgPd2
_symmetry_space_group_name_H-M   'P 1'
_cell_length_a   4.19382400
_cell_length_b   5.52573900
_cell_length_c   8.19361600
_cell_angle_alpha   90.00000000
_cell_angle_beta   90.00000000
_cell_angle_gamma   90.00000000
_symmetry_Int_Tables_number   1
_chemical_formula_structural   MgPd2
_chemical_formula_sum   'Mg4 Pd8'
_cell_volume   189.87866739
_cell_formula_units_Z   4
loop_
 _symmetry_equiv_pos_site_id
 _symmetry_equiv_pos_as_xyz
  1  'x, y, z'
loop_
 _atom_site_type_symbol
 _atom_site_label
 _atom_site_symmetry_multiplicity
 _atom_site_fract_x
 _atom_site_fract_y
 _atom_site_fract_z
 _atom_site_occupancy
  Mg  Mg0  1  0.75000000  0.16746500  0.40193200  1
  Mg  Mg1  1  0.25000000  0.83253500  0.59806800  1
  Mg  Mg2  1  0.75000000  0.66746500  0.09806800  1
  Mg  Mg3  1  0.25000000  0.33253500  0.90193200  1
  Pd  Pd4  1  0.75000000  0.15786100  0.07287700  1
  Pd  Pd5  1  0.25000000  0.84213900  0.92712300  1
  Pd  Pd6  1  0.75000000  0.65786100  0.42712300  1
  Pd  Pd7  1  0.25000000  0.34213900  0.57287700  1
  Pd  Pd8  1  0.75000000  0.07019500  0.73617200  1
  Pd  Pd9  1  0.25000000  0.92980500  0.26382800  1
  Pd  Pd10  1  0.75000000  0.57019500  0.76382800  1
  Pd  Pd11  1  0.25000000  0.42980500  0.23617200  1
