# generated using pymatgen
data_Si2Ni3H4O9
_symmetry_space_group_name_H-M   'P 1'
_cell_length_a   5.34707853
_cell_length_b   5.34707853
_cell_length_c   7.47099900
_cell_angle_alpha   90.00000000
_cell_angle_beta   90.00000000
_cell_angle_gamma   120.00000660
_symmetry_Int_Tables_number   1
_chemical_formula_structural   Si2Ni3H4O9
_chemical_formula_sum   'Si2 Ni3 H4 O9'
_cell_volume   184.98750993
_cell_formula_units_Z   1
loop_
 _symmetry_equiv_pos_site_id
 _symmetry_equiv_pos_as_xyz
  1  'x, y, z'
loop_
 _atom_site_type_symbol
 _atom_site_label
 _atom_site_symmetry_multiplicity
 _atom_site_fract_x
 _atom_site_fract_y
 _atom_site_fract_z
 _atom_site_occupancy
  Si  Si0  1  0.33333300  0.66666700  0.10345600  1
  Si  Si1  1  0.66666700  0.33333300  0.10345600  1
  Ni  Ni2  1  0.33233600  0.00000000  0.72966100  1
  Ni  Ni3  1  0.00000000  0.33233600  0.72966100  1
  Ni  Ni4  1  0.66766400  0.66766400  0.72966100  1
  H  H5  1  0.64974900  0.00000000  0.46834700  1
  H  H6  1  0.00000000  0.64974900  0.46834700  1
  H  H7  1  0.35025100  0.35025100  0.46834700  1
  H  H8  1  0.00000000  0.00000000  0.99998200  1
  O  O9  1  0.33333300  0.66666700  0.88756400  1
  O  O10  1  0.66666700  0.33333300  0.88756400  1
  O  O11  1  0.66312000  0.00000000  0.59828700  1
  O  O12  1  0.00000000  0.66312000  0.59828700  1
  O  O13  1  0.33688000  0.33688000  0.59828700  1
  O  O14  1  0.48641200  0.48641200  0.18547200  1
  O  O15  1  0.51358800  0.00000000  0.18547200  1
  O  O16  1  0.00000000  0.51358800  0.18547200  1
  O  O17  1  0.00000000  0.00000000  0.87004700  1
