# generated using pymatgen
data_SmNb6Cl13O3
_symmetry_space_group_name_H-M   'P 1'
_cell_length_a   9.52587422
_cell_length_b   9.52587422
_cell_length_c   28.21530698
_cell_angle_alpha   99.71845327
_cell_angle_beta   99.71845327
_cell_angle_gamma   90.00000000
_symmetry_Int_Tables_number   1
_chemical_formula_structural   SmNb6Cl13O3
_chemical_formula_sum   'Sm4 Nb24 Cl52 O12'
_cell_volume   2486.29278561
_cell_formula_units_Z   4
loop_
 _symmetry_equiv_pos_site_id
 _symmetry_equiv_pos_as_xyz
  1  'x, y, z'
loop_
 _atom_site_type_symbol
 _atom_site_label
 _atom_site_symmetry_multiplicity
 _atom_site_fract_x
 _atom_site_fract_y
 _atom_site_fract_z
 _atom_site_occupancy
  Sm  Sm0  1  0.09448087  0.09448087  0.18896173  1
  Sm  Sm1  1  0.34448087  0.84448087  0.68896173  1
  Sm  Sm2  1  0.15551913  0.65551913  0.31103827  1
  Sm  Sm3  1  0.90551913  0.90551913  0.81103827  1
  Nb  Nb4  1  0.35479742  0.29725100  0.43209504  1
  Nb  Nb5  1  0.07729763  0.13484404  0.43209504  1
  Nb  Nb6  1  0.38484404  0.10479742  0.93209504  1
  Nb  Nb7  1  0.89520258  0.61515596  0.06790496  1
  Nb  Nb8  1  0.54725100  0.82729763  0.93209504  1
  Nb  Nb9  1  0.17270237  0.45274900  0.06790496  1
  Nb  Nb10  1  0.86515596  0.92270237  0.56790496  1
  Nb  Nb11  1  0.70274900  0.64520258  0.56790496  1
  Nb  Nb12  1  0.17730242  0.74710185  0.12461314  1
  Nb  Nb13  1  0.94731072  0.37751129  0.12461314  1
  Nb  Nb14  1  0.62751129  0.92730242  0.62461314  1
  Nb  Nb15  1  0.07269758  0.37248871  0.37538686  1
  Nb  Nb16  1  0.99710185  0.69731072  0.62461314  1
  Nb  Nb17  1  0.30268928  0.00289815  0.37538686  1
  Nb  Nb18  1  0.62248871  0.05268928  0.87538686  1
  Nb  Nb19  1  0.25289815  0.82269758  0.87538686  1
  Nb  Nb20  1  0.28336468  0.24993640  0.32239096  1
  Nb  Nb21  1  0.03902628  0.07245457  0.32239096  1
  Nb  Nb22  1  0.32245457  0.03336468  0.82239096  1
  Nb  Nb23  1  0.96663532  0.67754543  0.17760904  1
  Nb  Nb24  1  0.49993640  0.78902628  0.82239096  1
  Nb  Nb25  1  0.21097372  0.50006360  0.17760904  1
  Nb  Nb26  1  0.92754543  0.96097372  0.67760904  1
  Nb  Nb27  1  0.75006360  0.71663532  0.67760904  1
  Cl  Cl28  1  0.37162525  0.37500000  0.25000000  1
  Cl  Cl29  1  0.87837475  0.87500000  0.25000000  1
  Cl  Cl30  1  0.12500000  0.12162525  0.75000000  1
  Cl  Cl31  1  0.62500000  0.62837475  0.75000000  1
  Cl  Cl32  1  0.49666110  0.37688271  0.37580288  1
  Cl  Cl33  1  0.87914178  0.99892017  0.37580288  1
  Cl  Cl34  1  0.24892017  0.24666110  0.87580288  1
  Cl  Cl35  1  0.75333890  0.75107983  0.12419712  1
  Cl  Cl36  1  0.62688271  0.62914178  0.87580288  1
  Cl  Cl37  1  0.37085822  0.37311729  0.12419712  1
  Cl  Cl38  1  0.00107983  0.12085822  0.62419712  1
  Cl  Cl39  1  0.62311729  0.50333890  0.62419712  1
  Cl  Cl40  1  0.38108229  0.70956975  0.18925044  1
  Cl  Cl41  1  0.80816816  0.47968069  0.18925044  1
  Cl  Cl42  1  0.72968069  0.13108229  0.68925044  1
  Cl  Cl43  1  0.86891771  0.27031931  0.31074956  1
  Cl  Cl44  1  0.95956975  0.55816816  0.68925044  1
  Cl  Cl45  1  0.44183184  0.04043025  0.31074956  1
  Cl  Cl46  1  0.52031931  0.19183184  0.81074956  1
  Cl  Cl47  1  0.29043025  0.61891771  0.81074956  1
  Cl  Cl48  1  0.05104368  0.22043644  0.06065676  1
  Cl  Cl49  1  0.00961309  0.84022033  0.06065676  1
  Cl  Cl50  1  0.09022033  0.80104368  0.56065676  1
  Cl  Cl51  1  0.19895632  0.90977967  0.43934324  1
  Cl  Cl52  1  0.47043644  0.75961309  0.56065676  1
  Cl  Cl53  1  0.24038691  0.52956356  0.43934324  1
  Cl  Cl54  1  0.15977967  0.99038691  0.93934324  1
  Cl  Cl55  1  0.77956356  0.94895632  0.93934324  1
  Cl  Cl56  1  0.32463919  0.65700132  0.06234663  1
  Cl  Cl57  1  0.73770744  0.40534532  0.06234663  1
  Cl  Cl58  1  0.65534532  0.07463919  0.56234663  1
  Cl  Cl59  1  0.92536081  0.34465468  0.43765337  1
  Cl  Cl60  1  0.90700132  0.48770744  0.56234663  1
  Cl  Cl61  1  0.51229256  0.09299868  0.43765337  1
  Cl  Cl62  1  0.59465468  0.26229256  0.93765337  1
  Cl  Cl63  1  0.34299868  0.67536081  0.93765337  1
  Cl  Cl64  1  0.31925568  0.31925568  0.00000000  1
  Cl  Cl65  1  0.68074432  0.68074432  1.00000000  1
  Cl  Cl66  1  0.93074432  0.06925568  0.50000000  1
  Cl  Cl67  1  0.56925568  0.43074432  0.50000000  1
  Cl  Cl68  1  0.25117090  0.25117090  0.50234180  1
  Cl  Cl69  1  0.50117090  0.00117090  0.00234180  1
  Cl  Cl70  1  0.99882910  0.49882910  0.99765820  1
  Cl  Cl71  1  0.74882910  0.74882910  0.49765820  1
  Cl  Cl72  1  0.41529149  0.74769854  0.36155502  1
  Cl  Cl73  1  0.94626353  0.61385648  0.36155502  1
  Cl  Cl74  1  0.86385648  0.16529149  0.86155502  1
  Cl  Cl75  1  0.83470851  0.13614352  0.13844498  1
  Cl  Cl76  1  0.99769854  0.69626353  0.86155502  1
  Cl  Cl77  1  0.30373647  0.00230146  0.13844498  1
  Cl  Cl78  1  0.38614352  0.05373647  0.63844498  1
  Cl  Cl79  1  0.25230146  0.58470851  0.63844498  1
  O  O80  1  0.10030062  0.32189001  0.17533183  1
  O  O81  1  0.07503120  0.85344182  0.17533183  1
  O  O82  1  0.10344182  0.85030062  0.67533183  1
  O  O83  1  0.14969938  0.89655818  0.32466817  1
  O  O84  1  0.57189001  0.82503120  0.67533183  1
  O  O85  1  0.17496880  0.42810999  0.32466817  1
  O  O86  1  0.14655818  0.92496880  0.82466817  1
  O  O87  1  0.67810999  0.89969938  0.82466817  1
  O  O88  1  0.13495980  0.13495980  0.26991960  1
  O  O89  1  0.38495980  0.88495980  0.76991960  1
  O  O90  1  0.11504020  0.61504020  0.23008040  1
  O  O91  1  0.86504020  0.86504020  0.73008040  1
