# generated using pymatgen
data_Lu20Os5I24
_symmetry_space_group_name_H-M   'P 1'
_cell_length_a   11.91830800
_cell_length_b   12.71154951
_cell_length_c   14.31055959
_cell_angle_alpha   99.77306950
_cell_angle_beta   107.72511184
_cell_angle_gamma   109.10491541
_symmetry_Int_Tables_number   1
_chemical_formula_structural   Lu20Os5I24
_chemical_formula_sum   'Lu20 Os5 I24'
_cell_volume   1861.92918346
_cell_formula_units_Z   1
loop_
 _symmetry_equiv_pos_site_id
 _symmetry_equiv_pos_as_xyz
  1  'x, y, z'
loop_
 _atom_site_type_symbol
 _atom_site_label
 _atom_site_symmetry_multiplicity
 _atom_site_fract_x
 _atom_site_fract_y
 _atom_site_fract_z
 _atom_site_occupancy
  Lu  Lu0  1  0.49558800  0.02423000  0.70560200  1
  Lu  Lu1  1  0.50441200  0.97577000  0.29439800  1
  Lu  Lu2  1  0.73451800  0.99903100  0.64241000  1
  Lu  Lu3  1  0.26548200  0.00096900  0.35759000  1
  Lu  Lu4  1  0.81409300  0.16655800  0.89789600  1
  Lu  Lu5  1  0.18590700  0.83344200  0.10210400  1
  Lu  Lu6  1  0.48244700  0.22036000  0.57673200  1
  Lu  Lu7  1  0.51755300  0.77964000  0.42326800  1
  Lu  Lu8  1  0.72153000  0.19624100  0.51421000  1
  Lu  Lu9  1  0.27847000  0.80375900  0.48579000  1
  Lu  Lu10  1  0.79702100  0.44766500  0.71546300  1
  Lu  Lu11  1  0.20297900  0.55233500  0.28453700  1
  Lu  Lu12  1  0.97442700  0.28949300  0.76147000  1
  Lu  Lu13  1  0.02557300  0.71050700  0.23853000  1
  Lu  Lu14  1  0.63632000  0.32501700  0.85075900  1
  Lu  Lu15  1  0.36368000  0.67498300  0.14924100  1
  Lu  Lu16  1  0.11477300  0.58738300  0.90431900  1
  Lu  Lu17  1  0.88522700  0.41261700  0.09568100  1
  Lu  Lu18  1  0.87378800  0.61315700  0.96902600  1
  Lu  Lu19  1  0.12621200  0.38684300  0.03097400  1
  Os  Os20  1  0.50000000  0.00000000  0.50000000  1
  Os  Os21  1  0.70778600  0.20991400  0.70922800  1
  Os  Os22  1  0.29221400  0.79008600  0.29077200  1
  Os  Os23  1  0.90382200  0.40540300  0.90431400  1
  Os  Os24  1  0.09617800  0.59459700  0.09568600  1
  I  I25  1  0.26257200  0.82255300  0.69690900  1
  I  I26  1  0.73742800  0.17744700  0.30309100  1
  I  I27  1  0.76171100  0.77205800  0.56707600  1
  I  I28  1  0.23828900  0.22794200  0.43292400  1
  I  I29  1  0.66205300  0.89597200  0.81287200  1
  I  I30  1  0.33794700  0.10402800  0.18712800  1
  I  I31  1  0.33929700  0.17964800  0.72732200  1
  I  I32  1  0.66070300  0.82035200  0.27267800  1
  I  I33  1  0.95017300  0.11825000  0.56567600  1
  I  I34  1  0.04982700  0.88175000  0.43432400  1
  I  I35  1  0.63087900  0.39850300  0.48365000  1
  I  I36  1  0.36912100  0.60149700  0.51635000  1
  I  I37  1  0.05269400  0.12302200  0.88098100  1
  I  I38  1  0.94730600  0.87697800  0.11901900  1
  I  I39  1  0.60776100  0.16551400  0.99122900  1
  I  I40  1  0.39223900  0.83448600  0.00877100  1
  I  I41  1  0.00443900  0.23764800  0.15385900  1
  I  I42  1  0.99556100  0.76235200  0.84614100  1
  I  I43  1  0.30547700  0.46697200  0.91328000  1
  I  I44  1  0.69452300  0.53302800  0.08672000  1
  I  I45  1  0.02767700  0.47837500  0.64842000  1
  I  I46  1  0.97232300  0.52162500  0.35158000  1
  I  I47  1  0.59884400  0.53048300  0.77020800  1
  I  I48  1  0.40115600  0.46951700  0.22979200  1
