# generated using pymatgen
data_HoP5O14
_symmetry_space_group_name_H-M   'P 1'
_cell_length_a   9.19208028
_cell_length_b   9.19208028
_cell_length_c   12.57842551
_cell_angle_alpha   88.89024626
_cell_angle_beta   88.89024626
_cell_angle_gamma   89.58905121
_symmetry_Int_Tables_number   1
_chemical_formula_structural   HoP5O14
_chemical_formula_sum   'Ho4 P20 O56'
_cell_volume   1062.38253322
_cell_formula_units_Z   4
loop_
 _symmetry_equiv_pos_site_id
 _symmetry_equiv_pos_as_xyz
  1  'x, y, z'
loop_
 _atom_site_type_symbol
 _atom_site_label
 _atom_site_symmetry_multiplicity
 _atom_site_fract_x
 _atom_site_fract_y
 _atom_site_fract_z
 _atom_site_occupancy
  Ho  Ho0  1  0.47949700  0.52050300  0.25000000  1
  Ho  Ho1  1  0.52050300  0.47949700  0.75000000  1
  Ho  Ho2  1  0.03383100  0.96616900  0.25000000  1
  Ho  Ho3  1  0.96616900  0.03383100  0.75000000  1
  P  P4  1  0.61580000  0.67584200  0.49872000  1
  P  P5  1  0.32415800  0.38420000  0.00128000  1
  P  P6  1  0.38420000  0.32415800  0.50128000  1
  P  P7  1  0.67584200  0.61580000  0.99872000  1
  P  P8  1  0.52207100  0.18236600  0.10706400  1
  P  P9  1  0.81763400  0.47792900  0.39293600  1
  P  P10  1  0.47792900  0.81763400  0.89293600  1
  P  P11  1  0.18236600  0.52207100  0.60706400  1
  P  P12  1  0.82768600  0.12630700  0.03413600  1
  P  P13  1  0.87369300  0.17231400  0.46586400  1
  P  P14  1  0.17231400  0.87369300  0.96586400  1
  P  P15  1  0.12630700  0.82768600  0.53413600  1
  P  P16  1  0.68335300  0.95089600  0.39012900  1
  P  P17  1  0.04910400  0.31664700  0.10987100  1
  P  P18  1  0.31664700  0.04910400  0.60987100  1
  P  P19  1  0.95089600  0.68335300  0.89012900  1
  P  P20  1  0.42951100  0.92417900  0.24191000  1
  P  P21  1  0.07582100  0.57048900  0.25809000  1
  P  P22  1  0.57048900  0.07582100  0.75809000  1
  P  P23  1  0.92417900  0.42951100  0.74191000  1
  O  O24  1  0.57889000  0.64591300  0.61190700  1
  O  O25  1  0.35408700  0.42111000  0.88809300  1
  O  O26  1  0.42111000  0.35408700  0.38809300  1
  O  O27  1  0.64591300  0.57889000  0.11190700  1
  O  O28  1  0.51543000  0.64095500  0.41109900  1
  O  O29  1  0.35904500  0.48457000  0.08890100  1
  O  O30  1  0.48457000  0.35904500  0.58890100  1
  O  O31  1  0.64095500  0.51543000  0.91109900  1
  O  O32  1  0.53784200  0.28203000  0.19644500  1
  O  O33  1  0.71797000  0.46215800  0.30355500  1
  O  O34  1  0.46215800  0.71797000  0.80355500  1
  O  O35  1  0.28203000  0.53784200  0.69644500  1
  O  O36  1  0.87094500  0.07905600  0.92613300  1
  O  O37  1  0.92094400  0.12905500  0.57386700  1
  O  O38  1  0.12905500  0.92094400  0.07386700  1
  O  O39  1  0.07905600  0.87094500  0.42613300  1
  O  O40  1  0.85001400  0.03422100  0.13164000  1
  O  O41  1  0.96577900  0.14998600  0.36836000  1
  O  O42  1  0.14998600  0.96577900  0.86836000  1
  O  O43  1  0.28052000  0.97704000  0.26894300  1
  O  O44  1  0.03422100  0.85001400  0.63164000  1
  O  O45  1  0.10401700  0.20033500  0.18123300  1
  O  O46  1  0.20033500  0.10401700  0.68123300  1
  O  O47  1  0.89598300  0.79966500  0.81876700  1
  O  O48  1  0.97998300  0.53089600  0.83833600  1
  O  O49  1  0.46910400  0.02001700  0.66166400  1
  O  O50  1  0.02001700  0.46910400  0.16166400  1
  O  O51  1  0.53089600  0.97998300  0.33833600  1
  O  O52  1  0.01794500  0.49686600  0.64005100  1
  O  O53  1  0.50313400  0.98205500  0.85994900  1
  O  O54  1  0.98205500  0.50313400  0.35994900  1
  O  O55  1  0.49686600  0.01794500  0.14005100  1
  O  O56  1  0.28828600  0.89797100  0.55607900  1
  O  O57  1  0.10202900  0.71171400  0.94392100  1
  O  O58  1  0.71171400  0.10202900  0.44392100  1
  O  O59  1  0.89797100  0.28828600  0.05607900  1
  O  O60  1  0.84883300  0.65384700  0.99126700  1
  O  O61  1  0.34615300  0.15116700  0.50873300  1
  O  O62  1  0.15116700  0.34615300  0.00873300  1
  O  O63  1  0.65384700  0.84883300  0.49126700  1
  O  O64  1  0.17513800  0.65722100  0.52747500  1
  O  O65  1  0.34277900  0.82486200  0.97252500  1
  O  O66  1  0.82486200  0.34277900  0.47252500  1
  O  O67  1  0.65722100  0.17513800  0.02747500  1
  O  O68  1  0.60663200  0.77881400  0.97059800  1
  O  O69  1  0.22118600  0.39336800  0.52940200  1
  O  O70  1  0.39336800  0.22118600  0.02940200  1
  O  O71  1  0.77881400  0.60663200  0.47059800  1
  O  O72  1  0.76970100  0.45945800  0.71692900  1
  O  O73  1  0.54054200  0.23029900  0.78307100  1
  O  O74  1  0.23029900  0.54054200  0.28307100  1
  O  O75  1  0.45945800  0.76970100  0.21692900  1
  O  O76  1  0.97704000  0.28052000  0.76894300  1
  O  O77  1  0.71948000  0.02296000  0.73105700  1
  O  O78  1  0.02296000  0.71948000  0.23105700  1
  O  O79  1  0.79966500  0.89598300  0.31876700  1
