# generated using pymatgen
data_GePb2(SeO3)4
_symmetry_space_group_name_H-M   'P 1'
_cell_length_a   6.76755500
_cell_length_b   9.15032000
_cell_length_c   9.47691140
_cell_angle_alpha   83.52957699
_cell_angle_beta   90.00000000
_cell_angle_gamma   90.00000000
_symmetry_Int_Tables_number   1
_chemical_formula_structural   GePb2(SeO3)4
_chemical_formula_sum   'Ge2 Pb4 Se8 O24'
_cell_volume   583.12231634
_cell_formula_units_Z   2
loop_
 _symmetry_equiv_pos_site_id
 _symmetry_equiv_pos_as_xyz
  1  'x, y, z'
loop_
 _atom_site_type_symbol
 _atom_site_label
 _atom_site_symmetry_multiplicity
 _atom_site_fract_x
 _atom_site_fract_y
 _atom_site_fract_z
 _atom_site_occupancy
  Ge  Ge0  1  0.00000000  0.00000000  0.50000000  1
  Ge  Ge1  1  0.50000000  0.00000000  0.00000000  1
  Pb  Pb2  1  0.23674300  0.53736200  0.59633900  1
  Pb  Pb3  1  0.73674300  0.46263800  0.90366100  1
  Pb  Pb4  1  0.76325700  0.46263800  0.40366100  1
  Pb  Pb5  1  0.26325700  0.53736200  0.09633900  1
  Se  Se6  1  0.18813900  0.84006500  0.79427400  1
  Se  Se7  1  0.68813900  0.15993500  0.70572600  1
  Se  Se8  1  0.81186100  0.15993500  0.20572600  1
  Se  Se9  1  0.31186100  0.84006500  0.29427400  1
  Se  Se10  1  0.18737500  0.23839100  0.86881600  1
  Se  Se11  1  0.68737500  0.76160900  0.63118400  1
  Se  Se12  1  0.81262500  0.76160900  0.13118400  1
  Se  Se13  1  0.31262500  0.23839100  0.36881600  1
  O  O14  1  0.38141800  0.96711000  0.82330800  1
  O  O15  1  0.88141800  0.03289000  0.67669200  1
  O  O16  1  0.61858200  0.03289000  0.17669200  1
  O  O17  1  0.11858200  0.96711000  0.32330800  1
  O  O18  1  0.19275100  0.87117200  0.60671100  1
  O  O19  1  0.69275100  0.12882800  0.89328900  1
  O  O20  1  0.80724900  0.12882800  0.39328900  1
  O  O21  1  0.30724900  0.87117200  0.10671100  1
  O  O22  1  0.30856500  0.67587700  0.81340200  1
  O  O23  1  0.80856500  0.32412300  0.68659800  1
  O  O24  1  0.69143500  0.32412300  0.18659800  1
  O  O25  1  0.19143500  0.67587700  0.31340200  1
  O  O26  1  0.36059700  0.34669500  0.77471800  1
  O  O27  1  0.86059700  0.65330500  0.72528200  1
  O  O28  1  0.63940300  0.65330500  0.22528200  1
  O  O29  1  0.13940300  0.34669500  0.27471800  1
  O  O30  1  0.06053100  0.37051800  0.95230700  1
  O  O31  1  0.56053100  0.62948200  0.54769300  1
  O  O32  1  0.93946900  0.62948200  0.04769300  1
  O  O33  1  0.43946900  0.37051800  0.45230700  1
  O  O34  1  0.33097100  0.16789500  0.01668300  1
  O  O35  1  0.83097100  0.83210500  0.48331700  1
  O  O36  1  0.66902900  0.83210500  0.98331700  1
  O  O37  1  0.16902900  0.16789500  0.51668300  1
