# generated using pymatgen
data_Lu6Sb2Mo
_symmetry_space_group_name_H-M   'P 1'
_cell_length_a   7.99031545
_cell_length_b   7.99031545
_cell_length_c   4.30044900
_cell_angle_alpha   90.00000000
_cell_angle_beta   90.00000000
_cell_angle_gamma   119.99999541
_symmetry_Int_Tables_number   1
_chemical_formula_structural   Lu6Sb2Mo
_chemical_formula_sum   'Lu6 Sb2 Mo1'
_cell_volume   237.77834685
_cell_formula_units_Z   1
loop_
 _symmetry_equiv_pos_site_id
 _symmetry_equiv_pos_as_xyz
  1  'x, y, z'
loop_
 _atom_site_type_symbol
 _atom_site_label
 _atom_site_symmetry_multiplicity
 _atom_site_fract_x
 _atom_site_fract_y
 _atom_site_fract_z
 _atom_site_occupancy
  Lu  Lu0  1  0.60902800  0.00000000  0.50000000  1
  Lu  Lu1  1  0.39097200  0.39097200  0.50000000  1
  Lu  Lu2  1  0.00000000  0.60902800  0.50000000  1
  Lu  Lu3  1  0.00000000  0.23927100  0.00000000  1
  Lu  Lu4  1  0.76072900  0.76072900  0.00000000  1
  Lu  Lu5  1  0.23927100  0.00000000  0.00000000  1
  Sb  Sb6  1  0.66666700  0.33333300  0.00000000  1
  Sb  Sb7  1  0.33333300  0.66666700  0.00000000  1
  Mo  Mo8  1  0.00000000  0.00000000  0.50000000  1
