# generated using pymatgen
data_Ba3MnSb2O9
_symmetry_space_group_name_H-M   'P 1'
_cell_length_a   5.98942656
_cell_length_b   5.98942656
_cell_length_c   14.82904064
_cell_angle_alpha   89.42193428
_cell_angle_beta   89.42193428
_cell_angle_gamma   119.92876848
_symmetry_Int_Tables_number   1
_chemical_formula_structural   Ba3MnSb2O9
_chemical_formula_sum   'Ba6 Mn2 Sb4 O18'
_cell_volume   460.93237630
_cell_formula_units_Z   2
loop_
 _symmetry_equiv_pos_site_id
 _symmetry_equiv_pos_as_xyz
  1  'x, y, z'
loop_
 _atom_site_type_symbol
 _atom_site_label
 _atom_site_symmetry_multiplicity
 _atom_site_fract_x
 _atom_site_fract_y
 _atom_site_fract_z
 _atom_site_occupancy
  Ba  Ba0  1  0.33912900  0.67370600  0.41191600  1
  Ba  Ba1  1  0.32629400  0.66087100  0.08808400  1
  Ba  Ba2  1  0.66087100  0.32629400  0.58808400  1
  Ba  Ba3  1  0.67370600  0.33912900  0.91191600  1
  Ba  Ba4  1  0.99732100  0.00267900  0.25000000  1
  Ba  Ba5  1  0.00267900  0.99732100  0.75000000  1
  Mn  Mn6  1  0.00000000  0.00000000  0.00000000  1
  Mn  Mn7  1  0.00000000  0.00000000  0.50000000  1
  Sb  Sb8  1  0.67791100  0.34559300  0.34719400  1
  Sb  Sb9  1  0.65440700  0.32208900  0.15280600  1
  Sb  Sb10  1  0.34559300  0.67791100  0.84719400  1
  Sb  Sb11  1  0.32208900  0.65440700  0.65280600  1
  O  O12  1  0.85439900  0.68284500  0.40509400  1
  O  O13  1  0.31715500  0.14560100  0.09490600  1
  O  O14  1  0.14560100  0.31715500  0.59490600  1
  O  O15  1  0.68284500  0.85439900  0.90509400  1
  O  O16  1  0.36827700  0.19681000  0.42494200  1
  O  O17  1  0.80319000  0.63172300  0.07505800  1
  O  O18  1  0.63172300  0.80319000  0.57505800  1
  O  O19  1  0.19681000  0.36827700  0.92494200  1
  O  O20  1  0.85555600  0.19689100  0.41399300  1
  O  O21  1  0.80310900  0.14444400  0.08600700  1
  O  O22  1  0.14444400  0.80310900  0.58600700  1
  O  O23  1  0.19689100  0.85555600  0.91399300  1
  O  O24  1  0.48156900  0.51843100  0.75000000  1
  O  O25  1  0.51843100  0.48156900  0.25000000  1
  O  O26  1  0.03993200  0.51904000  0.75787700  1
  O  O27  1  0.48096000  0.96006800  0.74212300  1
  O  O28  1  0.96006800  0.48096000  0.24212300  1
  O  O29  1  0.51904000  0.03993200  0.25787700  1
