# generated using pymatgen
data_TlCrP2O7
_symmetry_space_group_name_H-M   'P 1'
_cell_length_a   10.09663400
_cell_length_b   7.61079300
_cell_length_c   8.36103917
_cell_angle_alpha   73.80299401
_cell_angle_beta   90.00000000
_cell_angle_gamma   90.00000000
_symmetry_Int_Tables_number   1
_chemical_formula_structural   TlCrP2O7
_chemical_formula_sum   'Tl4 Cr4 P8 O28'
_cell_volume   616.98903691
_cell_formula_units_Z   4
loop_
 _symmetry_equiv_pos_site_id
 _symmetry_equiv_pos_as_xyz
  1  'x, y, z'
loop_
 _atom_site_type_symbol
 _atom_site_label
 _atom_site_symmetry_multiplicity
 _atom_site_fract_x
 _atom_site_fract_y
 _atom_site_fract_z
 _atom_site_occupancy
  Tl  Tl0  1  0.81402900  0.31699300  0.05219000  1
  Tl  Tl1  1  0.31402900  0.68300700  0.44781000  1
  Tl  Tl2  1  0.18597100  0.68300700  0.94781000  1
  Tl  Tl3  1  0.68597100  0.31699300  0.55219000  1
  Cr  Cr4  1  0.60118100  0.73912200  0.73989000  1
  Cr  Cr5  1  0.10118100  0.26087800  0.76011000  1
  Cr  Cr6  1  0.39881900  0.26087800  0.26011000  1
  Cr  Cr7  1  0.89881900  0.73912200  0.23989000  1
  P  P8  1  0.63132700  0.93192100  0.31136100  1
  P  P9  1  0.13132700  0.06807900  0.18863900  1
  P  P10  1  0.36867300  0.06807900  0.68863900  1
  P  P11  1  0.86867300  0.93192100  0.81136100  1
  P  P12  1  0.59698700  0.62927200  0.16845400  1
  P  P13  1  0.09698700  0.37072800  0.33154600  1
  P  P14  1  0.40301300  0.37072800  0.83154600  1
  P  P15  1  0.90301300  0.62927200  0.66845400  1
  O  O16  1  0.59011600  0.64538900  0.98529800  1
  O  O17  1  0.09011600  0.35461100  0.51470200  1
  O  O18  1  0.40988400  0.35461100  0.01470200  1
  O  O19  1  0.90988400  0.64538900  0.48529800  1
  O  O20  1  0.76282100  0.58514000  0.74306900  1
  O  O21  1  0.26282100  0.41486000  0.75693100  1
  O  O22  1  0.23717900  0.41486000  0.25693100  1
  O  O23  1  0.73717900  0.58514000  0.24306900  1
  O  O24  1  0.49950300  0.51139100  0.72452400  1
  O  O25  1  0.99950300  0.48860900  0.77547600  1
  O  O26  1  0.50049700  0.48860900  0.27547600  1
  O  O27  1  0.00049700  0.51139100  0.22452400  1
  O  O28  1  0.55408200  0.82579200  0.19301700  1
  O  O29  1  0.05408200  0.17420800  0.30698300  1
  O  O30  1  0.44591800  0.17420800  0.80698300  1
  O  O31  1  0.94591800  0.82579200  0.69301700  1
  O  O32  1  0.72148900  0.94376100  0.75980000  1
  O  O33  1  0.22148900  0.05623900  0.74020000  1
  O  O34  1  0.27851100  0.05623900  0.24020000  1
  O  O35  1  0.77851100  0.94376100  0.25980000  1
  O  O36  1  0.92747600  0.12448800  0.76413800  1
  O  O37  1  0.42747600  0.87551200  0.73586200  1
  O  O38  1  0.07252400  0.87551200  0.23586200  1
  O  O39  1  0.57252400  0.12448800  0.26413800  1
  O  O40  1  0.89658500  0.81850500  0.98899100  1
  O  O41  1  0.39658500  0.18149500  0.51100900  1
  O  O42  1  0.10341500  0.18149500  0.01100900  1
  O  O43  1  0.60341500  0.81850500  0.48899100  1
