# generated using pymatgen
data_LaSbRh
_symmetry_space_group_name_H-M   'P 1'
_cell_length_a   4.70029500
_cell_length_b   7.61511200
_cell_length_c   7.99059900
_cell_angle_alpha   90.00000000
_cell_angle_beta   90.00000000
_cell_angle_gamma   90.00000000
_symmetry_Int_Tables_number   1
_chemical_formula_structural   LaSbRh
_chemical_formula_sum   'La4 Sb4 Rh4'
_cell_volume   286.00969031
_cell_formula_units_Z   4
loop_
 _symmetry_equiv_pos_site_id
 _symmetry_equiv_pos_as_xyz
  1  'x, y, z'
loop_
 _atom_site_type_symbol
 _atom_site_label
 _atom_site_symmetry_multiplicity
 _atom_site_fract_x
 _atom_site_fract_y
 _atom_site_fract_z
 _atom_site_occupancy
  La  La0  1  0.25000000  0.51910600  0.19707900  1
  La  La1  1  0.75000000  0.48089400  0.80292100  1
  La  La2  1  0.75000000  0.98089400  0.69707900  1
  La  La3  1  0.25000000  0.01910600  0.30292100  1
  Sb  Sb4  1  0.25000000  0.68270700  0.58850800  1
  Sb  Sb5  1  0.75000000  0.31729300  0.41149200  1
  Sb  Sb6  1  0.75000000  0.81729300  0.08850800  1
  Sb  Sb7  1  0.25000000  0.18270700  0.91149200  1
  Rh  Rh8  1  0.25000000  0.80506400  0.91131000  1
  Rh  Rh9  1  0.75000000  0.19493600  0.08869000  1
  Rh  Rh10  1  0.75000000  0.69493600  0.41131000  1
  Rh  Rh11  1  0.25000000  0.30506400  0.58869000  1
