# generated using pymatgen
data_Nd2NiRuO6
_symmetry_space_group_name_H-M   'P 1'
_cell_length_a   5.77317400
_cell_length_b   5.44787000
_cell_length_c   9.52722491
_cell_angle_alpha   55.35910565
_cell_angle_beta   90.00000000
_cell_angle_gamma   90.00000000
_symmetry_Int_Tables_number   1
_chemical_formula_structural   Nd2NiRuO6
_chemical_formula_sum   'Nd4 Ni2 Ru2 O12'
_cell_volume   246.52762470
_cell_formula_units_Z   2
loop_
 _symmetry_equiv_pos_site_id
 _symmetry_equiv_pos_as_xyz
  1  'x, y, z'
loop_
 _atom_site_type_symbol
 _atom_site_label
 _atom_site_symmetry_multiplicity
 _atom_site_fract_x
 _atom_site_fract_y
 _atom_site_fract_z
 _atom_site_occupancy
  Nd  Nd0  1  0.43283900  0.23257000  0.74998600  1
  Nd  Nd1  1  0.56716100  0.76743000  0.25001400  1
  Nd  Nd2  1  0.93283900  0.76743000  0.75001400  1
  Nd  Nd3  1  0.06716100  0.23257000  0.24998600  1
  Ni  Ni4  1  0.00000000  0.50000000  0.50000000  1
  Ni  Ni5  1  0.50000000  0.50000000  0.00000000  1
  Ru  Ru6  1  0.00000000  0.00000000  0.00000000  1
  Ru  Ru7  1  0.50000000  0.00000000  0.50000000  1
  O  O8  1  0.03072100  0.34834500  0.75173900  1
  O  O9  1  0.96927900  0.65165500  0.24826100  1
  O  O10  1  0.53072100  0.65165500  0.74826100  1
  O  O11  1  0.46927900  0.34834500  0.25173900  1
  O  O12  1  0.70510300  0.86217000  0.94498700  1
  O  O13  1  0.29489700  0.13783000  0.05501300  1
  O  O14  1  0.20510300  0.13783000  0.55501300  1
  O  O15  1  0.79489700  0.86217000  0.44498700  1
  O  O16  1  0.19415700  0.74884200  0.95137100  1
  O  O17  1  0.80584300  0.25115800  0.04862900  1
  O  O18  1  0.69415700  0.25115800  0.54862900  1
  O  O19  1  0.30584300  0.74884200  0.45137100  1
