# generated using pymatgen
data_Gd3MnGaS7
_symmetry_space_group_name_H-M   'P 1'
_cell_length_a   9.82975205
_cell_length_b   9.82975205
_cell_length_c   6.08776500
_cell_angle_alpha   90.00000000
_cell_angle_beta   90.00000000
_cell_angle_gamma   120.00000032
_symmetry_Int_Tables_number   1
_chemical_formula_structural   Gd3MnGaS7
_chemical_formula_sum   'Gd6 Mn2 Ga2 S14'
_cell_volume   509.41723680
_cell_formula_units_Z   2
loop_
 _symmetry_equiv_pos_site_id
 _symmetry_equiv_pos_as_xyz
  1  'x, y, z'
loop_
 _atom_site_type_symbol
 _atom_site_label
 _atom_site_symmetry_multiplicity
 _atom_site_fract_x
 _atom_site_fract_y
 _atom_site_fract_z
 _atom_site_occupancy
  Gd  Gd0  1  0.76491100  0.14061800  0.73812200  1
  Gd  Gd1  1  0.37570700  0.23508900  0.73812200  1
  Gd  Gd2  1  0.85938200  0.62429300  0.73812200  1
  Gd  Gd3  1  0.23508900  0.85938200  0.23812200  1
  Gd  Gd4  1  0.62429300  0.76491100  0.23812200  1
  Gd  Gd5  1  0.14061800  0.37570700  0.23812200  1
  Mn  Mn6  1  0.00000000  0.00000000  0.52086100  1
  Mn  Mn7  1  0.00000000  0.00000000  0.02086100  1
  Ga  Ga8  1  0.66666700  0.33333300  0.16460800  1
  Ga  Ga9  1  0.33333300  0.66666700  0.66460800  1
  S  S10  1  0.85337500  0.09436500  0.29947100  1
  S  S11  1  0.24099100  0.14662500  0.29947100  1
  S  S12  1  0.90563500  0.75900900  0.29947100  1
  S  S13  1  0.14662500  0.90563500  0.79947100  1
  S  S14  1  0.75900900  0.85337500  0.79947100  1
  S  S15  1  0.09436500  0.24099100  0.79947100  1
  S  S16  1  0.90656100  0.42135500  0.00298400  1
  S  S17  1  0.51479300  0.09343900  0.00298400  1
  S  S18  1  0.57864500  0.48520700  0.00298400  1
  S  S19  1  0.09343900  0.57864500  0.50298400  1
  S  S20  1  0.48520700  0.90656100  0.50298400  1
  S  S21  1  0.42135500  0.51479300  0.50298400  1
  S  S22  1  0.66666700  0.33333300  0.53430500  1
  S  S23  1  0.33333300  0.66666700  0.03430500  1
