# generated using pymatgen
data_SmCdIn
_symmetry_space_group_name_H-M   'P 1'
_cell_length_a   4.90380414
_cell_length_b   4.90380414
_cell_length_c   7.64745400
_cell_angle_alpha   90.00000000
_cell_angle_beta   90.00000000
_cell_angle_gamma   120.00000188
_symmetry_Int_Tables_number   1
_chemical_formula_structural   SmCdIn
_chemical_formula_sum   'Sm2 Cd2 In2'
_cell_volume   159.26257330
_cell_formula_units_Z   2
loop_
 _symmetry_equiv_pos_site_id
 _symmetry_equiv_pos_as_xyz
  1  'x, y, z'
loop_
 _atom_site_type_symbol
 _atom_site_label
 _atom_site_symmetry_multiplicity
 _atom_site_fract_x
 _atom_site_fract_y
 _atom_site_fract_z
 _atom_site_occupancy
  Sm  Sm0  1  0.00000000  0.00000000  0.26142400  1
  Sm  Sm1  1  0.00000000  0.00000000  0.73857600  1
  Cd  Cd2  1  0.33333300  0.66666700  0.47177900  1
  Cd  Cd3  1  0.66666700  0.33333300  0.52822100  1
  In  In4  1  0.66666700  0.33333300  0.94808100  1
  In  In5  1  0.33333300  0.66666700  0.05191900  1
