# generated using pymatgen
data_LaAl3Au
_symmetry_space_group_name_H-M   'P 1'
_cell_length_a   6.30350996
_cell_length_b   6.30350996
_cell_length_c   6.30350996
_cell_angle_alpha   139.37949868
_cell_angle_beta   139.37949868
_cell_angle_gamma   58.79666454
_symmetry_Int_Tables_number   1
_chemical_formula_structural   LaAl3Au
_chemical_formula_sum   'La1 Al3 Au1'
_cell_volume   105.16156354
_cell_formula_units_Z   1
loop_
 _symmetry_equiv_pos_site_id
 _symmetry_equiv_pos_as_xyz
  1  'x, y, z'
loop_
 _atom_site_type_symbol
 _atom_site_label
 _atom_site_symmetry_multiplicity
 _atom_site_fract_x
 _atom_site_fract_y
 _atom_site_fract_z
 _atom_site_occupancy
  La  La0  1  0.98854400  0.98854400  0.00000000  1
  Al  Al1  1  0.39829200  0.39829200  0.00000000  1
  Al  Al2  1  0.25088100  0.75088100  0.50000000  1
  Al  Al3  1  0.75088100  0.25088100  0.50000000  1
  Au  Au4  1  0.62740100  0.62740100  0.00000000  1
