# generated using pymatgen
data_Ba5Cr3ClO12
_symmetry_space_group_name_H-M   'P 1'
_cell_length_a   7.93127000
_cell_length_b   10.87405176
_cell_length_c   10.87405176
_cell_angle_alpha   119.99999856
_cell_angle_beta   90.00000000
_cell_angle_gamma   90.00000000
_symmetry_Int_Tables_number   1
_chemical_formula_structural   Ba5Cr3ClO12
_chemical_formula_sum   'Ba10 Cr6 Cl2 O24'
_cell_volume   812.18724457
_cell_formula_units_Z   2
loop_
 _symmetry_equiv_pos_site_id
 _symmetry_equiv_pos_as_xyz
  1  'x, y, z'
loop_
 _atom_site_type_symbol
 _atom_site_label
 _atom_site_symmetry_multiplicity
 _atom_site_fract_x
 _atom_site_fract_y
 _atom_site_fract_z
 _atom_site_occupancy
  Ba  Ba0  1  0.99921000  0.66666700  0.33333300  1
  Ba  Ba1  1  0.00079000  0.33333300  0.66666700  1
  Ba  Ba2  1  0.49921000  0.33333300  0.66666700  1
  Ba  Ba3  1  0.50079000  0.66666700  0.33333300  1
  Ba  Ba4  1  0.75000000  0.73291600  0.00710200  1
  Ba  Ba5  1  0.25000000  0.26708400  0.99289800  1
  Ba  Ba6  1  0.75000000  0.27418600  0.26708400  1
  Ba  Ba7  1  0.25000000  0.72581400  0.73291600  1
  Ba  Ba8  1  0.75000000  0.99289800  0.72581400  1
  Ba  Ba9  1  0.25000000  0.00710200  0.27418600  1
  Cr  Cr10  1  0.75000000  0.59996800  0.63455800  1
  Cr  Cr11  1  0.25000000  0.40003200  0.36544200  1
  Cr  Cr12  1  0.75000000  0.03459000  0.40003200  1
  Cr  Cr13  1  0.25000000  0.96541000  0.59996800  1
  Cr  Cr14  1  0.75000000  0.36544200  0.96541000  1
  Cr  Cr15  1  0.25000000  0.63455800  0.03459000  1
  Cl  Cl16  1  0.75000000  0.00000000  0.00000000  1
  Cl  Cl17  1  0.25000000  0.00000000  0.00000000  1
  O  O18  1  0.75000000  0.85088000  0.33160100  1
  O  O19  1  0.25000000  0.14912000  0.66839900  1
  O  O20  1  0.75000000  0.48072100  0.14912000  1
  O  O21  1  0.25000000  0.51927900  0.85088000  1
  O  O22  1  0.75000000  0.66839900  0.51927900  1
  O  O23  1  0.25000000  0.33160100  0.48072100  1
  O  O24  1  0.75000000  0.41474500  0.54710400  1
  O  O25  1  0.25000000  0.58525500  0.45289600  1
  O  O26  1  0.75000000  0.13236000  0.58525500  1
  O  O27  1  0.25000000  0.86764000  0.41474500  1
  O  O28  1  0.75000000  0.45289600  0.86764000  1
  O  O29  1  0.25000000  0.54710400  0.13236000  1
  O  O30  1  0.92761400  0.64876100  0.73856000  1
  O  O31  1  0.07238600  0.35123900  0.26144000  1
  O  O32  1  0.92761400  0.08979900  0.35123900  1
  O  O33  1  0.42761400  0.35123900  0.26144000  1
  O  O34  1  0.07238600  0.91020100  0.64876100  1
  O  O35  1  0.57238600  0.64876100  0.73856000  1
  O  O36  1  0.92761400  0.26144000  0.91020100  1
  O  O37  1  0.42761400  0.91020100  0.64876100  1
  O  O38  1  0.07238600  0.73856000  0.08979900  1
  O  O39  1  0.57238600  0.08979900  0.35123900  1
  O  O40  1  0.42761400  0.73856000  0.08979900  1
  O  O41  1  0.57238600  0.26144000  0.91020100  1
