# generated using pymatgen
data_ZnWO4
_symmetry_space_group_name_H-M   'P 1'
_cell_length_a   5.85530200
_cell_length_b   4.75913000
_cell_length_c   5.01788344
_cell_angle_alpha   88.18861631
_cell_angle_beta   90.00000000
_cell_angle_gamma   90.00000000
_symmetry_Int_Tables_number   1
_chemical_formula_structural   ZnWO4
_chemical_formula_sum   'Zn2 W2 O8'
_cell_volume   139.75918686
_cell_formula_units_Z   2
loop_
 _symmetry_equiv_pos_site_id
 _symmetry_equiv_pos_as_xyz
  1  'x, y, z'
loop_
 _atom_site_type_symbol
 _atom_site_label
 _atom_site_symmetry_multiplicity
 _atom_site_fract_x
 _atom_site_fract_y
 _atom_site_fract_z
 _atom_site_occupancy
  Zn  Zn0  1  0.67800000  0.50000000  0.25000000  1
  Zn  Zn1  1  0.32200000  0.50000000  0.75000000  1
  W  W2  1  0.17438300  0.00000000  0.25000000  1
  W  W3  1  0.82561700  0.00000000  0.75000000  1
  O  O4  1  0.10650500  0.78504900  0.93464300  1
  O  O5  1  0.10650500  0.21495100  0.56535700  1
  O  O6  1  0.89349500  0.21495100  0.06535700  1
  O  O7  1  0.89349500  0.78504900  0.43464300  1
  O  O8  1  0.37040100  0.74215800  0.40506400  1
  O  O9  1  0.37040100  0.25784200  0.09493600  1
  O  O10  1  0.62959900  0.25784200  0.59493600  1
  O  O11  1  0.62959900  0.74215800  0.90506400  1
