# generated using pymatgen
data_LaAg(IO3)4
_symmetry_space_group_name_H-M   'P 1'
_cell_length_a   16.42935891
_cell_length_b   16.42935891
_cell_length_c   13.07818050
_cell_angle_alpha   89.34957874
_cell_angle_beta   89.34957874
_cell_angle_gamma   20.23370311
_symmetry_Int_Tables_number   1
_chemical_formula_structural   LaAg(IO3)4
_chemical_formula_sum   'La4 Ag4 I16 O48'
_cell_volume   1220.80894891
_cell_formula_units_Z   4
loop_
 _symmetry_equiv_pos_site_id
 _symmetry_equiv_pos_as_xyz
  1  'x, y, z'
loop_
 _atom_site_type_symbol
 _atom_site_label
 _atom_site_symmetry_multiplicity
 _atom_site_fract_x
 _atom_site_fract_y
 _atom_site_fract_z
 _atom_site_occupancy
  La  La0  1  0.27344900  0.68443600  0.49977700  1
  La  La1  1  0.68443600  0.27344900  0.99977700  1
  La  La2  1  0.46457400  0.07605700  0.50116800  1
  La  La3  1  0.07605700  0.46457400  0.00116800  1
  Ag  Ag4  1  0.07728100  0.64509700  0.61857000  1
  Ag  Ag5  1  0.64509700  0.07728100  0.11857000  1
  Ag  Ag6  1  0.67102400  0.19889500  0.70628900  1
  Ag  Ag7  1  0.19889500  0.67102400  0.20628900  1
  I  I8  1  0.65746500  0.12660700  0.46073000  1
  I  I9  1  0.12660700  0.65746500  0.96073000  1
  I  I10  1  0.40812500  0.78004800  0.36354600  1
  I  I11  1  0.78004800  0.40812500  0.86354600  1
  I  I12  1  0.82193700  0.28687500  0.59545000  1
  I  I13  1  0.28687500  0.82193700  0.09545000  1
  I  I14  1  0.55134900  0.95565600  0.20873400  1
  I  I15  1  0.95565600  0.55134900  0.70873400  1
  I  I16  1  0.92651000  0.46184600  0.39771300  1
  I  I17  1  0.46184600  0.92651000  0.89771300  1
  I  I18  1  0.13746300  0.53196900  0.29811700  1
  I  I19  1  0.53196900  0.13746300  0.79811700  1
  I  I20  1  0.32904200  0.97923900  0.63331600  1
  I  I21  1  0.97923900  0.32904200  0.13331600  1
  I  I22  1  0.19277400  0.80169100  0.79350100  1
  I  I23  1  0.80169100  0.19277400  0.29350100  1
  O  O24  1  0.45046300  0.37695100  0.54498400  1
  O  O25  1  0.37695100  0.45046300  0.04498400  1
  O  O26  1  0.92851400  0.91184300  0.51885400  1
  O  O27  1  0.91184300  0.92851400  0.01885400  1
  O  O28  1  0.67888500  0.00922800  0.53298600  1
  O  O29  1  0.00922800  0.67888500  0.03298600  1
  O  O30  1  0.59856600  0.66593700  0.44056900  1
  O  O31  1  0.66593700  0.59856600  0.94056900  1
  O  O32  1  0.58093500  0.60726000  0.24629200  1
  O  O33  1  0.60726000  0.58093500  0.74629200  1
  O  O34  1  0.48398000  0.61029400  0.42633400  1
  O  O35  1  0.61029400  0.48398000  0.92633400  1
  O  O36  1  0.00834400  0.09242600  0.70815700  1
  O  O37  1  0.09242600  0.00834400  0.20815700  1
  O  O38  1  0.98187200  0.07532300  0.50071300  1
  O  O39  1  0.07532300  0.98187200  0.00071300  1
  O  O40  1  0.58382100  0.43572700  0.62426800  1
  O  O41  1  0.43572700  0.58382100  0.12426800  1
  O  O42  1  0.83407200  0.71605900  0.15062600  1
  O  O43  1  0.71605900  0.83407200  0.65062600  1
  O  O44  1  0.61037400  0.95725200  0.32577000  1
  O  O45  1  0.95725200  0.61037400  0.82577000  1
  O  O46  1  0.37802700  0.19851600  0.14123900  1
  O  O47  1  0.19851600  0.37802700  0.64123900  1
  O  O48  1  0.76714800  0.67664000  0.48776000  1
  O  O49  1  0.67664000  0.76714800  0.98776000  1
  O  O50  1  0.76021800  0.63855300  0.27943500  1
  O  O51  1  0.63855300  0.76021800  0.77943500  1
  O  O52  1  0.18033500  0.29223200  0.37216900  1
  O  O53  1  0.29223200  0.18033500  0.87216900  1
  O  O54  1  0.92984600  0.81190100  0.30915100  1
  O  O55  1  0.81190100  0.92984600  0.80915100  1
  O  O56  1  0.38486500  0.36278800  0.25175200  1
  O  O57  1  0.36278800  0.38486500  0.75175200  1
  O  O58  1  0.23323800  0.42541300  0.43143400  1
  O  O59  1  0.42541300  0.23323800  0.93143400  1
  O  O60  1  0.15848900  0.14491300  0.75150800  1
  O  O61  1  0.14491300  0.15848900  0.25150800  1
  O  O62  1  0.12970100  0.10809300  0.55129000  1
  O  O63  1  0.10809300  0.12970100  0.05129000  1
  O  O64  1  0.26318100  0.14292600  0.57886400  1
  O  O65  1  0.14292600  0.26318100  0.07886400  1
  O  O66  1  0.14884900  0.78318700  0.67809400  1
  O  O67  1  0.78318700  0.14884900  0.17809400  1
  O  O68  1  0.89063600  0.06279800  0.83720000  1
  O  O69  1  0.06279800  0.89063600  0.33720000  1
  O  O70  1  0.35138500  0.57421100  0.87009900  1
  O  O71  1  0.57421100  0.35138500  0.37009900  1
