# generated using pymatgen
data_NaZn4H6SClO16
_symmetry_space_group_name_H-M   'P 1'
_cell_length_a   8.42554400
_cell_length_b   8.48685716
_cell_length_c   12.38524100
_cell_angle_alpha   90.95400698
_cell_angle_beta   90.55387710
_cell_angle_gamma   119.20532697
_symmetry_Int_Tables_number   1
_chemical_formula_structural   NaZn4H6SClO16
_chemical_formula_sum   'Na2 Zn8 H12 S2 Cl2 O32'
_cell_volume   772.77267451
_cell_formula_units_Z   2
loop_
 _symmetry_equiv_pos_site_id
 _symmetry_equiv_pos_as_xyz
  1  'x, y, z'
loop_
 _atom_site_type_symbol
 _atom_site_label
 _atom_site_symmetry_multiplicity
 _atom_site_fract_x
 _atom_site_fract_y
 _atom_site_fract_z
 _atom_site_occupancy
  Na  Na0  1  0.67015400  0.31332600  0.55337400  1
  Na  Na1  1  0.32984600  0.68667400  0.44662600  1
  Zn  Zn2  1  0.40799000  0.12596800  0.01111200  1
  Zn  Zn3  1  0.87152200  0.28502200  0.00410700  1
  Zn  Zn4  1  0.71668600  0.58710900  0.00935800  1
  Zn  Zn5  1  0.59201000  0.87403200  0.98888800  1
  Zn  Zn6  1  0.12847800  0.71497800  0.99589300  1
  Zn  Zn7  1  0.28331400  0.41289100  0.99064200  1
  Zn  Zn8  1  0.00042300  0.00509800  0.15259900  1
  Zn  Zn9  1  0.99957700  0.99490200  0.84740100  1
  H  H10  1  0.63394000  0.09293500  0.15265500  1
  H  H11  1  0.91477600  0.52755200  0.15669600  1
  H  H12  1  0.47158100  0.38514400  0.15404700  1
  H  H13  1  0.36606000  0.90706500  0.84734500  1
  H  H14  1  0.08522400  0.47244800  0.84330400  1
  H  H15  1  0.52841900  0.61485600  0.84595300  1
  H  H16  1  0.23649800  0.91436200  0.16963200  1
  H  H17  1  0.08855000  0.32284300  0.16261200  1
  H  H18  1  0.67700900  0.76739000  0.16713500  1
  H  H19  1  0.76350200  0.08563800  0.83036800  1
  H  H20  1  0.91145000  0.67715700  0.83738800  1
  H  H21  1  0.32299100  0.23261000  0.83286500  1
  S  S22  1  0.67058700  0.33916400  0.76924900  1
  S  S23  1  0.32941300  0.66083600  0.23075100  1
  Cl  Cl24  1  0.02024600  0.04608000  0.33184100  1
  Cl  Cl25  1  0.97975400  0.95392000  0.66815900  1
  O  O26  1  0.62890000  0.10290600  0.07467900  1
  O  O27  1  0.89929300  0.52233200  0.07845800  1
  O  O28  1  0.47838700  0.37595100  0.07588600  1
  O  O29  1  0.37110000  0.89709400  0.92532100  1
  O  O30  1  0.10070700  0.47766800  0.92154200  1
  O  O31  1  0.52161300  0.62404900  0.92411400  1
  O  O32  1  0.18880100  0.94062300  0.10278800  1
  O  O33  1  0.06237900  0.24918300  0.09491200  1
  O  O34  1  0.75157300  0.81370600  0.10181400  1
  O  O35  1  0.81119900  0.05937700  0.89721200  1
  O  O36  1  0.93762100  0.75081700  0.90508800  1
  O  O37  1  0.24842700  0.18629400  0.89818600  1
  O  O38  1  0.67090500  0.33584100  0.89157000  1
  O  O39  1  0.32909500  0.66415900  0.10843000  1
  O  O40  1  0.66491100  0.17145400  0.72427800  1
  O  O41  1  0.83887700  0.49836300  0.73115200  1
  O  O42  1  0.50744600  0.34731800  0.72894500  1
  O  O43  1  0.33508900  0.82854600  0.27572200  1
  O  O44  1  0.16112300  0.50163700  0.26884800  1
  O  O45  1  0.49255400  0.65268200  0.27105500  1
  O  O46  1  0.62855400  0.19445800  0.31843100  1
  O  O47  1  0.85029100  0.60915700  0.34414000  1
  O  O48  1  0.51985700  0.25067600  0.30197300  1
  O  O49  1  0.37144600  0.80554200  0.68156900  1
  O  O50  1  0.14970900  0.39084300  0.65586000  1
  O  O51  1  0.48014300  0.74932400  0.69802700  1
  O  O52  1  0.33942400  0.13897700  0.50311000  1
  O  O53  1  0.72187900  0.02318600  0.47972800  1
  O  O54  1  0.87315100  0.60936800  0.44284200  1
  O  O55  1  0.66057600  0.86102300  0.49689000  1
  O  O56  1  0.27812100  0.97681400  0.52027200  1
  O  O57  1  0.12684900  0.39063200  0.55715800  1
