# generated using pymatgen
data_Y2(Al3Pd)3
_symmetry_space_group_name_H-M   'P 1'
_cell_length_a   7.67016703
_cell_length_b   7.67016703
_cell_length_c   9.51153800
_cell_angle_alpha   90.00000000
_cell_angle_beta   90.00000000
_cell_angle_gamma   119.68627332
_symmetry_Int_Tables_number   1
_chemical_formula_structural   Y2(Al3Pd)3
_chemical_formula_sum   'Y4 Al18 Pd6'
_cell_volume   486.13322384
_cell_formula_units_Z   2
loop_
 _symmetry_equiv_pos_site_id
 _symmetry_equiv_pos_as_xyz
  1  'x, y, z'
loop_
 _atom_site_type_symbol
 _atom_site_label
 _atom_site_symmetry_multiplicity
 _atom_site_fract_x
 _atom_site_fract_y
 _atom_site_fract_z
 _atom_site_occupancy
  Y  Y0  1  0.99439900  0.66932700  0.25000000  1
  Y  Y1  1  0.00560100  0.33067300  0.75000000  1
  Y  Y2  1  0.66932700  0.99439900  0.25000000  1
  Y  Y3  1  0.33067300  0.00560100  0.75000000  1
  Al  Al4  1  0.12768100  0.12768100  0.25000000  1
  Al  Al5  1  0.87231900  0.87231900  0.75000000  1
  Al  Al6  1  0.00050900  0.33412900  0.07571200  1
  Al  Al7  1  0.99949100  0.66587100  0.92428800  1
  Al  Al8  1  0.99949100  0.66587100  0.57571200  1
  Al  Al9  1  0.33412900  0.00050900  0.42428800  1
  Al  Al10  1  0.00050900  0.33412900  0.42428800  1
  Al  Al11  1  0.66587100  0.99949100  0.57571200  1
  Al  Al12  1  0.66587100  0.99949100  0.92428800  1
  Al  Al13  1  0.33412900  0.00050900  0.07571200  1
  Al  Al14  1  0.33392900  0.33392900  0.55930400  1
  Al  Al15  1  0.66607100  0.66607100  0.44069600  1
  Al  Al16  1  0.66607100  0.66607100  0.05930400  1
  Al  Al17  1  0.33392900  0.33392900  0.94069600  1
  Al  Al18  1  0.33691000  0.54521400  0.25000000  1
  Al  Al19  1  0.66309000  0.45478600  0.75000000  1
  Al  Al20  1  0.54521400  0.33691000  0.25000000  1
  Al  Al21  1  0.45478600  0.66309000  0.75000000  1
  Pd  Pd22  1  0.67135400  0.32864600  0.00000000  1
  Pd  Pd23  1  0.32864600  0.67135400  0.00000000  1
  Pd  Pd24  1  0.32864600  0.67135400  0.50000000  1
  Pd  Pd25  1  0.67135400  0.32864600  0.50000000  1
  Pd  Pd26  1  0.00000000  0.00000000  0.00000000  1
  Pd  Pd27  1  0.00000000  0.00000000  0.50000000  1
