# generated using pymatgen
data_SrH6Cl2O11
_symmetry_space_group_name_H-M   'P 1'
_cell_length_a   13.72321500
_cell_length_b   9.32517900
_cell_length_c   16.82717578
_cell_angle_alpha   62.67119178
_cell_angle_beta   90.00000000
_cell_angle_gamma   90.00000000
_symmetry_Int_Tables_number   1
_chemical_formula_structural   SrH6Cl2O11
_chemical_formula_sum   'Sr8 H48 Cl16 O88'
_cell_volume   1913.04960868
_cell_formula_units_Z   8
loop_
 _symmetry_equiv_pos_site_id
 _symmetry_equiv_pos_as_xyz
  1  'x, y, z'
loop_
 _atom_site_type_symbol
 _atom_site_label
 _atom_site_symmetry_multiplicity
 _atom_site_fract_x
 _atom_site_fract_y
 _atom_site_fract_z
 _atom_site_occupancy
  Sr  Sr0  1  0.23938000  0.01690200  0.66102300  1
  Sr  Sr1  1  0.26062000  0.01690200  0.16102300  1
  Sr  Sr2  1  0.76062000  0.98309800  0.33897700  1
  Sr  Sr3  1  0.73938000  0.98309800  0.83897700  1
  Sr  Sr4  1  0.26180000  0.50842000  0.66468800  1
  Sr  Sr5  1  0.23820000  0.50842000  0.16468800  1
  Sr  Sr6  1  0.73820000  0.49158000  0.33531200  1
  Sr  Sr7  1  0.76180000  0.49158000  0.83531200  1
  H  H8  1  0.05191500  0.49848600  0.59098700  1
  H  H9  1  0.44808500  0.49848600  0.09098700  1
  H  H10  1  0.94808500  0.50151400  0.40901300  1
  H  H11  1  0.55191500  0.50151400  0.90901300  1
  H  H12  1  0.11957300  0.48094300  0.52093900  1
  H  H13  1  0.38042700  0.48094300  0.02093900  1
  H  H14  1  0.88042700  0.51905700  0.47906100  1
  H  H15  1  0.61957300  0.51905700  0.97906100  1
  H  H16  1  0.44455200  0.93652400  0.60261400  1
  H  H17  1  0.05544800  0.93652400  0.10261400  1
  H  H18  1  0.55544800  0.06347600  0.39738600  1
  H  H19  1  0.94455200  0.06347600  0.89738600  1
  H  H20  1  0.38626900  0.04050900  0.51451800  1
  H  H21  1  0.11373100  0.04050900  0.01451800  1
  H  H22  1  0.61373100  0.95949100  0.48548200  1
  H  H23  1  0.88626900  0.95949100  0.98548200  1
  H  H24  1  0.12197200  0.20812200  0.73147400  1
  H  H25  1  0.37802800  0.20812200  0.23147400  1
  H  H26  1  0.87802800  0.79187800  0.26852600  1
  H  H27  1  0.62197200  0.79187800  0.76852600  1
  H  H28  1  0.20864400  0.14519200  0.79970000  1
  H  H29  1  0.29135600  0.14519200  0.29970000  1
  H  H30  1  0.79135600  0.85480800  0.20030000  1
  H  H31  1  0.70864400  0.85480800  0.70030000  1
  H  H32  1  0.09822600  0.82287700  0.59368400  1
  H  H33  1  0.40177400  0.82287700  0.09368400  1
  H  H34  1  0.90177400  0.17712300  0.40631600  1
  H  H35  1  0.59822600  0.17712300  0.90631600  1
  H  H36  1  0.18399700  0.87294400  0.52519000  1
  H  H37  1  0.31600300  0.87294400  0.02519000  1
  H  H38  1  0.81600300  0.12705600  0.47481000  1
  H  H39  1  0.68399700  0.12705600  0.97481000  1
  H  H40  1  0.26441700  0.65834800  0.79830300  1
  H  H41  1  0.23558300  0.65834800  0.29830300  1
  H  H42  1  0.73558300  0.34165200  0.20169700  1
  H  H43  1  0.76441700  0.34165200  0.70169700  1
  H  H44  1  0.36660600  0.70229600  0.75298900  1
  H  H45  1  0.13339400  0.70229600  0.25298900  1
  H  H46  1  0.63339400  0.29770400  0.24701100  1
  H  H47  1  0.86660600  0.29770400  0.74701100  1
  H  H48  1  0.35036200  0.36680900  0.53404300  1
  H  H49  1  0.14963800  0.36680900  0.03404300  1
  H  H50  1  0.64963800  0.63319100  0.46595700  1
  H  H51  1  0.85036200  0.63319100  0.96595700  1
  H  H52  1  0.41107100  0.26973700  0.61913300  1
  H  H53  1  0.08892900  0.26973700  0.11913300  1
  H  H54  1  0.58892900  0.73026300  0.38086700  1
  H  H55  1  0.91107100  0.73026300  0.88086700  1
  Cl  Cl56  1  0.05302600  0.41356700  0.84581300  1
  Cl  Cl57  1  0.44697400  0.41356700  0.34581300  1
  Cl  Cl58  1  0.94697400  0.58643300  0.15418700  1
  Cl  Cl59  1  0.55302600  0.58643300  0.65418700  1
  Cl  Cl60  1  0.13193700  0.28719800  0.41744700  1
  Cl  Cl61  1  0.36806300  0.28719800  0.91744700  1
  Cl  Cl62  1  0.86806300  0.71280200  0.58255300  1
  Cl  Cl63  1  0.63193700  0.71280200  0.08255300  1
  Cl  Cl64  1  0.46038400  0.90362000  0.82106300  1
  Cl  Cl65  1  0.03961600  0.90362000  0.32106300  1
  Cl  Cl66  1  0.53961600  0.09638000  0.17893700  1
  Cl  Cl67  1  0.96038400  0.09638000  0.67893700  1
  Cl  Cl68  1  0.33838600  0.81729900  0.41817000  1
  Cl  Cl69  1  0.16161400  0.81729900  0.91817000  1
  Cl  Cl70  1  0.66161400  0.18270100  0.58183000  1
  Cl  Cl71  1  0.83838600  0.18270100  0.08183000  1
  O  O72  1  0.11905400  0.47672000  0.58008100  1
  O  O73  1  0.38094600  0.47672000  0.08008100  1
  O  O74  1  0.88094600  0.52328000  0.41991900  1
  O  O75  1  0.61905400  0.52328000  0.91991900  1
  O  O76  1  0.18632200  0.81705600  0.83345100  1
  O  O77  1  0.31367800  0.81705600  0.33345100  1
  O  O78  1  0.81367800  0.18294400  0.16654900  1
  O  O79  1  0.68632200  0.18294400  0.66654900  1
  O  O80  1  0.37971100  0.97703100  0.57924900  1
  O  O81  1  0.12028900  0.97703100  0.07924900  1
  O  O82  1  0.62028900  0.02296900  0.42075100  1
  O  O83  1  0.87971100  0.02296900  0.92075100  1
  O  O84  1  0.18692400  0.31847600  0.33675700  1
  O  O85  1  0.31307600  0.31847600  0.83675700  1
  O  O86  1  0.81307600  0.68152400  0.66324300  1
  O  O87  1  0.68692400  0.68152400  0.16324300  1
  O  O88  1  0.38994500  0.02540100  0.76403600  1
  O  O89  1  0.11005500  0.02540100  0.26403600  1
  O  O90  1  0.61005500  0.97459900  0.23596400  1
  O  O91  1  0.88994500  0.97459900  0.73596400  1
  O  O92  1  0.19381900  0.20056100  0.73533000  1
  O  O93  1  0.30618100  0.20056100  0.23533000  1
  O  O94  1  0.80618100  0.79943900  0.26467000  1
  O  O95  1  0.69381900  0.79943900  0.76467000  1
  O  O96  1  0.16938900  0.82707700  0.58949400  1
  O  O97  1  0.33061100  0.82707700  0.08949400  1
  O  O98  1  0.83061100  0.17292300  0.41050600  1
  O  O99  1  0.66938900  0.17292300  0.91050600  1
  O  O100  1  0.29676800  0.70178200  0.74003400  1
  O  O101  1  0.20323200  0.70178200  0.24003400  1
  O  O102  1  0.70323200  0.29821800  0.25996600  1
  O  O103  1  0.79676800  0.29821800  0.75996600  1
  O  O104  1  0.34443800  0.30605300  0.59935700  1
  O  O105  1  0.15556200  0.30605300  0.09935700  1
  O  O106  1  0.65556200  0.69394700  0.40064300  1
  O  O107  1  0.84443800  0.69394700  0.90064300  1
  O  O108  1  0.19936000  0.21988800  0.49368100  1
  O  O109  1  0.30064000  0.21988800  0.99368100  1
  O  O110  1  0.80064000  0.78011200  0.50631900  1
  O  O111  1  0.69936000  0.78011200  0.00631900  1
  O  O112  1  0.10468100  0.49925800  0.76008500  1
  O  O113  1  0.39531900  0.49925800  0.26008500  1
  O  O114  1  0.89531900  0.50074200  0.23991500  1
  O  O115  1  0.60468100  0.50074200  0.73991500  1
  O  O116  1  0.30441600  0.66548000  0.49176200  1
  O  O117  1  0.19558400  0.66548000  0.99176200  1
  O  O118  1  0.69558400  0.33452000  0.50823800  1
  O  O119  1  0.80441600  0.33452000  0.00823800  1
  O  O120  1  0.94908300  0.45061200  0.82822500  1
  O  O121  1  0.55091700  0.45061200  0.32822500  1
  O  O122  1  0.05091700  0.54938800  0.17177500  1
  O  O123  1  0.44908300  0.54938800  0.67177500  1
  O  O124  1  0.28761500  0.95204900  0.42268500  1
  O  O125  1  0.21238500  0.95204900  0.92268500  1
  O  O126  1  0.71238500  0.04795100  0.57731500  1
  O  O127  1  0.78761500  0.04795100  0.07731500  1
  O  O128  1  0.41899600  0.80207400  0.90768900  1
  O  O129  1  0.08100400  0.80207400  0.40768900  1
  O  O130  1  0.58100400  0.19792600  0.09231100  1
  O  O131  1  0.91899600  0.19792600  0.59231100  1
  O  O132  1  0.09358500  0.44049400  0.40964100  1
  O  O133  1  0.40641500  0.44049400  0.90964100  1
  O  O134  1  0.90641500  0.55950600  0.59035900  1
  O  O135  1  0.59358500  0.55950600  0.09035900  1
  O  O136  1  0.54762200  0.98524800  0.82978900  1
  O  O137  1  0.95237800  0.98524800  0.32978900  1
  O  O138  1  0.45237800  0.01475200  0.17021100  1
  O  O139  1  0.04762200  0.01475200  0.67021100  1
  O  O140  1  0.48787500  0.80493100  0.77613300  1
  O  O141  1  0.01212500  0.80493100  0.27613300  1
  O  O142  1  0.51212500  0.19506900  0.22386700  1
  O  O143  1  0.98787500  0.19506900  0.72386700  1
  O  O144  1  0.06762900  0.24031100  0.88140900  1
  O  O145  1  0.43237100  0.24031100  0.38140900  1
  O  O146  1  0.93237100  0.75968900  0.11859100  1
  O  O147  1  0.56762900  0.75968900  0.61859100  1
  O  O148  1  0.05359100  0.17476200  0.43054600  1
  O  O149  1  0.44640900  0.17476200  0.93054600  1
  O  O150  1  0.94640900  0.82523800  0.56945400  1
  O  O151  1  0.55359100  0.82523800  0.06945400  1
  O  O152  1  0.44258000  0.83376200  0.42385600  1
  O  O153  1  0.05742000  0.83376200  0.92385600  1
  O  O154  1  0.55742000  0.16623800  0.57614400  1
  O  O155  1  0.94258000  0.16623800  0.07614400  1
  O  O156  1  0.08829000  0.46972900  0.90789400  1
  O  O157  1  0.41171000  0.46972900  0.40789400  1
  O  O158  1  0.91171000  0.53027100  0.09210600  1
  O  O159  1  0.58829000  0.53027100  0.59210600  1
