# generated using pymatgen
data_Lu2AlSi2
_symmetry_space_group_name_H-M   'P 1'
_cell_length_a   5.47190219
_cell_length_b   5.47190219
_cell_length_c   5.47190219
_cell_angle_alpha   137.20292570
_cell_angle_beta   116.48199959
_cell_angle_gamma   79.64880938
_symmetry_Int_Tables_number   1
_chemical_formula_structural   Lu2AlSi2
_chemical_formula_sum   'Lu2 Al1 Si2'
_cell_volume   96.65688477
_cell_formula_units_Z   1
loop_
 _symmetry_equiv_pos_site_id
 _symmetry_equiv_pos_as_xyz
  1  'x, y, z'
loop_
 _atom_site_type_symbol
 _atom_site_label
 _atom_site_symmetry_multiplicity
 _atom_site_fract_x
 _atom_site_fract_y
 _atom_site_fract_z
 _atom_site_occupancy
  Lu  Lu0  1  0.71118700  0.21118700  0.50000000  1
  Lu  Lu1  1  0.28881300  0.78881300  0.50000000  1
  Al  Al2  1  0.00000000  0.00000000  0.00000000  1
  Si  Si3  1  0.28928000  0.50000000  0.78928000  1
  Si  Si4  1  0.71072000  0.50000000  0.21072000  1
