# generated using pymatgen
data_Rb2SiS3
_symmetry_space_group_name_H-M   'P 1'
_cell_length_a   7.62519265
_cell_length_b   7.62519265
_cell_length_c   9.81283948
_cell_angle_alpha   58.60736771
_cell_angle_beta   58.60736771
_cell_angle_gamma   54.32381394
_symmetry_Int_Tables_number   1
_chemical_formula_structural   Rb2SiS3
_chemical_formula_sum   'Rb4 Si2 S6'
_cell_volume   375.73846876
_cell_formula_units_Z   2
loop_
 _symmetry_equiv_pos_site_id
 _symmetry_equiv_pos_as_xyz
  1  'x, y, z'
loop_
 _atom_site_type_symbol
 _atom_site_label
 _atom_site_symmetry_multiplicity
 _atom_site_fract_x
 _atom_site_fract_y
 _atom_site_fract_z
 _atom_site_occupancy
  Rb  Rb0  1  0.19179600  0.19179600  0.18604200  1
  Rb  Rb1  1  0.80820400  0.80820400  0.81395800  1
  Rb  Rb2  1  0.41707200  0.41707200  0.36649300  1
  Rb  Rb3  1  0.58292800  0.58292800  0.63350700  1
  Si  Si4  1  0.88509500  0.88509500  0.17585800  1
  Si  Si5  1  0.11490500  0.11490500  0.82414200  1
  S  S6  1  0.23383900  0.76616100  0.00000000  1
  S  S7  1  0.76616100  0.23383900  0.00000000  1
  S  S8  1  0.11217600  0.11217600  0.61367200  1
  S  S9  1  0.88782400  0.88782400  0.38632800  1
  S  S10  1  0.28596900  0.28596900  0.77954400  1
  S  S11  1  0.71403100  0.71403100  0.22045600  1
