# generated using pymatgen
data_BaNiP2O7
_symmetry_space_group_name_H-M   'P 1'
_cell_length_a   8.80742484
_cell_length_b   9.22730807
_cell_length_c   9.49445240
_cell_angle_alpha   69.60950856
_cell_angle_beta   62.55525265
_cell_angle_gamma   98.14715794
_symmetry_Int_Tables_number   1
_chemical_formula_structural   BaNiP2O7
_chemical_formula_sum   'Ba4 Ni4 P8 O28'
_cell_volume   597.97280450
_cell_formula_units_Z   4
loop_
 _symmetry_equiv_pos_site_id
 _symmetry_equiv_pos_as_xyz
  1  'x, y, z'
loop_
 _atom_site_type_symbol
 _atom_site_label
 _atom_site_symmetry_multiplicity
 _atom_site_fract_x
 _atom_site_fract_y
 _atom_site_fract_z
 _atom_site_occupancy
  Ba  Ba0  1  0.27887000  0.82331500  0.24185100  1
  Ba  Ba1  1  0.27883600  0.32334400  0.74186100  1
  Ba  Ba2  1  0.72112400  0.67667600  0.25816100  1
  Ba  Ba3  1  0.72114300  0.17664300  0.75815900  1
  Ni  Ni4  1  0.87988300  0.98153000  0.42031000  1
  Ni  Ni5  1  0.12017300  0.51854300  0.07975600  1
  Ni  Ni6  1  0.87919300  0.48129300  0.92056000  1
  Ni  Ni7  1  0.12071300  0.01875400  0.57944700  1
  P  P8  1  0.77021700  0.08980300  0.12834200  1
  P  P9  1  0.77025100  0.58999100  0.62831400  1
  P  P10  1  0.22982300  0.41016800  0.37166400  1
  P  P11  1  0.22972900  0.91001600  0.87166800  1
  P  P12  1  0.69750300  0.25268000  0.34903600  1
  P  P13  1  0.69768900  0.75301200  0.84887800  1
  P  P14  1  0.30256900  0.24732400  0.15093100  1
  P  P15  1  0.30223200  0.74698200  0.65112100  1
  O  O16  1  0.65186400  0.96641500  0.11335400  1
  O  O17  1  0.65199100  0.46672100  0.61313200  1
  O  O18  1  0.34813500  0.53353900  0.38668800  1
  O  O19  1  0.34795300  0.03324600  0.88691600  1
  O  O20  1  0.88163100  0.51307500  0.69749600  1
  O  O21  1  0.88179200  0.01306400  0.19740800  1
  O  O22  1  0.11836300  0.98693900  0.80249200  1
  O  O23  1  0.11833000  0.48693000  0.30253500  1
  O  O24  1  0.22074200  0.84012800  0.55242700  1
  O  O25  1  0.22073000  0.34015500  0.05246000  1
  O  O26  1  0.77925200  0.65991400  0.94752400  1
  O  O27  1  0.77929300  0.15983200  0.44754600  1
  O  O28  1  0.89225700  0.25331000  0.94867100  1
  O  O29  1  0.89238200  0.75349800  0.44870200  1
  O  O30  1  0.10773100  0.24667700  0.55133900  1
  O  O31  1  0.10754500  0.74651000  0.05125600  1
  O  O32  1  0.84953200  0.41719900  0.17334600  1
  O  O33  1  0.84991900  0.91745700  0.67320100  1
  O  O34  1  0.15053800  0.08280500  0.32664400  1
  O  O35  1  0.15000900  0.58256600  0.82682600  1
  O  O36  1  0.63157900  0.13812400  0.27563000  1
  O  O37  1  0.63176300  0.63850800  0.77545400  1
  O  O38  1  0.36849600  0.36189300  0.22436500  1
  O  O39  1  0.36822100  0.86148200  0.72453900  1
  O  O40  1  0.46559200  0.21368500  0.03744000  1
  O  O41  1  0.46504900  0.71312100  0.53765100  1
  O  O42  1  0.53456500  0.28634600  0.46256200  1
  O  O43  1  0.53479700  0.78678600  0.96233500  1
