# generated using pymatgen
data_Ta2CrB2
_symmetry_space_group_name_H-M   'P 1'
_cell_length_a   5.92849500
_cell_length_b   5.92849500
_cell_length_c   3.25143200
_cell_angle_alpha   90.00000000
_cell_angle_beta   90.00000000
_cell_angle_gamma   90.00000000
_symmetry_Int_Tables_number   1
_chemical_formula_structural   Ta2CrB2
_chemical_formula_sum   'Ta4 Cr2 B4'
_cell_volume   114.27825272
_cell_formula_units_Z   2
loop_
 _symmetry_equiv_pos_site_id
 _symmetry_equiv_pos_as_xyz
  1  'x, y, z'
loop_
 _atom_site_type_symbol
 _atom_site_label
 _atom_site_symmetry_multiplicity
 _atom_site_fract_x
 _atom_site_fract_y
 _atom_site_fract_z
 _atom_site_occupancy
  Ta  Ta0  1  0.67983400  0.17983400  0.50000000  1
  Ta  Ta1  1  0.32016600  0.82016600  0.50000000  1
  Ta  Ta2  1  0.17983400  0.32016600  0.50000000  1
  Ta  Ta3  1  0.82016600  0.67983400  0.50000000  1
  Cr  Cr4  1  0.50000000  0.50000000  0.00000000  1
  Cr  Cr5  1  0.00000000  0.00000000  0.00000000  1
  B  B6  1  0.11270200  0.61270200  0.00000000  1
  B  B7  1  0.88729800  0.38729800  0.00000000  1
  B  B8  1  0.61270200  0.88729800  0.00000000  1
  B  B9  1  0.38729800  0.11270200  0.00000000  1
