# generated using pymatgen
data_PdO2
_symmetry_space_group_name_H-M   'P 1'
_cell_length_a   4.59743600
_cell_length_b   4.59743600
_cell_length_c   3.20632300
_cell_angle_alpha   90.00000000
_cell_angle_beta   90.00000000
_cell_angle_gamma   90.00000000
_symmetry_Int_Tables_number   1
_chemical_formula_structural   PdO2
_chemical_formula_sum   'Pd2 O4'
_cell_volume   67.77018245
_cell_formula_units_Z   2
loop_
 _symmetry_equiv_pos_site_id
 _symmetry_equiv_pos_as_xyz
  1  'x, y, z'
loop_
 _atom_site_type_symbol
 _atom_site_label
 _atom_site_symmetry_multiplicity
 _atom_site_fract_x
 _atom_site_fract_y
 _atom_site_fract_z
 _atom_site_occupancy
  Pd  Pd0  1  0.50000000  0.50000000  0.50000000  1
  Pd  Pd1  1  0.00000000  0.00000000  0.00000000  1
  O  O2  1  0.80833800  0.19166200  0.50000000  1
  O  O3  1  0.19166200  0.80833800  0.50000000  1
  O  O4  1  0.30833800  0.30833800  0.00000000  1
  O  O5  1  0.69166200  0.69166200  0.00000000  1
