# generated using pymatgen
data_Ho2Si5Rh3
_symmetry_space_group_name_H-M   'P 1'
_cell_length_a   8.15180959
_cell_length_b   8.15180959
_cell_length_c   8.15180959
_cell_angle_alpha   138.73056847
_cell_angle_beta   105.00361914
_cell_angle_gamma   89.39860047
_symmetry_Int_Tables_number   1
_chemical_formula_structural   Ho2Si5Rh3
_chemical_formula_sum   'Ho4 Si10 Rh6'
_cell_volume   330.40784432
_cell_formula_units_Z   2
loop_
 _symmetry_equiv_pos_site_id
 _symmetry_equiv_pos_as_xyz
  1  'x, y, z'
loop_
 _atom_site_type_symbol
 _atom_site_label
 _atom_site_symmetry_multiplicity
 _atom_site_fract_x
 _atom_site_fract_y
 _atom_site_fract_z
 _atom_site_occupancy
  Ho  Ho0  1  0.63670500  0.86870700  0.76799900  1
  Ho  Ho1  1  0.36329500  0.13129300  0.23200100  1
  Ho  Ho2  1  0.10070800  0.36870700  0.73200100  1
  Ho  Ho3  1  0.89929200  0.63129300  0.26799900  1
  Si  Si4  1  0.27676200  0.02676200  0.75000000  1
  Si  Si5  1  0.72323800  0.97323800  0.25000000  1
  Si  Si6  1  0.72323800  0.47323800  0.75000000  1
  Si  Si7  1  0.27676200  0.52676200  0.25000000  1
  Si  Si8  1  0.45062700  0.60636500  0.84426200  1
  Si  Si9  1  0.54937300  0.39363500  0.15573800  1
  Si  Si10  1  0.76210400  0.10636500  0.65573800  1
  Si  Si11  1  0.23789600  0.89363500  0.34426200  1
  Si  Si12  1  0.00000000  0.75000000  0.75000000  1
  Si  Si13  1  0.00000000  0.25000000  0.25000000  1
  Rh  Rh14  1  0.24968200  0.63942700  0.61025500  1
  Rh  Rh15  1  0.75031800  0.36057300  0.38974500  1
  Rh  Rh16  1  0.02917100  0.13942700  0.88974500  1
  Rh  Rh17  1  0.97082900  0.86057300  0.11025500  1
  Rh  Rh18  1  0.50000000  0.75000000  0.25000000  1
  Rh  Rh19  1  0.50000000  0.25000000  0.75000000  1
