# generated using pymatgen
data_PrTl(MoO4)2
_symmetry_space_group_name_H-M   'P 1'
_cell_length_a   5.25958400
_cell_length_b   8.41996000
_cell_length_c   19.30954500
_cell_angle_alpha   90.00000000
_cell_angle_beta   90.00000000
_cell_angle_gamma   90.00000000
_symmetry_Int_Tables_number   1
_chemical_formula_structural   PrTl(MoO4)2
_chemical_formula_sum   'Pr4 Tl4 Mo8 O32'
_cell_volume   855.13260208
_cell_formula_units_Z   4
loop_
 _symmetry_equiv_pos_site_id
 _symmetry_equiv_pos_as_xyz
  1  'x, y, z'
loop_
 _atom_site_type_symbol
 _atom_site_label
 _atom_site_symmetry_multiplicity
 _atom_site_fract_x
 _atom_site_fract_y
 _atom_site_fract_z
 _atom_site_occupancy
  Pr  Pr0  1  0.50000000  0.75000000  0.50562900  1
  Pr  Pr1  1  0.00000000  0.25000000  0.99437100  1
  Pr  Pr2  1  0.50000000  0.25000000  0.49437100  1
  Pr  Pr3  1  0.00000000  0.75000000  0.00562900  1
  Tl  Tl4  1  0.00000000  0.75000000  0.77156700  1
  Tl  Tl5  1  0.50000000  0.25000000  0.72843300  1
  Tl  Tl6  1  0.00000000  0.25000000  0.22843300  1
  Tl  Tl7  1  0.50000000  0.75000000  0.27156700  1
  Mo  Mo8  1  0.48078000  0.51317700  0.89841900  1
  Mo  Mo9  1  0.98078000  0.48682300  0.60158100  1
  Mo  Mo10  1  0.01922000  0.01317700  0.60158100  1
  Mo  Mo11  1  0.51922000  0.98682300  0.89841900  1
  Mo  Mo12  1  0.51922000  0.48682300  0.10158100  1
  Mo  Mo13  1  0.01922000  0.51317700  0.39841900  1
  Mo  Mo14  1  0.98078000  0.98682300  0.39841900  1
  Mo  Mo15  1  0.48078000  0.01317700  0.10158100  1
  O  O16  1  0.60206400  0.51986400  0.81349500  1
  O  O17  1  0.10206400  0.48013600  0.68650500  1
  O  O18  1  0.89793600  0.01986400  0.68650500  1
  O  O19  1  0.39793600  0.98013600  0.81349500  1
  O  O20  1  0.39793600  0.48013600  0.18650500  1
  O  O21  1  0.89793600  0.51986400  0.31349500  1
  O  O22  1  0.10206400  0.98013600  0.31349500  1
  O  O23  1  0.60206400  0.01986400  0.18650500  1
  O  O24  1  0.74761100  0.49886100  0.96145600  1
  O  O25  1  0.24761100  0.50113900  0.53854400  1
  O  O26  1  0.75238900  0.99886100  0.53854400  1
  O  O27  1  0.25238900  0.00113900  0.96145600  1
  O  O28  1  0.25238900  0.50113900  0.03854400  1
  O  O29  1  0.75238900  0.49886100  0.46145600  1
  O  O30  1  0.24761100  0.00113900  0.46145600  1
  O  O31  1  0.74761100  0.99886100  0.03854400  1
  O  O32  1  0.27910300  0.84166300  0.09734900  1
  O  O33  1  0.77910300  0.15833700  0.40265100  1
  O  O34  1  0.22089700  0.34166300  0.40265100  1
  O  O35  1  0.72089700  0.65833700  0.09734900  1
  O  O36  1  0.72089700  0.15833700  0.90265100  1
  O  O37  1  0.22089700  0.84166300  0.59734900  1
  O  O38  1  0.77910300  0.65833700  0.59734900  1
  O  O39  1  0.27910300  0.34166300  0.90265100  1
  O  O40  1  0.26521800  0.18034400  0.09165700  1
  O  O41  1  0.76521800  0.81965600  0.40834300  1
  O  O42  1  0.23478200  0.68034400  0.40834300  1
  O  O43  1  0.73478200  0.31965600  0.09165700  1
  O  O44  1  0.73478200  0.81965600  0.90834300  1
  O  O45  1  0.23478200  0.18034400  0.59165700  1
  O  O46  1  0.76521800  0.31965600  0.59165700  1
  O  O47  1  0.26521800  0.68034400  0.90834300  1
