# generated using pymatgen
data_La4Mg3Ag10
_symmetry_space_group_name_H-M   'P 1'
_cell_length_a   8.88793921
_cell_length_b   8.88793921
_cell_length_c   10.48931400
_cell_angle_alpha   90.00000000
_cell_angle_beta   90.00000000
_cell_angle_gamma   108.33185780
_symmetry_Int_Tables_number   1
_chemical_formula_structural   La4Mg3Ag10
_chemical_formula_sum   'La8 Mg6 Ag20'
_cell_volume   786.55696857
_cell_formula_units_Z   2
loop_
 _symmetry_equiv_pos_site_id
 _symmetry_equiv_pos_as_xyz
  1  'x, y, z'
loop_
 _atom_site_type_symbol
 _atom_site_label
 _atom_site_symmetry_multiplicity
 _atom_site_fract_x
 _atom_site_fract_y
 _atom_site_fract_z
 _atom_site_occupancy
  La  La0  1  0.70339500  0.29660500  0.00000000  1
  La  La1  1  0.29660500  0.70339500  0.00000000  1
  La  La2  1  0.79660500  0.20339500  0.50000000  1
  La  La3  1  0.20339500  0.79660500  0.50000000  1
  La  La4  1  0.30316300  0.30316300  0.20294900  1
  La  La5  1  0.69683700  0.69683700  0.79705100  1
  La  La6  1  0.19683700  0.19683700  0.70294900  1
  La  La7  1  0.80316300  0.80316300  0.29705100  1
  Mg  Mg8  1  0.01901700  0.51901700  0.25000000  1
  Mg  Mg9  1  0.98098300  0.48098300  0.75000000  1
  Mg  Mg10  1  0.48098300  0.98098300  0.75000000  1
  Mg  Mg11  1  0.51901700  0.01901700  0.25000000  1
  Mg  Mg12  1  0.00000000  0.00000000  0.00000000  1
  Mg  Mg13  1  0.50000000  0.50000000  0.50000000  1
  Ag  Ag14  1  0.09593100  0.09593100  0.40487500  1
  Ag  Ag15  1  0.90406900  0.90406900  0.59512500  1
  Ag  Ag16  1  0.40406900  0.40406900  0.90487500  1
  Ag  Ag17  1  0.59593100  0.59593100  0.09512500  1
  Ag  Ag18  1  0.89777400  0.17278100  0.20488300  1
  Ag  Ag19  1  0.10222600  0.82721900  0.79511700  1
  Ag  Ag20  1  0.60222600  0.32721900  0.70488300  1
  Ag  Ag21  1  0.67278100  0.39777400  0.29511700  1
  Ag  Ag22  1  0.39777400  0.67278100  0.29511700  1
  Ag  Ag23  1  0.32721900  0.60222600  0.70488300  1
  Ag  Ag24  1  0.82721900  0.10222600  0.79511700  1
  Ag  Ag25  1  0.17278100  0.89777400  0.20488300  1
  Ag  Ag26  1  0.93135200  0.66029800  0.02756400  1
  Ag  Ag27  1  0.06864800  0.33970200  0.97243600  1
  Ag  Ag28  1  0.56864800  0.83970200  0.52756400  1
  Ag  Ag29  1  0.16029800  0.43135200  0.47243600  1
  Ag  Ag30  1  0.43135200  0.16029800  0.47243600  1
  Ag  Ag31  1  0.83970200  0.56864800  0.52756400  1
  Ag  Ag32  1  0.33970200  0.06864800  0.97243600  1
  Ag  Ag33  1  0.66029800  0.93135200  0.02756400  1
