# generated using pymatgen
data_KZr6MnCl14
_symmetry_space_group_name_H-M   'P 1'
_cell_length_a   9.88722069
_cell_length_b   9.88722069
_cell_length_c   12.03395400
_cell_angle_alpha   90.00000000
_cell_angle_beta   90.00000000
_cell_angle_gamma   95.92132618
_symmetry_Int_Tables_number   1
_chemical_formula_structural   KZr6MnCl14
_chemical_formula_sum   'K2 Zr12 Mn2 Cl28'
_cell_volume   1170.12811895
_cell_formula_units_Z   2
loop_
 _symmetry_equiv_pos_site_id
 _symmetry_equiv_pos_as_xyz
  1  'x, y, z'
loop_
 _atom_site_type_symbol
 _atom_site_label
 _atom_site_symmetry_multiplicity
 _atom_site_fract_x
 _atom_site_fract_y
 _atom_site_fract_z
 _atom_site_occupancy
  K  K0  1  0.50000000  0.50000000  0.00000000  1
  K  K1  1  0.00000000  0.00000000  0.50000000  1
  Zr  Zr2  1  0.34925100  0.34925100  0.38968500  1
  Zr  Zr3  1  0.65074900  0.65074900  0.61031500  1
  Zr  Zr4  1  0.15074900  0.15074900  0.88968500  1
  Zr  Zr5  1  0.84925100  0.84925100  0.11031500  1
  Zr  Zr6  1  0.95197600  0.19107600  0.11822700  1
  Zr  Zr7  1  0.04802400  0.80892400  0.88177300  1
  Zr  Zr8  1  0.54802400  0.30892400  0.61822700  1
  Zr  Zr9  1  0.69107600  0.45197600  0.38177300  1
  Zr  Zr10  1  0.45197600  0.69107600  0.38177300  1
  Zr  Zr11  1  0.30892400  0.54802400  0.61822700  1
  Zr  Zr12  1  0.80892400  0.04802400  0.88177300  1
  Zr  Zr13  1  0.19107600  0.95197600  0.11822700  1
  Mn  Mn14  1  0.00000000  0.00000000  0.00000000  1
  Mn  Mn15  1  0.50000000  0.50000000  0.50000000  1
  Cl  Cl16  1  0.11738800  0.36287200  0.00705700  1
  Cl  Cl17  1  0.88261200  0.63712800  0.99294300  1
  Cl  Cl18  1  0.38261200  0.13712800  0.50705700  1
  Cl  Cl19  1  0.86287200  0.61738800  0.49294300  1
  Cl  Cl20  1  0.61738800  0.86287200  0.49294300  1
  Cl  Cl21  1  0.13712800  0.38261200  0.50705700  1
  Cl  Cl22  1  0.63712800  0.88261200  0.99294300  1
  Cl  Cl23  1  0.36287200  0.11738800  0.00705700  1
  Cl  Cl24  1  0.74995100  0.25004900  0.00000000  1
  Cl  Cl25  1  0.25004900  0.74995100  0.00000000  1
  Cl  Cl26  1  0.75004900  0.24995100  0.50000000  1
  Cl  Cl27  1  0.24995100  0.75004900  0.50000000  1
  Cl  Cl28  1  0.89965600  0.39965600  0.25000000  1
  Cl  Cl29  1  0.10034500  0.60034500  0.75000000  1
  Cl  Cl30  1  0.60034400  0.10034500  0.75000000  1
  Cl  Cl31  1  0.39965600  0.89965600  0.25000000  1
  Cl  Cl32  1  0.15505300  0.15505300  0.25909100  1
  Cl  Cl33  1  0.84494700  0.84494700  0.74090900  1
  Cl  Cl34  1  0.34494700  0.34494700  0.75909100  1
  Cl  Cl35  1  0.65505300  0.65505300  0.24090900  1
  Cl  Cl36  1  0.29134700  0.53567000  0.25274300  1
  Cl  Cl37  1  0.70865300  0.46433000  0.74725700  1
  Cl  Cl38  1  0.20865300  0.96433000  0.75274300  1
  Cl  Cl39  1  0.03567000  0.79134700  0.24725700  1
  Cl  Cl40  1  0.79134700  0.03567000  0.24725700  1
  Cl  Cl41  1  0.96433000  0.20865300  0.75274300  1
  Cl  Cl42  1  0.46433000  0.70865300  0.74725700  1
  Cl  Cl43  1  0.53567000  0.29134700  0.25274300  1
