# generated using pymatgen
data_RbBe3ZnF9
_symmetry_space_group_name_H-M   'P 1'
_cell_length_a   6.78528373
_cell_length_b   6.78528373
_cell_length_c   9.81390100
_cell_angle_alpha   90.00000000
_cell_angle_beta   90.00000000
_cell_angle_gamma   119.99999733
_symmetry_Int_Tables_number   1
_chemical_formula_structural   RbBe3ZnF9
_chemical_formula_sum   'Rb2 Be6 Zn2 F18'
_cell_volume   391.29864207
_cell_formula_units_Z   2
loop_
 _symmetry_equiv_pos_site_id
 _symmetry_equiv_pos_as_xyz
  1  'x, y, z'
loop_
 _atom_site_type_symbol
 _atom_site_label
 _atom_site_symmetry_multiplicity
 _atom_site_fract_x
 _atom_site_fract_y
 _atom_site_fract_z
 _atom_site_occupancy
  Rb  Rb0  1  0.33333300  0.66666700  0.50000000  1
  Rb  Rb1  1  0.33333300  0.66666700  0.00000000  1
  Be  Be2  1  0.87607200  0.26673300  0.25000000  1
  Be  Be3  1  0.87607200  0.60933900  0.75000000  1
  Be  Be4  1  0.39066100  0.26673300  0.75000000  1
  Be  Be5  1  0.73326700  0.12392800  0.75000000  1
  Be  Be6  1  0.73326700  0.60933900  0.25000000  1
  Be  Be7  1  0.39066100  0.12392800  0.25000000  1
  Zn  Zn8  1  0.00000000  0.00000000  0.50000000  1
  Zn  Zn9  1  0.00000000  0.00000000  0.00000000  1
  F  F10  1  0.75412800  0.00803300  0.61958100  1
  F  F11  1  0.25390500  0.24587200  0.61958100  1
  F  F12  1  0.99196700  0.74609500  0.61958100  1
  F  F13  1  0.99196700  0.24587200  0.38041900  1
  F  F14  1  0.90672600  0.51700300  0.25000000  1
  F  F15  1  0.61027700  0.09327400  0.25000000  1
  F  F16  1  0.48299700  0.38972300  0.25000000  1
  F  F17  1  0.48299700  0.09327400  0.75000000  1
  F  F18  1  0.61027700  0.51700300  0.75000000  1
  F  F19  1  0.90672600  0.38972300  0.75000000  1
  F  F20  1  0.99196700  0.24587200  0.11958100  1
  F  F21  1  0.25390500  0.00803300  0.38041900  1
  F  F22  1  0.75412800  0.74609500  0.38041900  1
  F  F23  1  0.75412800  0.74609500  0.11958100  1
  F  F24  1  0.25390500  0.00803300  0.11958100  1
  F  F25  1  0.75412800  0.00803300  0.88041900  1
  F  F26  1  0.25390500  0.24587200  0.88041900  1
  F  F27  1  0.99196700  0.74609500  0.88041900  1
