# generated using pymatgen
data_NpSb2
_symmetry_space_group_name_H-M   'P 1'
_cell_length_a   4.35069070
_cell_length_b   4.35069070
_cell_length_c   17.24798700
_cell_angle_alpha   90.00000000
_cell_angle_beta   90.00000000
_cell_angle_gamma   90.40688543
_symmetry_Int_Tables_number   1
_chemical_formula_structural   NpSb2
_chemical_formula_sum   'Np4 Sb8'
_cell_volume   326.47045388
_cell_formula_units_Z   4
loop_
 _symmetry_equiv_pos_site_id
 _symmetry_equiv_pos_as_xyz
  1  'x, y, z'
loop_
 _atom_site_type_symbol
 _atom_site_label
 _atom_site_symmetry_multiplicity
 _atom_site_fract_x
 _atom_site_fract_y
 _atom_site_fract_z
 _atom_site_occupancy
  Np  Np0  1  0.36066500  0.36066500  0.89231700  1
  Np  Np1  1  0.63933500  0.63933500  0.10768300  1
  Np  Np2  1  0.13933500  0.13933500  0.39231700  1
  Np  Np3  1  0.86066500  0.86066500  0.60768300  1
  Sb  Sb4  1  0.35983400  0.35983400  0.56948500  1
  Sb  Sb5  1  0.64016600  0.64016600  0.43051500  1
  Sb  Sb6  1  0.14016600  0.14016600  0.06948500  1
  Sb  Sb7  1  0.85983400  0.85983400  0.93051500  1
  Sb  Sb8  1  0.37238900  0.87238900  0.75000000  1
  Sb  Sb9  1  0.12761100  0.62761100  0.25000000  1
  Sb  Sb10  1  0.62761100  0.12761100  0.25000000  1
  Sb  Sb11  1  0.87238900  0.37238900  0.75000000  1
