# generated using pymatgen
data_Nd5Rh4
_symmetry_space_group_name_H-M   'P 1'
_cell_length_a   7.58548600
_cell_length_b   7.69434800
_cell_length_c   15.07375200
_cell_angle_alpha   90.00000000
_cell_angle_beta   90.00000000
_cell_angle_gamma   90.00000000
_symmetry_Int_Tables_number   1
_chemical_formula_structural   Nd5Rh4
_chemical_formula_sum   'Nd20 Rh16'
_cell_volume   879.78509819
_cell_formula_units_Z   4
loop_
 _symmetry_equiv_pos_site_id
 _symmetry_equiv_pos_as_xyz
  1  'x, y, z'
loop_
 _atom_site_type_symbol
 _atom_site_label
 _atom_site_symmetry_multiplicity
 _atom_site_fract_x
 _atom_site_fract_y
 _atom_site_fract_z
 _atom_site_occupancy
  Nd  Nd0  1  0.66021800  0.16910600  0.62174500  1
  Nd  Nd1  1  0.16021800  0.33089400  0.87825500  1
  Nd  Nd2  1  0.33978200  0.83089400  0.12174500  1
  Nd  Nd3  1  0.83978200  0.66910600  0.37825500  1
  Nd  Nd4  1  0.33978200  0.83089400  0.37825500  1
  Nd  Nd5  1  0.83978200  0.66910600  0.12174500  1
  Nd  Nd6  1  0.66021800  0.16910600  0.87825500  1
  Nd  Nd7  1  0.16021800  0.33089400  0.62174500  1
  Nd  Nd8  1  0.51238100  0.68133700  0.59271700  1
  Nd  Nd9  1  0.01238100  0.81866300  0.90728300  1
  Nd  Nd10  1  0.48761900  0.31866300  0.09271700  1
  Nd  Nd11  1  0.98761900  0.18133700  0.40728300  1
  Nd  Nd12  1  0.48761900  0.31866300  0.40728300  1
  Nd  Nd13  1  0.98761900  0.18133700  0.09271700  1
  Nd  Nd14  1  0.51238100  0.68133700  0.90728300  1
  Nd  Nd15  1  0.01238100  0.81866300  0.59271700  1
  Nd  Nd16  1  0.82197800  0.51426600  0.75000000  1
  Nd  Nd17  1  0.32197800  0.98573400  0.75000000  1
  Nd  Nd18  1  0.17802200  0.48573400  0.25000000  1
  Nd  Nd19  1  0.67802200  0.01426600  0.25000000  1
  Rh  Rh20  1  0.67846700  0.96970000  0.46004800  1
  Rh  Rh21  1  0.17846700  0.53030000  0.03995200  1
  Rh  Rh22  1  0.32153300  0.03030000  0.96004800  1
  Rh  Rh23  1  0.82153300  0.46970000  0.53995200  1
  Rh  Rh24  1  0.32153300  0.03030000  0.53995200  1
  Rh  Rh25  1  0.82153300  0.46970000  0.96004800  1
  Rh  Rh26  1  0.67846700  0.96970000  0.03995200  1
  Rh  Rh27  1  0.17846700  0.53030000  0.46004800  1
  Rh  Rh28  1  0.45638200  0.39578800  0.75000000  1
  Rh  Rh29  1  0.95638200  0.10421200  0.75000000  1
  Rh  Rh30  1  0.54361800  0.60421200  0.25000000  1
  Rh  Rh31  1  0.04361800  0.89578800  0.25000000  1
  Rh  Rh32  1  0.69934100  0.85908500  0.75000000  1
  Rh  Rh33  1  0.19934100  0.64091500  0.75000000  1
  Rh  Rh34  1  0.30065900  0.14091500  0.25000000  1
  Rh  Rh35  1  0.80065900  0.35908500  0.25000000  1
