# generated using pymatgen
data_Na4Ho2(IrO4)3
_symmetry_space_group_name_H-M   'P 1'
_cell_length_a   3.19327800
_cell_length_b   9.44082091
_cell_length_c   9.44082091
_cell_angle_alpha   120.00000636
_cell_angle_beta   90.00000000
_cell_angle_gamma   90.00000000
_symmetry_Int_Tables_number   1
_chemical_formula_structural   Na4Ho2(IrO4)3
_chemical_formula_sum   'Na4 Ho2 Ir3 O12'
_cell_volume   246.48293179
_cell_formula_units_Z   1
loop_
 _symmetry_equiv_pos_site_id
 _symmetry_equiv_pos_as_xyz
  1  'x, y, z'
loop_
 _atom_site_type_symbol
 _atom_site_label
 _atom_site_symmetry_multiplicity
 _atom_site_fract_x
 _atom_site_fract_y
 _atom_site_fract_z
 _atom_site_occupancy
  Na  Na0  1  0.50000000  0.30103700  0.30103700  1
  Na  Na1  1  0.50000000  0.00000000  0.69896300  1
  Na  Na2  1  0.50000000  0.69896300  0.00000000  1
  Na  Na3  1  0.00000000  0.00000000  0.00000000  1
  Ho  Ho4  1  0.50000000  0.66666700  0.33333300  1
  Ho  Ho5  1  0.50000000  0.33333300  0.66666700  1
  Ir  Ir6  1  0.00000000  0.67022400  0.67022400  1
  Ir  Ir7  1  0.00000000  0.00000000  0.32977600  1
  Ir  Ir8  1  0.00000000  0.32977600  0.00000000  1
  O  O9  1  0.50000000  0.54268900  0.54268900  1
  O  O10  1  0.50000000  0.00000000  0.45731100  1
  O  O11  1  0.50000000  0.45731100  0.00000000  1
  O  O12  1  0.50000000  0.80337400  0.80337400  1
  O  O13  1  0.50000000  0.00000000  0.19662600  1
  O  O14  1  0.50000000  0.19662600  0.00000000  1
  O  O15  1  0.00000000  0.75567500  0.21723800  1
  O  O16  1  0.00000000  0.46156200  0.24432500  1
  O  O17  1  0.00000000  0.53843800  0.78276200  1
  O  O18  1  0.00000000  0.78276200  0.53843800  1
  O  O19  1  0.00000000  0.21723800  0.75567500  1
  O  O20  1  0.00000000  0.24432500  0.46156200  1
