# generated using pymatgen
data_B3Pb10Br3O13
_symmetry_space_group_name_H-M   'P 1'
_cell_length_a   9.63424163
_cell_length_b   9.63424163
_cell_length_c   17.15770530
_cell_angle_alpha   68.44708365
_cell_angle_beta   68.44708365
_cell_angle_gamma   56.44077236
_symmetry_Int_Tables_number   1
_chemical_formula_structural   B3Pb10Br3O13
_chemical_formula_sum   'B6 Pb20 Br6 O26'
_cell_volume   1206.25951788
_cell_formula_units_Z   2
loop_
 _symmetry_equiv_pos_site_id
 _symmetry_equiv_pos_as_xyz
  1  'x, y, z'
loop_
 _atom_site_type_symbol
 _atom_site_label
 _atom_site_symmetry_multiplicity
 _atom_site_fract_x
 _atom_site_fract_y
 _atom_site_fract_z
 _atom_site_occupancy
  B  B0  1  0.87915800  0.72693900  0.18723400  1
  B  B1  1  0.27592500  0.11788500  0.30624000  1
  B  B2  1  0.11788500  0.27592500  0.80624000  1
  B  B3  1  0.72693900  0.87915800  0.68723400  1
  B  B4  1  0.49620800  0.99995500  0.00552800  1
  B  B5  1  0.99995500  0.49620800  0.50552800  1
  Pb  Pb6  1  0.93162700  0.85602000  0.00242200  1
  Pb  Pb7  1  0.15064600  0.06545100  0.49482600  1
  Pb  Pb8  1  0.06545100  0.15064600  0.99482600  1
  Pb  Pb9  1  0.85602000  0.93162700  0.50242200  1
  Pb  Pb10  1  0.34492000  0.83555500  0.83673800  1
  Pb  Pb11  1  0.16309600  0.65393500  0.66427900  1
  Pb  Pb12  1  0.65393500  0.16309600  0.16427900  1
  Pb  Pb13  1  0.83555500  0.34492000  0.33673800  1
  Pb  Pb14  1  0.36582900  0.67849800  0.06581300  1
  Pb  Pb15  1  0.32795700  0.61868300  0.44218500  1
  Pb  Pb16  1  0.61868300  0.32795700  0.94218500  1
  Pb  Pb17  1  0.67849800  0.36582900  0.56581300  1
  Pb  Pb18  1  0.52912700  0.14368000  0.80077000  1
  Pb  Pb19  1  0.82854500  0.48069600  0.70908200  1
  Pb  Pb20  1  0.48069600  0.82854500  0.20908200  1
  Pb  Pb21  1  0.14368000  0.52912700  0.30077000  1
  Pb  Pb22  1  0.76497000  0.67410800  0.89747800  1
  Pb  Pb23  1  0.32462200  0.24030300  0.59998100  1
  Pb  Pb24  1  0.24030300  0.32462200  0.09998100  1
  Pb  Pb25  1  0.67410800  0.76497000  0.39747800  1
  Br  Br26  1  0.23674000  0.53798400  0.88969000  1
  Br  Br27  1  0.47052300  0.76053100  0.60706100  1
  Br  Br28  1  0.76053100  0.47052300  0.10706100  1
  Br  Br29  1  0.53798400  0.23674000  0.38969000  1
  Br  Br30  1  0.94846900  0.04654700  0.75316000  1
  Br  Br31  1  0.04654700  0.94846900  0.25316000  1
  O  O32  1  0.27191100  0.14214300  0.82856500  1
  O  O33  1  0.86035800  0.72783500  0.66155600  1
  O  O34  1  0.72783500  0.86035800  0.16155600  1
  O  O35  1  0.14214300  0.27191100  0.32856500  1
  O  O36  1  0.17371600  0.88179000  0.96804500  1
  O  O37  1  0.12622200  0.82267400  0.53140600  1
  O  O38  1  0.82267400  0.12622200  0.03140600  1
  O  O39  1  0.88179000  0.17371600  0.46804500  1
  O  O40  1  0.53950600  0.63412300  0.92922900  1
  O  O41  1  0.38064200  0.45374800  0.57843700  1
  O  O42  1  0.45374800  0.38064200  0.07843700  1
  O  O43  1  0.63412300  0.53950600  0.42922900  1
  O  O44  1  0.03136700  0.67846900  0.12766100  1
  O  O45  1  0.32529400  0.97038500  0.36880500  1
  O  O46  1  0.97038500  0.32529400  0.86880500  1
  O  O47  1  0.67846900  0.03136700  0.62766100  1
  O  O48  1  0.64370500  0.87709400  0.77332100  1
  O  O49  1  0.11059300  0.36059800  0.72019900  1
  O  O50  1  0.36059800  0.11059300  0.22019900  1
  O  O51  1  0.87709400  0.64370500  0.27332100  1
  O  O52  1  0.57571000  0.94974300  0.92693400  1
  O  O53  1  0.94974300  0.57571000  0.42693400  1
  O  O54  1  0.89758700  0.44262900  0.57489800  1
  O  O55  1  0.44262900  0.89758700  0.07489800  1
  O  O56  1  0.15168000  0.47015000  0.51085600  1
  O  O57  1  0.47015000  0.15168000  0.01085600  1
