# generated using pymatgen
data_Na4SrTa5O15
_symmetry_space_group_name_H-M   'P 1'
_cell_length_a   6.89710100
_cell_length_b   8.88353394
_cell_length_c   11.28529277
_cell_angle_alpha   108.70372137
_cell_angle_beta   90.47769321
_cell_angle_gamma   104.53230393
_symmetry_Int_Tables_number   1
_chemical_formula_structural   Na4SrTa5O15
_chemical_formula_sum   'Na8 Sr2 Ta10 O30'
_cell_volume   631.00627818
_cell_formula_units_Z   2
loop_
 _symmetry_equiv_pos_site_id
 _symmetry_equiv_pos_as_xyz
  1  'x, y, z'
loop_
 _atom_site_type_symbol
 _atom_site_label
 _atom_site_symmetry_multiplicity
 _atom_site_fract_x
 _atom_site_fract_y
 _atom_site_fract_z
 _atom_site_occupancy
  Na  Na0  1  0.39995100  0.70072000  0.80037200  1
  Na  Na1  1  0.80071100  0.89981700  0.60050800  1
  Na  Na2  1  0.19928900  0.10018300  0.39949200  1
  Na  Na3  1  0.60004900  0.29928000  0.19962800  1
  Na  Na4  1  0.00000000  0.50000000  0.00000000  1
  Na  Na5  1  0.80018900  0.89991500  0.09957400  1
  Na  Na6  1  0.19981100  0.10008500  0.90042600  1
  Na  Na7  1  0.00000000  0.50000000  0.50000000  1
  Sr  Sr8  1  0.60045800  0.29987100  0.70031700  1
  Sr  Sr9  1  0.39954200  0.70012900  0.29968300  1
  Ta  Ta10  1  0.90120200  0.69965100  0.29969700  1
  Ta  Ta11  1  0.09879800  0.30034900  0.70030300  1
  Ta  Ta12  1  0.50000000  0.50000000  0.50000000  1
  Ta  Ta13  1  0.29907600  0.90156900  0.09803100  1
  Ta  Ta14  1  0.70092400  0.09843100  0.90196900  1
  Ta  Ta15  1  0.50000000  0.50000000  0.00000000  1
  Ta  Ta16  1  0.70247300  0.10108700  0.39791200  1
  Ta  Ta17  1  0.09809900  0.29675900  0.19881400  1
  Ta  Ta18  1  0.90190100  0.70324100  0.80118600  1
  Ta  Ta19  1  0.29752700  0.89891300  0.60208800  1
  O  O20  1  0.76960900  0.88464000  0.32732200  1
  O  O21  1  0.96932000  0.48478200  0.72737200  1
  O  O22  1  0.36965800  0.68489100  0.52711200  1
  O  O23  1  0.17002200  0.08498900  0.12757000  1
  O  O24  1  0.56996800  0.28495500  0.92711400  1
  O  O25  1  0.03068000  0.51521800  0.27262800  1
  O  O26  1  0.23039100  0.11536000  0.67267800  1
  O  O27  1  0.63034200  0.31510900  0.47288800  1
  O  O28  1  0.43003200  0.71504500  0.07288600  1
  O  O29  1  0.82997800  0.91501100  0.87243000  1
  O  O30  1  0.08793600  0.82850400  0.45619800  1
  O  O31  1  0.28796500  0.42841300  0.85589400  1
  O  O32  1  0.68461400  0.62667200  0.65777200  1
  O  O33  1  0.48444100  0.02670300  0.25765300  1
  O  O34  1  0.88508800  0.22968400  0.05750300  1
  O  O35  1  0.11491200  0.77031600  0.94249700  1
  O  O36  1  0.31538600  0.37332800  0.34222800  1
  O  O37  1  0.71203500  0.57158700  0.14410600  1
  O  O38  1  0.51555900  0.97329700  0.74234700  1
  O  O39  1  0.91206400  0.17149600  0.54380200  1
  O  O40  1  0.50000000  0.00000000  0.00000000  1
  O  O41  1  0.89701200  0.20107700  0.79936100  1
  O  O42  1  0.30266900  0.39851700  0.60075300  1
  O  O43  1  0.69733100  0.60148300  0.39924700  1
  O  O44  1  0.10298800  0.79892300  0.20063900  1
  O  O45  1  0.69939900  0.59701200  0.89817500  1
  O  O46  1  0.09966100  0.79994200  0.70014800  1
  O  O47  1  0.50000000  0.00000000  0.50000000  1
  O  O48  1  0.90033900  0.20005800  0.29985200  1
  O  O49  1  0.30060100  0.40298800  0.10182500  1
