# generated using pymatgen
data_CsBS3O11
_symmetry_space_group_name_H-M   'P 1'
_cell_length_a   11.72039800
_cell_length_b   8.47923100
_cell_length_c   10.75544795
_cell_angle_alpha   76.78856877
_cell_angle_beta   90.00000000
_cell_angle_gamma   90.00000000
_symmetry_Int_Tables_number   1
_chemical_formula_structural   CsBS3O11
_chemical_formula_sum   'Cs4 B4 S12 O44'
_cell_volume   1040.58641473
_cell_formula_units_Z   4
loop_
 _symmetry_equiv_pos_site_id
 _symmetry_equiv_pos_as_xyz
  1  'x, y, z'
loop_
 _atom_site_type_symbol
 _atom_site_label
 _atom_site_symmetry_multiplicity
 _atom_site_fract_x
 _atom_site_fract_y
 _atom_site_fract_z
 _atom_site_occupancy
  Cs  Cs0  1  0.63073400  0.44251000  0.24217300  1
  Cs  Cs1  1  0.13073400  0.05749000  0.75782700  1
  Cs  Cs2  1  0.36926600  0.55749000  0.75782700  1
  Cs  Cs3  1  0.86926600  0.94251000  0.24217300  1
  B  B4  1  0.22201900  0.56348500  0.32322300  1
  B  B5  1  0.72201900  0.93651500  0.67677700  1
  B  B6  1  0.77798100  0.43651500  0.67677700  1
  B  B7  1  0.27798100  0.06348500  0.32322300  1
  S  S8  1  0.33745500  0.29564200  0.45334600  1
  S  S9  1  0.83745500  0.20435800  0.54665400  1
  S  S10  1  0.66254500  0.70435800  0.54665400  1
  S  S11  1  0.16254500  0.79564200  0.45334600  1
  S  S12  1  0.52276500  0.04930700  0.76507700  1
  S  S13  1  0.02276500  0.45069300  0.23492300  1
  S  S14  1  0.47723500  0.95069300  0.23492300  1
  S  S15  1  0.97723500  0.54930700  0.76507700  1
  S  S16  1  0.65965700  0.80168200  0.92288400  1
  S  S17  1  0.15965700  0.69831800  0.07711600  1
  S  S18  1  0.34034300  0.19831800  0.07711600  1
  S  S19  1  0.84034300  0.30168200  0.92288400  1
  O  O20  1  0.45664400  0.25866300  0.44798600  1
  O  O21  1  0.95664400  0.24133700  0.55201400  1
  O  O22  1  0.54335600  0.74133700  0.55201400  1
  O  O23  1  0.04335600  0.75866300  0.44798600  1
  O  O24  1  0.71059600  0.67648900  0.43048000  1
  O  O25  1  0.21059600  0.82351100  0.56952000  1
  O  O26  1  0.28940400  0.32351100  0.56952000  1
  O  O27  1  0.78940400  0.17648900  0.43048000  1
  O  O28  1  0.48446500  0.78204200  0.23739600  1
  O  O29  1  0.98446500  0.71795800  0.76260400  1
  O  O30  1  0.51553500  0.21795800  0.76260400  1
  O  O31  1  0.01553500  0.28204200  0.23739600  1
  O  O32  1  0.57856100  0.04483300  0.23479000  1
  O  O33  1  0.07856100  0.45516700  0.76521000  1
  O  O34  1  0.42143900  0.95516700  0.76521000  1
  O  O35  1  0.92143900  0.54483300  0.23479000  1
  O  O36  1  0.57755300  0.67735000  0.91937100  1
  O  O37  1  0.07755300  0.82265000  0.08062900  1
  O  O38  1  0.42244700  0.32265000  0.08062900  1
  O  O39  1  0.92244700  0.17735000  0.91937100  1
  O  O40  1  0.72556300  0.79385400  0.03610200  1
  O  O41  1  0.22556300  0.70614600  0.96389800  1
  O  O42  1  0.27443700  0.20614600  0.96389800  1
  O  O43  1  0.77443700  0.29385400  0.03610200  1
  O  O44  1  0.31521100  0.44406900  0.33870500  1
  O  O45  1  0.81521100  0.05593100  0.66129500  1
  O  O46  1  0.68478900  0.55593100  0.66129500  1
  O  O47  1  0.18478900  0.94406900  0.33870500  1
  O  O48  1  0.76309700  0.34281500  0.57946700  1
  O  O49  1  0.26309700  0.15718500  0.42053300  1
  O  O50  1  0.23690300  0.65718500  0.42053300  1
  O  O51  1  0.73690300  0.84281500  0.57946700  1
  O  O52  1  0.60751200  0.01552100  0.66512200  1
  O  O53  1  0.10751200  0.48447900  0.33487800  1
  O  O54  1  0.39248800  0.98447900  0.33487800  1
  O  O55  1  0.89248800  0.51552100  0.66512200  1
  O  O56  1  0.73991900  0.83013600  0.80680100  1
  O  O57  1  0.23991900  0.66986400  0.19319900  1
  O  O58  1  0.26008100  0.16986400  0.19319900  1
  O  O59  1  0.76008100  0.33013600  0.80680100  1
  O  O60  1  0.59408600  0.97663900  0.90087900  1
  O  O61  1  0.09408600  0.52336100  0.09912100  1
  O  O62  1  0.40591400  0.02336100  0.09912100  1
  O  O63  1  0.90591400  0.47663900  0.90087900  1
