# generated using pymatgen
data_Ti3Rh5
_symmetry_space_group_name_H-M   'P 1'
_cell_length_a   4.13240300
_cell_length_b   5.42380100
_cell_length_c   10.52923100
_cell_angle_alpha   90.00000000
_cell_angle_beta   90.00000000
_cell_angle_gamma   90.00000000
_symmetry_Int_Tables_number   1
_chemical_formula_structural   Ti3Rh5
_chemical_formula_sum   'Ti6 Rh10'
_cell_volume   235.99514509
_cell_formula_units_Z   2
loop_
 _symmetry_equiv_pos_site_id
 _symmetry_equiv_pos_as_xyz
  1  'x, y, z'
loop_
 _atom_site_type_symbol
 _atom_site_label
 _atom_site_symmetry_multiplicity
 _atom_site_fract_x
 _atom_site_fract_y
 _atom_site_fract_z
 _atom_site_occupancy
  Ti  Ti0  1  0.00000000  0.00000000  0.00000000  1
  Ti  Ti1  1  0.00000000  0.50000000  0.50000000  1
  Ti  Ti2  1  0.50000000  0.33978100  0.14374000  1
  Ti  Ti3  1  0.50000000  0.66021900  0.85626000  1
  Ti  Ti4  1  0.50000000  0.83978100  0.35626000  1
  Ti  Ti5  1  0.50000000  0.16021900  0.64374000  1
  Rh  Rh6  1  0.00000000  0.00000000  0.50000000  1
  Rh  Rh7  1  0.00000000  0.50000000  0.00000000  1
  Rh  Rh8  1  0.00000000  0.10298600  0.23601800  1
  Rh  Rh9  1  0.00000000  0.89701400  0.76398200  1
  Rh  Rh10  1  0.00000000  0.60298600  0.26398200  1
  Rh  Rh11  1  0.00000000  0.39701400  0.73601800  1
  Rh  Rh12  1  0.50000000  0.31373400  0.39289000  1
  Rh  Rh13  1  0.50000000  0.68626600  0.60711000  1
  Rh  Rh14  1  0.50000000  0.81373400  0.10711000  1
  Rh  Rh15  1  0.50000000  0.18626600  0.89289000  1
