# generated using pymatgen
data_U6Fe30P19
_symmetry_space_group_name_H-M   'P 1'
_cell_length_a   14.62857100
_cell_length_b   3.59869500
_cell_length_c   14.63036272
_cell_angle_alpha   90.00000000
_cell_angle_beta   119.98388303
_cell_angle_gamma   90.00000000
_symmetry_Int_Tables_number   1
_chemical_formula_structural   U6Fe30P19
_chemical_formula_sum   'U6 Fe30 P19'
_cell_volume   667.11879801
_cell_formula_units_Z   1
loop_
 _symmetry_equiv_pos_site_id
 _symmetry_equiv_pos_as_xyz
  1  'x, y, z'
loop_
 _atom_site_type_symbol
 _atom_site_label
 _atom_site_symmetry_multiplicity
 _atom_site_fract_x
 _atom_site_fract_y
 _atom_site_fract_z
 _atom_site_occupancy
  U  U0  1  0.09954300  0.00000000  0.70632200  1
  U  U1  1  0.29377800  0.00000000  0.39335600  1
  U  U2  1  0.60669600  0.00000000  0.90056300  1
  U  U3  1  0.39448500  0.50000000  0.09875600  1
  U  U4  1  0.90114800  0.50000000  0.29569700  1
  U  U5  1  0.70424900  0.50000000  0.60532500  1
  Fe  Fe6  1  0.53551600  0.00000000  0.07600700  1
  Fe  Fe7  1  0.92399300  0.00000000  0.45954000  1
  Fe  Fe8  1  0.54049000  0.00000000  0.46448800  1
  Fe  Fe9  1  0.02899600  0.00000000  0.89111600  1
  Fe  Fe10  1  0.10887300  0.00000000  0.13812100  1
  Fe  Fe11  1  0.86258000  0.00000000  0.97075100  1
  Fe  Fe12  1  0.41588800  0.00000000  0.26394300  1
  Fe  Fe13  1  0.73610100  0.00000000  0.15206600  1
  Fe  Fe14  1  0.84797300  0.00000000  0.58401700  1
  Fe  Fe15  1  0.23067000  0.00000000  0.95775900  1
  Fe  Fe16  1  0.04236300  0.00000000  0.27282300  1
  Fe  Fe17  1  0.72723000  0.00000000  0.76954100  1
  Fe  Fe18  1  0.34923700  0.00000000  0.77576400  1
  Fe  Fe19  1  0.22425800  0.00000000  0.57348400  1
  Fe  Fe20  1  0.42657500  0.00000000  0.65080300  1
  Fe  Fe21  1  0.26954100  0.50000000  0.23137200  1
  Fe  Fe22  1  0.76862600  0.50000000  0.03825500  1
  Fe  Fe23  1  0.96154500  0.50000000  0.73024800  1
  Fe  Fe24  1  0.15979400  0.50000000  0.03351300  1
  Fe  Fe25  1  0.96656700  0.50000000  0.12627400  1
  Fe  Fe26  1  0.87368800  0.50000000  0.84029100  1
  Fe  Fe27  1  0.57259100  0.50000000  0.34817600  1
  Fe  Fe28  1  0.65176900  0.50000000  0.22442700  1
  Fe  Fe29  1  0.77560000  0.50000000  0.42740700  1
  Fe  Fe30  1  0.26399000  0.50000000  0.84589700  1
  Fe  Fe31  1  0.15402900  0.50000000  0.41811600  1
  Fe  Fe32  1  0.58192900  0.50000000  0.73585800  1
  Fe  Fe33  1  0.07560200  0.50000000  0.54051800  1
  Fe  Fe34  1  0.45940400  0.50000000  0.53504700  1
  Fe  Fe35  1  0.46485900  0.50000000  0.92439300  1
  P  P36  1  0.25351500  0.00000000  0.12417100  1
  P  P37  1  0.87593700  0.00000000  0.12944900  1
  P  P38  1  0.87054000  0.00000000  0.74632000  1
  P  P39  1  0.55405000  0.00000000  0.23715000  1
  P  P40  1  0.76278600  0.00000000  0.31704100  1
  P  P41  1  0.68298300  0.00000000  0.44574400  1
  P  P42  1  0.37164900  0.00000000  0.93621000  1
  P  P43  1  0.06373900  0.00000000  0.43540000  1
  P  P44  1  0.56464500  0.00000000  0.62835500  1
  P  P45  1  0.43441000  0.50000000  0.37152800  1
  P  P46  1  0.62838800  0.50000000  0.06295300  1
  P  P47  1  0.93711400  0.50000000  0.56555800  1
  P  P48  1  0.12549500  0.50000000  0.87056100  1
  P  P49  1  0.12943700  0.50000000  0.25495300  1
  P  P50  1  0.74481800  0.50000000  0.87428500  1
  P  P51  1  0.23687700  0.50000000  0.68222100  1
  P  P52  1  0.31776800  0.50000000  0.55471900  1
  P  P53  1  0.44544600  0.50000000  0.76320000  1
  P  P54  1  0.00022800  0.50000000  0.00015000  1
