# generated using pymatgen
data_Sn3Ir2Se3
_symmetry_space_group_name_H-M   'P 1'
_cell_length_a   9.09534333
_cell_length_b   9.09534333
_cell_length_c   9.09534271
_cell_angle_alpha   89.93777845
_cell_angle_beta   89.93777845
_cell_angle_gamma   89.93778103
_symmetry_Int_Tables_number   1
_chemical_formula_structural   Sn3Ir2Se3
_chemical_formula_sum   'Sn12 Ir8 Se12'
_cell_volume   752.41335495
_cell_formula_units_Z   4
loop_
 _symmetry_equiv_pos_site_id
 _symmetry_equiv_pos_as_xyz
  1  'x, y, z'
loop_
 _atom_site_type_symbol
 _atom_site_label
 _atom_site_symmetry_multiplicity
 _atom_site_fract_x
 _atom_site_fract_y
 _atom_site_fract_z
 _atom_site_occupancy
  Sn  Sn0  1  0.50065700  0.34894300  0.16828600  1
  Sn  Sn1  1  0.16828600  0.50065700  0.34894300  1
  Sn  Sn2  1  0.34894300  0.16828600  0.50065700  1
  Sn  Sn3  1  0.49934300  0.65105700  0.83171400  1
  Sn  Sn4  1  0.83171400  0.49934300  0.65105700  1
  Sn  Sn5  1  0.65105700  0.83171400  0.49934300  1
  Sn  Sn6  1  0.99844300  0.84819700  0.33220000  1
  Sn  Sn7  1  0.33220000  0.99844300  0.84819700  1
  Sn  Sn8  1  0.84819700  0.33220000  0.99844300  1
  Sn  Sn9  1  0.00155700  0.15180300  0.66780000  1
  Sn  Sn10  1  0.66780000  0.00155700  0.15180300  1
  Sn  Sn11  1  0.15180300  0.66780000  0.00155700  1
  Ir  Ir12  1  0.24515700  0.24515700  0.24515700  1
  Ir  Ir13  1  0.75484300  0.75484300  0.75484300  1
  Ir  Ir14  1  0.24449000  0.74552600  0.74415400  1
  Ir  Ir15  1  0.74415400  0.24449000  0.74552600  1
  Ir  Ir16  1  0.74552600  0.74415400  0.24449000  1
  Ir  Ir17  1  0.75551000  0.25447400  0.25584600  1
  Ir  Ir18  1  0.25584600  0.75551000  0.25447400  1
  Ir  Ir19  1  0.25447400  0.25584600  0.75551000  1
  Se  Se20  1  0.65346600  0.99867800  0.85115500  1
  Se  Se21  1  0.85115500  0.65346600  0.99867800  1
  Se  Se22  1  0.99867800  0.85115500  0.65346600  1
  Se  Se23  1  0.34653400  0.00132200  0.14884500  1
  Se  Se24  1  0.14884500  0.34653400  0.00132200  1
  Se  Se25  1  0.00132200  0.14884500  0.34653400  1
  Se  Se26  1  0.15245400  0.49977500  0.65042000  1
  Se  Se27  1  0.65042000  0.15245400  0.49977500  1
  Se  Se28  1  0.49977500  0.65042000  0.15245400  1
  Se  Se29  1  0.84754600  0.50022500  0.34958000  1
  Se  Se30  1  0.34958000  0.84754600  0.50022500  1
  Se  Se31  1  0.50022500  0.34958000  0.84754600  1
