# generated using pymatgen
data_La2AlGe
_symmetry_space_group_name_H-M   'P 1'
_cell_length_a   6.26335697
_cell_length_b   6.26335697
_cell_length_c   4.18554000
_cell_angle_alpha   90.00000000
_cell_angle_beta   90.00000000
_cell_angle_gamma   137.05782577
_symmetry_Int_Tables_number   1
_chemical_formula_structural   La2AlGe
_chemical_formula_sum   'La2 Al1 Ge1'
_cell_volume   111.86098733
_cell_formula_units_Z   1
loop_
 _symmetry_equiv_pos_site_id
 _symmetry_equiv_pos_as_xyz
  1  'x, y, z'
loop_
 _atom_site_type_symbol
 _atom_site_label
 _atom_site_symmetry_multiplicity
 _atom_site_fract_x
 _atom_site_fract_y
 _atom_site_fract_z
 _atom_site_occupancy
  La  La0  1  0.35887200  0.64112800  0.00000000  1
  La  La1  1  0.64452400  0.35547600  0.50000000  1
  Al  Al2  1  0.06705300  0.93294700  0.00000000  1
  Ge  Ge3  1  0.92955100  0.07044900  0.50000000  1
