# generated using pymatgen
data_Li3CuO3
_symmetry_space_group_name_H-M   'P 1'
_cell_length_a   8.79586100
_cell_length_b   8.79586100
_cell_length_c   3.62957000
_cell_angle_alpha   90.00000000
_cell_angle_beta   90.00000000
_cell_angle_gamma   90.00000000
_symmetry_Int_Tables_number   1
_chemical_formula_structural   Li3CuO3
_chemical_formula_sum   'Li12 Cu4 O12'
_cell_volume   280.80956187
_cell_formula_units_Z   4
loop_
 _symmetry_equiv_pos_site_id
 _symmetry_equiv_pos_as_xyz
  1  'x, y, z'
loop_
 _atom_site_type_symbol
 _atom_site_label
 _atom_site_symmetry_multiplicity
 _atom_site_fract_x
 _atom_site_fract_y
 _atom_site_fract_z
 _atom_site_occupancy
  Li  Li0  1  0.33466900  0.66533100  0.50000000  1
  Li  Li1  1  0.83466900  0.83466900  0.00000000  1
  Li  Li2  1  0.66533100  0.33466900  0.50000000  1
  Li  Li3  1  0.16533100  0.16533100  0.00000000  1
  Li  Li4  1  0.14149300  0.60300600  0.00000000  1
  Li  Li5  1  0.10300600  0.35850700  0.50000000  1
  Li  Li6  1  0.89699400  0.64149300  0.50000000  1
  Li  Li7  1  0.85850700  0.39699400  0.00000000  1
  Li  Li8  1  0.35850700  0.10300600  0.50000000  1
  Li  Li9  1  0.64149300  0.89699400  0.50000000  1
  Li  Li10  1  0.60300600  0.14149300  0.00000000  1
  Li  Li11  1  0.39699400  0.85850700  0.00000000  1
  Cu  Cu12  1  0.61362400  0.61362400  0.00000000  1
  Cu  Cu13  1  0.11362400  0.88637600  0.50000000  1
  Cu  Cu14  1  0.88637600  0.11362400  0.50000000  1
  Cu  Cu15  1  0.38637600  0.38637600  0.00000000  1
  O  O16  1  0.60104700  0.39895300  0.00000000  1
  O  O17  1  0.89895300  0.89895300  0.50000000  1
  O  O18  1  0.39895300  0.60104700  0.00000000  1
  O  O19  1  0.10104700  0.10104700  0.50000000  1
  O  O20  1  0.38708300  0.17706900  0.00000000  1
  O  O21  1  0.67706900  0.11291700  0.50000000  1
  O  O22  1  0.32293100  0.88708300  0.50000000  1
  O  O23  1  0.61291700  0.82293100  0.00000000  1
  O  O24  1  0.11291700  0.67706900  0.50000000  1
  O  O25  1  0.88708300  0.32293100  0.50000000  1
  O  O26  1  0.17706900  0.38708300  0.00000000  1
  O  O27  1  0.82293100  0.61291700  0.00000000  1
