# generated using pymatgen
data_Ba2CaReO6
_symmetry_space_group_name_H-M   'P 1'
_cell_length_a   5.99669070
_cell_length_b   5.99669070
_cell_length_c   5.99669070
_cell_angle_alpha   120.16952945
_cell_angle_beta   120.16952945
_cell_angle_gamma   89.70661634
_symmetry_Int_Tables_number   1
_chemical_formula_structural   Ba2CaReO6
_chemical_formula_sum   'Ba2 Ca1 Re1 O6'
_cell_volume   152.08959348
_cell_formula_units_Z   1
loop_
 _symmetry_equiv_pos_site_id
 _symmetry_equiv_pos_as_xyz
  1  'x, y, z'
loop_
 _atom_site_type_symbol
 _atom_site_label
 _atom_site_symmetry_multiplicity
 _atom_site_fract_x
 _atom_site_fract_y
 _atom_site_fract_z
 _atom_site_occupancy
  Ba  Ba0  1  0.75000000  0.25000000  0.50000000  1
  Ba  Ba1  1  0.25000000  0.75000000  0.50000000  1
  Ca  Ca2  1  0.50000000  0.50000000  0.00000000  1
  Re  Re3  1  0.00000000  0.00000000  0.00000000  1
  O  O4  1  0.74950000  0.79330900  0.54280900  1
  O  O5  1  0.79330900  0.25050000  0.04380900  1
  O  O6  1  0.20669100  0.74950000  0.95619100  1
  O  O7  1  0.25050000  0.20669100  0.45719100  1
  O  O8  1  0.22913400  0.22913400  0.00000000  1
  O  O9  1  0.77086600  0.77086600  0.00000000  1
