# generated using pymatgen
data_Ba3(AlGe)2
_symmetry_space_group_name_H-M   'P 1'
_cell_length_a   10.66508173
_cell_length_b   10.66508173
_cell_length_c   10.66508173
_cell_angle_alpha   156.36555578
_cell_angle_beta   152.00979760
_cell_angle_gamma   36.95101421
_symmetry_Int_Tables_number   1
_chemical_formula_structural   Ba3(AlGe)2
_chemical_formula_sum   'Ba3 Al2 Ge2'
_cell_volume   227.93276514
_cell_formula_units_Z   1
loop_
 _symmetry_equiv_pos_site_id
 _symmetry_equiv_pos_as_xyz
  1  'x, y, z'
loop_
 _atom_site_type_symbol
 _atom_site_label
 _atom_site_symmetry_multiplicity
 _atom_site_fract_x
 _atom_site_fract_y
 _atom_site_fract_z
 _atom_site_occupancy
  Ba  Ba0  1  0.81652900  0.81652900  0.00000000  1
  Ba  Ba1  1  0.00000000  0.50000000  0.50000000  1
  Ba  Ba2  1  0.18347100  0.18347100  0.00000000  1
  Al  Al3  1  0.43556700  0.93556700  0.50000000  1
  Al  Al4  1  0.56443300  0.06443300  0.50000000  1
  Ge  Ge5  1  0.36500600  0.36500600  0.00000000  1
  Ge  Ge6  1  0.63499400  0.63499400  0.00000000  1
