# generated using pymatgen
data_NaBi3(IO2)2
_symmetry_space_group_name_H-M   'P 1'
_cell_length_a   7.32330296
_cell_length_b   7.32330296
_cell_length_c   5.71098600
_cell_angle_alpha   90.00000000
_cell_angle_beta   90.00000000
_cell_angle_gamma   134.06756925
_symmetry_Int_Tables_number   1
_chemical_formula_structural   NaBi3(IO2)2
_chemical_formula_sum   'Na1 Bi3 I2 O4'
_cell_volume   220.07160453
_cell_formula_units_Z   1
loop_
 _symmetry_equiv_pos_site_id
 _symmetry_equiv_pos_as_xyz
  1  'x, y, z'
loop_
 _atom_site_type_symbol
 _atom_site_label
 _atom_site_symmetry_multiplicity
 _atom_site_fract_x
 _atom_site_fract_y
 _atom_site_fract_z
 _atom_site_occupancy
  Na  Na0  1  0.33825800  0.66174200  0.50000000  1
  Bi  Bi1  1  0.83321200  0.16678800  0.00000000  1
  Bi  Bi2  1  0.16839400  0.83160600  0.00000000  1
  Bi  Bi3  1  0.66764200  0.33235800  0.50000000  1
  I  I4  1  0.49744000  0.50256000  0.00000000  1
  I  I5  1  0.00249700  0.99750300  0.50000000  1
  O  O6  1  0.50679300  0.01051500  0.75814600  1
  O  O7  1  0.98948500  0.49320700  0.24185400  1
  O  O8  1  0.98948500  0.49320700  0.75814600  1
  O  O9  1  0.50679300  0.01051500  0.24185400  1
