# generated using pymatgen
data_RbVPHO6
_symmetry_space_group_name_H-M   'P 1'
_cell_length_a   6.86672800
_cell_length_b   9.49969600
_cell_length_c   17.92443700
_cell_angle_alpha   90.00000000
_cell_angle_beta   90.00000000
_cell_angle_gamma   90.00000000
_symmetry_Int_Tables_number   1
_chemical_formula_structural   RbVPHO6
_chemical_formula_sum   'Rb8 V8 P8 H8 O48'
_cell_volume   1169.24380061
_cell_formula_units_Z   8
loop_
 _symmetry_equiv_pos_site_id
 _symmetry_equiv_pos_as_xyz
  1  'x, y, z'
loop_
 _atom_site_type_symbol
 _atom_site_label
 _atom_site_symmetry_multiplicity
 _atom_site_fract_x
 _atom_site_fract_y
 _atom_site_fract_z
 _atom_site_occupancy
  Rb  Rb0  1  0.72720300  0.19067200  0.39754900  1
  Rb  Rb1  1  0.22720300  0.30932800  0.60245100  1
  Rb  Rb2  1  0.27279700  0.69067200  0.10245100  1
  Rb  Rb3  1  0.77279700  0.80932800  0.89754900  1
  Rb  Rb4  1  0.27279700  0.80932800  0.60245100  1
  Rb  Rb5  1  0.77279700  0.69067200  0.39754900  1
  Rb  Rb6  1  0.72720300  0.30932800  0.89754900  1
  Rb  Rb7  1  0.22720300  0.19067200  0.10245100  1
  V  V8  1  0.47546500  0.45202600  0.25640300  1
  V  V9  1  0.97546500  0.04797400  0.74359700  1
  V  V10  1  0.52453500  0.95202600  0.24359700  1
  V  V11  1  0.02453500  0.54797400  0.75640300  1
  V  V12  1  0.52453500  0.54797400  0.74359700  1
  V  V13  1  0.02453500  0.95202600  0.25640300  1
  V  V14  1  0.47546500  0.04797400  0.75640300  1
  V  V15  1  0.97546500  0.45202600  0.24359700  1
  P  P16  1  0.20481100  0.38797200  0.40012900  1
  P  P17  1  0.70481100  0.11202800  0.59987100  1
  P  P18  1  0.79518900  0.88797200  0.09987100  1
  P  P19  1  0.29518900  0.61202800  0.90012900  1
  P  P20  1  0.79518900  0.61202800  0.59987100  1
  P  P21  1  0.29518900  0.88797200  0.40012900  1
  P  P22  1  0.20481100  0.11202800  0.90012900  1
  P  P23  1  0.70481100  0.38797200  0.09987100  1
  H  H24  1  0.28135200  0.60028800  0.44859100  1
  H  H25  1  0.78135200  0.89971200  0.55140900  1
  H  H26  1  0.71864800  0.10028800  0.05140900  1
  H  H27  1  0.21864800  0.39971200  0.94859100  1
  H  H28  1  0.71864800  0.39971200  0.55140900  1
  H  H29  1  0.21864800  0.10028800  0.44859100  1
  H  H30  1  0.28135200  0.89971200  0.94859100  1
  H  H31  1  0.78135200  0.60028800  0.05140900  1
  O  O32  1  0.15082000  0.25225800  0.43892800  1
  O  O33  1  0.65082000  0.24774200  0.56107200  1
  O  O34  1  0.84918000  0.75225800  0.06107200  1
  O  O35  1  0.34918000  0.74774200  0.93892800  1
  O  O36  1  0.84918000  0.74774200  0.56107200  1
  O  O37  1  0.34918000  0.75225800  0.43892800  1
  O  O38  1  0.15082000  0.24774200  0.93892800  1
  O  O39  1  0.65082000  0.25225800  0.06107200  1
  O  O40  1  0.39518100  0.37522000  0.35272300  1
  O  O41  1  0.89518100  0.12478000  0.64727700  1
  O  O42  1  0.60481900  0.87522000  0.14727700  1
  O  O43  1  0.10481900  0.62478000  0.85272300  1
  O  O44  1  0.60481900  0.62478000  0.64727700  1
  O  O45  1  0.10481900  0.87522000  0.35272300  1
  O  O46  1  0.39518100  0.12478000  0.85272300  1
  O  O47  1  0.89518100  0.37522000  0.14727700  1
  O  O48  1  0.24226000  0.49993200  0.46411000  1
  O  O49  1  0.74226000  0.00006800  0.53589000  1
  O  O50  1  0.75774000  0.99993200  0.03589000  1
  O  O51  1  0.25774000  0.50006800  0.96411000  1
  O  O52  1  0.75774000  0.50006800  0.53589000  1
  O  O53  1  0.25774000  0.99993200  0.46411000  1
  O  O54  1  0.24226000  0.00006800  0.96411000  1
  O  O55  1  0.74226000  0.49993200  0.03589000  1
  O  O56  1  0.03581700  0.44583700  0.35075100  1
  O  O57  1  0.53581700  0.05416300  0.64924900  1
  O  O58  1  0.96418300  0.94583700  0.14924900  1
  O  O59  1  0.46418300  0.55416300  0.85075100  1
  O  O60  1  0.96418300  0.55416300  0.64924900  1
  O  O61  1  0.46418300  0.94583700  0.35075100  1
  O  O62  1  0.03581700  0.05416300  0.85075100  1
  O  O63  1  0.53581700  0.44583700  0.14924900  1
  O  O64  1  0.72139600  0.40077600  0.27607700  1
  O  O65  1  0.22139600  0.09922400  0.72392300  1
  O  O66  1  0.27860400  0.90077600  0.22392300  1
  O  O67  1  0.77860400  0.59922400  0.77607700  1
  O  O68  1  0.27860400  0.59922400  0.72392300  1
  O  O69  1  0.77860400  0.90077600  0.27607700  1
  O  O70  1  0.72139600  0.09922400  0.77607700  1
  O  O71  1  0.22139600  0.40077600  0.22392300  1
  O  O72  1  0.46661400  0.62129900  0.27043600  1
  O  O73  1  0.96661400  0.87870100  0.72956400  1
  O  O74  1  0.53338600  0.12129900  0.22956400  1
  O  O75  1  0.03338600  0.37870100  0.77043600  1
  O  O76  1  0.53338600  0.37870100  0.72956400  1
  O  O77  1  0.03338600  0.12129900  0.27043600  1
  O  O78  1  0.46661400  0.87870100  0.77043600  1
  O  O79  1  0.96661400  0.62129900  0.22956400  1
