# generated using pymatgen
data_ZrSiMo
_symmetry_space_group_name_H-M   'P 1'
_cell_length_a   3.55133500
_cell_length_b   7.00035900
_cell_length_c   8.24073400
_cell_angle_alpha   90.00000000
_cell_angle_beta   90.00000000
_cell_angle_gamma   90.00000000
_symmetry_Int_Tables_number   1
_chemical_formula_structural   ZrSiMo
_chemical_formula_sum   'Zr4 Si4 Mo4'
_cell_volume   204.86975591
_cell_formula_units_Z   4
loop_
 _symmetry_equiv_pos_site_id
 _symmetry_equiv_pos_as_xyz
  1  'x, y, z'
loop_
 _atom_site_type_symbol
 _atom_site_label
 _atom_site_symmetry_multiplicity
 _atom_site_fract_x
 _atom_site_fract_y
 _atom_site_fract_z
 _atom_site_occupancy
  Zr  Zr0  1  0.25000000  0.04272900  0.33187700  1
  Zr  Zr1  1  0.25000000  0.54272900  0.16812300  1
  Zr  Zr2  1  0.75000000  0.95727100  0.66812200  1
  Zr  Zr3  1  0.75000000  0.45727100  0.83187800  1
  Si  Si4  1  0.25000000  0.25733800  0.63673700  1
  Si  Si5  1  0.25000000  0.75733800  0.86326300  1
  Si  Si6  1  0.75000000  0.74266200  0.36326300  1
  Si  Si7  1  0.75000000  0.24266200  0.13673700  1
  Mo  Mo8  1  0.25000000  0.13190600  0.93848900  1
  Mo  Mo9  1  0.25000000  0.63190600  0.56151100  1
  Mo  Mo10  1  0.75000000  0.86809400  0.06151100  1
  Mo  Mo11  1  0.75000000  0.36809400  0.43848900  1
