# generated using pymatgen
data_ZrGePt
_symmetry_space_group_name_H-M   'P 1'
_cell_length_a   4.01579100
_cell_length_b   6.73009900
_cell_length_c   7.75597100
_cell_angle_alpha   90.00000000
_cell_angle_beta   90.00000000
_cell_angle_gamma   90.00000000
_symmetry_Int_Tables_number   1
_chemical_formula_structural   ZrGePt
_chemical_formula_sum   'Zr4 Ge4 Pt4'
_cell_volume   209.61807645
_cell_formula_units_Z   4
loop_
 _symmetry_equiv_pos_site_id
 _symmetry_equiv_pos_as_xyz
  1  'x, y, z'
loop_
 _atom_site_type_symbol
 _atom_site_label
 _atom_site_symmetry_multiplicity
 _atom_site_fract_x
 _atom_site_fract_y
 _atom_site_fract_z
 _atom_site_occupancy
  Zr  Zr0  1  0.25000000  0.02744900  0.31728300  1
  Zr  Zr1  1  0.25000000  0.52744900  0.18271700  1
  Zr  Zr2  1  0.75000000  0.97255100  0.68271700  1
  Zr  Zr3  1  0.75000000  0.47255100  0.81728300  1
  Ge  Ge4  1  0.25000000  0.25484500  0.62142400  1
  Ge  Ge5  1  0.25000000  0.75484500  0.87857600  1
  Ge  Ge6  1  0.75000000  0.74515500  0.37857600  1
  Ge  Ge7  1  0.75000000  0.24515500  0.12142400  1
  Pt  Pt8  1  0.25000000  0.14521200  0.93686600  1
  Pt  Pt9  1  0.25000000  0.64521200  0.56313400  1
  Pt  Pt10  1  0.75000000  0.85478800  0.06313400  1
  Pt  Pt11  1  0.75000000  0.35478800  0.43686600  1
