# generated using pymatgen
data_NaCaTiMnSi2O8F
_symmetry_space_group_name_H-M   'P 1'
_cell_length_a   9.86857100
_cell_length_b   7.09324700
_cell_length_c   10.91350612
_cell_angle_alpha   72.11027976
_cell_angle_beta   90.00000000
_cell_angle_gamma   90.00000000
_symmetry_Int_Tables_number   1
_chemical_formula_structural   NaCaTiMnSi2O8F
_chemical_formula_sum   'Na4 Ca4 Ti4 Mn4 Si8 O32 F4'
_cell_volume   727.01050806
_cell_formula_units_Z   4
loop_
 _symmetry_equiv_pos_site_id
 _symmetry_equiv_pos_as_xyz
  1  'x, y, z'
loop_
 _atom_site_type_symbol
 _atom_site_label
 _atom_site_symmetry_multiplicity
 _atom_site_fract_x
 _atom_site_fract_y
 _atom_site_fract_z
 _atom_site_occupancy
  Na  Na0  1  0.87904000  0.66312300  0.42572200  1
  Na  Na1  1  0.12096000  0.33687700  0.57427800  1
  Na  Na2  1  0.37904000  0.33687700  0.07427800  1
  Na  Na3  1  0.62096000  0.66312300  0.92572200  1
  Ca  Ca4  1  0.60850900  0.47473700  0.30186500  1
  Ca  Ca5  1  0.39149100  0.52526300  0.69813500  1
  Ca  Ca6  1  0.10850900  0.52526300  0.19813500  1
  Ca  Ca7  1  0.89149100  0.47473700  0.80186500  1
  Ti  Ti8  1  0.60135100  0.97841700  0.28272300  1
  Ti  Ti9  1  0.39864900  0.02158300  0.71727700  1
  Ti  Ti10  1  0.10135100  0.02158300  0.21727700  1
  Ti  Ti11  1  0.89864900  0.97841700  0.78272300  1
  Mn  Mn12  1  0.36964800  0.86418800  0.06121900  1
  Mn  Mn13  1  0.63035200  0.13581200  0.93878100  1
  Mn  Mn14  1  0.86964800  0.13581200  0.43878100  1
  Mn  Mn15  1  0.13035200  0.86418800  0.56121900  1
  Si  Si16  1  0.83504200  0.79020800  0.12137200  1
  Si  Si17  1  0.16495800  0.20979200  0.87862800  1
  Si  Si18  1  0.33504200  0.20979200  0.37862800  1
  Si  Si19  1  0.66495800  0.79020800  0.62137200  1
  Si  Si20  1  0.83343200  0.32639300  0.12156300  1
  Si  Si21  1  0.16656800  0.67360700  0.87843700  1
  Si  Si22  1  0.33343200  0.67360700  0.37843700  1
  Si  Si23  1  0.66656800  0.32639300  0.62156300  1
  O  O24  1  0.83935800  0.54763300  0.14257200  1
  O  O25  1  0.16064200  0.45236700  0.85742800  1
  O  O26  1  0.33935800  0.45236700  0.35742800  1
  O  O27  1  0.66064200  0.54763300  0.64257200  1
  O  O28  1  0.23721100  0.65156500  0.01562100  1
  O  O29  1  0.76278900  0.34843500  0.98437900  1
  O  O30  1  0.73721100  0.34843500  0.48437900  1
  O  O31  1  0.26278900  0.65156500  0.51562100  1
  O  O32  1  0.47354500  0.95981900  0.87330000  1
  O  O33  1  0.52645500  0.04018100  0.12670000  1
  O  O34  1  0.97354500  0.04018100  0.62670000  1
  O  O35  1  0.02645500  0.95981900  0.37330000  1
  O  O36  1  0.99035900  0.83856500  0.15418600  1
  O  O37  1  0.00964100  0.16143500  0.84581400  1
  O  O38  1  0.49035900  0.16143500  0.34581400  1
  O  O39  1  0.50964100  0.83856500  0.65418600  1
  O  O40  1  0.73544900  0.79521800  0.24178200  1
  O  O41  1  0.26455100  0.20478200  0.75821800  1
  O  O42  1  0.23544900  0.20478200  0.25821800  1
  O  O43  1  0.76455100  0.79521800  0.74178200  1
  O  O44  1  0.24575900  0.80247600  0.25218100  1
  O  O45  1  0.75424100  0.19752400  0.74781900  1
  O  O46  1  0.74575900  0.19752400  0.24781900  1
  O  O47  1  0.25424100  0.80247600  0.75218100  1
  O  O48  1  0.72070200  0.90502900  0.47837300  1
  O  O49  1  0.27929800  0.09497100  0.52162700  1
  O  O50  1  0.22070200  0.09497100  0.02162700  1
  O  O51  1  0.77929800  0.90502900  0.97837300  1
  O  O52  1  0.49299500  0.74157600  0.36843800  1
  O  O53  1  0.50700500  0.25842400  0.63156200  1
  O  O54  1  0.99299500  0.25842400  0.13156200  1
  O  O55  1  0.00700500  0.74157600  0.86843800  1
  F  F56  1  0.50516100  0.59891900  0.11245400  1
  F  F57  1  0.49483900  0.40108100  0.88754600  1
  F  F58  1  0.00516100  0.40108100  0.38754600  1
  F  F59  1  0.99483900  0.59891900  0.61245400  1
