# generated using pymatgen
data_LuH3
_symmetry_space_group_name_H-M   'P 1'
_cell_length_a   6.11457724
_cell_length_b   6.11457724
_cell_length_c   6.38937200
_cell_angle_alpha   90.00000000
_cell_angle_beta   90.00000000
_cell_angle_gamma   119.99999174
_symmetry_Int_Tables_number   1
_chemical_formula_structural   LuH3
_chemical_formula_sum   'Lu6 H18'
_cell_volume   206.88152669
_cell_formula_units_Z   6
loop_
 _symmetry_equiv_pos_site_id
 _symmetry_equiv_pos_as_xyz
  1  'x, y, z'
loop_
 _atom_site_type_symbol
 _atom_site_label
 _atom_site_symmetry_multiplicity
 _atom_site_fract_x
 _atom_site_fract_y
 _atom_site_fract_z
 _atom_site_occupancy
  Lu  Lu0  1  0.66327700  0.00000000  0.75000000  1
  Lu  Lu1  1  0.33672300  0.33672300  0.75000000  1
  Lu  Lu2  1  0.00000000  0.66327700  0.75000000  1
  Lu  Lu3  1  0.66327700  0.66327700  0.25000000  1
  Lu  Lu4  1  0.00000000  0.33672300  0.25000000  1
  Lu  Lu5  1  0.33672300  0.00000000  0.25000000  1
  H  H6  1  0.32054000  0.97214000  0.90813800  1
  H  H7  1  0.65159900  0.67946000  0.90813800  1
  H  H8  1  0.02786000  0.34840100  0.90813800  1
  H  H9  1  0.32054000  0.34840100  0.40813800  1
  H  H10  1  0.02786000  0.67946000  0.40813800  1
  H  H11  1  0.65159900  0.97214000  0.40813800  1
  H  H12  1  0.67946000  0.02786000  0.09186200  1
  H  H13  1  0.34840100  0.32054000  0.09186200  1
  H  H14  1  0.97214000  0.65159900  0.09186200  1
  H  H15  1  0.67946000  0.65159900  0.59186200  1
  H  H16  1  0.97214000  0.32054000  0.59186200  1
  H  H17  1  0.34840100  0.02786000  0.59186200  1
  H  H18  1  0.00000000  0.00000000  0.75000000  1
  H  H19  1  0.00000000  0.00000000  0.25000000  1
  H  H20  1  0.66666700  0.33333300  0.81990700  1
  H  H21  1  0.66666700  0.33333300  0.31990700  1
  H  H22  1  0.33333300  0.66666700  0.18009300  1
  H  H23  1  0.33333300  0.66666700  0.68009300  1
