# generated using pymatgen
data_Y5Ge4
_symmetry_space_group_name_H-M   'P 1'
_cell_length_a   7.68036500
_cell_length_b   7.74727300
_cell_length_c   14.76830500
_cell_angle_alpha   90.00000000
_cell_angle_beta   90.00000000
_cell_angle_gamma   90.00000000
_symmetry_Int_Tables_number   1
_chemical_formula_structural   Y5Ge4
_chemical_formula_sum   'Y20 Ge16'
_cell_volume   878.74197681
_cell_formula_units_Z   4
loop_
 _symmetry_equiv_pos_site_id
 _symmetry_equiv_pos_as_xyz
  1  'x, y, z'
loop_
 _atom_site_type_symbol
 _atom_site_label
 _atom_site_symmetry_multiplicity
 _atom_site_fract_x
 _atom_site_fract_y
 _atom_site_fract_z
 _atom_site_occupancy
  Y  Y0  1  0.78507400  0.50160800  0.75000000  1
  Y  Y1  1  0.28507400  0.99839200  0.75000000  1
  Y  Y2  1  0.71492600  0.00160800  0.25000000  1
  Y  Y3  1  0.21492600  0.49839200  0.25000000  1
  Y  Y4  1  0.37912200  0.16063500  0.11699100  1
  Y  Y5  1  0.87912200  0.33936500  0.38300900  1
  Y  Y6  1  0.12087800  0.66063500  0.88300900  1
  Y  Y7  1  0.62087800  0.83936500  0.61699100  1
  Y  Y8  1  0.62087800  0.83936500  0.88300900  1
  Y  Y9  1  0.12087800  0.66063500  0.61699100  1
  Y  Y10  1  0.87912200  0.33936500  0.11699100  1
  Y  Y11  1  0.37912200  0.16063500  0.38300900  1
  Y  Y12  1  0.02943100  0.82405600  0.10149600  1
  Y  Y13  1  0.52943100  0.67594400  0.39850400  1
  Y  Y14  1  0.47056900  0.32405600  0.89850400  1
  Y  Y15  1  0.97056900  0.17594400  0.60149600  1
  Y  Y16  1  0.97056900  0.17594400  0.89850400  1
  Y  Y17  1  0.47056900  0.32405600  0.60149600  1
  Y  Y18  1  0.52943100  0.67594400  0.10149600  1
  Y  Y19  1  0.02943100  0.82405600  0.39850400  1
  Ge  Ge20  1  0.33523900  0.86254100  0.25000000  1
  Ge  Ge21  1  0.83523900  0.63745900  0.25000000  1
  Ge  Ge22  1  0.16476100  0.36254100  0.75000000  1
  Ge  Ge23  1  0.66476100  0.13745900  0.75000000  1
  Ge  Ge24  1  0.08444100  0.11715700  0.25000000  1
  Ge  Ge25  1  0.58444100  0.38284300  0.25000000  1
  Ge  Ge26  1  0.41555900  0.61715700  0.75000000  1
  Ge  Ge27  1  0.91555900  0.88284300  0.75000000  1
  Ge  Ge28  1  0.22061400  0.46835400  0.04428100  1
  Ge  Ge29  1  0.72061400  0.03164600  0.45571900  1
  Ge  Ge30  1  0.27938600  0.96835400  0.95571900  1
  Ge  Ge31  1  0.77938600  0.53164600  0.54428100  1
  Ge  Ge32  1  0.77938600  0.53164600  0.95571900  1
  Ge  Ge33  1  0.27938600  0.96835400  0.54428100  1
  Ge  Ge34  1  0.72061400  0.03164600  0.04428100  1
  Ge  Ge35  1  0.22061400  0.46835400  0.45571900  1
