# generated using pymatgen
data_Li7Eu8Si4Cl7O16
_symmetry_space_group_name_H-M   'P 1'
_cell_length_a   9.55657300
_cell_length_b   8.56246600
_cell_length_c   16.87926950
_cell_angle_alpha   83.98660018
_cell_angle_beta   90.00000000
_cell_angle_gamma   90.00000000
_symmetry_Int_Tables_number   1
_chemical_formula_structural   Li7Eu8Si4Cl7O16
_chemical_formula_sum   'Li14 Eu16 Si8 Cl14 O32'
_cell_volume   1373.59389055
_cell_formula_units_Z   2
loop_
 _symmetry_equiv_pos_site_id
 _symmetry_equiv_pos_as_xyz
  1  'x, y, z'
loop_
 _atom_site_type_symbol
 _atom_site_label
 _atom_site_symmetry_multiplicity
 _atom_site_fract_x
 _atom_site_fract_y
 _atom_site_fract_z
 _atom_site_occupancy
  Li  Li0  1  0.32034100  0.77878900  0.73686300  1
  Li  Li1  1  0.82007600  0.22090100  0.76323600  1
  Li  Li2  1  0.17992400  0.22090100  0.26323600  1
  Li  Li3  1  0.67965900  0.77878900  0.23686300  1
  Li  Li4  1  0.25229400  0.82326500  0.87556300  1
  Li  Li5  1  0.75132400  0.17924600  0.62413200  1
  Li  Li6  1  0.24867600  0.17924600  0.12413200  1
  Li  Li7  1  0.74770600  0.82326500  0.37556300  1
  Li  Li8  1  0.15210100  0.76170900  0.01700900  1
  Li  Li9  1  0.64985100  0.23582800  0.48487800  1
  Li  Li10  1  0.35014900  0.23582800  0.98487800  1
  Li  Li11  1  0.84789900  0.76170900  0.51700900  1
  Li  Li12  1  0.23215800  0.49616800  0.97858300  1
  Li  Li13  1  0.76784200  0.49616800  0.47858300  1
  Eu  Eu14  1  0.49310700  0.84384200  0.05802300  1
  Eu  Eu15  1  0.99565000  0.15322000  0.44279900  1
  Eu  Eu16  1  0.00435000  0.15322000  0.94279900  1
  Eu  Eu17  1  0.50689300  0.84384200  0.55802300  1
  Eu  Eu18  1  0.96425000  0.61146200  0.71182300  1
  Eu  Eu19  1  0.46706500  0.38989500  0.78743500  1
  Eu  Eu20  1  0.53293500  0.38989500  0.28743500  1
  Eu  Eu21  1  0.03575000  0.61146200  0.21182300  1
  Eu  Eu22  1  0.85695100  0.66609900  0.96661600  1
  Eu  Eu23  1  0.35776900  0.33535400  0.53356300  1
  Eu  Eu24  1  0.64223100  0.33535400  0.03356400  1
  Eu  Eu25  1  0.14304900  0.66609900  0.46661600  1
  Eu  Eu26  1  0.62777700  0.86440600  0.80299900  1
  Eu  Eu27  1  0.12785200  0.13416600  0.69612400  1
  Eu  Eu28  1  0.87214800  0.13416600  0.19612400  1
  Eu  Eu29  1  0.37222300  0.86440600  0.30299900  1
  Si  Si30  1  0.45254100  0.62087300  0.92265600  1
  Si  Si31  1  0.95224600  0.37848300  0.57706500  1
  Si  Si32  1  0.04775400  0.37848300  0.07706500  1
  Si  Si33  1  0.54745900  0.62087300  0.42265600  1
  Si  Si34  1  0.50091200  0.11497700  0.67175600  1
  Si  Si35  1  0.00134000  0.88480100  0.82836200  1
  Si  Si36  1  0.99866000  0.88480100  0.32836200  1
  Si  Si37  1  0.49908800  0.11497700  0.17175600  1
  Cl  Cl38  1  0.27117500  0.61289100  0.63333800  1
  Cl  Cl39  1  0.77155100  0.38690000  0.86699600  1
  Cl  Cl40  1  0.22844900  0.38690000  0.36699600  1
  Cl  Cl41  1  0.72882500  0.61289100  0.13333800  1
  Cl  Cl42  1  0.74934200  0.99954300  0.00018700  1
  Cl  Cl43  1  0.25065800  0.99954300  0.50018700  1
  Cl  Cl44  1  0.14929100  0.39964300  0.82466100  1
  Cl  Cl45  1  0.64943100  0.60433000  0.67840900  1
  Cl  Cl46  1  0.35056900  0.60433000  0.17840900  1
  Cl  Cl47  1  0.85070900  0.39964300  0.32466100  1
  Cl  Cl48  1  0.88946300  0.93765700  0.61423700  1
  Cl  Cl49  1  0.38918000  0.06211300  0.88590900  1
  Cl  Cl50  1  0.61082000  0.06211300  0.38590900  1
  Cl  Cl51  1  0.11053700  0.93765700  0.11423700  1
  O  O52  1  0.94183900  0.57005700  0.55532400  1
  O  O53  1  0.43941600  0.42850900  0.94111000  1
  O  O54  1  0.56058400  0.42850900  0.44111000  1
  O  O55  1  0.05816100  0.57005700  0.05532400  1
  O  O56  1  0.63394000  0.15324100  0.72890400  1
  O  O57  1  0.13410600  0.84661300  0.77101700  1
  O  O58  1  0.86589400  0.84661300  0.27101700  1
  O  O59  1  0.36606000  0.15324100  0.22890400  1
  O  O60  1  0.32585700  0.70010900  0.97204000  1
  O  O61  1  0.82854700  0.29658900  0.52617000  1
  O  O62  1  0.17145300  0.29658900  0.02617000  1
  O  O63  1  0.67414300  0.70010900  0.47204000  1
  O  O64  1  0.87121100  0.76174100  0.82009200  1
  O  O65  1  0.37094800  0.23831000  0.67997900  1
  O  O66  1  0.62905200  0.23831000  0.17997900  1
  O  O67  1  0.12878900  0.76174100  0.32009200  1
  O  O68  1  0.42811800  0.67457200  0.82716800  1
  O  O69  1  0.92726400  0.32687100  0.67235800  1
  O  O70  1  0.07273600  0.32687100  0.17235800  1
  O  O71  1  0.57188200  0.67457200  0.32716800  1
  O  O72  1  0.60275700  0.68672900  0.95107900  1
  O  O73  1  0.10401000  0.31156200  0.55021400  1
  O  O74  1  0.89599000  0.31156200  0.05021400  1
  O  O75  1  0.39724300  0.68672900  0.45107900  1
  O  O76  1  0.05425900  0.86030100  0.92266600  1
  O  O77  1  0.55390800  0.13878400  0.57754900  1
  O  O78  1  0.44609200  0.13878400  0.07754900  1
  O  O79  1  0.94574100  0.86030100  0.42266600  1
  O  O80  1  0.54649800  0.93132400  0.19226000  1
  O  O81  1  0.04577800  0.06852900  0.30765000  1
  O  O82  1  0.95422200  0.06852900  0.80765000  1
  O  O83  1  0.45350200  0.93132400  0.69226000  1
