# generated using pymatgen
data_MnSeO3
_symmetry_space_group_name_H-M   'P 1'
_cell_length_a   8.49187500
_cell_length_b   8.19045300
_cell_length_c   10.65423069
_cell_angle_alpha   54.98857391
_cell_angle_beta   90.00000000
_cell_angle_gamma   90.00000000
_symmetry_Int_Tables_number   1
_chemical_formula_structural   MnSeO3
_chemical_formula_sum   'Mn8 Se8 O24'
_cell_volume   606.92841988
_cell_formula_units_Z   8
loop_
 _symmetry_equiv_pos_site_id
 _symmetry_equiv_pos_as_xyz
  1  'x, y, z'
loop_
 _atom_site_type_symbol
 _atom_site_label
 _atom_site_symmetry_multiplicity
 _atom_site_fract_x
 _atom_site_fract_y
 _atom_site_fract_z
 _atom_site_occupancy
  Mn  Mn0  1  0.12046800  0.30379200  0.62406500  1
  Mn  Mn1  1  0.62046800  0.69620800  0.87593500  1
  Mn  Mn2  1  0.87953200  0.69620800  0.37593500  1
  Mn  Mn3  1  0.37953200  0.30379200  0.12406500  1
  Mn  Mn4  1  0.20479500  0.02462100  0.48547300  1
  Mn  Mn5  1  0.70479500  0.97537900  0.01452700  1
  Mn  Mn6  1  0.79520500  0.97537900  0.51452700  1
  Mn  Mn7  1  0.29520500  0.02462100  0.98547300  1
  Se  Se8  1  0.36985900  0.56607600  0.71078900  1
  Se  Se9  1  0.86985900  0.43392400  0.78921100  1
  Se  Se10  1  0.63014100  0.43392400  0.28921100  1
  Se  Se11  1  0.13014100  0.56607600  0.21078900  1
  Se  Se12  1  0.49709000  0.86388400  0.33073800  1
  Se  Se13  1  0.99709000  0.13611600  0.16926200  1
  Se  Se14  1  0.50291000  0.13611600  0.66926200  1
  Se  Se15  1  0.00291000  0.86388400  0.83073800  1
  O  O16  1  0.51119000  0.02951500  0.12961600  1
  O  O17  1  0.01119000  0.97048500  0.37038400  1
  O  O18  1  0.48881000  0.97048500  0.87038400  1
  O  O19  1  0.98881000  0.02951500  0.62961600  1
  O  O20  1  0.68577000  0.85582900  0.39586900  1
  O  O21  1  0.18577000  0.14417100  0.10413100  1
  O  O22  1  0.31423000  0.14417100  0.60413100  1
  O  O23  1  0.81423000  0.85582900  0.89586900  1
  O  O24  1  0.41574800  0.52833700  0.88529000  1
  O  O25  1  0.91574800  0.47166300  0.61471000  1
  O  O26  1  0.58425200  0.47166300  0.11471000  1
  O  O27  1  0.08425200  0.52833700  0.38529000  1
  O  O28  1  0.41165600  0.03272300  0.35819100  1
  O  O29  1  0.91165600  0.96727700  0.14180900  1
  O  O30  1  0.58834400  0.96727700  0.64180900  1
  O  O31  1  0.08834400  0.03272300  0.85819100  1
  O  O32  1  0.29079100  0.33731600  0.76661100  1
  O  O33  1  0.79079100  0.66268400  0.73338900  1
  O  O34  1  0.70920900  0.66268400  0.23338900  1
  O  O35  1  0.20920900  0.33731600  0.26661100  1
  O  O36  1  0.20615000  0.71148500  0.65435500  1
  O  O37  1  0.70615000  0.28851500  0.84564500  1
  O  O38  1  0.79385000  0.28851500  0.34564500  1
  O  O39  1  0.29385000  0.71148500  0.15435500  1
