# generated using pymatgen
data_Al27(FeNi2)2
_symmetry_space_group_name_H-M   'P 1'
_cell_length_a   6.21352443
_cell_length_b   6.27248066
_cell_length_c   25.76432591
_cell_angle_alpha   90.10470541
_cell_angle_beta   95.04258006
_cell_angle_gamma   90.00215844
_symmetry_Int_Tables_number   1
_chemical_formula_structural   Al27(FeNi2)2
_chemical_formula_sum   'Al54 Fe4 Ni8'
_cell_volume   1000.25621611
_cell_formula_units_Z   2
loop_
 _symmetry_equiv_pos_site_id
 _symmetry_equiv_pos_as_xyz
  1  'x, y, z'
loop_
 _atom_site_type_symbol
 _atom_site_label
 _atom_site_symmetry_multiplicity
 _atom_site_fract_x
 _atom_site_fract_y
 _atom_site_fract_z
 _atom_site_occupancy
  Al  Al0  1  0.08634800  0.79050400  0.24342700  1
  Al  Al1  1  0.09053400  0.79152800  0.57687600  1
  Al  Al2  1  0.09085500  0.79121600  0.91027600  1
  Al  Al3  1  0.91333200  0.29037400  0.25654800  1
  Al  Al4  1  0.91387100  0.28627200  0.59010700  1
  Al  Al5  1  0.91432300  0.28641300  0.92341600  1
  Al  Al6  1  0.91021500  0.21083100  0.09041300  1
  Al  Al7  1  0.91022400  0.21174300  0.42349100  1
  Al  Al8  1  0.91024800  0.21173000  0.75690400  1
  Al  Al9  1  0.09065300  0.71138500  0.07656300  1
  Al  Al10  1  0.08944100  0.71073800  0.40968200  1
  Al  Al11  1  0.09027000  0.71114700  0.74328000  1
  Al  Al12  1  0.40593400  0.46824300  0.25564600  1
  Al  Al13  1  0.40194400  0.46884900  0.58954400  1
  Al  Al14  1  0.40163300  0.46903900  0.92287900  1
  Al  Al15  1  0.59409600  0.96848200  0.24429800  1
  Al  Al16  1  0.59348000  0.97400800  0.57760500  1
  Al  Al17  1  0.59360000  0.97396900  0.91092900  1
  Al  Al18  1  0.59683800  0.52791500  0.07738700  1
  Al  Al19  1  0.59619700  0.52839200  0.41028900  1
  Al  Al20  1  0.59612700  0.52758400  0.74388400  1
  Al  Al21  1  0.40341900  0.02797200  0.08969100  1
  Al  Al22  1  0.40296000  0.02658500  0.42279300  1
  Al  Al23  1  0.40309400  0.02624300  0.75622400  1
  Al  Al24  1  0.61157600  0.30674900  0.16878300  1
  Al  Al25  1  0.61121300  0.30377900  0.50154500  1
  Al  Al26  1  0.61121200  0.30361700  0.83491300  1
  Al  Al27  1  0.38884200  0.80695600  0.33126600  1
  Al  Al28  1  0.38919600  0.80657800  0.66461200  1
  Al  Al29  1  0.38863300  0.80682300  0.99799600  1
  Al  Al30  1  0.39282000  0.69410500  0.16628300  1
  Al  Al31  1  0.38992400  0.69547600  0.49873700  1
  Al  Al32  1  0.38974900  0.69547600  0.83198000  1
  Al  Al33  1  0.60660700  0.19520300  0.00055200  1
  Al  Al34  1  0.60691000  0.19409000  0.33373000  1
  Al  Al35  1  0.60643800  0.19585300  0.66725400  1
  Al  Al36  1  0.21269700  0.11290600  0.18211600  1
  Al  Al37  1  0.21175600  0.11252100  0.51546500  1
  Al  Al38  1  0.21140000  0.11293800  0.84881200  1
  Al  Al39  1  0.78745200  0.61297500  0.31786900  1
  Al  Al40  1  0.78759700  0.61199500  0.65215700  1
  Al  Al41  1  0.78747600  0.61166000  0.98553200  1
  Al  Al42  1  0.78633200  0.88708800  0.15318400  1
  Al  Al43  1  0.78788600  0.88827100  0.48563800  1
  Al  Al44  1  0.78773600  0.88858100  0.81900300  1
  Al  Al45  1  0.21269700  0.38581600  0.01366800  1
  Al  Al46  1  0.21380500  0.38721100  0.34692100  1
  Al  Al47  1  0.21306500  0.38625900  0.68041500  1
  Al  Al48  1  0.99970300  0.50241500  0.16754200  1
  Al  Al49  1  0.00104500  0.50124100  0.50009700  1
  Al  Al50  1  0.00110200  0.50104700  0.83354800  1
  Al  Al51  1  0.00184800  0.00129300  0.99957700  1
  Al  Al52  1  0.99960600  0.00248200  0.33240100  1
  Al  Al53  1  0.00095000  0.00134700  0.66607100  1
  Fe  Fe54  1  0.26414700  0.11901000  0.27848700  1
  Fe  Fe55  1  0.26459000  0.11959700  0.61137500  1
  Fe  Fe56  1  0.26469600  0.11936600  0.94444700  1
  Fe  Fe57  1  0.73560900  0.61962800  0.22171300  1
  Ni  Ni58  1  0.73571700  0.62062500  0.55535200  1
  Ni  Ni59  1  0.73517300  0.62070700  0.88872000  1
  Ni  Ni60  1  0.73616500  0.87961300  0.05546800  1
  Ni  Ni61  1  0.73635800  0.88027800  0.38927300  1
  Ni  Ni62  1  0.73643300  0.88022200  0.72226700  1
  Ni  Ni63  1  0.26323600  0.37983400  0.11066200  1
  Ni  Ni64  1  0.26585000  0.37857000  0.44469300  1
  Ni  Ni65  1  0.26512200  0.37863900  0.77772500  1
