# generated using pymatgen
data_Na3Fe(SO4)3
_symmetry_space_group_name_H-M   'P 1'
_cell_length_a   8.49520782
_cell_length_b   8.49520782
_cell_length_c   8.49520820
_cell_angle_alpha   107.65225726
_cell_angle_beta   107.65225726
_cell_angle_gamma   107.65225964
_symmetry_Int_Tables_number   1
_chemical_formula_structural   Na3Fe(SO4)3
_chemical_formula_sum   'Na6 Fe2 S6 O24'
_cell_volume   501.22243966
_cell_formula_units_Z   2
loop_
 _symmetry_equiv_pos_site_id
 _symmetry_equiv_pos_as_xyz
  1  'x, y, z'
loop_
 _atom_site_type_symbol
 _atom_site_label
 _atom_site_symmetry_multiplicity
 _atom_site_fract_x
 _atom_site_fract_y
 _atom_site_fract_z
 _atom_site_occupancy
  Na  Na0  1  0.61589600  0.14142500  0.76691500  1
  Na  Na1  1  0.76691500  0.61589600  0.14142500  1
  Na  Na2  1  0.14142500  0.76691500  0.61589600  1
  Na  Na3  1  0.38410400  0.85857500  0.23308500  1
  Na  Na4  1  0.23308500  0.38410400  0.85857500  1
  Na  Na5  1  0.85857500  0.23308500  0.38410400  1
  Fe  Fe6  1  0.00000000  0.00000000  0.00000000  1
  Fe  Fe7  1  0.50000000  0.50000000  0.50000000  1
  S  S8  1  0.90068600  0.55161400  0.76715800  1
  S  S9  1  0.76715800  0.90068600  0.55161400  1
  S  S10  1  0.55161400  0.76715800  0.90068600  1
  S  S11  1  0.09931400  0.44838600  0.23284200  1
  S  S12  1  0.23284200  0.09931400  0.44838600  1
  S  S13  1  0.44838600  0.23284200  0.09931400  1
  O  O14  1  0.75674800  0.52022400  0.58966400  1
  O  O15  1  0.58966400  0.75674800  0.52022400  1
  O  O16  1  0.52022400  0.58966400  0.75674800  1
  O  O17  1  0.24325200  0.47977600  0.41033600  1
  O  O18  1  0.41033600  0.24325200  0.47977600  1
  O  O19  1  0.47977600  0.41033600  0.24325200  1
  O  O20  1  0.81748200  0.45883300  0.86058200  1
  O  O21  1  0.86058200  0.81748200  0.45883300  1
  O  O22  1  0.45883300  0.86058200  0.81748200  1
  O  O23  1  0.18251800  0.54116700  0.13941800  1
  O  O24  1  0.13941800  0.18251800  0.54116700  1
  O  O25  1  0.54116700  0.13941800  0.18251800  1
  O  O26  1  0.03162100  0.49135200  0.71688300  1
  O  O27  1  0.71688300  0.03162100  0.49135200  1
  O  O28  1  0.49135200  0.71688300  0.03162100  1
  O  O29  1  0.96837900  0.50864800  0.28311700  1
  O  O30  1  0.28311700  0.96837900  0.50864800  1
  O  O31  1  0.50864800  0.28311700  0.96837900  1
  O  O32  1  0.00553000  0.75644100  0.88679700  1
  O  O33  1  0.88679700  0.00553000  0.75644100  1
  O  O34  1  0.75644100  0.88679700  0.00553000  1
  O  O35  1  0.99447000  0.24355900  0.11320300  1
  O  O36  1  0.11320300  0.99447000  0.24355900  1
  O  O37  1  0.24355900  0.11320300  0.99447000  1
