# generated using pymatgen
data_CsTi5Se8
_symmetry_space_group_name_H-M   'P 1'
_cell_length_a   3.74860700
_cell_length_b   9.28065539
_cell_length_c   9.70354640
_cell_angle_alpha   104.45706228
_cell_angle_beta   101.13705118
_cell_angle_gamma   90.00000000
_symmetry_Int_Tables_number   1
_chemical_formula_structural   CsTi5Se8
_chemical_formula_sum   'Cs1 Ti5 Se8'
_cell_volume   320.32285388
_cell_formula_units_Z   1
loop_
 _symmetry_equiv_pos_site_id
 _symmetry_equiv_pos_as_xyz
  1  'x, y, z'
loop_
 _atom_site_type_symbol
 _atom_site_label
 _atom_site_symmetry_multiplicity
 _atom_site_fract_x
 _atom_site_fract_y
 _atom_site_fract_z
 _atom_site_occupancy
  Cs  Cs0  1  0.50000000  0.50000000  0.00000000  1
  Ti  Ti1  1  0.00000000  0.00000000  0.00000000  1
  Ti  Ti2  1  0.65876400  0.00672200  0.31752800  1
  Ti  Ti3  1  0.34123600  0.99327800  0.68247200  1
  Ti  Ti4  1  0.70972600  0.34314700  0.41945300  1
  Ti  Ti5  1  0.29027400  0.65685200  0.58054700  1
  Se  Se6  1  0.42559900  0.82845800  0.85119700  1
  Se  Se7  1  0.57440100  0.17154200  0.14880300  1
  Se  Se8  1  0.90927600  0.16404100  0.81855200  1
  Se  Se9  1  0.09072400  0.83595900  0.18144800  1
  Se  Se10  1  0.83609600  0.50947000  0.67219200  1
  Se  Se11  1  0.16390400  0.49053000  0.32780800  1
  Se  Se12  1  0.75773500  0.83293500  0.51546900  1
  Se  Se13  1  0.24226500  0.16706500  0.48453100  1
