# generated using pymatgen
data_TbBO3
_symmetry_space_group_name_H-M   'P 1'
_cell_length_a   4.00517737
_cell_length_b   4.31337962
_cell_length_c   8.58383800
_cell_angle_alpha   90.00000000
_cell_angle_beta   90.00000000
_cell_angle_gamma   56.25929467
_symmetry_Int_Tables_number   1
_chemical_formula_structural   TbBO3
_chemical_formula_sum   'Tb2 B2 O6'
_cell_volume   123.31457105
_cell_formula_units_Z   2
loop_
 _symmetry_equiv_pos_site_id
 _symmetry_equiv_pos_as_xyz
  1  'x, y, z'
loop_
 _atom_site_type_symbol
 _atom_site_label
 _atom_site_symmetry_multiplicity
 _atom_site_fract_x
 _atom_site_fract_y
 _atom_site_fract_z
 _atom_site_occupancy
  Tb  Tb0  1  0.94741500  0.98568300  0.49970700  1
  Tb  Tb1  1  0.94741500  0.98568300  0.00029300  1
  B  B2  1  0.68096400  0.54940800  0.75000000  1
  B  B3  1  0.21874400  0.28982900  0.25000000  1
  O  O4  1  0.60976000  0.71604000  0.60374800  1
  O  O5  1  0.29663600  0.38023300  0.10450200  1
  O  O6  1  0.29663600  0.38023300  0.39549800  1
  O  O7  1  0.60976000  0.71604000  0.89625200  1
  O  O8  1  0.82930300  0.17455200  0.75000000  1
  O  O9  1  0.05737000  0.08030000  0.25000000  1
