# generated using pymatgen
data_AlSeCl7
_symmetry_space_group_name_H-M   'P 1'
_cell_length_a   6.57534273
_cell_length_b   8.46613771
_cell_length_c   10.20696308
_cell_angle_alpha   85.69298372
_cell_angle_beta   76.69928607
_cell_angle_gamma   83.55584777
_symmetry_Int_Tables_number   1
_chemical_formula_structural   AlSeCl7
_chemical_formula_sum   'Al2 Se2 Cl14'
_cell_volume   548.74971853
_cell_formula_units_Z   2
loop_
 _symmetry_equiv_pos_site_id
 _symmetry_equiv_pos_as_xyz
  1  'x, y, z'
loop_
 _atom_site_type_symbol
 _atom_site_label
 _atom_site_symmetry_multiplicity
 _atom_site_fract_x
 _atom_site_fract_y
 _atom_site_fract_z
 _atom_site_occupancy
  Al  Al0  1  0.45935300  0.39818700  0.95320100  1
  Al  Al1  1  0.21022500  0.95613400  0.51716800  1
  Se  Se2  1  0.99822700  0.00803700  0.99605400  1
  Se  Se3  1  0.78282300  0.56139900  0.52749900  1
  Cl  Cl4  1  0.87644100  0.79325800  0.95323200  1
  Cl  Cl5  1  0.66193800  0.19088400  0.87054100  1
  Cl  Cl6  1  0.13416000  0.34084200  0.00118400  1
  Cl  Cl7  1  0.26566500  0.89410800  0.07006300  1
  Cl  Cl8  1  0.78541000  0.04983800  0.19025900  1
  Cl  Cl9  1  0.28123200  0.01336600  0.70478400  1
  Cl  Cl10  1  0.64231900  0.34549700  0.50895800  1
  Cl  Cl11  1  0.02465900  0.46359800  0.63238800  1
  Cl  Cl12  1  0.41263500  0.75165800  0.42842500  1
  Cl  Cl13  1  0.88583400  0.89870300  0.55599500  1
  Cl  Cl14  1  0.97485300  0.56964600  0.32283100  1
  Cl  Cl15  1  0.48187200  0.59017400  0.79581000  1
  Cl  Cl16  1  0.53989500  0.47997000  0.12447200  1
  Cl  Cl17  1  0.25956100  0.15519900  0.37533400  1
