# generated using pymatgen
data_BaRe2O9
_symmetry_space_group_name_H-M   'P 1'
_cell_length_a   7.52071000
_cell_length_b   7.66914496
_cell_length_c   15.78882347
_cell_angle_alpha   89.65672040
_cell_angle_beta   84.17359122
_cell_angle_gamma   89.87259036
_symmetry_Int_Tables_number   1
_chemical_formula_structural   BaRe2O9
_chemical_formula_sum   'Ba4 Re8 O36'
_cell_volume   905.93663233
_cell_formula_units_Z   4
loop_
 _symmetry_equiv_pos_site_id
 _symmetry_equiv_pos_as_xyz
  1  'x, y, z'
loop_
 _atom_site_type_symbol
 _atom_site_label
 _atom_site_symmetry_multiplicity
 _atom_site_fract_x
 _atom_site_fract_y
 _atom_site_fract_z
 _atom_site_occupancy
  Ba  Ba0  1  0.22115500  0.82854200  0.13177400  1
  Ba  Ba1  1  0.77884500  0.17145800  0.86822600  1
  Ba  Ba2  1  0.21867900  0.18070300  0.63104200  1
  Ba  Ba3  1  0.78132100  0.81929700  0.36895800  1
  Re  Re4  1  0.69973700  0.86288200  0.64942700  1
  Re  Re5  1  0.30026300  0.13711800  0.35057300  1
  Re  Re6  1  0.76182700  0.69364600  0.98823800  1
  Re  Re7  1  0.23817300  0.30635400  0.01176200  1
  Re  Re8  1  0.28428100  0.87245800  0.85277600  1
  Re  Re9  1  0.71571900  0.12754200  0.14722400  1
  Re  Re10  1  0.23648700  0.69744300  0.50850400  1
  Re  Re11  1  0.76351300  0.30255700  0.49149600  1
  O  O12  1  0.16270000  0.02985200  0.79905800  1
  O  O13  1  0.83730000  0.97014800  0.20094200  1
  O  O14  1  0.51356000  0.92126400  0.83876400  1
  O  O15  1  0.48644000  0.07873600  0.16123600  1
  O  O16  1  0.08040900  0.64707900  0.43709400  1
  O  O17  1  0.91959100  0.35292100  0.56290600  1
  O  O18  1  0.76777900  0.84972800  0.54018800  1
  O  O19  1  0.23222100  0.15027200  0.45981200  1
  O  O20  1  0.71182400  0.49426700  0.94224200  1
  O  O21  1  0.28817600  0.50573300  0.05775800  1
  O  O22  1  0.17771900  0.97144800  0.30415400  1
  O  O23  1  0.82228100  0.02855200  0.69584600  1
  O  O24  1  0.42757700  0.78502400  0.45056000  1
  O  O25  1  0.57242300  0.21497600  0.54944000  1
  O  O26  1  0.08285300  0.33359100  0.93705500  1
  O  O27  1  0.91714700  0.66640900  0.06294500  1
  O  O28  1  0.21515200  0.87942200  0.96205700  1
  O  O29  1  0.78484800  0.12057800  0.03794300  1
  O  O30  1  0.29481100  0.51225100  0.56543100  1
  O  O31  1  0.70518900  0.48774900  0.43456900  1
  O  O32  1  0.73385400  0.66009800  0.69553500  1
  O  O33  1  0.26614600  0.33990200  0.30446500  1
  O  O34  1  0.49691200  0.34572200  0.74828100  1
  O  O35  1  0.50308800  0.65427800  0.25171900  1
  O  O36  1  0.00270200  0.56910300  0.24615100  1
  O  O37  1  0.99729800  0.43089700  0.75384900  1
  O  O38  1  0.43449000  0.21569800  0.96053100  1
  O  O39  1  0.56551000  0.78430200  0.03946900  1
  O  O40  1  0.47012700  0.91157900  0.66136600  1
  O  O41  1  0.52987300  0.08842100  0.33863400  1
  O  O42  1  0.85359000  0.83415600  0.90730300  1
  O  O43  1  0.14641000  0.16584400  0.09269700  1
  O  O44  1  0.25170800  0.66213700  0.81620300  1
  O  O45  1  0.74829200  0.33786300  0.18379700  1
  O  O46  1  0.14063900  0.85270400  0.58041800  1
  O  O47  1  0.85936100  0.14729600  0.41958200  1
