# generated using pymatgen
data_BaPr2NiO5
_symmetry_space_group_name_H-M   'P 1'
_cell_length_a   3.87899955
_cell_length_b   6.02595402
_cell_length_c   6.94121642
_cell_angle_alpha   115.72307446
_cell_angle_beta   106.22043938
_cell_angle_gamma   90.00775263
_symmetry_Int_Tables_number   1
_chemical_formula_structural   BaPr2NiO5
_chemical_formula_sum   'Ba1 Pr2 Ni1 O5'
_cell_volume   138.96338379
_cell_formula_units_Z   1
loop_
 _symmetry_equiv_pos_site_id
 _symmetry_equiv_pos_as_xyz
  1  'x, y, z'
loop_
 _atom_site_type_symbol
 _atom_site_label
 _atom_site_symmetry_multiplicity
 _atom_site_fract_x
 _atom_site_fract_y
 _atom_site_fract_z
 _atom_site_occupancy
  Ba  Ba0  1  0.00000000  0.00000000  0.00000000  1
  Pr  Pr1  1  0.20265200  0.70261600  0.40521600  1
  Pr  Pr2  1  0.79734800  0.29738400  0.59478400  1
  Ni  Ni3  1  0.50000000  0.50000000  0.00000000  1
  O  O4  1  0.99999900  0.50000000  0.00000000  1
  O  O5  1  0.35602000  0.59778800  0.71198900  1
  O  O6  1  0.64398000  0.40221200  0.28801100  1
  O  O7  1  0.64400100  0.88580300  0.28801900  1
  O  O8  1  0.35599900  0.11419700  0.71198100  1
