# generated using pymatgen
data_GdS2
_symmetry_space_group_name_H-M   'P 1'
_cell_length_a   3.94468600
_cell_length_b   7.88629300
_cell_length_c   7.99413946
_cell_angle_alpha   89.93305812
_cell_angle_beta   90.00000000
_cell_angle_gamma   90.00000000
_symmetry_Int_Tables_number   1
_chemical_formula_structural   GdS2
_chemical_formula_sum   'Gd4 S8'
_cell_volume   248.68911161
_cell_formula_units_Z   4
loop_
 _symmetry_equiv_pos_site_id
 _symmetry_equiv_pos_as_xyz
  1  'x, y, z'
loop_
 _atom_site_type_symbol
 _atom_site_label
 _atom_site_symmetry_multiplicity
 _atom_site_fract_x
 _atom_site_fract_y
 _atom_site_fract_z
 _atom_site_occupancy
  Gd  Gd0  1  0.28549500  0.37067700  0.27585300  1
  Gd  Gd1  1  0.78549500  0.12932300  0.72414700  1
  Gd  Gd2  1  0.71450500  0.62932300  0.72414700  1
  Gd  Gd3  1  0.21450500  0.87067700  0.27585300  1
  S  S4  1  0.83797600  0.38984000  0.00274900  1
  S  S5  1  0.33797600  0.11016000  0.99725100  1
  S  S6  1  0.16202400  0.61016000  0.99725100  1
  S  S7  1  0.66202400  0.88984000  0.00274900  1
  S  S8  1  0.26052900  0.37485500  0.63256600  1
  S  S9  1  0.76052900  0.12514500  0.36743400  1
  S  S10  1  0.73947100  0.62514500  0.36743400  1
  S  S11  1  0.23947100  0.87485500  0.63256600  1
