# generated using pymatgen
data_TlBi(MoO4)2
_symmetry_space_group_name_H-M   'P 1'
_cell_length_a   12.22342300
_cell_length_b   5.37423500
_cell_length_c   11.75997887
_cell_angle_alpha   87.49342162
_cell_angle_beta   90.00000000
_cell_angle_gamma   90.00000000
_symmetry_Int_Tables_number   1
_chemical_formula_structural   TlBi(MoO4)2
_chemical_formula_sum   'Tl4 Bi4 Mo8 O32'
_cell_volume   771.79206021
_cell_formula_units_Z   4
loop_
 _symmetry_equiv_pos_site_id
 _symmetry_equiv_pos_as_xyz
  1  'x, y, z'
loop_
 _atom_site_type_symbol
 _atom_site_label
 _atom_site_symmetry_multiplicity
 _atom_site_fract_x
 _atom_site_fract_y
 _atom_site_fract_z
 _atom_site_occupancy
  Tl  Tl0  1  0.62376800  0.98384300  0.87795500  1
  Tl  Tl1  1  0.37623200  0.01615700  0.12204500  1
  Tl  Tl2  1  0.12376800  0.51615700  0.12204500  1
  Tl  Tl3  1  0.87623200  0.48384300  0.87795500  1
  Bi  Bi4  1  0.87577900  0.50824200  0.37872900  1
  Bi  Bi5  1  0.12422100  0.49175800  0.62127100  1
  Bi  Bi6  1  0.37577900  0.99175800  0.62127100  1
  Bi  Bi7  1  0.62422100  0.00824200  0.37872900  1
  Mo  Mo8  1  0.88585700  0.97820500  0.61306100  1
  Mo  Mo9  1  0.11414300  0.02179500  0.38693900  1
  Mo  Mo10  1  0.38585700  0.52179500  0.38693900  1
  Mo  Mo11  1  0.61414300  0.47820500  0.61306100  1
  Mo  Mo12  1  0.85398700  0.00630700  0.15498300  1
  Mo  Mo13  1  0.14601300  0.99369300  0.84501700  1
  Mo  Mo14  1  0.35398700  0.49369300  0.84501700  1
  Mo  Mo15  1  0.64601300  0.50630700  0.15498300  1
  O  O16  1  0.19751700  0.92051700  0.27695700  1
  O  O17  1  0.80248300  0.07948300  0.72304300  1
  O  O18  1  0.69751700  0.57948400  0.72304300  1
  O  O19  1  0.30248300  0.42051700  0.27695700  1
  O  O20  1  0.80297700  0.85243500  0.49948500  1
  O  O21  1  0.19702300  0.14756500  0.50051500  1
  O  O22  1  0.30297700  0.64756500  0.50051500  1
  O  O23  1  0.69702300  0.35243500  0.49948500  1
  O  O24  1  0.47300400  0.76278300  0.32334100  1
  O  O25  1  0.52699600  0.23721700  0.67665900  1
  O  O26  1  0.97300400  0.73721700  0.67665900  1
  O  O27  1  0.02699600  0.26278300  0.32334100  1
  O  O28  1  0.77231500  0.83906300  0.05865000  1
  O  O29  1  0.22768500  0.16093700  0.94135000  1
  O  O30  1  0.27231500  0.66093700  0.94135000  1
  O  O31  1  0.72768500  0.33906300  0.05865000  1
  O  O32  1  0.53990300  0.74948900  0.55099200  1
  O  O33  1  0.46009700  0.25051100  0.44900800  1
  O  O34  1  0.03990300  0.75051100  0.44900800  1
  O  O35  1  0.96009700  0.24948900  0.55099200  1
  O  O36  1  0.70901900  0.68618600  0.27580800  1
  O  O37  1  0.29098100  0.31381400  0.72419200  1
  O  O38  1  0.20901900  0.81381400  0.72419200  1
  O  O39  1  0.79098100  0.18618600  0.27580800  1
  O  O40  1  0.93661900  0.76203200  0.22924400  1
  O  O41  1  0.06338100  0.23796800  0.77075600  1
  O  O42  1  0.43661900  0.73796800  0.77075600  1
  O  O43  1  0.56338100  0.26203200  0.22924400  1
  O  O44  1  0.55048300  0.68652100  0.07740800  1
  O  O45  1  0.44951700  0.31347900  0.92259200  1
  O  O46  1  0.05048300  0.81347900  0.92259200  1
  O  O47  1  0.94951700  0.18652100  0.07740800  1
