# generated using pymatgen
data_LaSi2Rh3
_symmetry_space_group_name_H-M   'P 1'
_cell_length_a   5.66152400
_cell_length_b   6.72951295
_cell_length_c   6.72951295
_cell_angle_alpha   64.68835834
_cell_angle_beta   65.12444005
_cell_angle_gamma   65.12444005
_symmetry_Int_Tables_number   1
_chemical_formula_structural   LaSi2Rh3
_chemical_formula_sum   'La2 Si4 Rh6'
_cell_volume   201.00371885
_cell_formula_units_Z   2
loop_
 _symmetry_equiv_pos_site_id
 _symmetry_equiv_pos_as_xyz
  1  'x, y, z'
loop_
 _atom_site_type_symbol
 _atom_site_label
 _atom_site_symmetry_multiplicity
 _atom_site_fract_x
 _atom_site_fract_y
 _atom_site_fract_z
 _atom_site_occupancy
  La  La0  1  0.54076700  0.75000000  0.75000000  1
  La  La1  1  0.45923300  0.25000000  0.25000000  1
  Si  Si2  1  0.22519200  0.57831400  0.57831400  1
  Si  Si3  1  0.77480800  0.42168600  0.42168600  1
  Si  Si4  1  0.11817900  0.07831400  0.07831400  1
  Si  Si5  1  0.88182100  0.92168600  0.92168600  1
  Rh  Rh6  1  0.50000000  0.21533300  0.78466700  1
  Rh  Rh7  1  0.00000000  0.71533300  0.28466700  1
  Rh  Rh8  1  0.50000000  0.78466700  0.21533300  1
  Rh  Rh9  1  0.00000000  0.28466700  0.71533300  1
  Rh  Rh10  1  0.00000000  0.50000000  0.00000000  1
  Rh  Rh11  1  0.00000000  0.00000000  0.50000000  1
