# generated using pymatgen
data_Gd2MgGe2
_symmetry_space_group_name_H-M   'P 1'
_cell_length_a   7.30546000
_cell_length_b   7.30546000
_cell_length_c   4.30676100
_cell_angle_alpha   90.00000000
_cell_angle_beta   90.00000000
_cell_angle_gamma   90.00000000
_symmetry_Int_Tables_number   1
_chemical_formula_structural   Gd2MgGe2
_chemical_formula_sum   'Gd4 Mg2 Ge4'
_cell_volume   229.85073984
_cell_formula_units_Z   2
loop_
 _symmetry_equiv_pos_site_id
 _symmetry_equiv_pos_as_xyz
  1  'x, y, z'
loop_
 _atom_site_type_symbol
 _atom_site_label
 _atom_site_symmetry_multiplicity
 _atom_site_fract_x
 _atom_site_fract_y
 _atom_site_fract_z
 _atom_site_occupancy
  Gd  Gd0  1  0.82237700  0.32237700  0.00000000  1
  Gd  Gd1  1  0.32237700  0.17762300  0.00000000  1
  Gd  Gd2  1  0.17762300  0.67762300  0.00000000  1
  Gd  Gd3  1  0.67762300  0.82237700  0.00000000  1
  Mg  Mg4  1  0.50000000  0.50000000  0.50000000  1
  Mg  Mg5  1  0.00000000  0.00000000  0.50000000  1
  Ge  Ge6  1  0.62325300  0.12325300  0.50000000  1
  Ge  Ge7  1  0.37674700  0.87674700  0.50000000  1
  Ge  Ge8  1  0.87674700  0.62325300  0.50000000  1
  Ge  Ge9  1  0.12325300  0.37674700  0.50000000  1
