# generated using pymatgen
data_EuZn(BO2)5
_symmetry_space_group_name_H-M   'P 1'
_cell_length_a   7.67388600
_cell_length_b   8.78295500
_cell_length_c   12.65449834
_cell_angle_alpha   48.66108562
_cell_angle_beta   90.00000000
_cell_angle_gamma   90.00000000
_symmetry_Int_Tables_number   1
_chemical_formula_structural   EuZn(BO2)5
_chemical_formula_sum   'Eu4 Zn4 B20 O40'
_cell_volume   640.37486610
_cell_formula_units_Z   4
loop_
 _symmetry_equiv_pos_site_id
 _symmetry_equiv_pos_as_xyz
  1  'x, y, z'
loop_
 _atom_site_type_symbol
 _atom_site_label
 _atom_site_symmetry_multiplicity
 _atom_site_fract_x
 _atom_site_fract_y
 _atom_site_fract_z
 _atom_site_occupancy
  Eu  Eu0  1  0.68350700  0.04952000  0.26116000  1
  Eu  Eu1  1  0.81649300  0.04952000  0.76116000  1
  Eu  Eu2  1  0.31649300  0.95048000  0.73884000  1
  Eu  Eu3  1  0.18350700  0.95048000  0.23884000  1
  Zn  Zn4  1  0.58899500  0.51740700  0.87512700  1
  Zn  Zn5  1  0.91100500  0.51740700  0.37512700  1
  Zn  Zn6  1  0.41100500  0.48259300  0.12487300  1
  Zn  Zn7  1  0.08899500  0.48259300  0.62487300  1
  B  B8  1  0.82517400  0.90994500  0.10506500  1
  B  B9  1  0.67482600  0.90994500  0.60506500  1
  B  B10  1  0.17482600  0.09005500  0.89493500  1
  B  B11  1  0.32517400  0.09005500  0.39493500  1
  B  B12  1  0.60012500  0.84708400  0.99816500  1
  B  B13  1  0.89987500  0.84708400  0.49816500  1
  B  B14  1  0.39987500  0.15291600  0.00183500  1
  B  B15  1  0.10012500  0.15291600  0.50183500  1
  B  B16  1  0.57660700  0.65390400  0.25943400  1
  B  B17  1  0.92339300  0.65390400  0.75943400  1
  B  B18  1  0.42339300  0.34609600  0.74056600  1
  B  B19  1  0.07660700  0.34609600  0.24056600  1
  B  B20  1  0.31431100  0.51812900  0.41328700  1
  B  B21  1  0.18568900  0.51812900  0.91328700  1
  B  B22  1  0.68568900  0.48187100  0.58671300  1
  B  B23  1  0.81431100  0.48187100  0.08671300  1
  B  B24  1  0.53121600  0.27458300  0.44523300  1
  B  B25  1  0.96878400  0.27458300  0.94523300  1
  B  B26  1  0.46878400  0.72541700  0.55476700  1
  B  B27  1  0.03121600  0.72541700  0.05476700  1
  O  O28  1  0.89351600  0.08914900  0.08023900  1
  O  O29  1  0.60648400  0.08914900  0.58023900  1
  O  O30  1  0.10648400  0.91085100  0.91976100  1
  O  O31  1  0.39351600  0.91085100  0.41976100  1
  O  O32  1  0.97006100  0.76550100  0.14706700  1
  O  O33  1  0.52993900  0.76550100  0.64706700  1
  O  O34  1  0.02993900  0.23449900  0.85293300  1
  O  O35  1  0.47006100  0.23449900  0.35293300  1
  O  O36  1  0.72623000  0.97399300  0.98263500  1
  O  O37  1  0.77377000  0.97399300  0.48263500  1
  O  O38  1  0.27377000  0.02600700  0.01736500  1
  O  O39  1  0.22623000  0.02600700  0.51736500  1
  O  O40  1  0.54956000  0.88373600  0.88063100  1
  O  O41  1  0.95044000  0.88373600  0.38063100  1
  O  O42  1  0.45044000  0.11626400  0.11936900  1
  O  O43  1  0.04956000  0.11626400  0.61936900  1
  O  O44  1  0.53413500  0.68750300  0.12904600  1
  O  O45  1  0.96586500  0.68750300  0.62904600  1
  O  O46  1  0.46586500  0.31249700  0.87095400  1
  O  O47  1  0.03413500  0.31249700  0.37095400  1
  O  O48  1  0.71024100  0.79880600  0.23072100  1
  O  O49  1  0.78975900  0.79880600  0.73072100  1
  O  O50  1  0.28975900  0.20119400  0.76927900  1
  O  O51  1  0.21024100  0.20119400  0.26927900  1
  O  O52  1  0.41301800  0.68079800  0.30587900  1
  O  O53  1  0.08698200  0.68079800  0.80587900  1
  O  O54  1  0.58698200  0.31920200  0.69412100  1
  O  O55  1  0.91301800  0.31920200  0.19412100  1
  O  O56  1  0.15366100  0.56923500  0.43247800  1
  O  O57  1  0.34633900  0.56923500  0.93247800  1
  O  O58  1  0.84633900  0.43076500  0.56752200  1
  O  O59  1  0.65366100  0.43076500  0.06752200  1
  O  O60  1  0.37462500  0.32348700  0.49058500  1
  O  O61  1  0.12537500  0.32348700  0.99058500  1
  O  O62  1  0.62537500  0.67651300  0.50941500  1
  O  O63  1  0.87462500  0.67651300  0.00941500  1
  O  O64  1  0.64972600  0.44903300  0.36548100  1
  O  O65  1  0.85027400  0.44903300  0.86548100  1
  O  O66  1  0.35027400  0.55096700  0.63451900  1
  O  O67  1  0.14972600  0.55096700  0.13451900  1
