# generated using pymatgen
data_Be17Os3
_symmetry_space_group_name_H-M   'P 1'
_cell_length_a   9.82072981
_cell_length_b   9.82072981
_cell_length_c   9.82072981
_cell_angle_alpha   109.47122063
_cell_angle_beta   109.47122063
_cell_angle_gamma   109.47122063
_symmetry_Int_Tables_number   1
_chemical_formula_structural   Be17Os3
_chemical_formula_sum   'Be68 Os12'
_cell_volume   729.13743779
_cell_formula_units_Z   4
loop_
 _symmetry_equiv_pos_site_id
 _symmetry_equiv_pos_as_xyz
  1  'x, y, z'
loop_
 _atom_site_type_symbol
 _atom_site_label
 _atom_site_symmetry_multiplicity
 _atom_site_fract_x
 _atom_site_fract_y
 _atom_site_fract_z
 _atom_site_occupancy
  Be  Be0  1  0.59679600  0.00000000  0.59679600  1
  Be  Be1  1  0.40320400  0.00000000  0.40320400  1
  Be  Be2  1  0.00000000  0.59679600  0.59679600  1
  Be  Be3  1  0.00000000  0.40320400  0.40320400  1
  Be  Be4  1  0.59679600  0.59679600  0.00000000  1
  Be  Be5  1  0.40320400  0.40320400  0.00000000  1
  Be  Be6  1  0.30412900  0.50000000  0.80412900  1
  Be  Be7  1  0.69587100  0.50000000  0.19587100  1
  Be  Be8  1  0.50000000  0.80412900  0.30412900  1
  Be  Be9  1  0.50000000  0.19587100  0.69587100  1
  Be  Be10  1  0.80412900  0.30412900  0.50000000  1
  Be  Be11  1  0.19587100  0.69587100  0.50000000  1
  Be  Be12  1  0.00000000  0.00000000  0.67192200  1
  Be  Be13  1  0.67192200  0.00000000  0.00000000  1
  Be  Be14  1  0.00000000  0.67192200  0.00000000  1
  Be  Be15  1  0.32807800  0.32807800  0.32807800  1
  Be  Be16  1  0.00000000  0.00000000  0.32807800  1
  Be  Be17  1  0.32807800  0.00000000  0.00000000  1
  Be  Be18  1  0.00000000  0.32807800  0.00000000  1
  Be  Be19  1  0.67192200  0.67192200  0.67192200  1
  Be  Be20  1  0.09316400  0.86067300  0.76750900  1
  Be  Be21  1  0.90683600  0.13932700  0.23249100  1
  Be  Be22  1  0.90683600  0.67434500  0.76750900  1
  Be  Be23  1  0.09316400  0.32565500  0.23249100  1
  Be  Be24  1  0.86067300  0.76750900  0.09316400  1
  Be  Be25  1  0.13932700  0.23249100  0.90683600  1
  Be  Be26  1  0.67434500  0.76750900  0.90683600  1
  Be  Be27  1  0.32565500  0.23249100  0.09316400  1
  Be  Be28  1  0.76750900  0.09316400  0.86067300  1
  Be  Be29  1  0.23249100  0.90683600  0.13932700  1
  Be  Be30  1  0.76750900  0.90683600  0.67434500  1
  Be  Be31  1  0.23249100  0.09316400  0.32565500  1
  Be  Be32  1  0.34962600  0.94512600  0.59549900  1
  Be  Be33  1  0.65037400  0.05487400  0.40450100  1
  Be  Be34  1  0.65037400  0.24587300  0.59549900  1
  Be  Be35  1  0.34962600  0.75412700  0.40450100  1
  Be  Be36  1  0.94512600  0.59549900  0.34962600  1
  Be  Be37  1  0.05487400  0.40450100  0.65037400  1
  Be  Be38  1  0.24587300  0.59549900  0.65037400  1
  Be  Be39  1  0.75412700  0.40450100  0.34962600  1
  Be  Be40  1  0.59549900  0.34962600  0.94512600  1
  Be  Be41  1  0.40450100  0.65037400  0.05487400  1
  Be  Be42  1  0.59549900  0.65037400  0.24587300  1
  Be  Be43  1  0.40450100  0.34962600  0.75412700  1
  Be  Be44  1  0.14012700  0.22706400  0.68497600  1
  Be  Be45  1  0.45791200  0.77293600  0.91306400  1
  Be  Be46  1  0.85987300  0.54484800  0.08693600  1
  Be  Be47  1  0.54208800  0.45515200  0.31502400  1
  Be  Be48  1  0.22706400  0.68497600  0.14012700  1
  Be  Be49  1  0.77293600  0.91306400  0.45791200  1
  Be  Be50  1  0.54484800  0.08693600  0.85987300  1
  Be  Be51  1  0.45515200  0.31502400  0.54208800  1
  Be  Be52  1  0.68497600  0.14012700  0.22706400  1
  Be  Be53  1  0.91306400  0.45791200  0.77293600  1
  Be  Be54  1  0.08693600  0.85987300  0.54484800  1
  Be  Be55  1  0.31502400  0.54208800  0.45515200  1
  Be  Be56  1  0.85987300  0.77293600  0.31502400  1
  Be  Be57  1  0.54208800  0.22706400  0.08693600  1
  Be  Be58  1  0.14012700  0.45515200  0.91306400  1
  Be  Be59  1  0.45791200  0.54484800  0.68497600  1
  Be  Be60  1  0.77293600  0.31502400  0.85987300  1
  Be  Be61  1  0.22706400  0.08693600  0.54208800  1
  Be  Be62  1  0.45515200  0.91306400  0.14012700  1
  Be  Be63  1  0.54484800  0.68497600  0.45791200  1
  Be  Be64  1  0.31502400  0.85987300  0.77293600  1
  Be  Be65  1  0.08693600  0.54208800  0.22706400  1
  Be  Be66  1  0.91306400  0.14012700  0.45515200  1
  Be  Be67  1  0.68497600  0.45791200  0.54484800  1
  Os  Os68  1  0.30092300  0.11278100  0.81185800  1
  Os  Os69  1  0.69907700  0.88721900  0.18814200  1
  Os  Os70  1  0.69907700  0.51093400  0.81185800  1
  Os  Os71  1  0.30092300  0.48906600  0.18814200  1
  Os  Os72  1  0.11278100  0.81185800  0.30092300  1
  Os  Os73  1  0.88721900  0.18814200  0.69907700  1
  Os  Os74  1  0.51093400  0.81185800  0.69907700  1
  Os  Os75  1  0.48906600  0.18814200  0.30092300  1
  Os  Os76  1  0.81185800  0.30092300  0.11278100  1
  Os  Os77  1  0.18814200  0.69907700  0.88721900  1
  Os  Os78  1  0.81185800  0.69907700  0.51093400  1
  Os  Os79  1  0.18814200  0.30092300  0.48906600  1
