# generated using pymatgen
data_ScGe2
_symmetry_space_group_name_H-M   'P 1'
_cell_length_a   7.67730593
_cell_length_b   7.67730593
_cell_length_c   3.84777000
_cell_angle_alpha   90.00000000
_cell_angle_beta   90.00000000
_cell_angle_gamma   150.41859077
_symmetry_Int_Tables_number   1
_chemical_formula_structural   ScGe2
_chemical_formula_sum   'Sc2 Ge4'
_cell_volume   111.95783368
_cell_formula_units_Z   2
loop_
 _symmetry_equiv_pos_site_id
 _symmetry_equiv_pos_as_xyz
  1  'x, y, z'
loop_
 _atom_site_type_symbol
 _atom_site_label
 _atom_site_symmetry_multiplicity
 _atom_site_fract_x
 _atom_site_fract_y
 _atom_site_fract_z
 _atom_site_occupancy
  Sc  Sc0  1  0.89947600  0.10052400  0.75000000  1
  Sc  Sc1  1  0.10052400  0.89947600  0.25000000  1
  Ge  Ge2  1  0.55969200  0.44030800  0.75000000  1
  Ge  Ge3  1  0.44030800  0.55969200  0.25000000  1
  Ge  Ge4  1  0.25126100  0.74873900  0.75000000  1
  Ge  Ge5  1  0.74873900  0.25126100  0.25000000  1
