# generated using pymatgen
data_Ho2OsC2
_symmetry_space_group_name_H-M   'P 1'
_cell_length_a   5.10478900
_cell_length_b   6.42140700
_cell_length_c   9.78135900
_cell_angle_alpha   90.00000000
_cell_angle_beta   90.00000000
_cell_angle_gamma   90.00000000
_symmetry_Int_Tables_number   1
_chemical_formula_structural   Ho2OsC2
_chemical_formula_sum   'Ho8 Os4 C8'
_cell_volume   320.63224198
_cell_formula_units_Z   4
loop_
 _symmetry_equiv_pos_site_id
 _symmetry_equiv_pos_as_xyz
  1  'x, y, z'
loop_
 _atom_site_type_symbol
 _atom_site_label
 _atom_site_symmetry_multiplicity
 _atom_site_fract_x
 _atom_site_fract_y
 _atom_site_fract_z
 _atom_site_occupancy
  Ho  Ho0  1  0.25000000  0.68509900  0.55262200  1
  Ho  Ho1  1  0.75000000  0.31490100  0.44737800  1
  Ho  Ho2  1  0.75000000  0.81490100  0.05262200  1
  Ho  Ho3  1  0.25000000  0.18509900  0.94737800  1
  Ho  Ho4  1  0.25000000  0.52353600  0.22087900  1
  Ho  Ho5  1  0.75000000  0.47646400  0.77912100  1
  Ho  Ho6  1  0.75000000  0.97646400  0.72087900  1
  Ho  Ho7  1  0.25000000  0.02353600  0.27912100  1
  Os  Os8  1  0.25000000  0.72664000  0.86533600  1
  Os  Os9  1  0.75000000  0.27336000  0.13466400  1
  Os  Os10  1  0.75000000  0.77336000  0.36533600  1
  Os  Os11  1  0.25000000  0.22664000  0.63466400  1
  C  C12  1  0.25000000  0.46303500  0.75774700  1
  C  C13  1  0.75000000  0.53696500  0.24225300  1
  C  C14  1  0.75000000  0.03696500  0.25774700  1
  C  C15  1  0.25000000  0.96303500  0.74225300  1
  C  C16  1  0.25000000  0.82386600  0.05410200  1
  C  C17  1  0.75000000  0.17613400  0.94589800  1
  C  C18  1  0.75000000  0.67613400  0.55410200  1
  C  C19  1  0.25000000  0.32386600  0.44589800  1
