# generated using pymatgen
data_KP2H4PtO9
_symmetry_space_group_name_H-M   'P 1'
_cell_length_a   8.04261585
_cell_length_b   8.10745011
_cell_length_c   14.02097303
_cell_angle_alpha   81.57704432
_cell_angle_beta   80.83326263
_cell_angle_gamma   64.93418744
_symmetry_Int_Tables_number   1
_chemical_formula_structural   KP2H4PtO9
_chemical_formula_sum   'K4 P8 H16 Pt4 O36'
_cell_volume   814.36595633
_cell_formula_units_Z   4
loop_
 _symmetry_equiv_pos_site_id
 _symmetry_equiv_pos_as_xyz
  1  'x, y, z'
loop_
 _atom_site_type_symbol
 _atom_site_label
 _atom_site_symmetry_multiplicity
 _atom_site_fract_x
 _atom_site_fract_y
 _atom_site_fract_z
 _atom_site_occupancy
  K  K0  1  0.88654800  0.35086000  0.36773500  1
  K  K1  1  0.11345200  0.64914000  0.63226500  1
  K  K2  1  0.60476000  0.19428600  0.09348700  1
  K  K3  1  0.39524000  0.80571400  0.90651300  1
  P  P4  1  0.35811300  0.30564100  0.36310300  1
  P  P5  1  0.64188700  0.69435900  0.63689700  1
  P  P6  1  0.14337800  0.11499000  0.60752500  1
  P  P7  1  0.85662200  0.88501000  0.39247500  1
  P  P8  1  0.30791000  0.37604000  0.85606800  1
  P  P9  1  0.69209000  0.62396000  0.14393200  1
  P  P10  1  0.11098900  0.13633900  0.09042300  1
  P  P11  1  0.88901100  0.86366100  0.90957700  1
  H  H12  1  0.45040700  0.69907400  0.31331600  1
  H  H13  1  0.54959300  0.30092600  0.68668400  1
  H  H14  1  0.23920400  0.82948400  0.34817500  1
  H  H15  1  0.76079600  0.17051600  0.65182500  1
  H  H16  1  0.55205400  0.39818100  0.26382900  1
  H  H17  1  0.44794600  0.60181900  0.73617100  1
  H  H18  1  0.93275100  0.39205900  0.58991900  1
  H  H19  1  0.06724900  0.60794100  0.41008100  1
  H  H20  1  0.77773000  0.27026500  0.86307000  1
  H  H21  1  0.22227000  0.72973500  0.13693000  1
  H  H22  1  0.78915900  0.43238300  0.78204000  1
  H  H23  1  0.21084100  0.56761700  0.21796000  1
  H  H24  1  0.54641900  0.11808000  0.89020700  1
  H  H25  1  0.45358100  0.88192000  0.10979300  1
  H  H26  1  0.96270100  0.05322000  0.22754100  1
  H  H27  1  0.03729900  0.94678000  0.77245900  1
  Pt  Pt28  1  0.45626800  0.90788900  0.45111700  1
  Pt  Pt29  1  0.54373200  0.09211100  0.54888300  1
  Pt  Pt30  1  0.90745100  0.46699200  0.94646800  1
  Pt  Pt31  1  0.09254900  0.53300800  0.05353200  1
  O  O32  1  0.36214700  0.75576500  0.37094400  1
  O  O33  1  0.63785300  0.24423500  0.62905600  1
  O  O34  1  0.31892800  0.13283800  0.36367900  1
  O  O35  1  0.68107200  0.86716200  0.63632100  1
  O  O36  1  0.52862900  0.28215900  0.28293700  1
  O  O37  1  0.47137100  0.71784100  0.71706300  1
  O  O38  1  0.18989800  0.47514500  0.33324600  1
  O  O39  1  0.81010200  0.52485500  0.66675400  1
  O  O40  1  0.40784900  0.32367500  0.46322100  1
  O  O41  1  0.59215100  0.67632500  0.53677900  1
  O  O42  1  0.21765400  0.95482000  0.54056600  1
  O  O43  1  0.78234600  0.04518000  0.45943400  1
  O  O44  1  0.02241600  0.29477400  0.54503200  1
  O  O45  1  0.97758400  0.70522600  0.45496800  1
  O  O46  1  0.01326400  0.08199900  0.69239600  1
  O  O47  1  0.98673600  0.91800100  0.30760400  1
  O  O48  1  0.30493100  0.14368000  0.64097300  1
  O  O49  1  0.69506900  0.85632000  0.35902700  1
  O  O50  1  0.75246000  0.40242100  0.85267700  1
  O  O51  1  0.24754000  0.59757900  0.14732300  1
  O  O52  1  0.10928400  0.41732700  0.83495900  1
  O  O53  1  0.89071600  0.58267300  0.16504100  1
  O  O54  1  0.30629500  0.47955300  0.94305100  1
  O  O55  1  0.69370500  0.52044700  0.05694900  1
  O  O56  1  0.40837900  0.16279500  0.88221100  1
  O  O57  1  0.59162100  0.83720500  0.11778900  1
  O  O58  1  0.40708400  0.43335500  0.76391900  1
  O  O59  1  0.59291600  0.56664500  0.23608100  1
  O  O60  1  0.02390900  0.19600700  0.99187700  1
  O  O61  1  0.97609100  0.80399300  0.00812200  1
  O  O62  1  0.25237600  0.93833600  0.09334300  1
  O  O63  1  0.74762400  0.06166400  0.90665700  1
  O  O64  1  0.20788700  0.26267200  0.10448900  1
  O  O65  1  0.79211300  0.73732800  0.89551100  1
  O  O66  1  0.94482900  0.16016600  0.17187000  1
  O  O67  1  0.05517100  0.83983400  0.82813000  1
