# generated using pymatgen
data_Er4C7
_symmetry_space_group_name_H-M   'P 1'
_cell_length_a   13.66554600
_cell_length_b   3.67741600
_cell_length_c   6.40064817
_cell_angle_alpha   75.05622354
_cell_angle_beta   90.00000000
_cell_angle_gamma   90.00000000
_symmetry_Int_Tables_number   1
_chemical_formula_structural   Er4C7
_chemical_formula_sum   'Er8 C14'
_cell_volume   310.77884637
_cell_formula_units_Z   2
loop_
 _symmetry_equiv_pos_site_id
 _symmetry_equiv_pos_as_xyz
  1  'x, y, z'
loop_
 _atom_site_type_symbol
 _atom_site_label
 _atom_site_symmetry_multiplicity
 _atom_site_fract_x
 _atom_site_fract_y
 _atom_site_fract_z
 _atom_site_occupancy
  Er  Er0  1  0.33823000  0.94655700  0.66023200  1
  Er  Er1  1  0.66177000  0.05344300  0.33976800  1
  Er  Er2  1  0.83823000  0.05344300  0.83976800  1
  Er  Er3  1  0.16177000  0.94655700  0.16023200  1
  Er  Er4  1  0.05475500  0.63452100  0.73920200  1
  Er  Er5  1  0.94524500  0.36547900  0.26079800  1
  Er  Er6  1  0.55475500  0.36547900  0.76079800  1
  Er  Er7  1  0.44524500  0.63452100  0.23920200  1
  C  C8  1  0.89487600  0.73754800  0.54692100  1
  C  C9  1  0.10512400  0.26245200  0.45307900  1
  C  C10  1  0.39487600  0.26245200  0.95307900  1
  C  C11  1  0.60512400  0.73754800  0.04692100  1
  C  C12  1  0.21488600  0.53729200  0.92399300  1
  C  C13  1  0.78511400  0.46270800  0.07600700  1
  C  C14  1  0.71488600  0.46270800  0.57600700  1
  C  C15  1  0.28511400  0.53729200  0.42399300  1
  C  C16  1  0.80264000  0.62046100  0.54530200  1
  C  C17  1  0.19736000  0.37953900  0.45469800  1
  C  C18  1  0.30264000  0.37953900  0.95469800  1
  C  C19  1  0.69736000  0.62046100  0.04530200  1
  C  C20  1  0.50000000  0.00000000  0.50000000  1
  C  C21  1  0.00000000  0.00000000  0.00000000  1
