# generated using pymatgen
data_Zr5Si6H36C12(Br10O3)2
_symmetry_space_group_name_H-M   'P 1'
_cell_length_a   10.25671248
_cell_length_b   14.18643618
_cell_length_c   23.75082536
_cell_angle_alpha   90.00000000
_cell_angle_beta   90.00000000
_cell_angle_gamma   96.98359606
_symmetry_Int_Tables_number   1
_chemical_formula_structural   Zr5Si6H36C12(Br10O3)2
_chemical_formula_sum   'Zr10 Si12 H72 C24 Br40 O12'
_cell_volume   3430.25301816
_cell_formula_units_Z   2
loop_
 _symmetry_equiv_pos_site_id
 _symmetry_equiv_pos_as_xyz
  1  'x, y, z'
loop_
 _atom_site_type_symbol
 _atom_site_label
 _atom_site_symmetry_multiplicity
 _atom_site_fract_x
 _atom_site_fract_y
 _atom_site_fract_z
 _atom_site_occupancy
  Zr  Zr0  1  0.50000000  0.00000000  0.50000000  1
  Zr  Zr1  1  0.50000000  0.50000000  0.00000000  1
  Zr  Zr2  1  0.83887739  0.09985459  0.81032104  1
  Zr  Zr3  1  0.16112261  0.40014541  0.31032104  1
  Zr  Zr4  1  0.16112261  0.90014541  0.18967896  1
  Zr  Zr5  1  0.83887739  0.59985459  0.68967896  1
  Zr  Zr6  1  0.09118986  0.95041432  0.86666382  1
  Zr  Zr7  1  0.90881014  0.54958568  0.36666382  1
  Zr  Zr8  1  0.90881014  0.04958568  0.13333618  1
  Zr  Zr9  1  0.09118986  0.45041432  0.63333618  1
  Si  Si10  1  0.64812992  0.15661881  0.41836177  1
  Si  Si11  1  0.35187008  0.34338119  0.91836177  1
  Si  Si12  1  0.35187008  0.84338119  0.58163823  1
  Si  Si13  1  0.64812992  0.65661881  0.08163823  1
  Si  Si14  1  0.48625279  0.22781719  0.52572419  1
  Si  Si15  1  0.51374721  0.27218281  0.02572419  1
  Si  Si16  1  0.51374721  0.77218281  0.47427581  1
  Si  Si17  1  0.48625279  0.72781719  0.97427581  1
  Si  Si18  1  0.33631710  0.06580942  0.61092412  1
  Si  Si19  1  0.66368290  0.43419058  0.11092412  1
  Si  Si20  1  0.66368290  0.93419058  0.38907588  1
  Si  Si21  1  0.33631710  0.56580942  0.88907588  1
  H  H22  1  0.56963924  0.28121893  0.36087847  1
  H  H23  1  0.43036076  0.21878107  0.86087847  1
  H  H24  1  0.43036076  0.71878107  0.63912153  1
  H  H25  1  0.56963924  0.78121893  0.13912153  1
  H  H26  1  0.61911789  0.18912586  0.31855832  1
  H  H27  1  0.38088211  0.31087414  0.81855832  1
  H  H28  1  0.38088211  0.81087414  0.68144168  1
  H  H29  1  0.61911789  0.68912586  0.18144168  1
  H  H30  1  0.46355207  0.17213510  0.35349218  1
  H  H31  1  0.53644793  0.32786490  0.85349218  1
  H  H32  1  0.53644793  0.82786490  0.64650782  1
  H  H33  1  0.46355207  0.67213510  0.14650782  1
  H  H34  1  0.85987707  0.17145386  0.46857201  1
  H  H35  1  0.14012293  0.32854614  0.96857201  1
  H  H36  1  0.14012293  0.82854614  0.53142799  1
  H  H37  1  0.85987707  0.67145386  0.03142799  1
  H  H38  1  0.88189341  0.18125077  0.39405770  1
  H  H39  1  0.11810659  0.31874923  0.89405770  1
  H  H40  1  0.11810659  0.81874923  0.60594230  1
  H  H41  1  0.88189341  0.68125077  0.10594230  1
  H  H42  1  0.83638405  0.27855415  0.43245459  1
  H  H43  1  0.16361595  0.22144585  0.93245459  1
  H  H44  1  0.16361595  0.72144585  0.56754541  1
  H  H45  1  0.83638405  0.77855415  0.06754541  1
  H  H46  1  0.31339229  0.33282394  0.51808670  1
  H  H47  1  0.68660771  0.16717606  0.01808670  1
  H  H48  1  0.68660771  0.66717606  0.48191330  1
  H  H49  1  0.31339229  0.83282394  0.98191330  1
  H  H50  1  0.42577625  0.34953490  0.46136188  1
  H  H51  1  0.57422375  0.15046510  0.96136188  1
  H  H52  1  0.57422375  0.65046510  0.53863812  1
  H  H53  1  0.42577625  0.84953490  0.03863812  1
  H  H54  1  0.30247039  0.24937131  0.46142955  1
  H  H55  1  0.69752961  0.25062869  0.96142955  1
  H  H56  1  0.69752961  0.75062869  0.53857045  1
  H  H57  1  0.30247039  0.74937131  0.03857045  1
  H  H58  1  0.66814063  0.25132696  0.59488371  1
  H  H59  1  0.33185937  0.24867304  0.09488371  1
  H  H60  1  0.33185937  0.74867304  0.40511629  1
  H  H61  1  0.66814063  0.75132696  0.90511629  1
  H  H62  1  0.67216539  0.34981505  0.54797022  1
  H  H63  1  0.32783461  0.15018495  0.04797022  1
  H  H64  1  0.32783461  0.65018495  0.45202978  1
  H  H65  1  0.67216539  0.84981505  0.95202978  1
  H  H66  1  0.55554668  0.33676721  0.60302937  1
  H  H67  1  0.44445332  0.16323279  0.10302937  1
  H  H68  1  0.44445332  0.66323279  0.39697063  1
  H  H69  1  0.55554668  0.83676721  0.89697063  1
  H  H70  1  0.11131393  0.05307725  0.57042053  1
  H  H71  1  0.88868607  0.44692275  0.07042053  1
  H  H72  1  0.88868607  0.94692275  0.42957947  1
  H  H73  1  0.11131393  0.55307725  0.92957947  1
  H  H74  1  0.11208608  0.00519151  0.63993591  1
  H  H75  1  0.88791392  0.49480849  0.13993591  1
  H  H76  1  0.88791392  0.99480849  0.36006409  1
  H  H77  1  0.11208608  0.50519151  0.86006409  1
  H  H78  1  0.12834518  0.12941294  0.63042510  1
  H  H79  1  0.87165482  0.37058706  0.13042510  1
  H  H80  1  0.87165482  0.87058706  0.36957490  1
  H  H81  1  0.12834518  0.62941294  0.86957490  1
  H  H82  1  0.40037792  0.16264859  0.69387736  1
  H  H83  1  0.59962208  0.33735141  0.19387736  1
  H  H84  1  0.59962208  0.83735141  0.30612264  1
  H  H85  1  0.40037792  0.66264859  0.80612264  1
  H  H86  1  0.37397930  0.04094768  0.71179129  1
  H  H87  1  0.62602070  0.45905232  0.21179129  1
  H  H88  1  0.62602070  0.95905232  0.28820871  1
  H  H89  1  0.37397930  0.54094768  0.78820871  1
  H  H90  1  0.52366959  0.08816441  0.67805309  1
  H  H91  1  0.47633041  0.41183559  0.17805309  1
  H  H92  1  0.47633041  0.91183559  0.32194691  1
  H  H93  1  0.52366959  0.58816441  0.82194691  1
  C  C94  1  0.56637456  0.20371663  0.35730930  1
  C  C95  1  0.43362544  0.29628337  0.85730930  1
  C  C96  1  0.43362544  0.79628337  0.64269070  1
  C  C97  1  0.56637456  0.70371663  0.14269070  1
  C  C98  1  0.82241516  0.20039605  0.42977571  1
  C  C99  1  0.17758484  0.29960395  0.92977571  1
  C  C100  1  0.17758484  0.79960395  0.57022429  1
  C  C101  1  0.82241516  0.70039605  0.07022429  1
  C  C102  1  0.37070569  0.29534635  0.48821842  1
  C  C103  1  0.62929431  0.20465365  0.98821842  1
  C  C104  1  0.62929431  0.70465365  0.51178158  1
  C  C105  1  0.37070569  0.79534635  0.01178158  1
  C  C106  1  0.60675554  0.29697740  0.57207927  1
  C  C107  1  0.39324446  0.20302260  0.07207927  1
  C  C108  1  0.39324446  0.70302260  0.42792073  1
  C  C109  1  0.60675554  0.79697740  0.92792073  1
  C  C110  1  0.15569893  0.06321604  0.61248064  1
  C  C111  1  0.84430107  0.43678396  0.11248064  1
  C  C112  1  0.84430107  0.93678396  0.38751936  1
  C  C113  1  0.15569893  0.56321604  0.88751936  1
  C  C114  1  0.41723212  0.09138968  0.67960940  1
  C  C115  1  0.58276788  0.40861032  0.17960940  1
  C  C116  1  0.58276788  0.90861032  0.32039060  1
  C  C117  1  0.41723212  0.59138968  0.82039060  1
  Br  Br118  1  0.71087756  0.00552002  0.55837643  1
  Br  Br119  1  0.28912244  0.49447998  0.05837643  1
  Br  Br120  1  0.28912244  0.99447998  0.44162357  1
  Br  Br121  1  0.71087756  0.50552002  0.94162357  1
  Br  Br122  1  0.59762411  0.04657634  0.82863703  1
  Br  Br123  1  0.40237589  0.45342366  0.32863703  1
  Br  Br124  1  0.40237589  0.95342366  0.17136297  1
  Br  Br125  1  0.59762411  0.54657634  0.67136297  1
  Br  Br126  1  0.84428323  0.27157190  0.84235508  1
  Br  Br127  1  0.15571677  0.22842810  0.34235508  1
  Br  Br128  1  0.15571677  0.72842810  0.15764492  1
  Br  Br129  1  0.84428323  0.77157190  0.65764492  1
  Br  Br130  1  0.82583709  0.12681475  0.70510942  1
  Br  Br131  1  0.17416291  0.37318525  0.20510942  1
  Br  Br132  1  0.17416291  0.87318525  0.29489058  1
  Br  Br133  1  0.82583709  0.62681475  0.79489058  1
  Br  Br134  1  0.91173279  0.05252334  0.91912290  1
  Br  Br135  1  0.08826721  0.44747666  0.41912290  1
  Br  Br136  1  0.08826721  0.94747666  0.08087710  1
  Br  Br137  1  0.91173279  0.55252334  0.58087710  1
  Br  Br138  1  0.87772677  0.91064113  0.79642381  1
  Br  Br139  1  0.12227323  0.58935887  0.29642381  1
  Br  Br140  1  0.12227323  0.08935887  0.20357619  1
  Br  Br141  1  0.87772677  0.41064113  0.70357619  1
  Br  Br142  1  0.11463994  0.11392665  0.80020232  1
  Br  Br143  1  0.88536006  0.38607335  0.30020232  1
  Br  Br144  1  0.88536006  0.88607335  0.19979768  1
  Br  Br145  1  0.11463994  0.61392665  0.69979768  1
  Br  Br146  1  0.01758263  0.80763296  0.92857737  1
  Br  Br147  1  0.98241737  0.69236704  0.42857737  1
  Br  Br148  1  0.98241737  0.19236704  0.07142263  1
  Br  Br149  1  0.01758263  0.30763296  0.57142263  1
  Br  Br150  1  0.27621351  0.02843365  0.93001473  1
  Br  Br151  1  0.72378649  0.47156635  0.43001473  1
  Br  Br152  1  0.72378649  0.97156635  0.06998527  1
  Br  Br153  1  0.27621351  0.52843365  0.56998527  1
  Br  Br154  1  0.23631450  0.86695172  0.80018685  1
  Br  Br155  1  0.76368550  0.63304828  0.30018685  1
  Br  Br156  1  0.76368550  0.13304828  0.19981315  1
  Br  Br157  1  0.23631450  0.36695172  0.69981315  1
  O  O158  1  0.62252852  0.03622342  0.41872954  1
  O  O159  1  0.37747148  0.46377658  0.91872954  1
  O  O160  1  0.37747148  0.96377658  0.58127046  1
  O  O161  1  0.62252852  0.53622342  0.08127046  1
  O  O162  1  0.55912252  0.15950542  0.47847452  1
  O  O163  1  0.44087748  0.34049458  0.97847452  1
  O  O164  1  0.44087748  0.84049458  0.52152548  1
  O  O165  1  0.55912252  0.65950542  0.02152548  1
  O  O166  1  0.41212760  0.13005989  0.55818661  1
  O  O167  1  0.58787240  0.36994011  0.05818661  1
  O  O168  1  0.58787240  0.86994011  0.44181339  1
  O  O169  1  0.41212760  0.63005989  0.94181339  1
