# generated using pymatgen
data_ErCuSb2
_symmetry_space_group_name_H-M   'P 1'
_cell_length_a   4.29181200
_cell_length_b   4.29181200
_cell_length_c   9.78049300
_cell_angle_alpha   90.00000000
_cell_angle_beta   90.00000000
_cell_angle_gamma   90.00000000
_symmetry_Int_Tables_number   1
_chemical_formula_structural   ErCuSb2
_chemical_formula_sum   'Er2 Cu2 Sb4'
_cell_volume   180.15326027
_cell_formula_units_Z   2
loop_
 _symmetry_equiv_pos_site_id
 _symmetry_equiv_pos_as_xyz
  1  'x, y, z'
loop_
 _atom_site_type_symbol
 _atom_site_label
 _atom_site_symmetry_multiplicity
 _atom_site_fract_x
 _atom_site_fract_y
 _atom_site_fract_z
 _atom_site_occupancy
  Er  Er0  1  0.00000000  0.50000000  0.75030300  1
  Er  Er1  1  0.50000000  0.00000000  0.24969700  1
  Cu  Cu2  1  0.50000000  0.50000000  0.50000000  1
  Cu  Cu3  1  0.00000000  0.00000000  0.50000000  1
  Sb  Sb4  1  0.50000000  0.50000000  0.00000000  1
  Sb  Sb5  1  0.00000000  0.00000000  0.00000000  1
  Sb  Sb6  1  0.00000000  0.50000000  0.33651900  1
  Sb  Sb7  1  0.50000000  0.00000000  0.66348100  1
