# generated using pymatgen
data_Rb3IO5
_symmetry_space_group_name_H-M   'P 1'
_cell_length_a   8.70033300
_cell_length_b   9.21325900
_cell_length_c   9.31271700
_cell_angle_alpha   90.00000000
_cell_angle_beta   90.00000000
_cell_angle_gamma   90.00000000
_symmetry_Int_Tables_number   1
_chemical_formula_structural   Rb3IO5
_chemical_formula_sum   'Rb12 I4 O20'
_cell_volume   746.49269288
_cell_formula_units_Z   4
loop_
 _symmetry_equiv_pos_site_id
 _symmetry_equiv_pos_as_xyz
  1  'x, y, z'
loop_
 _atom_site_type_symbol
 _atom_site_label
 _atom_site_symmetry_multiplicity
 _atom_site_fract_x
 _atom_site_fract_y
 _atom_site_fract_z
 _atom_site_occupancy
  Rb  Rb0  1  0.96419000  0.25000000  0.75000000  1
  Rb  Rb1  1  0.53581000  0.75000000  0.75000000  1
  Rb  Rb2  1  0.03581000  0.75000000  0.25000000  1
  Rb  Rb3  1  0.46419000  0.25000000  0.25000000  1
  Rb  Rb4  1  0.75000000  0.50000000  0.02457000  1
  Rb  Rb5  1  0.75000000  0.00000000  0.47543000  1
  Rb  Rb6  1  0.25000000  0.50000000  0.97543000  1
  Rb  Rb7  1  0.25000000  0.00000000  0.52457000  1
  Rb  Rb8  1  0.75000000  0.50000000  0.47906500  1
  Rb  Rb9  1  0.75000000  0.00000000  0.02093500  1
  Rb  Rb10  1  0.25000000  0.50000000  0.52093500  1
  Rb  Rb11  1  0.25000000  0.00000000  0.97906500  1
  I  I12  1  0.48710200  0.25000000  0.75000000  1
  I  I13  1  0.01289800  0.75000000  0.75000000  1
  I  I14  1  0.51289800  0.75000000  0.25000000  1
  I  I15  1  0.98710200  0.25000000  0.25000000  1
  O  O16  1  0.27638800  0.25000000  0.75000000  1
  O  O17  1  0.22361200  0.75000000  0.75000000  1
  O  O18  1  0.72361200  0.75000000  0.25000000  1
  O  O19  1  0.77638800  0.25000000  0.25000000  1
  O  O20  1  0.54051700  0.05425400  0.77589300  1
  O  O21  1  0.95948300  0.94574600  0.77589300  1
  O  O22  1  0.54051700  0.44574600  0.72410700  1
  O  O23  1  0.95948300  0.55425400  0.72410700  1
  O  O24  1  0.45948300  0.94574600  0.22410700  1
  O  O25  1  0.04051700  0.05425400  0.22410700  1
  O  O26  1  0.45948300  0.55425400  0.27589300  1
  O  O27  1  0.04051700  0.44574600  0.27589300  1
  O  O28  1  0.51954900  0.27637800  0.94812000  1
  O  O29  1  0.98045100  0.72362200  0.94812000  1
  O  O30  1  0.51954900  0.22362200  0.55188000  1
  O  O31  1  0.98045100  0.77637800  0.55188000  1
  O  O32  1  0.48045100  0.72362200  0.05188000  1
  O  O33  1  0.01954900  0.27637800  0.05188000  1
  O  O34  1  0.48045100  0.77637800  0.44812000  1
  O  O35  1  0.01954900  0.22362200  0.44812000  1
