# generated using pymatgen
data_Cr5S8
_symmetry_space_group_name_H-M   'P 1'
_cell_length_a   6.55495409
_cell_length_b   6.55495409
_cell_length_c   8.06171497
_cell_angle_alpha   54.99224886
_cell_angle_beta   54.99224886
_cell_angle_gamma   63.34930601
_symmetry_Int_Tables_number   1
_chemical_formula_structural   Cr5S8
_chemical_formula_sum   'Cr5 S8'
_cell_volume   228.67577966
_cell_formula_units_Z   1
loop_
 _symmetry_equiv_pos_site_id
 _symmetry_equiv_pos_as_xyz
  1  'x, y, z'
loop_
 _atom_site_type_symbol
 _atom_site_label
 _atom_site_symmetry_multiplicity
 _atom_site_fract_x
 _atom_site_fract_y
 _atom_site_fract_z
 _atom_site_occupancy
  Cr  Cr0  1  0.00000000  0.00000000  0.50000000  1
  Cr  Cr1  1  0.72649900  0.72649900  0.51026900  1
  Cr  Cr2  1  0.27350100  0.27350100  0.48973100  1
  Cr  Cr3  1  0.27190300  0.72809700  0.00000000  1
  Cr  Cr4  1  0.72809700  0.27190300  0.00000000  1
  S  S5  1  0.98247200  0.98247200  0.81989900  1
  S  S6  1  0.54481100  0.54481100  0.16644700  1
  S  S7  1  0.45518900  0.45518900  0.83355300  1
  S  S8  1  0.01752800  0.01752800  0.18010100  1
  S  S9  1  0.45238000  0.97585300  0.33070300  1
  S  S10  1  0.97585300  0.45238000  0.33070300  1
  S  S11  1  0.54762000  0.02414700  0.66929700  1
  S  S12  1  0.02414700  0.54762000  0.66929700  1
