# generated using pymatgen
data_CsMoP2O7
_symmetry_space_group_name_H-M   'P 1'
_cell_length_a   10.61114100
_cell_length_b   7.87831000
_cell_length_c   8.67588366
_cell_angle_alpha   74.91777564
_cell_angle_beta   90.00000000
_cell_angle_gamma   90.00000000
_symmetry_Int_Tables_number   1
_chemical_formula_structural   CsMoP2O7
_chemical_formula_sum   'Cs4 Mo4 P8 O28'
_cell_volume   700.30168291
_cell_formula_units_Z   4
loop_
 _symmetry_equiv_pos_site_id
 _symmetry_equiv_pos_as_xyz
  1  'x, y, z'
loop_
 _atom_site_type_symbol
 _atom_site_label
 _atom_site_symmetry_multiplicity
 _atom_site_fract_x
 _atom_site_fract_y
 _atom_site_fract_z
 _atom_site_occupancy
  Cs  Cs0  1  0.69166400  0.80335100  0.55126500  1
  Cs  Cs1  1  0.19166400  0.19664900  0.94873500  1
  Cs  Cs2  1  0.30833600  0.19664900  0.44873500  1
  Cs  Cs3  1  0.80833600  0.80335100  0.05126500  1
  Mo  Mo4  1  0.10154200  0.76088800  0.75686800  1
  Mo  Mo5  1  0.60154200  0.23911200  0.74313200  1
  Mo  Mo6  1  0.89845800  0.23911200  0.24313200  1
  Mo  Mo7  1  0.39845800  0.76088800  0.25686800  1
  P  P8  1  0.12883200  0.57407800  0.18622800  1
  P  P9  1  0.62883200  0.42592200  0.31377200  1
  P  P10  1  0.87116800  0.42592200  0.81377200  1
  P  P11  1  0.37116800  0.57407800  0.68622800  1
  P  P12  1  0.40119800  0.87337200  0.82670000  1
  P  P13  1  0.90119800  0.12662800  0.67330000  1
  P  P14  1  0.59880200  0.12662800  0.17330000  1
  P  P15  1  0.09880200  0.87337200  0.32670000  1
  O  O16  1  0.05830700  0.68456500  0.29751900  1
  O  O17  1  0.55830700  0.31543500  0.20248100  1
  O  O18  1  0.94169300  0.31543500  0.70248100  1
  O  O19  1  0.44169300  0.68456500  0.79751900  1
  O  O20  1  0.99367300  0.99169500  0.77219800  1
  O  O21  1  0.49367300  0.00830500  0.72780200  1
  O  O22  1  0.00632700  0.00830500  0.22780200  1
  O  O23  1  0.50632700  0.99169500  0.27219800  1
  O  O24  1  0.23088800  0.55934400  0.73238200  1
  O  O25  1  0.73088800  0.44065600  0.76761800  1
  O  O26  1  0.76911200  0.44065600  0.26761800  1
  O  O27  1  0.26911200  0.55934400  0.23238200  1
  O  O28  1  0.09009300  0.85446800  0.50393400  1
  O  O29  1  0.59009300  0.14553200  0.99606600  1
  O  O30  1  0.90990700  0.14553200  0.49606600  1
  O  O31  1  0.40990700  0.85446800  0.00393400  1
  O  O32  1  0.23278500  0.91678100  0.25913100  1
  O  O33  1  0.73278500  0.08321900  0.24086900  1
  O  O34  1  0.76721500  0.08321900  0.74086900  1
  O  O35  1  0.26721500  0.91678100  0.75913100  1
  O  O36  1  0.39770400  0.67541800  0.51465000  1
  O  O37  1  0.89770400  0.32458200  0.98535000  1
  O  O38  1  0.60229600  0.32458200  0.48535000  1
  O  O39  1  0.10229600  0.67541800  0.01465000  1
  O  O40  1  0.57024500  0.60928400  0.26371800  1
  O  O41  1  0.07024500  0.39071600  0.23628200  1
  O  O42  1  0.42975500  0.39071600  0.73628200  1
  O  O43  1  0.92975500  0.60928400  0.76371800  1
