# generated using pymatgen
data_Na2MgPb
_symmetry_space_group_name_H-M   'P 1'
_cell_length_a   5.15063410
_cell_length_b   5.15063410
_cell_length_c   10.19993400
_cell_angle_alpha   90.00000000
_cell_angle_beta   90.00000000
_cell_angle_gamma   120.00000123
_symmetry_Int_Tables_number   1
_chemical_formula_structural   Na2MgPb
_chemical_formula_sum   'Na4 Mg2 Pb2'
_cell_volume   234.34159674
_cell_formula_units_Z   2
loop_
 _symmetry_equiv_pos_site_id
 _symmetry_equiv_pos_as_xyz
  1  'x, y, z'
loop_
 _atom_site_type_symbol
 _atom_site_label
 _atom_site_symmetry_multiplicity
 _atom_site_fract_x
 _atom_site_fract_y
 _atom_site_fract_z
 _atom_site_occupancy
  Na  Na0  1  0.33333300  0.66666700  0.91968200  1
  Na  Na1  1  0.66666700  0.33333300  0.08031800  1
  Na  Na2  1  0.66666700  0.33333300  0.41968200  1
  Na  Na3  1  0.33333300  0.66666700  0.58031800  1
  Mg  Mg4  1  0.00000000  0.00000000  0.25000000  1
  Mg  Mg5  1  0.00000000  0.00000000  0.75000000  1
  Pb  Pb6  1  0.33333300  0.66666700  0.25000000  1
  Pb  Pb7  1  0.66666700  0.33333300  0.75000000  1
