# generated using pymatgen
data_Bi2TeIClO8
_symmetry_space_group_name_H-M   'P 1'
_cell_length_a   11.44377964
_cell_length_b   11.44377964
_cell_length_c   15.36947223
_cell_angle_alpha   75.76928963
_cell_angle_beta   75.76928963
_cell_angle_gamma   27.06649552
_symmetry_Int_Tables_number   1
_chemical_formula_structural   Bi2TeIClO8
_chemical_formula_sum   'Bi8 Te4 I4 Cl4 O32'
_cell_volume   886.10711120
_cell_formula_units_Z   4
loop_
 _symmetry_equiv_pos_site_id
 _symmetry_equiv_pos_as_xyz
  1  'x, y, z'
loop_
 _atom_site_type_symbol
 _atom_site_label
 _atom_site_symmetry_multiplicity
 _atom_site_fract_x
 _atom_site_fract_y
 _atom_site_fract_z
 _atom_site_occupancy
  Bi  Bi0  1  0.44988200  0.71031300  0.94090700  1
  Bi  Bi1  1  0.71031300  0.44988200  0.44090700  1
  Bi  Bi2  1  0.33680700  0.75351000  0.20551500  1
  Bi  Bi3  1  0.75351000  0.33680700  0.70551500  1
  Bi  Bi4  1  0.11163600  0.38303100  0.85503900  1
  Bi  Bi5  1  0.38303100  0.11163600  0.35503900  1
  Bi  Bi6  1  0.47173200  0.08574900  0.09596700  1
  Bi  Bi7  1  0.08574900  0.47173200  0.59596700  1
  Te  Te8  1  0.95775300  0.32371100  0.06013900  1
  Te  Te9  1  0.32371100  0.95775300  0.56013900  1
  Te  Te10  1  0.49971900  0.86430200  0.73353700  1
  Te  Te11  1  0.86430200  0.49971900  0.23353700  1
  I  I12  1  0.10539500  0.70741300  0.96487900  1
  I  I13  1  0.70741300  0.10539500  0.46487900  1
  I  I14  1  0.68754600  0.18578000  0.16473600  1
  I  I15  1  0.18578000  0.68754600  0.66473600  1
  Cl  Cl16  1  0.73097800  0.87452600  0.89794100  1
  Cl  Cl17  1  0.87452600  0.73097800  0.39794100  1
  Cl  Cl18  1  0.90995400  0.13131600  0.88828000  1
  Cl  Cl19  1  0.13131600  0.90995400  0.38828100  1
  O  O20  1  0.37177200  0.13966700  0.69838200  1
  O  O21  1  0.13966700  0.37177200  0.19838200  1
  O  O22  1  0.82937700  0.48708000  0.94068400  1
  O  O23  1  0.48708000  0.82937700  0.44068400  1
  O  O24  1  0.58246700  0.62261000  0.78141600  1
  O  O25  1  0.62261000  0.58246700  0.28141600  1
  O  O26  1  0.33395500  0.00220700  0.85112400  1
  O  O27  1  0.00220700  0.33395500  0.35112400  1
  O  O28  1  0.18083700  0.99498800  0.05045300  1
  O  O29  1  0.99498800  0.18083700  0.55045300  1
  O  O30  1  0.66524900  0.47172500  0.08932900  1
  O  O31  1  0.47172500  0.66524900  0.58932900  1
  O  O32  1  0.84341700  0.61129700  0.74474600  1
  O  O33  1  0.61129700  0.84341700  0.24474600  1
  O  O34  1  0.21637300  0.21706600  0.01375000  1
  O  O35  1  0.21706600  0.21637300  0.51375000  1
  O  O36  1  0.18631600  0.08078800  0.68376600  1
  O  O37  1  0.08078800  0.18631600  0.18376600  1
  O  O38  1  0.63602700  0.73970000  0.60984700  1
  O  O39  1  0.73970000  0.63602700  0.10984700  1
  O  O40  1  0.27443500  0.41291400  0.99354000  1
  O  O41  1  0.41291400  0.27443500  0.49354000  1
  O  O42  1  0.54212300  0.38915800  0.25175600  1
  O  O43  1  0.38915800  0.54212300  0.75175600  1
  O  O44  1  0.84651100  0.91348100  0.05432600  1
  O  O45  1  0.91348100  0.84651100  0.55432600  1
  O  O46  1  0.53611000  0.17093100  0.20837600  1
  O  O47  1  0.17093100  0.53611000  0.70837600  1
  O  O48  1  0.32778300  0.60010300  0.01106800  1
  O  O49  1  0.60010300  0.32778300  0.51106800  1
  O  O50  1  0.00787600  0.88584500  0.20766900  1
  O  O51  1  0.88584500  0.00787600  0.70766900  1
