# generated using pymatgen
data_Ta4Se8SI8
_symmetry_space_group_name_H-M   'P 1'
_cell_length_a   13.35517800
_cell_length_b   14.98050000
_cell_length_c   15.12132000
_cell_angle_alpha   90.00000000
_cell_angle_beta   90.00000000
_cell_angle_gamma   90.00000000
_symmetry_Int_Tables_number   1
_chemical_formula_structural   Ta4Se8SI8
_chemical_formula_sum   'Ta16 Se32 S4 I32'
_cell_volume   3025.28081848
_cell_formula_units_Z   4
loop_
 _symmetry_equiv_pos_site_id
 _symmetry_equiv_pos_as_xyz
  1  'x, y, z'
loop_
 _atom_site_type_symbol
 _atom_site_label
 _atom_site_symmetry_multiplicity
 _atom_site_fract_x
 _atom_site_fract_y
 _atom_site_fract_z
 _atom_site_occupancy
  Ta  Ta0  1  0.29546100  0.68266800  0.49649400  1
  Ta  Ta1  1  0.79546100  0.31733200  0.50350600  1
  Ta  Ta2  1  0.29546100  0.18266800  0.00350600  1
  Ta  Ta3  1  0.79546100  0.81733200  0.99649400  1
  Ta  Ta4  1  0.07762100  0.20506700  0.11125200  1
  Ta  Ta5  1  0.57762100  0.79493300  0.88874800  1
  Ta  Ta6  1  0.07762100  0.70506700  0.38874800  1
  Ta  Ta7  1  0.57762100  0.29493300  0.61125200  1
  Ta  Ta8  1  0.19906100  0.19822900  0.30128000  1
  Ta  Ta9  1  0.69906100  0.80177100  0.69872000  1
  Ta  Ta10  1  0.19906100  0.69822900  0.19872000  1
  Ta  Ta11  1  0.69906100  0.30177100  0.80128000  1
  Ta  Ta12  1  0.41803400  0.17565300  0.19790700  1
  Ta  Ta13  1  0.91803400  0.82434700  0.80209300  1
  Ta  Ta14  1  0.41803400  0.67565300  0.30209300  1
  Ta  Ta15  1  0.91803400  0.32434700  0.69790700  1
  Se  Se16  1  0.13950300  0.07076900  0.00980300  1
  Se  Se17  1  0.63950300  0.92923100  0.99019700  1
  Se  Se18  1  0.13950300  0.57076900  0.49019700  1
  Se  Se19  1  0.63950300  0.42923100  0.50980300  1
  Se  Se20  1  0.61460900  0.29171000  0.43718600  1
  Se  Se21  1  0.11460900  0.70829000  0.56281400  1
  Se  Se22  1  0.61460900  0.79171000  0.06281400  1
  Se  Se23  1  0.11460900  0.20829000  0.93718600  1
  Se  Se24  1  0.32355900  0.05978100  0.30262900  1
  Se  Se25  1  0.82355900  0.94021900  0.69737100  1
  Se  Se26  1  0.32355900  0.55978100  0.19737100  1
  Se  Se27  1  0.82355900  0.44021900  0.80262900  1
  Se  Se28  1  0.39581300  0.04866300  0.07713500  1
  Se  Se29  1  0.89581300  0.95133700  0.92286400  1
  Se  Se30  1  0.39581300  0.54866300  0.42286400  1
  Se  Se31  1  0.89581300  0.45133700  0.57713600  1
  Se  Se32  1  0.38125600  0.19179200  0.37074400  1
  Se  Se33  1  0.88125600  0.80820800  0.62925600  1
  Se  Se34  1  0.38125600  0.69179200  0.12925600  1
  Se  Se35  1  0.88125600  0.30820800  0.87074400  1
  Se  Se36  1  0.00409300  0.22393000  0.27337300  1
  Se  Se37  1  0.50409300  0.77607000  0.72662700  1
  Se  Se38  1  0.00409300  0.72393000  0.22662700  1
  Se  Se39  1  0.50409300  0.27607000  0.77337300  1
  Se  Se40  1  0.49265100  0.17519400  0.03395000  1
  Se  Se41  1  0.99265100  0.82480600  0.96605000  1
  Se  Se42  1  0.49265100  0.67519400  0.46605000  1
  Se  Se43  1  0.99265100  0.32480600  0.53395000  1
  Se  Se44  1  0.06975900  0.08132500  0.23814800  1
  Se  Se45  1  0.56975900  0.91867500  0.76185200  1
  Se  Se46  1  0.06975900  0.58132500  0.26185200  1
  Se  Se47  1  0.56975900  0.41867500  0.73814800  1
  S  S48  1  0.25302600  0.23670500  0.15212400  1
  S  S49  1  0.75302600  0.76329500  0.84787600  1
  S  S50  1  0.25302600  0.73670500  0.34787600  1
  S  S51  1  0.75302600  0.26329500  0.65212400  1
  I  I52  1  0.34059900  0.10772800  0.83951600  1
  I  I53  1  0.84059900  0.89227200  0.16048400  1
  I  I54  1  0.34059900  0.60772800  0.66048400  1
  I  I55  1  0.84059900  0.39227200  0.33951600  1
  I  I56  1  0.14147700  0.15014000  0.47262700  1
  I  I57  1  0.64147700  0.84986000  0.52737300  1
  I  I58  1  0.14147700  0.65014000  0.02737300  1
  I  I59  1  0.64147700  0.34986000  0.97262700  1
  I  I60  1  0.82517400  0.14330700  0.45666600  1
  I  I61  1  0.32517400  0.85669300  0.54333400  1
  I  I62  1  0.82517400  0.64330700  0.04333400  1
  I  I63  1  0.32517400  0.35669300  0.95666600  1
  I  I64  1  0.38207600  0.33803900  0.56778300  1
  I  I65  1  0.88207600  0.66196100  0.43221700  1
  I  I66  1  0.38207600  0.83803900  0.93221700  1
  I  I67  1  0.88207600  0.16196100  0.06778300  1
  I  I68  1  0.59754100  0.10024100  0.24890000  1
  I  I69  1  0.09754100  0.89975900  0.75110000  1
  I  I70  1  0.59754100  0.60024100  0.25110000  1
  I  I71  1  0.09754100  0.39975900  0.74890000  1
  I  I72  1  0.48461800  0.34843900  0.20643000  1
  I  I73  1  0.98461800  0.65156100  0.79357000  1
  I  I74  1  0.48461800  0.84843900  0.29357000  1
  I  I75  1  0.98461800  0.15156100  0.70643000  1
  I  I76  1  0.20532000  0.38162400  0.34179700  1
  I  I77  1  0.70532000  0.61837600  0.65820300  1
  I  I78  1  0.20532000  0.88162400  0.15820300  1
  I  I79  1  0.70532000  0.11837600  0.84179700  1
  I  I80  1  0.04853900  0.38527600  0.09093300  1
  I  I81  1  0.54853900  0.61472400  0.90906700  1
  I  I82  1  0.04853900  0.88527600  0.40906700  1
  I  I83  1  0.54853900  0.11472400  0.59093300  1
