# generated using pymatgen
data_K2SbH5O6
_symmetry_space_group_name_H-M   'P 1'
_cell_length_a   5.37858462
_cell_length_b   6.68462169
_cell_length_c   9.24454297
_cell_angle_alpha   83.86932905
_cell_angle_beta   75.99441379
_cell_angle_gamma   84.65865588
_symmetry_Int_Tables_number   1
_chemical_formula_structural   K2SbH5O6
_chemical_formula_sum   'K4 Sb2 H10 O12'
_cell_volume   319.87140143
_cell_formula_units_Z   2
loop_
 _symmetry_equiv_pos_site_id
 _symmetry_equiv_pos_as_xyz
  1  'x, y, z'
loop_
 _atom_site_type_symbol
 _atom_site_label
 _atom_site_symmetry_multiplicity
 _atom_site_fract_x
 _atom_site_fract_y
 _atom_site_fract_z
 _atom_site_occupancy
  K  K0  1  0.77213200  0.19564500  0.93244100  1
  K  K1  1  0.22786800  0.80435500  0.06755900  1
  K  K2  1  0.67263200  0.72682200  0.42451300  1
  K  K3  1  0.32736800  0.27317800  0.57548700  1
  Sb  Sb4  1  0.95859600  0.73505600  0.72658200  1
  Sb  Sb5  1  0.04140400  0.26494400  0.27341800  1
  H  H6  1  0.35368000  0.92428800  0.73565000  1
  H  H7  1  0.64632000  0.07571200  0.26435000  1
  H  H8  1  0.79149400  0.44086000  0.62330800  1
  H  H9  1  0.20850600  0.55914000  0.37669200  1
  H  H10  1  0.36535900  0.53783600  0.78572900  1
  H  H11  1  0.63464100  0.46216400  0.21427100  1
  H  H12  1  0.78999500  0.65692900  0.00620800  1
  H  H13  1  0.21000500  0.34307100  0.99379200  1
  H  H14  1  0.78489000  0.06400700  0.59266900  1
  H  H15  1  0.21511000  0.93599300  0.40733100  1
  O  O16  1  0.15599700  0.71226900  0.52256600  1
  O  O17  1  0.84400300  0.28773100  0.47743400  1
  O  O18  1  0.73484000  0.76198400  0.93442500  1
  O  O19  1  0.26516000  0.23801600  0.06557500  1
  O  O20  1  0.16530800  0.95148100  0.77235600  1
  O  O21  1  0.83469200  0.04851900  0.22764400  1
  O  O22  1  0.72080600  0.51722700  0.71440000  1
  O  O23  1  0.27919400  0.48277300  0.28560000  1
  O  O24  1  0.70225200  0.95570300  0.66944000  1
  O  O25  1  0.29774800  0.04429700  0.33056000  1
  O  O26  1  0.17964800  0.51559500  0.82378300  1
  O  O27  1  0.82035200  0.48440500  0.17621700  1
