# generated using pymatgen
data_Na2Mg2NiH6
_symmetry_space_group_name_H-M   'P 1'
_cell_length_a   5.40767400
_cell_length_b   8.41891000
_cell_length_c   11.38246400
_cell_angle_alpha   90.00000000
_cell_angle_beta   90.00000000
_cell_angle_gamma   90.00000000
_symmetry_Int_Tables_number   1
_chemical_formula_structural   Na2Mg2NiH6
_chemical_formula_sum   'Na8 Mg8 Ni4 H24'
_cell_volume   518.20625958
_cell_formula_units_Z   4
loop_
 _symmetry_equiv_pos_site_id
 _symmetry_equiv_pos_as_xyz
  1  'x, y, z'
loop_
 _atom_site_type_symbol
 _atom_site_label
 _atom_site_symmetry_multiplicity
 _atom_site_fract_x
 _atom_site_fract_y
 _atom_site_fract_z
 _atom_site_occupancy
  Na  Na0  1  0.95284000  0.75000000  0.39147100  1
  Na  Na1  1  0.54716000  0.75000000  0.89147100  1
  Na  Na2  1  0.04716000  0.25000000  0.60852900  1
  Na  Na3  1  0.45284000  0.25000000  0.10852900  1
  Na  Na4  1  0.44467400  0.75000000  0.16848600  1
  Na  Na5  1  0.05532600  0.75000000  0.66848600  1
  Na  Na6  1  0.55532600  0.25000000  0.83151400  1
  Na  Na7  1  0.94467400  0.25000000  0.33151400  1
  Mg  Mg8  1  0.43977100  0.49306600  0.37208600  1
  Mg  Mg9  1  0.06022900  0.00693400  0.87208600  1
  Mg  Mg10  1  0.56022900  0.99306600  0.62791400  1
  Mg  Mg11  1  0.93977100  0.50693400  0.12791400  1
  Mg  Mg12  1  0.56022900  0.50693400  0.62791400  1
  Mg  Mg13  1  0.93977100  0.99306600  0.12791400  1
  Mg  Mg14  1  0.43977100  0.00693400  0.37208600  1
  Mg  Mg15  1  0.06022900  0.49306600  0.87208600  1
  Ni  Ni16  1  0.06128400  0.75000000  0.00113800  1
  Ni  Ni17  1  0.43871600  0.75000000  0.50113800  1
  Ni  Ni18  1  0.93871600  0.25000000  0.99886200  1
  Ni  Ni19  1  0.56128400  0.25000000  0.49886200  1
  H  H20  1  0.84819000  0.75000000  0.09624400  1
  H  H21  1  0.65181000  0.75000000  0.59624400  1
  H  H22  1  0.15181000  0.25000000  0.90375600  1
  H  H23  1  0.34819000  0.25000000  0.40375600  1
  H  H24  1  0.23635700  0.60090900  0.02195700  1
  H  H25  1  0.26364300  0.89909100  0.52195700  1
  H  H26  1  0.76364300  0.10090900  0.97804300  1
  H  H27  1  0.73635700  0.39909100  0.47804300  1
  H  H28  1  0.76364300  0.39909100  0.97804300  1
  H  H29  1  0.73635700  0.10090900  0.47804300  1
  H  H30  1  0.23635700  0.89909100  0.02195700  1
  H  H31  1  0.26364300  0.60090900  0.52195700  1
  H  H32  1  0.97454700  0.75000000  0.86889800  1
  H  H33  1  0.52545300  0.75000000  0.36889800  1
  H  H34  1  0.02545300  0.25000000  0.13110200  1
  H  H35  1  0.47454700  0.25000000  0.63110200  1
  H  H36  1  0.13615100  0.50610100  0.27502600  1
  H  H37  1  0.36384900  0.99389900  0.77502600  1
  H  H38  1  0.86384900  0.00610100  0.72497400  1
  H  H39  1  0.63615100  0.49389900  0.22497400  1
  H  H40  1  0.86384900  0.49389900  0.72497400  1
  H  H41  1  0.63615100  0.00610100  0.22497400  1
  H  H42  1  0.13615100  0.99389900  0.27502600  1
  H  H43  1  0.36384900  0.50610100  0.77502600  1
