# generated using pymatgen
data_Ca3FeN3
_symmetry_space_group_name_H-M   'P 1'
_cell_length_a   7.21970977
_cell_length_b   7.21970977
_cell_length_c   4.97969600
_cell_angle_alpha   90.00000000
_cell_angle_beta   90.00000000
_cell_angle_gamma   119.99999787
_symmetry_Int_Tables_number   1
_chemical_formula_structural   Ca3FeN3
_chemical_formula_sum   'Ca6 Fe2 N6'
_cell_volume   224.78791051
_cell_formula_units_Z   2
loop_
 _symmetry_equiv_pos_site_id
 _symmetry_equiv_pos_as_xyz
  1  'x, y, z'
loop_
 _atom_site_type_symbol
 _atom_site_label
 _atom_site_symmetry_multiplicity
 _atom_site_fract_x
 _atom_site_fract_y
 _atom_site_fract_z
 _atom_site_occupancy
  Ca  Ca0  1  0.27484700  0.91513900  0.75000000  1
  Ca  Ca1  1  0.64029200  0.72515300  0.75000000  1
  Ca  Ca2  1  0.08486100  0.35970800  0.75000000  1
  Ca  Ca3  1  0.72515300  0.08486100  0.25000000  1
  Ca  Ca4  1  0.35970800  0.27484700  0.25000000  1
  Ca  Ca5  1  0.91513900  0.64029200  0.25000000  1
  Fe  Fe6  1  0.33333300  0.66666700  0.25000000  1
  Fe  Fe7  1  0.66666700  0.33333300  0.75000000  1
  N  N8  1  0.30545300  0.89540800  0.25000000  1
  N  N9  1  0.58995500  0.69454700  0.25000000  1
  N  N10  1  0.10459200  0.41004500  0.25000000  1
  N  N11  1  0.69454700  0.10459200  0.75000000  1
  N  N12  1  0.41004500  0.30545300  0.75000000  1
  N  N13  1  0.89540800  0.58995500  0.75000000  1
