# generated using pymatgen
data_Ba3Bi2RuO9
_symmetry_space_group_name_H-M   'P 1'
_cell_length_a   6.10967712
_cell_length_b   10.66877112
_cell_length_c   8.67198196
_cell_angle_alpha   65.37065119
_cell_angle_beta   89.73309372
_cell_angle_gamma   72.91660935
_symmetry_Int_Tables_number   1
_chemical_formula_structural   Ba3Bi2RuO9
_chemical_formula_sum   'Ba6 Bi4 Ru2 O18'
_cell_volume   486.63399994
_cell_formula_units_Z   2
loop_
 _symmetry_equiv_pos_site_id
 _symmetry_equiv_pos_as_xyz
  1  'x, y, z'
loop_
 _atom_site_type_symbol
 _atom_site_label
 _atom_site_symmetry_multiplicity
 _atom_site_fract_x
 _atom_site_fract_y
 _atom_site_fract_z
 _atom_site_occupancy
  Ba  Ba0  1  0.83423700  0.32604100  0.08125200  1
  Ba  Ba1  1  0.16829400  0.66358200  0.42465700  1
  Ba  Ba2  1  0.49699800  0.00410100  0.74216100  1
  Ba  Ba3  1  0.49907400  0.00728700  0.25207900  1
  Ba  Ba4  1  0.83632100  0.32923600  0.59116000  1
  Ba  Ba5  1  0.16503200  0.66976200  0.90866400  1
  Bi  Bi6  1  0.99916000  0.00285800  0.99860400  1
  Bi  Bi7  1  0.33421600  0.33043900  0.33474600  1
  Bi  Bi8  1  0.66667400  0.66666700  0.66668200  1
  Bi  Bi9  1  0.66669800  0.66665700  0.16668700  1
  Ru  Ru10  1  0.00086600  0.99865700  0.50069000  1
  Ru  Ru11  1  0.33250400  0.33469800  0.83266900  1
  O  O12  1  0.97178000  0.48026300  0.22901600  1
  O  O13  1  0.28833800  0.82754100  0.55804100  1
  O  O14  1  0.61843900  0.16516500  0.88937100  1
  O  O15  1  0.36154000  0.85308400  0.10430800  1
  O  O16  1  0.71489700  0.16817000  0.44394700  1
  O  O17  1  0.04497100  0.50579800  0.77528900  1
  O  O18  1  0.62548900  0.68995200  0.91092400  1
  O  O19  1  0.95930700  0.02300100  0.25961800  1
  O  O20  1  0.29683700  0.35225500  0.59404600  1
  O  O21  1  0.87415400  0.81009900  0.09346200  1
  O  O22  1  0.19398100  0.12957100  0.43291500  1
  O  O23  1  0.52110800  0.47043600  0.76202100  1
  O  O24  1  0.70783700  0.64338800  0.42239700  1
  O  O25  1  0.03648100  0.98108700  0.73927300  1
  O  O26  1  0.37402400  0.31032000  0.07373000  1
  O  O27  1  0.45917800  0.52322300  0.23987000  1
  O  O28  1  0.81223500  0.86289700  0.57130400  1
  O  O29  1  0.13932800  0.20376600  0.90041800  1
