# generated using pymatgen
data_Cd2Cu(PO4)2
_symmetry_space_group_name_H-M   'P 1'
_cell_length_a   4.87300500
_cell_length_b   5.71340484
_cell_length_c   6.86984898
_cell_angle_alpha   105.75911585
_cell_angle_beta   87.08333869
_cell_angle_gamma   110.17397860
_symmetry_Int_Tables_number   1
_chemical_formula_structural   Cd2Cu(PO4)2
_chemical_formula_sum   'Cd2 Cu1 P2 O8'
_cell_volume   172.59018702
_cell_formula_units_Z   1
loop_
 _symmetry_equiv_pos_site_id
 _symmetry_equiv_pos_as_xyz
  1  'x, y, z'
loop_
 _atom_site_type_symbol
 _atom_site_label
 _atom_site_symmetry_multiplicity
 _atom_site_fract_x
 _atom_site_fract_y
 _atom_site_fract_z
 _atom_site_occupancy
  Cd  Cd0  1  0.70308900  0.28175000  0.69377200  1
  Cd  Cd1  1  0.29691100  0.71825000  0.30622800  1
  Cu  Cu2  1  0.00000000  0.00000000  0.00000000  1
  P  P3  1  0.37128700  0.68360600  0.78577400  1
  P  P4  1  0.62871300  0.31639400  0.21422600  1
  O  O5  1  0.38592600  0.86478800  0.64964100  1
  O  O6  1  0.61407400  0.13521200  0.35035900  1
  O  O7  1  0.23132200  0.77993500  0.98884300  1
  O  O8  1  0.76867800  0.22006500  0.01115700  1
  O  O9  1  0.31520200  0.30900000  0.16025600  1
  O  O10  1  0.19825300  0.39928000  0.67676900  1
  O  O11  1  0.80174700  0.60072000  0.32323100  1
  O  O12  1  0.68479800  0.69100000  0.83974400  1
