# generated using pymatgen
data_LiZr2(PO4)3
_symmetry_space_group_name_H-M   'P 1'
_cell_length_a   9.08005300
_cell_length_b   8.95742800
_cell_length_c   15.37326022
_cell_angle_alpha   55.05019079
_cell_angle_beta   90.00000000
_cell_angle_gamma   90.00000000
_symmetry_Int_Tables_number   1
_chemical_formula_structural   LiZr2(PO4)3
_chemical_formula_sum   'Li4 Zr8 P12 O48'
_cell_volume   1024.86897417
_cell_formula_units_Z   4
loop_
 _symmetry_equiv_pos_site_id
 _symmetry_equiv_pos_as_xyz
  1  'x, y, z'
loop_
 _atom_site_type_symbol
 _atom_site_label
 _atom_site_symmetry_multiplicity
 _atom_site_fract_x
 _atom_site_fract_y
 _atom_site_fract_z
 _atom_site_occupancy
  Li  Li0  1  0.22415700  0.03164200  0.67894600  1
  Li  Li1  1  0.72415700  0.96835800  0.82105400  1
  Li  Li2  1  0.77584300  0.96835800  0.32105400  1
  Li  Li3  1  0.27584300  0.03164200  0.17894600  1
  Zr  Zr4  1  0.45489700  0.85547500  0.39037500  1
  Zr  Zr5  1  0.47488100  0.62964800  0.12113200  1
  Zr  Zr6  1  0.97488100  0.37035200  0.37886800  1
  Zr  Zr7  1  0.52511900  0.37035200  0.87886800  1
  Zr  Zr8  1  0.02511900  0.62964800  0.62113200  1
  Zr  Zr9  1  0.04510300  0.85547500  0.89037500  1
  Zr  Zr10  1  0.54510300  0.14452500  0.60962500  1
  Zr  Zr11  1  0.95489700  0.14452500  0.10962500  1
  P  P12  1  0.24986300  0.45282100  0.01147900  1
  P  P13  1  0.74986300  0.54717900  0.48852100  1
  P  P14  1  0.25013700  0.45282100  0.51147900  1
  P  P15  1  0.12136000  0.75575200  0.14643500  1
  P  P16  1  0.62136000  0.24424800  0.35356500  1
  P  P17  1  0.87864000  0.24424800  0.85356500  1
  P  P18  1  0.37864000  0.75575200  0.64643500  1
  P  P19  1  0.40176800  0.02924500  0.85485600  1
  P  P20  1  0.90176800  0.97075500  0.64514400  1
  P  P21  1  0.59823200  0.97075500  0.14514400  1
  P  P22  1  0.09823200  0.02924500  0.35485600  1
  P  P23  1  0.75013700  0.54717900  0.98852100  1
  O  O24  1  0.78549700  0.29509500  0.33338000  1
  O  O25  1  0.64857300  0.55985800  0.06361600  1
  O  O26  1  0.14857300  0.44014200  0.43638400  1
  O  O27  1  0.35142700  0.44014200  0.93638400  1
  O  O28  1  0.85142700  0.55985800  0.56361600  1
  O  O29  1  0.52226400  0.40422300  0.27369400  1
  O  O30  1  0.02226400  0.59577700  0.22630600  1
  O  O31  1  0.47773600  0.59577700  0.72630600  1
  O  O32  1  0.10293600  0.20111900  0.35418200  1
  O  O33  1  0.39706400  0.20111900  0.85418200  1
  O  O34  1  0.89706400  0.79888100  0.64581800  1
  O  O35  1  0.33534400  0.48208800  0.08646700  1
  O  O36  1  0.83534400  0.51791200  0.41353300  1
  O  O37  1  0.66465600  0.51791200  0.91353300  1
  O  O38  1  0.16465600  0.48208800  0.58646700  1
  O  O39  1  0.28549700  0.70490500  0.16662000  1
  O  O40  1  0.97773600  0.40422300  0.77369400  1
  O  O41  1  0.60293600  0.79888100  0.14581800  1
  O  O42  1  0.71450300  0.29509500  0.83338000  1
  O  O43  1  0.21450300  0.70490500  0.66662000  1
  O  O44  1  0.42104300  0.81736700  0.53256200  1
  O  O45  1  0.92104300  0.18263300  0.96743800  1
  O  O46  1  0.57895700  0.18263300  0.46743800  1
  O  O47  1  0.07895700  0.81736700  0.03256200  1
  O  O48  1  0.25226600  0.99851800  0.32160400  1
  O  O49  1  0.75226600  0.00148200  0.17839600  1
  O  O50  1  0.74773400  0.00148200  0.67839600  1
  O  O51  1  0.24773400  0.99851800  0.82160400  1
  O  O52  1  0.36041900  0.61006600  0.44357000  1
  O  O53  1  0.86041900  0.38993400  0.05643000  1
  O  O54  1  0.44479400  0.86068400  0.96381000  1
  O  O55  1  0.13958100  0.61006600  0.94357000  1
  O  O56  1  0.59746800  0.08136900  0.34469200  1
  O  O57  1  0.09746800  0.91863100  0.15530800  1
  O  O58  1  0.40253200  0.91863100  0.65530800  1
  O  O59  1  0.90253200  0.08136900  0.84469200  1
  O  O60  1  0.48124100  0.94506900  0.22742700  1
  O  O61  1  0.98124100  0.05493100  0.27257300  1
  O  O62  1  0.51875900  0.05493100  0.77257300  1
  O  O63  1  0.01875900  0.94506900  0.72742700  1
  O  O64  1  0.66470200  0.73140100  0.41973600  1
  O  O65  1  0.16470200  0.26859900  0.08026400  1
  O  O66  1  0.33529800  0.26859900  0.58026400  1
  O  O67  1  0.83529800  0.73140100  0.91973600  1
  O  O68  1  0.05520600  0.86068400  0.46381000  1
  O  O69  1  0.55520600  0.13931600  0.03619000  1
  O  O70  1  0.94479400  0.13931600  0.53619000  1
  O  O71  1  0.63958100  0.38993400  0.55643000  1
