# generated using pymatgen
data_TaAlZn
_symmetry_space_group_name_H-M   'P 1'
_cell_length_a   5.02745978
_cell_length_b   5.02745978
_cell_length_c   8.34100100
_cell_angle_alpha   90.00000000
_cell_angle_beta   90.00000000
_cell_angle_gamma   119.32678962
_symmetry_Int_Tables_number   1
_chemical_formula_structural   TaAlZn
_chemical_formula_sum   'Ta4 Al4 Zn4'
_cell_volume   183.80289671
_cell_formula_units_Z   4
loop_
 _symmetry_equiv_pos_site_id
 _symmetry_equiv_pos_as_xyz
  1  'x, y, z'
loop_
 _atom_site_type_symbol
 _atom_site_label
 _atom_site_symmetry_multiplicity
 _atom_site_fract_x
 _atom_site_fract_y
 _atom_site_fract_z
 _atom_site_occupancy
  Ta  Ta0  1  0.66539800  0.33460200  0.31622400  1
  Ta  Ta1  1  0.33636600  0.66363400  0.19101100  1
  Ta  Ta2  1  0.33636600  0.66363400  0.80898900  1
  Ta  Ta3  1  0.66539800  0.33460200  0.68377600  1
  Al  Al4  1  0.00210600  0.99789400  0.24280900  1
  Al  Al5  1  0.00210600  0.99789400  0.75719100  1
  Al  Al6  1  0.65440900  0.83094900  0.50000000  1
  Al  Al7  1  0.16905100  0.34559100  0.50000000  1
  Zn  Zn8  1  0.16788400  0.83211600  0.50000000  1
  Zn  Zn9  1  0.34637400  0.17280400  0.00000000  1
  Zn  Zn10  1  0.82719600  0.65362600  0.00000000  1
  Zn  Zn11  1  0.82738900  0.17261100  0.00000000  1
