# generated using pymatgen
data_Hg4BiSe2Cl5
_symmetry_space_group_name_H-M   'P 1'
_cell_length_a   10.68303100
_cell_length_b   9.72861500
_cell_length_c   16.97677404
_cell_angle_alpha   59.35058343
_cell_angle_beta   90.00000000
_cell_angle_gamma   90.00000000
_symmetry_Int_Tables_number   1
_chemical_formula_structural   Hg4BiSe2Cl5
_chemical_formula_sum   'Hg16 Bi4 Se8 Cl20'
_cell_volume   1517.93069641
_cell_formula_units_Z   4
loop_
 _symmetry_equiv_pos_site_id
 _symmetry_equiv_pos_as_xyz
  1  'x, y, z'
loop_
 _atom_site_type_symbol
 _atom_site_label
 _atom_site_symmetry_multiplicity
 _atom_site_fract_x
 _atom_site_fract_y
 _atom_site_fract_z
 _atom_site_occupancy
  Hg  Hg0  1  0.74947800  0.85553500  0.04688100  1
  Hg  Hg1  1  0.75052200  0.85553500  0.54688100  1
  Hg  Hg2  1  0.25052200  0.14446500  0.95311900  1
  Hg  Hg3  1  0.24947800  0.14446500  0.45311900  1
  Hg  Hg4  1  0.74903600  0.17077000  0.95035500  1
  Hg  Hg5  1  0.75096400  0.17077000  0.45035500  1
  Hg  Hg6  1  0.25096400  0.82923000  0.04964500  1
  Hg  Hg7  1  0.24903600  0.82923000  0.54964500  1
  Hg  Hg8  1  0.74582500  0.51482200  0.99186700  1
  Hg  Hg9  1  0.75417500  0.51482200  0.49186700  1
  Hg  Hg10  1  0.25417500  0.48517800  0.00813300  1
  Hg  Hg11  1  0.24582500  0.48517800  0.50813300  1
  Hg  Hg12  1  0.50559400  0.51131800  0.64676500  1
  Hg  Hg13  1  0.99440600  0.51131800  0.14676500  1
  Hg  Hg14  1  0.49440600  0.48868200  0.35323500  1
  Hg  Hg15  1  0.00559400  0.48868200  0.85323500  1
  Bi  Bi16  1  0.00016400  0.01782700  0.73517300  1
  Bi  Bi17  1  0.49983600  0.01782700  0.23517300  1
  Bi  Bi18  1  0.99983600  0.98217300  0.26482700  1
  Bi  Bi19  1  0.50016400  0.98217300  0.76482700  1
  Se  Se20  1  0.75695000  0.54364600  0.13218900  1
  Se  Se21  1  0.74305000  0.54364600  0.63218900  1
  Se  Se22  1  0.24305000  0.45635400  0.86781100  1
  Se  Se23  1  0.25695000  0.45635400  0.36781100  1
  Se  Se24  1  0.73319300  0.48231300  0.35328300  1
  Se  Se25  1  0.76680700  0.48231300  0.85328300  1
  Se  Se26  1  0.26680700  0.51768700  0.64671700  1
  Se  Se27  1  0.23319300  0.51768700  0.14671700  1
  Cl  Cl28  1  0.50230200  0.19838100  0.82695400  1
  Cl  Cl29  1  0.99769800  0.19838100  0.32695400  1
  Cl  Cl30  1  0.49769800  0.80161900  0.17304600  1
  Cl  Cl31  1  0.00230200  0.80161900  0.67304600  1
  Cl  Cl32  1  0.50091800  0.78798000  0.69673400  1
  Cl  Cl33  1  0.99908200  0.78798000  0.19673400  1
  Cl  Cl34  1  0.49908200  0.21202000  0.30326600  1
  Cl  Cl35  1  0.00091800  0.21202000  0.80326600  1
  Cl  Cl36  1  0.53683800  0.23705300  0.59173700  1
  Cl  Cl37  1  0.96316200  0.23705300  0.09173700  1
  Cl  Cl38  1  0.46316200  0.76294700  0.40826300  1
  Cl  Cl39  1  0.03683800  0.76294700  0.90826300  1
  Cl  Cl40  1  0.97271900  0.26456900  0.55963800  1
  Cl  Cl41  1  0.52728100  0.26456900  0.05963800  1
  Cl  Cl42  1  0.02728100  0.73543100  0.44036200  1
  Cl  Cl43  1  0.47271900  0.73543100  0.94036200  1
  Cl  Cl44  1  0.74334300  0.93620200  0.79723900  1
  Cl  Cl45  1  0.75665700  0.93620200  0.29723900  1
  Cl  Cl46  1  0.25665700  0.06379800  0.20276100  1
  Cl  Cl47  1  0.24334300  0.06379800  0.70276100  1
