# generated using pymatgen
data_CaNb4O8
_symmetry_space_group_name_H-M   'P 1'
_cell_length_a   7.16046640
_cell_length_b   7.16046640
_cell_length_c   9.80638301
_cell_angle_alpha   86.72310272
_cell_angle_beta   86.72310272
_cell_angle_gamma   93.55100225
_symmetry_Int_Tables_number   1
_chemical_formula_structural   CaNb4O8
_chemical_formula_sum   'Ca3 Nb12 O24'
_cell_volume   500.07925370
_cell_formula_units_Z   3
loop_
 _symmetry_equiv_pos_site_id
 _symmetry_equiv_pos_as_xyz
  1  'x, y, z'
loop_
 _atom_site_type_symbol
 _atom_site_label
 _atom_site_symmetry_multiplicity
 _atom_site_fract_x
 _atom_site_fract_y
 _atom_site_fract_z
 _atom_site_occupancy
  Ca  Ca0  1  0.87290400  0.87290400  0.12807400  1
  Ca  Ca1  1  0.14280900  0.14280900  0.85716900  1
  Ca  Ca2  1  0.62145400  0.62145400  0.37766100  1
  Nb  Nb3  1  0.15221100  0.15221100  0.35193100  1
  Nb  Nb4  1  0.64707300  0.64707300  0.84878300  1
  Nb  Nb5  1  0.84655600  0.84655600  0.65214100  1
  Nb  Nb6  1  0.34837700  0.34837700  0.15295400  1
  Nb  Nb7  1  0.85121600  0.41677400  0.63624700  1
  Nb  Nb8  1  0.35604600  0.91811900  0.13654200  1
  Nb  Nb9  1  0.91811900  0.35604600  0.13654200  1
  Nb  Nb10  1  0.41677400  0.85121600  0.63624700  1
  Nb  Nb11  1  0.08267100  0.64533600  0.86087200  1
  Nb  Nb12  1  0.58068900  0.14489900  0.36817200  1
  Nb  Nb13  1  0.14489900  0.58068900  0.36817200  1
  Nb  Nb14  1  0.64533600  0.08267100  0.86087200  1
  O  O15  1  0.34356600  0.06595600  0.48270600  1
  O  O16  1  0.84536400  0.57995100  0.98616200  1
  O  O17  1  0.85455300  0.11854000  0.70984900  1
  O  O18  1  0.35279700  0.61940200  0.21215000  1
  O  O19  1  0.91973000  0.65648300  0.51306300  1
  O  O20  1  0.42376500  0.15634500  0.01421100  1
  O  O21  1  0.88166400  0.14552400  0.28707400  1
  O  O22  1  0.37814200  0.65716700  0.79553000  1
  O  O23  1  0.65648300  0.91973000  0.51306300  1
  O  O24  1  0.15634500  0.42376500  0.01421100  1
  O  O25  1  0.14552400  0.88166400  0.28707400  1
  O  O26  1  0.65716700  0.37814200  0.79553000  1
  O  O27  1  0.06595600  0.34356600  0.48270600  1
  O  O28  1  0.57995100  0.84536400  0.98616200  1
  O  O29  1  0.11854000  0.85455300  0.70984900  1
  O  O30  1  0.61940200  0.35279700  0.21215000  1
  O  O31  1  0.33568300  0.66901400  0.49589300  1
  O  O32  1  0.84569300  0.15901000  0.99946500  1
  O  O33  1  0.66901400  0.33568300  0.49589300  1
  O  O34  1  0.15901000  0.84569300  0.99946500  1
  O  O35  1  0.07458700  0.42143600  0.75171200  1
  O  O36  1  0.58349500  0.91599600  0.25049400  1
  O  O37  1  0.91599600  0.58349500  0.25049400  1
  O  O38  1  0.42143600  0.07458700  0.75171200  1
