# generated using pymatgen
data_TbGePd
_symmetry_space_group_name_H-M   'P 1'
_cell_length_a   11.47226148
_cell_length_b   11.47226148
_cell_length_c   11.47226148
_cell_angle_alpha   157.75321892
_cell_angle_beta   141.06582403
_cell_angle_gamma   45.29713730
_symmetry_Int_Tables_number   1
_chemical_formula_structural   TbGePd
_chemical_formula_sum   'Tb6 Ge6 Pd6'
_cell_volume   358.36651111
_cell_formula_units_Z   6
loop_
 _symmetry_equiv_pos_site_id
 _symmetry_equiv_pos_as_xyz
  1  'x, y, z'
loop_
 _atom_site_type_symbol
 _atom_site_label
 _atom_site_symmetry_multiplicity
 _atom_site_fract_x
 _atom_site_fract_y
 _atom_site_fract_z
 _atom_site_occupancy
  Tb  Tb0  1  0.53516600  0.00000000  0.53516600  1
  Tb  Tb1  1  0.86904400  0.33384200  0.53520100  1
  Tb  Tb2  1  0.20135900  0.66615800  0.53520100  1
  Tb  Tb3  1  0.95213000  0.50000000  0.45213000  1
  Tb  Tb4  1  0.62563700  0.16726800  0.45836800  1
  Tb  Tb5  1  0.29110000  0.83273200  0.45836800  1
  Ge  Ge6  1  0.21953300  0.06473000  0.15480300  1
  Ge  Ge7  1  0.09007200  0.93527000  0.15480300  1
  Ge  Ge8  1  0.07078400  0.23481800  0.83596600  1
  Ge  Ge9  1  0.60114800  0.76518200  0.83596600  1
  Ge  Ge10  1  0.56139000  0.40593600  0.15545400  1
  Ge  Ge11  1  0.74951900  0.59406400  0.15545400  1
  Pd  Pd12  1  0.93081800  0.10401500  0.82680400  1
  Pd  Pd13  1  0.72278900  0.89598500  0.82680400  1
  Pd  Pd14  1  0.43184000  0.26632700  0.16551200  1
  Pd  Pd15  1  0.89918500  0.73367300  0.16551200  1
  Pd  Pd16  1  0.25196800  0.42825500  0.82371300  1
  Pd  Pd17  1  0.39545800  0.57174500  0.82371300  1
