# generated using pymatgen
data_Ti2CN
_symmetry_space_group_name_H-M   'P 1'
_cell_length_a   5.26352083
_cell_length_b   5.26352083
_cell_length_c   5.26352088
_cell_angle_alpha   33.52173673
_cell_angle_beta   33.52173673
_cell_angle_gamma   33.52173441
_symmetry_Int_Tables_number   1
_chemical_formula_structural   Ti2CN
_chemical_formula_sum   'Ti2 C1 N1'
_cell_volume   39.61167487
_cell_formula_units_Z   1
loop_
 _symmetry_equiv_pos_site_id
 _symmetry_equiv_pos_as_xyz
  1  'x, y, z'
loop_
 _atom_site_type_symbol
 _atom_site_label
 _atom_site_symmetry_multiplicity
 _atom_site_fract_x
 _atom_site_fract_y
 _atom_site_fract_z
 _atom_site_occupancy
  Ti  Ti0  1  0.25065900  0.25065900  0.25065900  1
  Ti  Ti1  1  0.74934100  0.74934100  0.74934100  1
  C  C2  1  0.00000000  0.00000000  0.00000000  1
  N  N3  1  0.50000000  0.50000000  0.50000000  1
