# generated using pymatgen
data_Cs2MnSi5O12
_symmetry_space_group_name_H-M   'P 1'
_cell_length_a   13.90224237
_cell_length_b   14.01265172
_cell_length_c   14.01498160
_cell_angle_alpha   90.00000000
_cell_angle_beta   90.00000000
_cell_angle_gamma   90.00000000
_symmetry_Int_Tables_number   1
_chemical_formula_structural   Cs2MnSi5O12
_chemical_formula_sum   'Cs16 Mn8 Si40 O96'
_cell_volume   2730.22045116
_cell_formula_units_Z   8
loop_
 _symmetry_equiv_pos_site_id
 _symmetry_equiv_pos_as_xyz
  1  'x, y, z'
loop_
 _atom_site_type_symbol
 _atom_site_label
 _atom_site_symmetry_multiplicity
 _atom_site_fract_x
 _atom_site_fract_y
 _atom_site_fract_z
 _atom_site_occupancy
  Cs  Cs0  1  0.37339679  0.64925077  0.86411245  1
  Cs  Cs1  1  0.87339679  0.35074923  0.63588755  1
  Cs  Cs2  1  0.62660321  0.85074923  0.36411245  1
  Cs  Cs3  1  0.12660321  0.14925077  0.13588755  1
  Cs  Cs4  1  0.62660321  0.35074923  0.13588755  1
  Cs  Cs5  1  0.12660321  0.64925077  0.36411245  1
  Cs  Cs6  1  0.37339679  0.14925077  0.63588755  1
  Cs  Cs7  1  0.87339679  0.85074923  0.86411245  1
  Cs  Cs8  1  0.12291303  0.88801982  0.60965236  1
  Cs  Cs9  1  0.62291303  0.11198018  0.89034764  1
  Cs  Cs10  1  0.87708697  0.61198018  0.10965236  1
  Cs  Cs11  1  0.37708697  0.38801982  0.39034764  1
  Cs  Cs12  1  0.87708697  0.11198018  0.39034764  1
  Cs  Cs13  1  0.37708697  0.88801982  0.10965236  1
  Cs  Cs14  1  0.12291303  0.38801982  0.89034764  1
  Cs  Cs15  1  0.62291303  0.61198018  0.60965236  1
  Mn  Mn16  1  0.12136113  0.43341819  0.16408611  1
  Mn  Mn17  1  0.62136113  0.56658181  0.33591389  1
  Mn  Mn18  1  0.87863887  0.06658181  0.66408611  1
  Mn  Mn19  1  0.37863887  0.93341819  0.83591389  1
  Mn  Mn20  1  0.87863887  0.56658181  0.83591389  1
  Mn  Mn21  1  0.37863887  0.43341819  0.66408611  1
  Mn  Mn22  1  0.12136113  0.93341819  0.33591389  1
  Mn  Mn23  1  0.62136113  0.06658181  0.16408611  1
  Si  Si24  1  0.37217428  0.09984591  0.33233095  1
  Si  Si25  1  0.87217428  0.90015409  0.16766905  1
  Si  Si26  1  0.62782572  0.40015409  0.83233095  1
  Si  Si27  1  0.12782572  0.59984591  0.66766905  1
  Si  Si28  1  0.62782572  0.90015409  0.66766905  1
  Si  Si29  1  0.12782572  0.09984591  0.83233095  1
  Si  Si30  1  0.37217428  0.59984591  0.16766905  1
  Si  Si31  1  0.87217428  0.40015409  0.33233095  1
  Si  Si32  1  0.91224413  0.13602587  0.88687645  1
  Si  Si33  1  0.41224413  0.86397413  0.61312355  1
  Si  Si34  1  0.08775587  0.36397413  0.38687645  1
  Si  Si35  1  0.58775587  0.63602587  0.11312355  1
  Si  Si36  1  0.08775587  0.86397413  0.11312355  1
  Si  Si37  1  0.58775587  0.13602587  0.38687645  1
  Si  Si38  1  0.91224413  0.63602587  0.61312355  1
  Si  Si39  1  0.41224413  0.36397413  0.88687645  1
  Si  Si40  1  0.84730220  0.60819447  0.40340311  1
  Si  Si41  1  0.34730220  0.39180553  0.09659689  1
  Si  Si42  1  0.15269780  0.89180553  0.90340311  1
  Si  Si43  1  0.65269780  0.10819447  0.59659689  1
  Si  Si44  1  0.15269780  0.39180553  0.59659689  1
  Si  Si45  1  0.65269780  0.60819447  0.90340311  1
  Si  Si46  1  0.84730220  0.10819447  0.09659689  1
  Si  Si47  1  0.34730220  0.89180553  0.40340311  1
  Si  Si48  1  0.59497565  0.31834645  0.62875459  1
  Si  Si49  1  0.09497565  0.68165355  0.87124541  1
  Si  Si50  1  0.40502435  0.18165355  0.12875459  1
  Si  Si51  1  0.90502435  0.81834645  0.37124541  1
  Si  Si52  1  0.40502435  0.68165355  0.37124541  1
  Si  Si53  1  0.90502435  0.31834645  0.12875459  1
  Si  Si54  1  0.59497565  0.81834645  0.87124541  1
  Si  Si55  1  0.09497565  0.18165355  0.62875459  1
  Si  Si56  1  0.66820569  0.84914242  0.07862184  1
  Si  Si57  1  0.16820569  0.15085758  0.42137816  1
  Si  Si58  1  0.33179431  0.65085758  0.57862184  1
  Si  Si59  1  0.83179431  0.34914242  0.92137816  1
  Si  Si60  1  0.33179431  0.15085758  0.92137816  1
  Si  Si61  1  0.83179431  0.84914242  0.57862184  1
  Si  Si62  1  0.66820569  0.34914242  0.42137816  1
  Si  Si63  1  0.16820569  0.65085758  0.07862184  1
  O  O64  1  0.03014614  0.65242035  0.62899880  1
  O  O65  1  0.53014614  0.34757965  0.87100120  1
  O  O66  1  0.96985386  0.84757965  0.12899880  1
  O  O67  1  0.46985386  0.15242035  0.37100120  1
  O  O68  1  0.96985386  0.34757965  0.37100120  1
  O  O69  1  0.46985386  0.65242035  0.12899880  1
  O  O70  1  0.03014614  0.15242035  0.87100120  1
  O  O71  1  0.53014614  0.84757965  0.62899880  1
  O  O72  1  0.40311350  0.90987884  0.50546096  1
  O  O73  1  0.90311350  0.09012116  0.99453904  1
  O  O74  1  0.59688650  0.59012116  0.00546096  1
  O  O75  1  0.09688650  0.40987884  0.49453904  1
  O  O76  1  0.59688650  0.09012116  0.49453904  1
  O  O77  1  0.09688650  0.90987884  0.00546096  1
  O  O78  1  0.40311350  0.40987884  0.99453904  1
  O  O79  1  0.90311350  0.59012116  0.50546096  1
  O  O80  1  0.11901780  0.98323136  0.83475652  1
  O  O81  1  0.61901780  0.01676864  0.66524348  1
  O  O82  1  0.88098220  0.51676864  0.33475652  1
  O  O83  1  0.38098220  0.48323136  0.16524348  1
  O  O84  1  0.88098220  0.01676864  0.16524348  1
  O  O85  1  0.38098220  0.98323136  0.33475652  1
  O  O86  1  0.11901780  0.48323136  0.66524348  1
  O  O87  1  0.61901780  0.51676864  0.83475652  1
  O  O88  1  0.76620866  0.12030666  0.58628096  1
  O  O89  1  0.26620866  0.87969334  0.91371904  1
  O  O90  1  0.23379134  0.37969334  0.08628096  1
  O  O91  1  0.73379134  0.62030666  0.41371904  1
  O  O92  1  0.23379134  0.87969334  0.41371904  1
  O  O93  1  0.73379134  0.12030666  0.08628096  1
  O  O94  1  0.76620866  0.62030666  0.91371904  1
  O  O95  1  0.26620866  0.37969334  0.58628096  1
  O  O96  1  0.85084854  0.86901962  0.27830738  1
  O  O97  1  0.35084854  0.13098038  0.22169262  1
  O  O98  1  0.14915146  0.63098038  0.77830738  1
  O  O99  1  0.64915146  0.36901962  0.72169262  1
  O  O100  1  0.14915146  0.13098038  0.72169262  1
  O  O101  1  0.64915146  0.86901962  0.77830738  1
  O  O102  1  0.85084854  0.36901962  0.22169262  1
  O  O103  1  0.35084854  0.63098038  0.27830738  1
  O  O104  1  0.13789434  0.25814474  0.38572461  1
  O  O105  1  0.63789434  0.74185526  0.11427539  1
  O  O106  1  0.86210566  0.24185526  0.88572461  1
  O  O107  1  0.36210566  0.75814474  0.61427539  1
  O  O108  1  0.86210566  0.74185526  0.61427539  1
  O  O109  1  0.36210566  0.25814474  0.88572461  1
  O  O110  1  0.13789434  0.75814474  0.11427539  1
  O  O111  1  0.63789434  0.24185526  0.38572461  1
  O  O112  1  0.51287763  0.14890512  0.11106150  1
  O  O113  1  0.01287763  0.85109488  0.38893850  1
  O  O114  1  0.48712237  0.35109488  0.61106150  1
  O  O115  1  0.98712237  0.64890512  0.88893850  1
  O  O116  1  0.48712237  0.85109488  0.88893850  1
  O  O117  1  0.98712237  0.14890512  0.61106150  1
  O  O118  1  0.51287763  0.64890512  0.38893850  1
  O  O119  1  0.01287763  0.35109488  0.11106150  1
  O  O120  1  0.83388442  0.35004665  0.03973039  1
  O  O121  1  0.33388442  0.64995335  0.46026961  1
  O  O122  1  0.16611558  0.14995335  0.53973039  1
  O  O123  1  0.66611558  0.85004665  0.96026961  1
  O  O124  1  0.16611558  0.64995335  0.96026961  1
  O  O125  1  0.66611558  0.35004665  0.53973039  1
  O  O126  1  0.83388442  0.85004665  0.46026961  1
  O  O127  1  0.33388442  0.14995335  0.03973039  1
  O  O128  1  0.60179300  0.42554011  0.36868183  1
  O  O129  1  0.10179300  0.57445989  0.13131817  1
  O  O130  1  0.39820700  0.07445989  0.86868183  1
  O  O131  1  0.89820700  0.92554011  0.63131817  1
  O  O132  1  0.39820700  0.57445989  0.63131817  1
  O  O133  1  0.89820700  0.42554011  0.86868183  1
  O  O134  1  0.60179300  0.92554011  0.13131817  1
  O  O135  1  0.10179300  0.07445989  0.36868183  1
  O  O136  1  0.28479770  0.63760660  0.09970636  1
  O  O137  1  0.78479770  0.36239340  0.40029364  1
  O  O138  1  0.71520230  0.86239340  0.59970636  1
  O  O139  1  0.21520230  0.13760660  0.90029364  1
  O  O140  1  0.71520230  0.36239340  0.90029364  1
  O  O141  1  0.21520230  0.63760660  0.59970636  1
  O  O142  1  0.28479770  0.13760660  0.40029364  1
  O  O143  1  0.78479770  0.86239340  0.09970636  1
  O  O144  1  0.36341885  0.43114759  0.80900526  1
  O  O145  1  0.86341885  0.56885241  0.69099474  1
  O  O146  1  0.63658115  0.06885241  0.30900526  1
  O  O147  1  0.13658115  0.93114759  0.19099474  1
  O  O148  1  0.63658115  0.56885241  0.19099474  1
  O  O149  1  0.13658115  0.43114759  0.30900526  1
  O  O150  1  0.36341885  0.93114759  0.69099474  1
  O  O151  1  0.86341885  0.06885241  0.80900526  1
  O  O152  1  0.60145133  0.70169675  0.85168445  1
  O  O153  1  0.10145133  0.29830325  0.64831555  1
  O  O154  1  0.39854867  0.79830325  0.35168445  1
  O  O155  1  0.89854867  0.20169675  0.14831555  1
  O  O156  1  0.39854867  0.29830325  0.14831555  1
  O  O157  1  0.89854867  0.70169675  0.35168445  1
  O  O158  1  0.60145133  0.20169675  0.64831555  1
  O  O159  1  0.10145133  0.79830325  0.85168445  1
