# generated using pymatgen
data_CaB3HO6
_symmetry_space_group_name_H-M   'P 1'
_cell_length_a   4.43741400
_cell_length_b   7.05502600
_cell_length_c   13.61367800
_cell_angle_alpha   90.00000000
_cell_angle_beta   90.00000000
_cell_angle_gamma   90.00000000
_symmetry_Int_Tables_number   1
_chemical_formula_structural   CaB3HO6
_chemical_formula_sum   'Ca4 B12 H4 O24'
_cell_volume   426.19077198
_cell_formula_units_Z   4
loop_
 _symmetry_equiv_pos_site_id
 _symmetry_equiv_pos_as_xyz
  1  'x, y, z'
loop_
 _atom_site_type_symbol
 _atom_site_label
 _atom_site_symmetry_multiplicity
 _atom_site_fract_x
 _atom_site_fract_y
 _atom_site_fract_z
 _atom_site_occupancy
  Ca  Ca0  1  0.89842400  0.29734000  0.90592700  1
  Ca  Ca1  1  0.39842400  0.70266000  0.09407300  1
  Ca  Ca2  1  0.39842400  0.79734000  0.59407300  1
  Ca  Ca3  1  0.89842400  0.20266000  0.40592700  1
  B  B4  1  0.43081700  0.21660400  0.07238100  1
  B  B5  1  0.93081700  0.78339600  0.92761900  1
  B  B6  1  0.93081700  0.71660400  0.42761900  1
  B  B7  1  0.43081700  0.28339600  0.57238100  1
  B  B8  1  0.23647800  0.40511400  0.73014800  1
  B  B9  1  0.73647800  0.59488600  0.26985200  1
  B  B10  1  0.73647800  0.90511400  0.76985200  1
  B  B11  1  0.23647800  0.09488600  0.23014800  1
  B  B12  1  0.95036900  0.34475800  0.14547800  1
  B  B13  1  0.45036900  0.65524200  0.85452200  1
  B  B14  1  0.45036900  0.84475800  0.35452200  1
  B  B15  1  0.95036900  0.15524200  0.64547800  1
  H  H16  1  0.37631700  0.02523600  0.95364500  1
  H  H17  1  0.87631700  0.97476400  0.04635500  1
  H  H18  1  0.87631700  0.52523600  0.54635500  1
  H  H19  1  0.37631700  0.47476400  0.45364500  1
  O  O20  1  0.74401500  0.61859100  0.90219700  1
  O  O21  1  0.24401500  0.38140900  0.09780300  1
  O  O22  1  0.24401500  0.11859100  0.59780300  1
  O  O23  1  0.74401500  0.88140900  0.40219700  1
  O  O24  1  0.75347600  0.25820000  0.07103300  1
  O  O25  1  0.25347600  0.74180000  0.92896700  1
  O  O26  1  0.25347600  0.75820000  0.42896700  1
  O  O27  1  0.75347600  0.24180000  0.57103300  1
  O  O28  1  0.87373600  0.94794000  0.85795200  1
  O  O29  1  0.37373600  0.05206000  0.14204800  1
  O  O30  1  0.37373600  0.44794000  0.64204800  1
  O  O31  1  0.87373600  0.55206000  0.35795200  1
  O  O32  1  0.31763400  0.47424600  0.82100700  1
  O  O33  1  0.81763400  0.52575400  0.17899300  1
  O  O34  1  0.81763400  0.97424600  0.67899300  1
  O  O35  1  0.31763400  0.02575400  0.32100700  1
  O  O36  1  0.35500400  0.16050400  0.96828800  1
  O  O37  1  0.85500400  0.83949600  0.03171200  1
  O  O38  1  0.85500400  0.66050400  0.53171200  1
  O  O39  1  0.35500400  0.33949600  0.46828800  1
  O  O40  1  0.99953000  0.27816400  0.73326800  1
  O  O41  1  0.49953000  0.72183600  0.26673200  1
  O  O42  1  0.49953000  0.77816400  0.76673200  1
  O  O43  1  0.99953000  0.22183600  0.23326800  1
