# generated using pymatgen
data_Ca(PIr)2
_symmetry_space_group_name_H-M   'P 1'
_cell_length_a   6.66995434
_cell_length_b   6.66995434
_cell_length_c   7.10429200
_cell_angle_alpha   90.00000000
_cell_angle_beta   90.00000000
_cell_angle_gamma   120.00000338
_symmetry_Int_Tables_number   1
_chemical_formula_structural   Ca(PIr)2
_chemical_formula_sum   'Ca3 P6 Ir6'
_cell_volume   273.71408252
_cell_formula_units_Z   3
loop_
 _symmetry_equiv_pos_site_id
 _symmetry_equiv_pos_as_xyz
  1  'x, y, z'
loop_
 _atom_site_type_symbol
 _atom_site_label
 _atom_site_symmetry_multiplicity
 _atom_site_fract_x
 _atom_site_fract_y
 _atom_site_fract_z
 _atom_site_occupancy
  Ca  Ca0  1  0.39413300  0.39413300  0.50000000  1
  Ca  Ca1  1  0.60586700  0.00000000  0.16666700  1
  Ca  Ca2  1  0.00000000  0.60586700  0.83333300  1
  P  P3  1  0.88371500  0.22325500  0.54322700  1
  P  P4  1  0.22325500  0.88371500  0.45677300  1
  P  P5  1  0.11628500  0.33954000  0.12344000  1
  P  P6  1  0.77674500  0.66046000  0.20989300  1
  P  P7  1  0.33954000  0.11628500  0.87656000  1
  P  P8  1  0.66046000  0.77674500  0.79010700  1
  Ir  Ir9  1  0.86368600  0.86368600  0.50000000  1
  Ir  Ir10  1  0.13631400  0.00000000  0.16666700  1
  Ir  Ir11  1  0.48596300  0.48596300  0.00000000  1
  Ir  Ir12  1  0.00000000  0.51403700  0.33333300  1
  Ir  Ir13  1  0.51403700  0.00000000  0.66666700  1
  Ir  Ir14  1  0.00000000  0.13631400  0.83333300  1
