# generated using pymatgen
data_RbAg3Se2
_symmetry_space_group_name_H-M   'P 1'
_cell_length_a   8.71032848
_cell_length_b   8.71032848
_cell_length_c   9.10507470
_cell_angle_alpha   67.00661665
_cell_angle_beta   67.00661665
_cell_angle_gamma   29.66576266
_symmetry_Int_Tables_number   1
_chemical_formula_structural   RbAg3Se2
_chemical_formula_sum   'Rb2 Ag6 Se4'
_cell_volume   312.74647711
_cell_formula_units_Z   2
loop_
 _symmetry_equiv_pos_site_id
 _symmetry_equiv_pos_as_xyz
  1  'x, y, z'
loop_
 _atom_site_type_symbol
 _atom_site_label
 _atom_site_symmetry_multiplicity
 _atom_site_fract_x
 _atom_site_fract_y
 _atom_site_fract_z
 _atom_site_occupancy
  Rb  Rb0  1  0.86388700  0.86388700  0.04911800  1
  Rb  Rb1  1  0.13611300  0.13611300  0.95088200  1
  Ag  Ag2  1  0.31215900  0.31215900  0.43535200  1
  Ag  Ag3  1  0.94245200  0.94245200  0.40238900  1
  Ag  Ag4  1  0.68784100  0.68784100  0.56464800  1
  Ag  Ag5  1  0.40846000  0.40846000  0.64268700  1
  Ag  Ag6  1  0.59154000  0.59154000  0.35731300  1
  Ag  Ag7  1  0.05754800  0.05754800  0.59761100  1
  Se  Se8  1  0.48132200  0.48132200  0.21863700  1
  Se  Se9  1  0.19788200  0.19788200  0.30420700  1
  Se  Se10  1  0.80211800  0.80211800  0.69579300  1
  Se  Se11  1  0.51867800  0.51867800  0.78136300  1
