# generated using pymatgen
data_Al7Cu2Ru
_symmetry_space_group_name_H-M   'P 1'
_cell_length_a   6.44701500
_cell_length_b   6.44701500
_cell_length_c   14.83117400
_cell_angle_alpha   90.00000000
_cell_angle_beta   90.00000000
_cell_angle_gamma   90.00000000
_symmetry_Int_Tables_number   1
_chemical_formula_structural   Al7Cu2Ru
_chemical_formula_sum   'Al28 Cu8 Ru4'
_cell_volume   616.44295188
_cell_formula_units_Z   4
loop_
 _symmetry_equiv_pos_site_id
 _symmetry_equiv_pos_as_xyz
  1  'x, y, z'
loop_
 _atom_site_type_symbol
 _atom_site_label
 _atom_site_symmetry_multiplicity
 _atom_site_fract_x
 _atom_site_fract_y
 _atom_site_fract_z
 _atom_site_occupancy
  Al  Al0  1  0.16025000  0.66025000  0.25000000  1
  Al  Al1  1  0.83975000  0.33975000  0.75000000  1
  Al  Al2  1  0.83975000  0.33975000  0.25000000  1
  Al  Al3  1  0.33975000  0.16025000  0.25000000  1
  Al  Al4  1  0.16025000  0.66025000  0.75000000  1
  Al  Al5  1  0.66025000  0.83975000  0.75000000  1
  Al  Al6  1  0.66025000  0.83975000  0.25000000  1
  Al  Al7  1  0.33975000  0.16025000  0.75000000  1
  Al  Al8  1  0.00000000  0.00000000  0.12914500  1
  Al  Al9  1  0.00000000  0.00000000  0.87085500  1
  Al  Al10  1  0.50000000  0.50000000  0.37085500  1
  Al  Al11  1  0.50000000  0.50000000  0.62914500  1
  Al  Al12  1  0.20013800  0.41534400  0.09803400  1
  Al  Al13  1  0.79986200  0.58465600  0.90196600  1
  Al  Al14  1  0.79986200  0.58465600  0.09803400  1
  Al  Al15  1  0.58465600  0.20013800  0.09803400  1
  Al  Al16  1  0.29986200  0.91534400  0.40196600  1
  Al  Al17  1  0.20013800  0.41534400  0.90196600  1
  Al  Al18  1  0.41534400  0.79986200  0.90196600  1
  Al  Al19  1  0.70013800  0.08465600  0.59803400  1
  Al  Al20  1  0.41534400  0.79986200  0.09803400  1
  Al  Al21  1  0.70013800  0.08465600  0.40196600  1
  Al  Al22  1  0.58465600  0.20013800  0.90196600  1
  Al  Al23  1  0.29986200  0.91534400  0.59803400  1
  Al  Al24  1  0.91534400  0.70013800  0.40196600  1
  Al  Al25  1  0.08465600  0.29986200  0.59803400  1
  Al  Al26  1  0.08465600  0.29986200  0.40196600  1
  Al  Al27  1  0.91534400  0.70013800  0.59803400  1
  Cu  Cu28  1  0.26819800  0.08597200  0.00000000  1
  Cu  Cu29  1  0.73180200  0.91402800  0.00000000  1
  Cu  Cu30  1  0.91402800  0.26819800  0.00000000  1
  Cu  Cu31  1  0.23180200  0.58597200  0.50000000  1
  Cu  Cu32  1  0.08597200  0.73180200  0.00000000  1
  Cu  Cu33  1  0.76819800  0.41402800  0.50000000  1
  Cu  Cu34  1  0.58597200  0.76819800  0.50000000  1
  Cu  Cu35  1  0.41402800  0.23180200  0.50000000  1
  Ru  Ru36  1  0.00000000  0.00000000  0.30037900  1
  Ru  Ru37  1  0.00000000  0.00000000  0.69962100  1
  Ru  Ru38  1  0.50000000  0.50000000  0.19962100  1
  Ru  Ru39  1  0.50000000  0.50000000  0.80037900  1
