# generated using pymatgen
data_Yb2ZnSb2
_symmetry_space_group_name_H-M   'P 1'
_cell_length_a   4.59929800
_cell_length_b   12.43176800
_cell_length_c   21.81509999
_cell_angle_alpha   89.72189175
_cell_angle_beta   90.00000000
_cell_angle_gamma   90.00000000
_symmetry_Int_Tables_number   1
_chemical_formula_structural   Yb2ZnSb2
_chemical_formula_sum   'Yb18 Zn9 Sb18'
_cell_volume   1247.31612847
_cell_formula_units_Z   9
loop_
 _symmetry_equiv_pos_site_id
 _symmetry_equiv_pos_as_xyz
  1  'x, y, z'
loop_
 _atom_site_type_symbol
 _atom_site_label
 _atom_site_symmetry_multiplicity
 _atom_site_fract_x
 _atom_site_fract_y
 _atom_site_fract_z
 _atom_site_occupancy
  Yb  Yb0  1  0.00000000  0.06854400  0.58829600  1
  Yb  Yb1  1  0.00000000  0.93251700  0.40994900  1
  Yb  Yb2  1  0.00000000  0.43760200  0.09197200  1
  Yb  Yb3  1  0.00000000  0.56776600  0.91039900  1
  Yb  Yb4  1  0.00000000  0.12617200  0.75450600  1
  Yb  Yb5  1  0.00000000  0.87705400  0.23636900  1
  Yb  Yb6  1  0.00000000  0.37784100  0.26368600  1
  Yb  Yb7  1  0.00000000  0.62111900  0.73531300  1
  Yb  Yb8  1  0.50000000  0.30186800  0.89938100  1
  Yb  Yb9  1  0.50000000  0.71200300  0.10247100  1
  Yb  Yb10  1  0.50000000  0.21110800  0.39869400  1
  Yb  Yb11  1  0.50000000  0.78857400  0.59976000  1
  Yb  Yb12  1  0.50000000  0.49946500  0.49980900  1
  Yb  Yb13  1  0.50000000  0.99481800  0.00408900  1
  Yb  Yb14  1  0.00000000  0.36814300  0.63703300  1
  Yb  Yb15  1  0.00000000  0.63328500  0.36138800  1
  Yb  Yb16  1  0.00000000  0.13083900  0.14373600  1
  Yb  Yb17  1  0.00000000  0.85476500  0.85980700  1
  Zn  Zn18  1  0.50000000  0.38256700  0.73787600  1
  Zn  Zn19  1  0.50000000  0.61663900  0.26242500  1
  Zn  Zn20  1  0.50000000  0.11475300  0.23850100  1
  Zn  Zn21  1  0.50000000  0.87477300  0.75961200  1
  Zn  Zn22  1  0.50000000  0.22439300  0.54558400  1
  Zn  Zn23  1  0.50000000  0.77540400  0.45319300  1
  Zn  Zn24  1  0.50000000  0.28204900  0.04632900  1
  Zn  Zn25  1  0.50000000  0.72544000  0.95346800  1
  Zn  Zn26  1  0.00000000  0.10926600  0.89550100  1
  Sb  Sb27  1  0.00000000  0.37517100  0.80806900  1
  Sb  Sb28  1  0.00000000  0.62060300  0.19393600  1
  Sb  Sb29  1  0.00000000  0.12007200  0.30551700  1
  Sb  Sb30  1  0.00000000  0.88390400  0.69546500  1
  Sb  Sb31  1  0.50000000  0.04176300  0.85144400  1
  Sb  Sb32  1  0.50000000  0.95753500  0.14700400  1
  Sb  Sb33  1  0.50000000  0.45797200  0.35266600  1
  Sb  Sb34  1  0.50000000  0.54140500  0.64822500  1
  Sb  Sb35  1  0.50000000  0.19159400  0.66745000  1
  Sb  Sb36  1  0.50000000  0.80992800  0.33117600  1
  Sb  Sb37  1  0.50000000  0.30890000  0.16737900  1
  Sb  Sb38  1  0.50000000  0.68787000  0.83101300  1
  Sb  Sb39  1  0.00000000  0.19559200  0.00231500  1
  Sb  Sb40  1  0.00000000  0.80744500  0.00441100  1
  Sb  Sb41  1  0.00000000  0.30723700  0.49435100  1
  Sb  Sb42  1  0.00000000  0.69257300  0.50601000  1
  Sb  Sb43  1  0.50000000  0.99939100  0.50057700  1
  Sb  Sb44  1  0.50000000  0.50007400  0.99954500  1
