# generated using pymatgen
data_Sr3GaAs3
_symmetry_space_group_name_H-M   'P 1'
_cell_length_a   6.56193200
_cell_length_b   12.92205700
_cell_length_c   19.46619600
_cell_angle_alpha   90.00000000
_cell_angle_beta   90.00000000
_cell_angle_gamma   90.00000000
_symmetry_Int_Tables_number   1
_chemical_formula_structural   Sr3GaAs3
_chemical_formula_sum   'Sr24 Ga8 As24'
_cell_volume   1650.60999216
_cell_formula_units_Z   8
loop_
 _symmetry_equiv_pos_site_id
 _symmetry_equiv_pos_as_xyz
  1  'x, y, z'
loop_
 _atom_site_type_symbol
 _atom_site_label
 _atom_site_symmetry_multiplicity
 _atom_site_fract_x
 _atom_site_fract_y
 _atom_site_fract_z
 _atom_site_occupancy
  Sr  Sr0  1  0.22242500  0.51282800  0.57403200  1
  Sr  Sr1  1  0.27757500  0.01282800  0.92596800  1
  Sr  Sr2  1  0.77757500  0.48717200  0.07403200  1
  Sr  Sr3  1  0.72242500  0.98717200  0.42596800  1
  Sr  Sr4  1  0.77757500  0.48717200  0.42596800  1
  Sr  Sr5  1  0.72242500  0.98717200  0.07403200  1
  Sr  Sr6  1  0.22242500  0.51282800  0.92596800  1
  Sr  Sr7  1  0.27757500  0.01282800  0.57403200  1
  Sr  Sr8  1  0.19146000  0.76481100  0.07319600  1
  Sr  Sr9  1  0.30854000  0.26481100  0.42680400  1
  Sr  Sr10  1  0.80854000  0.23518900  0.57319600  1
  Sr  Sr11  1  0.69146000  0.73518900  0.92680400  1
  Sr  Sr12  1  0.80854000  0.23518900  0.92680400  1
  Sr  Sr13  1  0.69146000  0.73518900  0.57319600  1
  Sr  Sr14  1  0.19146000  0.76481100  0.42680400  1
  Sr  Sr15  1  0.30854000  0.26481100  0.07319600  1
  Sr  Sr16  1  0.81283500  0.76816700  0.25000000  1
  Sr  Sr17  1  0.68716500  0.26816700  0.25000000  1
  Sr  Sr18  1  0.18716500  0.23183300  0.75000000  1
  Sr  Sr19  1  0.31283500  0.73183300  0.75000000  1
  Sr  Sr20  1  0.33077300  0.98044600  0.25000000  1
  Sr  Sr21  1  0.16922700  0.48044600  0.25000000  1
  Sr  Sr22  1  0.66922700  0.01955400  0.75000000  1
  Sr  Sr23  1  0.83077300  0.51955400  0.75000000  1
  Ga  Ga24  1  0.48627900  0.62636500  0.16334500  1
  Ga  Ga25  1  0.01372100  0.12636500  0.33665500  1
  Ga  Ga26  1  0.51372100  0.37363500  0.66334500  1
  Ga  Ga27  1  0.98627900  0.87363500  0.83665500  1
  Ga  Ga28  1  0.51372100  0.37363500  0.83665500  1
  Ga  Ga29  1  0.98627900  0.87363500  0.66334500  1
  Ga  Ga30  1  0.48627900  0.62636500  0.33665500  1
  Ga  Ga31  1  0.01372100  0.12636500  0.16334500  1
  As  As32  1  0.28927000  0.73518300  0.25000000  1
  As  As33  1  0.21073000  0.23518300  0.25000000  1
  As  As34  1  0.71073000  0.26481700  0.75000000  1
  As  As35  1  0.78927000  0.76481700  0.75000000  1
  As  As36  1  0.68751000  0.51638900  0.25000000  1
  As  As37  1  0.81249000  0.01638900  0.25000000  1
  As  As38  1  0.31249000  0.48361100  0.75000000  1
  As  As39  1  0.18751000  0.98361100  0.75000000  1
  As  As40  1  0.26618000  0.51081500  0.08972500  1
  As  As41  1  0.23382000  0.01081500  0.41027500  1
  As  As42  1  0.73382000  0.48918500  0.58972500  1
  As  As43  1  0.76618000  0.98918500  0.91027500  1
  As  As44  1  0.73382000  0.48918500  0.91027500  1
  As  As45  1  0.76618000  0.98918500  0.58972500  1
  As  As46  1  0.26618000  0.51081500  0.41027500  1
  As  As47  1  0.23382000  0.01081500  0.08972500  1
  As  As48  1  0.20633300  0.75842900  0.58976200  1
  As  As49  1  0.29366700  0.25842900  0.91023800  1
  As  As50  1  0.79366700  0.24157100  0.08976200  1
  As  As51  1  0.70633300  0.74157100  0.41023800  1
  As  As52  1  0.79366700  0.24157100  0.41023800  1
  As  As53  1  0.70633300  0.74157100  0.08976200  1
  As  As54  1  0.20633300  0.75842900  0.91023800  1
  As  As55  1  0.29366700  0.25842900  0.58976200  1
