# generated using pymatgen
data_Zr5Zn39
_symmetry_space_group_name_H-M   'P 1'
_cell_length_a   8.60263500
_cell_length_b   9.91837279
_cell_length_c   9.92908155
_cell_angle_alpha   78.13050854
_cell_angle_beta   64.32893885
_cell_angle_gamma   64.29920161
_symmetry_Int_Tables_number   1
_chemical_formula_structural   Zr5Zn39
_chemical_formula_sum   'Zr5 Zn39'
_cell_volume   687.86451306
_cell_formula_units_Z   1
loop_
 _symmetry_equiv_pos_site_id
 _symmetry_equiv_pos_as_xyz
  1  'x, y, z'
loop_
 _atom_site_type_symbol
 _atom_site_label
 _atom_site_symmetry_multiplicity
 _atom_site_fract_x
 _atom_site_fract_y
 _atom_site_fract_z
 _atom_site_occupancy
  Zr  Zr0  1  0.57183800  0.64784400  0.20848000  1
  Zr  Zr1  1  0.42816200  0.35215600  0.79152000  1
  Zr  Zr2  1  0.00000000  0.00000000  0.00000000  1
  Zr  Zr3  1  0.77091900  0.80378000  0.65438200  1
  Zr  Zr4  1  0.22908100  0.19622000  0.34561800  1
  Zn  Zn5  1  0.78418100  0.33988500  0.09175200  1
  Zn  Zn6  1  0.21581900  0.66011500  0.90824800  1
  Zn  Zn7  1  0.68715800  0.70735900  0.44261500  1
  Zn  Zn8  1  0.31284200  0.29264100  0.55738500  1
  Zn  Zn9  1  0.83713200  0.29264100  0.55738500  1
  Zn  Zn10  1  0.16286800  0.70735900  0.44261500  1
  Zn  Zn11  1  0.62910700  0.16052000  0.27156900  1
  Zn  Zn12  1  0.37089300  0.83948000  0.72843100  1
  Zn  Zn13  1  0.06119600  0.83948000  0.72843100  1
  Zn  Zn14  1  0.93880400  0.16052000  0.27156900  1
  Zn  Zn15  1  0.21917000  0.43784800  0.12381300  1
  Zn  Zn16  1  0.78083000  0.56215200  0.87618700  1
  Zn  Zn17  1  0.53386600  0.19601400  0.04859100  1
  Zn  Zn18  1  0.46613400  0.80398600  0.95140900  1
  Zn  Zn19  1  0.77847100  0.80398600  0.95140900  1
  Zn  Zn20  1  0.22152900  0.19601400  0.04859100  1
  Zn  Zn21  1  0.00000000  0.50000000  0.50000000  1
  Zn  Zn22  1  0.58733600  0.94525400  0.19904400  1
  Zn  Zn23  1  0.41266400  0.05474600  0.80095600  1
  Zn  Zn24  1  0.73163500  0.05474600  0.80095600  1
  Zn  Zn25  1  0.26836500  0.94525400  0.19904400  1
  Zn  Zn26  1  0.50000000  0.50000000  0.00000000  1
  Zn  Zn27  1  0.00000000  0.50000000  0.00000000  1
  Zn  Zn28  1  0.36121400  0.44775000  0.29678400  1
  Zn  Zn29  1  0.63878600  0.55225000  0.70321600  1
  Zn  Zn30  1  0.10574700  0.55225000  0.70321600  1
  Zn  Zn31  1  0.89425300  0.44775000  0.29678400  1
  Zn  Zn32  1  0.59665100  0.38728800  0.41941100  1
  Zn  Zn33  1  0.40334900  0.61271200  0.58058900  1
  Zn  Zn34  1  0.65444000  0.13126500  0.55985500  1
  Zn  Zn35  1  0.34556000  0.86873500  0.44014500  1
  Zn  Zn36  1  0.50000000  0.00000000  0.50000000  1
  Zn  Zn37  1  0.00000000  0.00000000  0.50000000  1
  Zn  Zn38  1  0.21060100  0.72222000  0.16252900  1
  Zn  Zn39  1  0.78939900  0.27778000  0.83747100  1
  Zn  Zn40  1  0.09534900  0.27778000  0.83747100  1
  Zn  Zn41  1  0.90465100  0.72222000  0.16252900  1
  Zn  Zn42  1  0.87848300  0.90186000  0.34117500  1
  Zn  Zn43  1  0.12151700  0.09814000  0.65882500  1
