# generated using pymatgen
data_Ag2GeSe3
_symmetry_space_group_name_H-M   'P 1'
_cell_length_a   7.31801574
_cell_length_b   7.31801574
_cell_length_c   6.91131900
_cell_angle_alpha   90.00000000
_cell_angle_beta   90.00000000
_cell_angle_gamma   120.26590359
_symmetry_Int_Tables_number   1
_chemical_formula_structural   Ag2GeSe3
_chemical_formula_sum   'Ag4 Ge2 Se6'
_cell_volume   319.67475755
_cell_formula_units_Z   2
loop_
 _symmetry_equiv_pos_site_id
 _symmetry_equiv_pos_as_xyz
  1  'x, y, z'
loop_
 _atom_site_type_symbol
 _atom_site_label
 _atom_site_symmetry_multiplicity
 _atom_site_fract_x
 _atom_site_fract_y
 _atom_site_fract_z
 _atom_site_occupancy
  Ag  Ag0  1  0.98782000  0.30998200  0.99164800  1
  Ag  Ag1  1  0.30998200  0.98782000  0.99164800  1
  Ag  Ag2  1  0.01218000  0.69001800  0.49164800  1
  Ag  Ag3  1  0.69001800  0.01218000  0.49164800  1
  Ge  Ge4  1  0.65263700  0.65263700  0.96197600  1
  Ge  Ge5  1  0.34736300  0.34736300  0.46197600  1
  Se  Se6  1  0.03912200  0.35489500  0.37143200  1
  Se  Se7  1  0.35489500  0.03912200  0.37143200  1
  Se  Se8  1  0.96087800  0.64510500  0.87143200  1
  Se  Se9  1  0.64510500  0.96087800  0.87143200  1
  Se  Se10  1  0.66212700  0.66212700  0.32886500  1
  Se  Se11  1  0.33787300  0.33787300  0.82886500  1
