# generated using pymatgen
data_Sr3MgTa2O9
_symmetry_space_group_name_H-M   'P 1'
_cell_length_a   5.72025959
_cell_length_b   5.72025959
_cell_length_c   7.03265800
_cell_angle_alpha   90.00000000
_cell_angle_beta   90.00000000
_cell_angle_gamma   119.99999523
_symmetry_Int_Tables_number   1
_chemical_formula_structural   Sr3MgTa2O9
_chemical_formula_sum   'Sr3 Mg1 Ta2 O9'
_cell_volume   199.28821902
_cell_formula_units_Z   1
loop_
 _symmetry_equiv_pos_site_id
 _symmetry_equiv_pos_as_xyz
  1  'x, y, z'
loop_
 _atom_site_type_symbol
 _atom_site_label
 _atom_site_symmetry_multiplicity
 _atom_site_fract_x
 _atom_site_fract_y
 _atom_site_fract_z
 _atom_site_occupancy
  Sr  Sr0  1  0.00000000  0.00000000  0.00000000  1
  Sr  Sr1  1  0.66666700  0.33333300  0.32628400  1
  Sr  Sr2  1  0.33333300  0.66666700  0.67371600  1
  Mg  Mg3  1  0.00000000  0.00000000  0.50000000  1
  Ta  Ta4  1  0.66666700  0.33333300  0.81893800  1
  Ta  Ta5  1  0.33333300  0.66666700  0.18106200  1
  O  O6  1  0.50000000  0.00000000  0.00000000  1
  O  O7  1  0.50000000  0.50000000  0.00000000  1
  O  O8  1  0.00000000  0.50000000  0.00000000  1
  O  O9  1  0.83149600  0.66299100  0.67294600  1
  O  O10  1  0.83149600  0.16850400  0.67294600  1
  O  O11  1  0.33700900  0.16850400  0.67294600  1
  O  O12  1  0.16850400  0.33700900  0.32705400  1
  O  O13  1  0.16850400  0.83149600  0.32705400  1
  O  O14  1  0.66299100  0.83149600  0.32705400  1
