# generated using pymatgen
data_NaNiH4SO6F
_symmetry_space_group_name_H-M   'P 1'
_cell_length_a   5.75888244
_cell_length_b   7.31461048
_cell_length_c   7.30324600
_cell_angle_alpha   90.00000000
_cell_angle_beta   90.00000000
_cell_angle_gamma   113.65916553
_symmetry_Int_Tables_number   1
_chemical_formula_structural   NaNiH4SO6F
_chemical_formula_sum   'Na2 Ni2 H8 S2 O12 F2'
_cell_volume   281.78414791
_cell_formula_units_Z   2
loop_
 _symmetry_equiv_pos_site_id
 _symmetry_equiv_pos_as_xyz
  1  'x, y, z'
loop_
 _atom_site_type_symbol
 _atom_site_label
 _atom_site_symmetry_multiplicity
 _atom_site_fract_x
 _atom_site_fract_y
 _atom_site_fract_z
 _atom_site_occupancy
  Na  Na0  1  0.43026900  0.29866000  0.25000000  1
  Na  Na1  1  0.56973100  0.70134000  0.75000000  1
  Ni  Ni2  1  0.00000000  0.50000000  0.50000000  1
  Ni  Ni3  1  0.00000000  0.50000000  0.00000000  1
  H  H4  1  0.07677200  0.86674900  0.91065800  1
  H  H5  1  0.92322800  0.13325100  0.41065800  1
  H  H6  1  0.92322800  0.13325100  0.08934200  1
  H  H7  1  0.07677200  0.86674900  0.58934200  1
  H  H8  1  0.87532100  0.79878400  0.42881500  1
  H  H9  1  0.12467900  0.20121600  0.92881500  1
  H  H10  1  0.12467900  0.20121600  0.57118500  1
  H  H11  1  0.87532100  0.79878400  0.07118500  1
  S  S12  1  0.45067400  0.80553700  0.25000000  1
  S  S13  1  0.54932600  0.19446300  0.75000000  1
  O  O14  1  0.37422100  0.67519700  0.41707700  1
  O  O15  1  0.62577900  0.32480300  0.91707700  1
  O  O16  1  0.62577900  0.32480300  0.58292300  1
  O  O17  1  0.37422100  0.67519700  0.08292300  1
  O  O18  1  0.73899200  0.90467200  0.25000000  1
  O  O19  1  0.26100800  0.09532800  0.75000000  1
  O  O20  1  0.34278400  0.95547300  0.25000000  1
  O  O21  1  0.65721600  0.04452700  0.75000000  1
  O  O22  1  0.92602300  0.75337900  0.95577600  1
  O  O23  1  0.07397700  0.24662100  0.45577600  1
  O  O24  1  0.07397700  0.24662100  0.04422400  1
  O  O25  1  0.92602300  0.75337900  0.54422400  1
  F  F26  1  0.84996100  0.47590000  0.25000000  1
  F  F27  1  0.15003900  0.52410000  0.75000000  1
