# generated using pymatgen
data_Ba3B(BrO)3
_symmetry_space_group_name_H-M   'P 1'
_cell_length_a   9.40141900
_cell_length_b   9.44633626
_cell_length_c   13.19099545
_cell_angle_alpha   92.56574621
_cell_angle_beta   98.29663329
_cell_angle_gamma   116.17918302
_symmetry_Int_Tables_number   1
_chemical_formula_structural   Ba3B(BrO)3
_chemical_formula_sum   'Ba12 B4 Br12 O12'
_cell_volume   1032.52055162
_cell_formula_units_Z   4
loop_
 _symmetry_equiv_pos_site_id
 _symmetry_equiv_pos_as_xyz
  1  'x, y, z'
loop_
 _atom_site_type_symbol
 _atom_site_label
 _atom_site_symmetry_multiplicity
 _atom_site_fract_x
 _atom_site_fract_y
 _atom_site_fract_z
 _atom_site_occupancy
  Ba  Ba0  1  0.63997300  0.00387500  0.89394000  1
  Ba  Ba1  1  0.36002700  0.99612500  0.10606000  1
  Ba  Ba2  1  0.75543500  0.57588800  0.97908800  1
  Ba  Ba3  1  0.24456500  0.42411200  0.02091200  1
  Ba  Ba4  1  0.38212300  0.52728400  0.75101100  1
  Ba  Ba5  1  0.61787700  0.47271600  0.24898900  1
  Ba  Ba6  1  0.72530400  0.95140100  0.57611200  1
  Ba  Ba7  1  0.27469600  0.04859900  0.42388800  1
  Ba  Ba8  1  0.83863800  0.51186700  0.64290300  1
  Ba  Ba9  1  0.16136200  0.48813300  0.35709700  1
  Ba  Ba10  1  0.17296300  0.01008200  0.76632200  1
  Ba  Ba11  1  0.82703700  0.98991800  0.23367800  1
  B  B12  1  0.73742400  0.74066000  0.74105300  1
  B  B13  1  0.26257600  0.25934000  0.25894700  1
  B  B14  1  0.42266700  0.24221700  0.94751100  1
  B  B15  1  0.57733300  0.75778300  0.05248900  1
  Br  Br16  1  0.00000000  0.00000000  0.00000000  1
  Br  Br17  1  0.50000000  0.50000000  0.50000000  1
  Br  Br18  1  0.94678100  0.26424600  0.79116700  1
  Br  Br19  1  0.05321900  0.73575400  0.20883300  1
  Br  Br20  1  0.52198400  0.14898800  0.65690500  1
  Br  Br21  1  0.47801600  0.85101200  0.34309500  1
  Br  Br22  1  0.86299000  0.31175000  0.10676900  1
  Br  Br23  1  0.13701000  0.68825000  0.89323100  1
  Br  Br24  1  0.11604000  0.20909500  0.57358000  1
  Br  Br25  1  0.88396000  0.79090500  0.42642000  1
  Br  Br26  1  0.21239700  0.71261600  0.58866700  1
  Br  Br27  1  0.78760300  0.28738400  0.41133300  1
  O  O28  1  0.69792800  0.59528300  0.78024600  1
  O  O29  1  0.30207200  0.40471700  0.21975400  1
  O  O30  1  0.87018200  0.80562500  0.69247600  1
  O  O31  1  0.12981800  0.19437500  0.30752400  1
  O  O32  1  0.42148900  0.09698100  0.92253500  1
  O  O33  1  0.57851100  0.90301900  0.07746500  1
  O  O34  1  0.34997000  0.30350000  0.87352100  1
  O  O35  1  0.65003000  0.69650000  0.12647900  1
  O  O36  1  0.51576000  0.67845000  0.95238100  1
  O  O37  1  0.48424000  0.32155000  0.04761900  1
  O  O38  1  0.63425300  0.81107200  0.73962200  1
  O  O39  1  0.36574700  0.18892800  0.26037800  1
