# generated using pymatgen
data_Rb2CdI4
_symmetry_space_group_name_H-M   'P 1'
_cell_length_a   8.42428218
_cell_length_b   8.58474600
_cell_length_c   10.30557359
_cell_angle_alpha   90.00000000
_cell_angle_beta   108.15888377
_cell_angle_gamma   90.00000000
_symmetry_Int_Tables_number   1
_chemical_formula_structural   Rb2CdI4
_chemical_formula_sum   'Rb4 Cd2 I8'
_cell_volume   708.18332460
_cell_formula_units_Z   2
loop_
 _symmetry_equiv_pos_site_id
 _symmetry_equiv_pos_as_xyz
  1  'x, y, z'
loop_
 _atom_site_type_symbol
 _atom_site_label
 _atom_site_symmetry_multiplicity
 _atom_site_fract_x
 _atom_site_fract_y
 _atom_site_fract_z
 _atom_site_occupancy
  Rb  Rb0  1  0.21801600  0.25000000  0.55142400  1
  Rb  Rb1  1  0.78198400  0.75000000  0.44857600  1
  Rb  Rb2  1  0.26113800  0.25000000  0.06703100  1
  Rb  Rb3  1  0.73886200  0.75000000  0.93296900  1
  Cd  Cd4  1  0.77453600  0.25000000  0.70053300  1
  Cd  Cd5  1  0.22546400  0.75000000  0.29946700  1
  I  I6  1  0.59149100  0.25000000  0.41992500  1
  I  I7  1  0.40850900  0.75000000  0.58007500  1
  I  I8  1  0.99965300  0.00531300  0.23837700  1
  I  I9  1  0.00034700  0.99468700  0.76162300  1
  I  I10  1  0.00034700  0.50531300  0.76162300  1
  I  I11  1  0.99965300  0.49468700  0.23837700  1
  I  I12  1  0.57216200  0.25000000  0.87334200  1
  I  I13  1  0.42783800  0.75000000  0.12665800  1
