# generated using pymatgen
data_ThSiRh
_symmetry_space_group_name_H-M   'P 1'
_cell_length_a   7.80458876
_cell_length_b   7.80458876
_cell_length_c   7.80458876
_cell_angle_alpha   149.08576827
_cell_angle_beta   149.08576827
_cell_angle_gamma   44.28507492
_symmetry_Int_Tables_number   1
_chemical_formula_structural   ThSiRh
_chemical_formula_sum   'Th2 Si2 Rh2'
_cell_volume   125.10879762
_cell_formula_units_Z   2
loop_
 _symmetry_equiv_pos_site_id
 _symmetry_equiv_pos_as_xyz
  1  'x, y, z'
loop_
 _atom_site_type_symbol
 _atom_site_label
 _atom_site_symmetry_multiplicity
 _atom_site_fract_x
 _atom_site_fract_y
 _atom_site_fract_z
 _atom_site_occupancy
  Th  Th0  1  0.57919400  0.57919400  0.00000000  1
  Th  Th1  1  0.32919400  0.82919400  0.50000000  1
  Si  Si2  1  0.00009300  0.00009300  0.00000000  1
  Si  Si3  1  0.75009300  0.25009300  0.50000000  1
  Rh  Rh4  1  0.16771300  0.16771300  0.00000000  1
  Rh  Rh5  1  0.91771300  0.41771300  0.50000000  1
