# generated using pymatgen
data_GdAl3Ni2
_symmetry_space_group_name_H-M   'P 1'
_cell_length_a   9.10288195
_cell_length_b   9.10288195
_cell_length_c   4.07602900
_cell_angle_alpha   90.00000000
_cell_angle_beta   90.00000000
_cell_angle_gamma   119.99999962
_symmetry_Int_Tables_number   1
_chemical_formula_structural   GdAl3Ni2
_chemical_formula_sum   'Gd3 Al9 Ni6'
_cell_volume   292.49989852
_cell_formula_units_Z   3
loop_
 _symmetry_equiv_pos_site_id
 _symmetry_equiv_pos_as_xyz
  1  'x, y, z'
loop_
 _atom_site_type_symbol
 _atom_site_label
 _atom_site_symmetry_multiplicity
 _atom_site_fract_x
 _atom_site_fract_y
 _atom_site_fract_z
 _atom_site_occupancy
  Gd  Gd0  1  0.33333300  0.66666700  0.50000000  1
  Gd  Gd1  1  0.66666700  0.33333300  0.50000000  1
  Gd  Gd2  1  0.00000000  0.00000000  0.00000000  1
  Al  Al3  1  0.50000000  0.00000000  0.00000000  1
  Al  Al4  1  0.00000000  0.50000000  0.00000000  1
  Al  Al5  1  0.50000000  0.50000000  0.00000000  1
  Al  Al6  1  0.30094400  0.00000000  0.50000000  1
  Al  Al7  1  0.69905600  0.00000000  0.50000000  1
  Al  Al8  1  0.00000000  0.30094400  0.50000000  1
  Al  Al9  1  0.00000000  0.69905600  0.50000000  1
  Al  Al10  1  0.69905600  0.69905600  0.50000000  1
  Al  Al11  1  0.30094400  0.30094400  0.50000000  1
  Ni  Ni12  1  0.18032900  0.36065700  0.00000000  1
  Ni  Ni13  1  0.81967100  0.63934300  0.00000000  1
  Ni  Ni14  1  0.63934300  0.81967100  0.00000000  1
  Ni  Ni15  1  0.36065700  0.18032900  0.00000000  1
  Ni  Ni16  1  0.18032900  0.81967100  0.00000000  1
  Ni  Ni17  1  0.81967100  0.18032900  0.00000000  1
