# generated using pymatgen
data_Zr11Os4
_symmetry_space_group_name_H-M   'P 1'
_cell_length_a   9.56806692
_cell_length_b   9.56806692
_cell_length_c   9.56806692
_cell_angle_alpha   60.00000000
_cell_angle_beta   60.00000000
_cell_angle_gamma   60.00000000
_symmetry_Int_Tables_number   1
_chemical_formula_structural   Zr11Os4
_chemical_formula_sum   'Zr22 Os8'
_cell_volume   619.38062256
_cell_formula_units_Z   2
loop_
 _symmetry_equiv_pos_site_id
 _symmetry_equiv_pos_as_xyz
  1  'x, y, z'
loop_
 _atom_site_type_symbol
 _atom_site_label
 _atom_site_symmetry_multiplicity
 _atom_site_fract_x
 _atom_site_fract_y
 _atom_site_fract_z
 _atom_site_occupancy
  Zr  Zr0  1  0.79881700  0.79881700  0.20118300  1
  Zr  Zr1  1  0.20118300  0.79881700  0.20118300  1
  Zr  Zr2  1  0.79881700  0.20118300  0.20118300  1
  Zr  Zr3  1  0.20118300  0.20118300  0.79881700  1
  Zr  Zr4  1  0.79881700  0.20118300  0.79881700  1
  Zr  Zr5  1  0.20118300  0.79881700  0.79881700  1
  Zr  Zr6  1  0.61701500  0.61701500  0.14895400  1
  Zr  Zr7  1  0.61701500  0.14895400  0.61701500  1
  Zr  Zr8  1  0.14895400  0.61701500  0.61701500  1
  Zr  Zr9  1  0.61701500  0.61701500  0.61701500  1
  Zr  Zr10  1  0.38298500  0.38298500  0.85104600  1
  Zr  Zr11  1  0.38298500  0.85104600  0.38298500  1
  Zr  Zr12  1  0.85104600  0.38298500  0.38298500  1
  Zr  Zr13  1  0.38298500  0.38298500  0.38298500  1
  Zr  Zr14  1  0.83741300  0.83741300  0.48776000  1
  Zr  Zr15  1  0.83741300  0.48776000  0.83741300  1
  Zr  Zr16  1  0.48776000  0.83741300  0.83741300  1
  Zr  Zr17  1  0.83741300  0.83741300  0.83741300  1
  Zr  Zr18  1  0.16258700  0.16258700  0.51224000  1
  Zr  Zr19  1  0.16258700  0.51224000  0.16258700  1
  Zr  Zr20  1  0.51224000  0.16258700  0.16258700  1
  Zr  Zr21  1  0.16258700  0.16258700  0.16258700  1
  Os  Os22  1  0.00000000  0.00000000  0.00000000  1
  Os  Os23  1  0.50000000  0.50000000  0.50000000  1
  Os  Os24  1  0.00000000  0.00000000  0.50000000  1
  Os  Os25  1  0.50000000  0.00000000  0.50000000  1
  Os  Os26  1  0.00000000  0.50000000  0.50000000  1
  Os  Os27  1  0.50000000  0.50000000  0.00000000  1
  Os  Os28  1  0.00000000  0.50000000  0.00000000  1
  Os  Os29  1  0.50000000  0.00000000  0.00000000  1
