# generated using pymatgen
data_SmTeAs
_symmetry_space_group_name_H-M   'P 1'
_cell_length_a   4.11909900
_cell_length_b   7.66655000
_cell_length_c   10.15277800
_cell_angle_alpha   90.00000000
_cell_angle_beta   90.00000000
_cell_angle_gamma   90.00000000
_symmetry_Int_Tables_number   1
_chemical_formula_structural   SmTeAs
_chemical_formula_sum   'Sm4 Te4 As4'
_cell_volume   320.61740339
_cell_formula_units_Z   4
loop_
 _symmetry_equiv_pos_site_id
 _symmetry_equiv_pos_as_xyz
  1  'x, y, z'
loop_
 _atom_site_type_symbol
 _atom_site_label
 _atom_site_symmetry_multiplicity
 _atom_site_fract_x
 _atom_site_fract_y
 _atom_site_fract_z
 _atom_site_occupancy
  Sm  Sm0  1  0.25000000  0.72822100  0.84190200  1
  Sm  Sm1  1  0.75000000  0.27177900  0.15809800  1
  Sm  Sm2  1  0.75000000  0.77177900  0.34190200  1
  Sm  Sm3  1  0.25000000  0.22822100  0.65809800  1
  Te  Te4  1  0.25000000  0.58864400  0.14853900  1
  Te  Te5  1  0.75000000  0.41135600  0.85146100  1
  Te  Te6  1  0.75000000  0.91135600  0.64853900  1
  Te  Te7  1  0.25000000  0.08864400  0.35146100  1
  As  As8  1  0.25000000  0.59460800  0.53911700  1
  As  As9  1  0.75000000  0.40539200  0.46088300  1
  As  As10  1  0.75000000  0.90539200  0.03911700  1
  As  As11  1  0.25000000  0.09460800  0.96088300  1
