# generated using pymatgen
data_NaLaFeWO6
_symmetry_space_group_name_H-M   'P 1'
_cell_length_a   5.60198800
_cell_length_b   5.64790430
_cell_length_c   8.11024506
_cell_angle_alpha   90.27776060
_cell_angle_beta   90.00000000
_cell_angle_gamma   90.00000000
_symmetry_Int_Tables_number   1
_chemical_formula_structural   NaLaFeWO6
_chemical_formula_sum   'Na2 La2 Fe2 W2 O12'
_cell_volume   256.60101911
_cell_formula_units_Z   2
loop_
 _symmetry_equiv_pos_site_id
 _symmetry_equiv_pos_as_xyz
  1  'x, y, z'
loop_
 _atom_site_type_symbol
 _atom_site_label
 _atom_site_symmetry_multiplicity
 _atom_site_fract_x
 _atom_site_fract_y
 _atom_site_fract_z
 _atom_site_occupancy
  Na  Na0  1  0.98183900  0.25747200  0.50043100  1
  Na  Na1  1  0.48183900  0.74252800  0.49956900  1
  La  La2  1  0.98908400  0.24754200  0.99902600  1
  La  La3  1  0.48908400  0.75245800  0.00097400  1
  Fe  Fe4  1  0.46763700  0.24643900  0.74092800  1
  Fe  Fe5  1  0.96763700  0.75356100  0.25907200  1
  W  W6  1  0.46339800  0.25338900  0.26156700  1
  W  W7  1  0.96339800  0.74661100  0.73843300  1
  O  O8  1  0.24212700  0.99443900  0.19012800  1
  O  O9  1  0.74212700  0.00556100  0.80987200  1
  O  O10  1  0.22301000  0.96891100  0.80350100  1
  O  O11  1  0.72301000  0.03108900  0.19649900  1
  O  O12  1  0.18652900  0.45731800  0.27571900  1
  O  O13  1  0.68652900  0.54268200  0.72428100  1
  O  O14  1  0.17249800  0.48416800  0.72103900  1
  O  O15  1  0.67249800  0.51583200  0.27896100  1
  O  O16  1  0.45184400  0.33129400  0.00989400  1
  O  O17  1  0.95184400  0.66870600  0.99010600  1
  O  O18  1  0.46363400  0.16664900  0.48289600  1
  O  O19  1  0.96363400  0.83335100  0.51710400  1
