# generated using pymatgen
data_Pr3(AgSn)4
_symmetry_space_group_name_H-M   'P 1'
_cell_length_a   8.99606680
_cell_length_b   8.99606680
_cell_length_c   8.99606680
_cell_angle_alpha   149.50801902
_cell_angle_beta   131.20793128
_cell_angle_gamma   58.63461991
_symmetry_Int_Tables_number   1
_chemical_formula_structural   Pr3(AgSn)4
_chemical_formula_sum   'Pr3 Ag4 Sn4'
_cell_volume   275.79393740
_cell_formula_units_Z   1
loop_
 _symmetry_equiv_pos_site_id
 _symmetry_equiv_pos_as_xyz
  1  'x, y, z'
loop_
 _atom_site_type_symbol
 _atom_site_label
 _atom_site_symmetry_multiplicity
 _atom_site_fract_x
 _atom_site_fract_y
 _atom_site_fract_z
 _atom_site_occupancy
  Pr  Pr0  1  0.50000000  0.00000000  0.50000000  1
  Pr  Pr1  1  0.87065900  0.87065900  0.00000000  1
  Pr  Pr2  1  0.12934100  0.12934100  0.00000000  1
  Ag  Ag3  1  0.47581800  0.67028900  0.80553000  1
  Ag  Ag4  1  0.86475900  0.67028900  0.19447000  1
  Ag  Ag5  1  0.13524100  0.32971100  0.80553000  1
  Ag  Ag6  1  0.52418200  0.32971100  0.19447000  1
  Sn  Sn7  1  0.28500900  0.78500900  0.50000000  1
  Sn  Sn8  1  0.71499100  0.21499100  0.50000000  1
  Sn  Sn9  1  0.80610400  0.50000000  0.30610400  1
  Sn  Sn10  1  0.19389600  0.50000000  0.69389600  1
