# generated using pymatgen
data_Zr2Ga3Cu
_symmetry_space_group_name_H-M   'P 1'
_cell_length_a   5.39342252
_cell_length_b   5.39342252
_cell_length_c   6.58849326
_cell_angle_alpha   52.68719188
_cell_angle_beta   52.68719188
_cell_angle_gamma   45.45676832
_symmetry_Int_Tables_number   1
_chemical_formula_structural   Zr2Ga3Cu
_chemical_formula_sum   'Zr2 Ga3 Cu1'
_cell_volume   102.95387867
_cell_formula_units_Z   1
loop_
 _symmetry_equiv_pos_site_id
 _symmetry_equiv_pos_as_xyz
  1  'x, y, z'
loop_
 _atom_site_type_symbol
 _atom_site_label
 _atom_site_symmetry_multiplicity
 _atom_site_fract_x
 _atom_site_fract_y
 _atom_site_fract_z
 _atom_site_occupancy
  Zr  Zr0  1  0.53977300  0.53977300  0.20328300  1
  Zr  Zr1  1  0.45741900  0.45741900  0.78976200  1
  Ga  Ga2  1  0.84986900  0.84986900  0.61590100  1
  Ga  Ga3  1  0.82590000  0.82590000  0.20924400  1
  Ga  Ga4  1  0.16013900  0.16013900  0.79487400  1
  Cu  Cu5  1  0.16689900  0.16689900  0.38693600  1
