# generated using pymatgen
data_K2MnV2O7
_symmetry_space_group_name_H-M   'P 1'
_cell_length_a   5.67585500
_cell_length_b   8.76127300
_cell_length_c   8.76127300
_cell_angle_alpha   90.00000000
_cell_angle_beta   90.00000000
_cell_angle_gamma   90.00000000
_symmetry_Int_Tables_number   1
_chemical_formula_structural   K2MnV2O7
_chemical_formula_sum   'K4 Mn2 V4 O14'
_cell_volume   435.67808821
_cell_formula_units_Z   2
loop_
 _symmetry_equiv_pos_site_id
 _symmetry_equiv_pos_as_xyz
  1  'x, y, z'
loop_
 _atom_site_type_symbol
 _atom_site_label
 _atom_site_symmetry_multiplicity
 _atom_site_fract_x
 _atom_site_fract_y
 _atom_site_fract_z
 _atom_site_occupancy
  K  K0  1  0.51017300  0.83714900  0.33714900  1
  K  K1  1  0.48982700  0.66285100  0.83714900  1
  K  K2  1  0.48982700  0.33714900  0.16285100  1
  K  K3  1  0.51017300  0.16285100  0.66285100  1
  Mn  Mn4  1  0.00000000  0.50000000  0.50000000  1
  Mn  Mn5  1  0.00000000  0.00000000  0.00000000  1
  V  V6  1  0.94318700  0.36002800  0.86002800  1
  V  V7  1  0.05681300  0.86002800  0.63997200  1
  V  V8  1  0.05681300  0.13997200  0.36002800  1
  V  V9  1  0.94318700  0.63997200  0.13997200  1
  O  O10  1  0.83858200  0.50000000  0.00000000  1
  O  O11  1  0.16141800  0.00000000  0.50000000  1
  O  O12  1  0.76036900  0.85553000  0.64447000  1
  O  O13  1  0.23963100  0.64447000  0.14447000  1
  O  O14  1  0.23963100  0.35553000  0.85553000  1
  O  O15  1  0.76036900  0.14447000  0.35553000  1
  O  O16  1  0.17678400  0.68465400  0.58789200  1
  O  O17  1  0.17678400  0.31534600  0.41210800  1
  O  O18  1  0.82321600  0.41210800  0.68465400  1
  O  O19  1  0.82321600  0.58789200  0.31534600  1
  O  O20  1  0.17678400  0.08789200  0.18465400  1
  O  O21  1  0.82321600  0.18465400  0.91210800  1
  O  O22  1  0.82321600  0.81534600  0.08789200  1
  O  O23  1  0.17678400  0.91210800  0.81534600  1
