# generated using pymatgen
data_HNO3
_symmetry_space_group_name_H-M   'P 1'
_cell_length_a   8.72905500
_cell_length_b   6.80488200
_cell_length_c   17.52093072
_cell_angle_alpha   89.97464339
_cell_angle_beta   90.00000000
_cell_angle_gamma   90.00000000
_symmetry_Int_Tables_number   1
_chemical_formula_structural   HNO3
_chemical_formula_sum   'H16 N16 O48'
_cell_volume   1040.74649837
_cell_formula_units_Z   16
loop_
 _symmetry_equiv_pos_site_id
 _symmetry_equiv_pos_as_xyz
  1  'x, y, z'
loop_
 _atom_site_type_symbol
 _atom_site_label
 _atom_site_symmetry_multiplicity
 _atom_site_fract_x
 _atom_site_fract_y
 _atom_site_fract_z
 _atom_site_occupancy
  H  H0  1  0.79253400  0.98301000  0.61221600  1
  H  H1  1  0.29253400  0.01699000  0.38778400  1
  H  H2  1  0.20729300  0.01695300  0.88772600  1
  H  H3  1  0.70729300  0.98304700  0.11227400  1
  H  H4  1  0.86769200  0.50676100  0.98525100  1
  H  H5  1  0.36769200  0.49323900  0.01474900  1
  H  H6  1  0.13233200  0.49330600  0.51476400  1
  H  H7  1  0.63233200  0.50669400  0.48523600  1
  H  H8  1  0.70972000  0.97719000  0.86275300  1
  H  H9  1  0.20972000  0.02281000  0.13724700  1
  H  H10  1  0.29047300  0.02274500  0.63720600  1
  H  H11  1  0.79047300  0.97725500  0.36279400  1
  H  H12  1  0.96187800  0.51697800  0.73598500  1
  H  H13  1  0.46187800  0.48302200  0.26401500  1
  H  H14  1  0.46027700  0.48245400  0.76236100  1
  H  H15  1  0.96027700  0.51754600  0.23763900  1
  N  N16  1  0.92855200  0.98572900  0.86605300  1
  N  N17  1  0.42855200  0.01427100  0.13394700  1
  N  N18  1  0.07166900  0.01454400  0.63392900  1
  N  N19  1  0.57166900  0.98545600  0.36607100  1
  N  N20  1  0.57503600  0.98744700  0.61954900  1
  N  N21  1  0.07503600  0.01255300  0.38045100  1
  N  N22  1  0.42477700  0.01223100  0.88053700  1
  N  N23  1  0.92477700  0.98776900  0.11946300  1
  N  N24  1  0.74382100  0.51289500  0.74269700  1
  N  N25  1  0.24382100  0.48710500  0.25730300  1
  N  N26  1  0.24129200  0.48853500  0.75789900  1
  N  N27  1  0.74129200  0.51146500  0.24210100  1
  N  N28  1  0.08553000  0.51637400  0.99495200  1
  N  N29  1  0.58553000  0.48362600  0.00504800  1
  N  N30  1  0.91444700  0.48367000  0.50497800  1
  N  N31  1  0.41444700  0.51633000  0.49502200  1
  O  O32  1  0.04720300  0.92079600  0.83722900  1
  O  O33  1  0.54720300  0.07920400  0.16277100  1
  O  O34  1  0.95299600  0.07999000  0.66261900  1
  O  O35  1  0.45299600  0.92001000  0.33738100  1
  O  O36  1  0.87442800  0.57723300  0.70636200  1
  O  O37  1  0.37442800  0.42276700  0.29363800  1
  O  O38  1  0.12273400  0.42589700  0.78784700  1
  O  O39  1  0.62273400  0.57410300  0.21215300  1
  O  O40  1  0.75625500  0.40056900  0.79661300  1
  O  O41  1  0.25625500  0.59943100  0.20338700  1
  O  O42  1  0.25215500  0.60018200  0.70367600  1
  O  O43  1  0.75215500  0.39981800  0.29632400  1
  O  O44  1  0.45476400  0.92124300  0.59272100  1
  O  O45  1  0.95476400  0.07875700  0.40727900  1
  O  O46  1  0.54510600  0.07890500  0.90726400  1
  O  O47  1  0.04510600  0.92109500  0.09273600  1
  O  O48  1  0.91713700  0.10500200  0.91790700  1
  O  O49  1  0.41713700  0.89499800  0.08209300  1
  O  O50  1  0.08297900  0.89462100  0.58231800  1
  O  O51  1  0.58297900  0.10537900  0.41768200  1
  O  O52  1  0.07408800  0.39607100  0.04659400  1
  O  O53  1  0.57408800  0.60392900  0.95340600  1
  O  O54  1  0.92597100  0.60416400  0.45345300  1
  O  O55  1  0.42597100  0.39583600  0.54654700  1
  O  O56  1  0.58947700  0.10178600  0.67288600  1
  O  O57  1  0.08947700  0.89821400  0.32711400  1
  O  O58  1  0.41046000  0.89767500  0.82731900  1
  O  O59  1  0.91046000  0.10232500  0.17268100  1
  O  O60  1  0.20379300  0.59256000  0.97008200  1
  O  O61  1  0.70379300  0.40744000  0.02991800  1
  O  O62  1  0.79621400  0.40711900  0.52973100  1
  O  O63  1  0.29621400  0.59288100  0.47026900  1
  O  O64  1  0.95436800  0.57773400  0.95862200  1
  O  O65  1  0.45436800  0.42226600  0.04137800  1
  O  O66  1  0.04565000  0.42240400  0.54142400  1
  O  O67  1  0.54565000  0.57759600  0.45857600  1
  O  O68  1  0.62426300  0.57975700  0.71498100  1
  O  O69  1  0.12426300  0.42024300  0.28501900  1
  O  O70  1  0.37355100  0.41929900  0.79161000  1
  O  O71  1  0.87355100  0.58070100  0.20839000  1
  O  O72  1  0.70487800  0.92098100  0.58327700  1
  O  O73  1  0.20487800  0.07901900  0.41672300  1
  O  O74  1  0.29497000  0.07884100  0.91674900  1
  O  O75  1  0.79497000  0.92115900  0.08325100  1
  O  O76  1  0.79633600  0.91072500  0.83451100  1
  O  O77  1  0.29633600  0.08927500  0.16548900  1
  O  O78  1  0.20390000  0.08961800  0.66538200  1
  O  O79  1  0.70390000  0.91038200  0.33461800  1
