# generated using pymatgen
data_Na15W7N19
_symmetry_space_group_name_H-M   'P 1'
_cell_length_a   6.29267300
_cell_length_b   11.77612717
_cell_length_c   18.87480288
_cell_angle_alpha   91.66431837
_cell_angle_beta   93.64447593
_cell_angle_gamma   102.67134948
_symmetry_Int_Tables_number   1
_chemical_formula_structural   Na15W7N19
_chemical_formula_sum   'Na30 W14 N38'
_cell_volume   1360.53201993
_cell_formula_units_Z   2
loop_
 _symmetry_equiv_pos_site_id
 _symmetry_equiv_pos_as_xyz
  1  'x, y, z'
loop_
 _atom_site_type_symbol
 _atom_site_label
 _atom_site_symmetry_multiplicity
 _atom_site_fract_x
 _atom_site_fract_y
 _atom_site_fract_z
 _atom_site_occupancy
  Na  Na0  1  0.54020900  0.62409800  0.45013000  1
  Na  Na1  1  0.45979100  0.37590200  0.54987000  1
  Na  Na2  1  0.54333300  0.14747400  0.63617000  1
  Na  Na3  1  0.45666700  0.85252600  0.36383000  1
  Na  Na4  1  0.73644500  0.99702400  0.19424300  1
  Na  Na5  1  0.26355500  0.00297600  0.80575700  1
  Na  Na6  1  0.90939300  0.01784500  0.36406600  1
  Na  Na7  1  0.09060700  0.98215500  0.63593400  1
  Na  Na8  1  0.85872200  0.76895500  0.29545600  1
  Na  Na9  1  0.14127800  0.23104500  0.70454400  1
  Na  Na10  1  0.81982800  0.15732700  0.83490300  1
  Na  Na11  1  0.18017200  0.84267300  0.16509700  1
  Na  Na12  1  0.90512100  0.91298300  0.91590100  1
  Na  Na13  1  0.09487900  0.08701700  0.08409900  1
  Na  Na14  1  0.69491100  0.11006900  0.99405000  1
  Na  Na15  1  0.30508900  0.88993100  0.00595000  1
  Na  Na16  1  0.67641500  0.92626000  0.51850900  1
  Na  Na17  1  0.32358500  0.07374000  0.48149100  1
  Na  Na18  1  0.65056300  0.47741800  0.29801900  1
  Na  Na19  1  0.34943700  0.52258200  0.70198100  1
  Na  Na20  1  0.95981400  0.35701600  0.00534500  1
  Na  Na21  1  0.04018600  0.64298400  0.99465500  1
  Na  Na22  1  0.90067900  0.69227700  0.80432100  1
  Na  Na23  1  0.09932100  0.30772300  0.19567900  1
  Na  Na24  1  0.68364800  0.22660700  0.39545400  1
  Na  Na25  1  0.31635200  0.77339300  0.60454600  1
  Na  Na26  1  0.57542400  0.36702400  0.83722500  1
  Na  Na27  1  0.42457600  0.63297600  0.16277500  1
  Na  Na28  1  0.00000000  0.50000000  0.50000000  1
  Na  Na29  1  0.50000000  0.50000000  0.00000000  1
  W  W30  1  0.58349500  0.24798000  0.13125700  1
  W  W31  1  0.41650500  0.75202000  0.86874300  1
  W  W32  1  0.79832700  0.41215800  0.69330100  1
  W  W33  1  0.20167300  0.58784200  0.30669900  1
  W  W34  1  0.74499500  0.66826800  0.61495000  1
  W  W35  1  0.25500500  0.33173200  0.38505000  1
  W  W36  1  0.04153600  0.76561900  0.45883700  1
  W  W37  1  0.95846400  0.23438100  0.54116300  1
  W  W38  1  0.89755000  0.54119100  0.14409000  1
  W  W39  1  0.10245000  0.45880900  0.85591000  1
  W  W40  1  0.67607100  0.91973800  0.72384400  1
  W  W41  1  0.32392900  0.08026200  0.27615600  1
  W  W42  1  0.69996100  0.78081900  0.05558700  1
  W  W43  1  0.30003900  0.21918100  0.94441300  1
  N  N44  1  0.80517300  0.17581500  0.12156700  1
  N  N45  1  0.19482700  0.82418500  0.87843300  1
  N  N46  1  0.88310500  0.34225700  0.61166000  1
  N  N47  1  0.11689500  0.65774300  0.38834000  1
  N  N48  1  0.57156400  0.03598200  0.30730800  1
  N  N49  1  0.42843600  0.96401800  0.69269200  1
  N  N50  1  0.62774600  0.83583000  0.81160200  1
  N  N51  1  0.37225400  0.16417000  0.18839800  1
  N  N52  1  0.70132400  0.40376000  0.17101300  1
  N  N53  1  0.29867600  0.59624000  0.82898700  1
  N  N54  1  0.53004700  0.40443500  0.41766900  1
  N  N55  1  0.46995300  0.59556500  0.58233100  1
  N  N56  1  0.71078600  0.12825900  0.51100400  1
  N  N57  1  0.28921400  0.87174100  0.48899600  1
  N  N58  1  0.93220000  0.67726200  0.53938000  1
  N  N59  1  0.06780000  0.32273800  0.46062000  1
  N  N60  1  0.96715300  0.88006000  0.05379800  1
  N  N61  1  0.03284700  0.11994000  0.94620200  1
  N  N62  1  0.82871000  0.83404400  0.42101400  1
  N  N63  1  0.17129000  0.16595600  0.57898600  1
  N  N64  1  0.74980700  0.82116400  0.64765300  1
  N  N65  1  0.25019300  0.17883600  0.35234700  1
  N  N66  1  0.89110500  0.49407900  0.90713800  1
  N  N67  1  0.10889500  0.50592100  0.09286200  1
  N  N68  1  0.55733900  0.75408800  0.96099300  1
  N  N69  1  0.44266100  0.24591200  0.03900700  1
  N  N70  1  0.73801200  0.62957900  0.08787200  1
  N  N71  1  0.26198800  0.37042100  0.91212800  1
  N  N72  1  0.90460000  0.04545200  0.73885800  1
  N  N73  1  0.09540000  0.95454800  0.26114200  1
  N  N74  1  0.03246900  0.63042500  0.22716800  1
  N  N75  1  0.96753100  0.36957500  0.77283200  1
  N  N76  1  0.83772400  0.57779300  0.68991400  1
  N  N77  1  0.16227600  0.42220700  0.31008600  1
  N  N78  1  0.51538400  0.35024700  0.70479200  1
  N  N79  1  0.48461600  0.64975300  0.29520800  1
  N  N80  1  0.52060600  0.83793200  0.11293600  1
  N  N81  1  0.47939400  0.16206800  0.88706400  1
