# generated using pymatgen
data_ZnSnF6
_symmetry_space_group_name_H-M   'P 1'
_cell_length_a   5.61595596
_cell_length_b   5.61595596
_cell_length_c   5.61595609
_cell_angle_alpha   56.67708520
_cell_angle_beta   56.67708520
_cell_angle_gamma   56.67708078
_symmetry_Int_Tables_number   1
_chemical_formula_structural   ZnSnF6
_chemical_formula_sum   'Zn1 Sn1 F6'
_cell_volume   115.63260189
_cell_formula_units_Z   1
loop_
 _symmetry_equiv_pos_site_id
 _symmetry_equiv_pos_as_xyz
  1  'x, y, z'
loop_
 _atom_site_type_symbol
 _atom_site_label
 _atom_site_symmetry_multiplicity
 _atom_site_fract_x
 _atom_site_fract_y
 _atom_site_fract_z
 _atom_site_occupancy
  Zn  Zn0  1  0.50000000  0.50000000  0.50000000  1
  Sn  Sn1  1  0.00000000  0.00000000  0.00000000  1
  F  F2  1  0.13100500  0.36208000  0.75343000  1
  F  F3  1  0.36208000  0.75343000  0.13100500  1
  F  F4  1  0.24657000  0.86899500  0.63792000  1
  F  F5  1  0.63792000  0.24657000  0.86899500  1
  F  F6  1  0.86899500  0.63792000  0.24657000  1
  F  F7  1  0.75343000  0.13100500  0.36208000  1
