# generated using pymatgen
data_Nd2SeO2
_symmetry_space_group_name_H-M   'P 1'
_cell_length_a   4.01835071
_cell_length_b   4.01835071
_cell_length_c   7.07297800
_cell_angle_alpha   90.00000000
_cell_angle_beta   90.00000000
_cell_angle_gamma   120.00001167
_symmetry_Int_Tables_number   1
_chemical_formula_structural   Nd2SeO2
_chemical_formula_sum   'Nd2 Se1 O2'
_cell_volume   98.90734946
_cell_formula_units_Z   1
loop_
 _symmetry_equiv_pos_site_id
 _symmetry_equiv_pos_as_xyz
  1  'x, y, z'
loop_
 _atom_site_type_symbol
 _atom_site_label
 _atom_site_symmetry_multiplicity
 _atom_site_fract_x
 _atom_site_fract_y
 _atom_site_fract_z
 _atom_site_occupancy
  Nd  Nd0  1  0.66666700  0.33333300  0.71119100  1
  Nd  Nd1  1  0.33333300  0.66666700  0.28880900  1
  Se  Se2  1  0.00000000  0.00000000  0.00000000  1
  O  O3  1  0.66666700  0.33333300  0.37445500  1
  O  O4  1  0.33333300  0.66666700  0.62554500  1
