# generated using pymatgen
data_Li2Al
_symmetry_space_group_name_H-M   'P 1'
_cell_length_a   5.33176648
_cell_length_b   5.33176648
_cell_length_c   4.44282200
_cell_angle_alpha   90.00000000
_cell_angle_beta   90.00000000
_cell_angle_gamma   128.93304682
_symmetry_Int_Tables_number   1
_chemical_formula_structural   Li2Al
_chemical_formula_sum   'Li4 Al2'
_cell_volume   98.24585113
_cell_formula_units_Z   2
loop_
 _symmetry_equiv_pos_site_id
 _symmetry_equiv_pos_as_xyz
  1  'x, y, z'
loop_
 _atom_site_type_symbol
 _atom_site_label
 _atom_site_symmetry_multiplicity
 _atom_site_fract_x
 _atom_site_fract_y
 _atom_site_fract_z
 _atom_site_occupancy
  Li  Li0  1  0.24147500  0.75852500  0.25000000  1
  Li  Li1  1  0.75852500  0.24147500  0.75000000  1
  Li  Li2  1  0.59092500  0.40907500  0.25000000  1
  Li  Li3  1  0.40907500  0.59092500  0.75000000  1
  Al  Al4  1  0.92294500  0.07705500  0.25000000  1
  Al  Al5  1  0.07705500  0.92294500  0.75000000  1
