# generated using pymatgen
data_Ca3B4(H4O)3
_symmetry_space_group_name_H-M   'P 1'
_cell_length_a   6.06699344
_cell_length_b   6.06699344
_cell_length_c   11.86968800
_cell_angle_alpha   90.00000000
_cell_angle_beta   90.00000000
_cell_angle_gamma   96.26681637
_symmetry_Int_Tables_number   1
_chemical_formula_structural   Ca3B4(H4O)3
_chemical_formula_sum   'Ca6 B8 H24 O6'
_cell_volume   434.29354527
_cell_formula_units_Z   2
loop_
 _symmetry_equiv_pos_site_id
 _symmetry_equiv_pos_as_xyz
  1  'x, y, z'
loop_
 _atom_site_type_symbol
 _atom_site_label
 _atom_site_symmetry_multiplicity
 _atom_site_fract_x
 _atom_site_fract_y
 _atom_site_fract_z
 _atom_site_occupancy
  Ca  Ca0  1  0.92278400  0.92278400  0.53943800  1
  Ca  Ca1  1  0.07721600  0.07721600  0.03943800  1
  Ca  Ca2  1  0.99135300  0.45190900  0.76906600  1
  Ca  Ca3  1  0.45190900  0.99135300  0.76906600  1
  Ca  Ca4  1  0.00864700  0.54809100  0.26906600  1
  Ca  Ca5  1  0.54809100  0.00864700  0.26906600  1
  B  B6  1  0.00134300  0.00134300  0.26431500  1
  B  B7  1  0.99865700  0.99865700  0.76431500  1
  B  B8  1  0.49462000  0.49462000  0.27996400  1
  B  B9  1  0.50538000  0.50538000  0.77996400  1
  B  B10  1  0.55534100  0.00637300  0.01613000  1
  B  B11  1  0.00637300  0.55534100  0.01613000  1
  B  B12  1  0.44465900  0.99362700  0.51613000  1
  B  B13  1  0.99362700  0.44465900  0.51613000  1
  H  H14  1  0.40123200  0.61745300  0.34116500  1
  H  H15  1  0.61745300  0.40123200  0.34116500  1
  H  H16  1  0.59876800  0.38254700  0.84116500  1
  H  H17  1  0.38254700  0.59876800  0.84116500  1
  H  H18  1  0.35740700  0.35740700  0.23556900  1
  H  H19  1  0.64259300  0.64259300  0.73556900  1
  H  H20  1  0.59732000  0.59732000  0.20433800  1
  H  H21  1  0.40268000  0.40268000  0.70433800  1
  H  H22  1  0.64292600  0.88997500  0.08308600  1
  H  H23  1  0.88997500  0.64292600  0.08308600  1
  H  H24  1  0.35707400  0.11002500  0.58308600  1
  H  H25  1  0.11002500  0.35707400  0.58308600  1
  H  H26  1  0.69129400  0.07173900  0.94377800  1
  H  H27  1  0.07173900  0.69129400  0.94377800  1
  H  H28  1  0.30870600  0.92826100  0.44377800  1
  H  H29  1  0.92826100  0.30870600  0.44377800  1
  H  H30  1  0.40286900  0.88637100  0.97362200  1
  H  H31  1  0.88637100  0.40286900  0.97362200  1
  H  H32  1  0.59713100  0.11362900  0.47362200  1
  H  H33  1  0.11362900  0.59713100  0.47362200  1
  H  H34  1  0.49164300  0.16991800  0.06152500  1
  H  H35  1  0.16991800  0.49164300  0.06152500  1
  H  H36  1  0.50835700  0.83008200  0.56152500  1
  H  H37  1  0.83008200  0.50835700  0.56152500  1
  O  O38  1  0.87940700  0.87940700  0.34692200  1
  O  O39  1  0.12059300  0.12059300  0.84692200  1
  O  O40  1  0.18261500  0.91763300  0.21595400  1
  O  O41  1  0.91763300  0.18261500  0.21595400  1
  O  O42  1  0.81738500  0.08236700  0.71595400  1
  O  O43  1  0.08236700  0.81738500  0.71595400  1
