# generated using pymatgen
data_Sr2FeO4
_symmetry_space_group_name_H-M   'P 1'
_cell_length_a   3.90948988
_cell_length_b   3.90948997
_cell_length_c   6.85942700
_cell_angle_alpha   106.55718758
_cell_angle_beta   106.55718717
_cell_angle_gamma   89.99998845
_symmetry_Int_Tables_number   1
_chemical_formula_structural   Sr2FeO4
_chemical_formula_sum   'Sr2 Fe1 O4'
_cell_volume   95.94925981
_cell_formula_units_Z   1
loop_
 _symmetry_equiv_pos_site_id
 _symmetry_equiv_pos_as_xyz
  1  'x, y, z'
loop_
 _atom_site_type_symbol
 _atom_site_label
 _atom_site_symmetry_multiplicity
 _atom_site_fract_x
 _atom_site_fract_y
 _atom_site_fract_z
 _atom_site_occupancy
  Sr  Sr0  1  0.64282800  0.64282700  0.28565500  1
  Sr  Sr1  1  0.35717200  0.35717300  0.71434400  1
  Fe  Fe2  1  0.00000000  0.00000000  0.00000000  1
  O  O3  1  0.84202400  0.84202300  0.68404800  1
  O  O4  1  0.15797600  0.15797400  0.31595000  1
  O  O5  1  0.00000000  0.50000000  0.00000000  1
  O  O6  1  0.50000000  0.00000000  0.00000100  1
