# generated using pymatgen
data_Sm6Cd(SiS7)2
_symmetry_space_group_name_H-M   'P 1'
_cell_length_a   10.17745785
_cell_length_b   10.17745785
_cell_length_c   5.68068200
_cell_angle_alpha   90.00000000
_cell_angle_beta   90.00000000
_cell_angle_gamma   119.99999902
_symmetry_Int_Tables_number   1
_chemical_formula_structural   Sm6Cd(SiS7)2
_chemical_formula_sum   'Sm6 Cd1 Si2 S14'
_cell_volume   509.57690800
_cell_formula_units_Z   1
loop_
 _symmetry_equiv_pos_site_id
 _symmetry_equiv_pos_as_xyz
  1  'x, y, z'
loop_
 _atom_site_type_symbol
 _atom_site_label
 _atom_site_symmetry_multiplicity
 _atom_site_fract_x
 _atom_site_fract_y
 _atom_site_fract_z
 _atom_site_occupancy
  Sm  Sm0  1  0.64225100  0.87714800  0.24857000  1
  Sm  Sm1  1  0.12285200  0.76510300  0.24857000  1
  Sm  Sm2  1  0.23489700  0.35774900  0.24857000  1
  Sm  Sm3  1  0.35779400  0.12276200  0.75013300  1
  Sm  Sm4  1  0.87723800  0.23503100  0.75013300  1
  Sm  Sm5  1  0.76496900  0.64220600  0.75013300  1
  Cd  Cd6  1  0.00000000  0.00000000  0.49045100  1
  Si  Si7  1  0.33333300  0.66666700  0.83437900  1
  Si  Si8  1  0.66666700  0.33333300  0.33729400  1
  S  S9  1  0.33333300  0.66666700  0.46386700  1
  S  S10  1  0.66666700  0.33333300  0.96634500  1
  S  S11  1  0.74263300  0.91156700  0.73263500  1
  S  S12  1  0.08843300  0.83106600  0.73263500  1
  S  S13  1  0.16893400  0.25736700  0.73263500  1
  S  S14  1  0.25688800  0.08627100  0.24081900  1
  S  S15  1  0.91372900  0.17061800  0.24081900  1
  S  S16  1  0.82938200  0.74311200  0.24081900  1
  S  S17  1  0.47817700  0.59041400  0.98359500  1
  S  S18  1  0.40958600  0.88776300  0.98359500  1
  S  S19  1  0.11223700  0.52182300  0.98359500  1
  S  S20  1  0.52172000  0.40951900  0.48544200  1
  S  S21  1  0.59048100  0.11220100  0.48544200  1
  S  S22  1  0.88779900  0.47828000  0.48544200  1
