# generated using pymatgen
data_Sr2YbMoO6
_symmetry_space_group_name_H-M   'P 1'
_cell_length_a   5.81473400
_cell_length_b   5.88766300
_cell_length_c   10.06876822
_cell_angle_alpha   90.00000000
_cell_angle_beta   124.98825254
_cell_angle_gamma   90.00000000
_symmetry_Int_Tables_number   1
_chemical_formula_structural   Sr2YbMoO6
_chemical_formula_sum   'Sr4 Yb2 Mo2 O12'
_cell_volume   282.40734964
_cell_formula_units_Z   2
loop_
 _symmetry_equiv_pos_site_id
 _symmetry_equiv_pos_as_xyz
  1  'x, y, z'
loop_
 _atom_site_type_symbol
 _atom_site_label
 _atom_site_symmetry_multiplicity
 _atom_site_fract_x
 _atom_site_fract_y
 _atom_site_fract_z
 _atom_site_occupancy
  Sr  Sr0  1  0.24177700  0.46008300  0.75033300  1
  Sr  Sr1  1  0.24177700  0.03991700  0.25033300  1
  Sr  Sr2  1  0.75822300  0.53991700  0.24966700  1
  Sr  Sr3  1  0.75822300  0.96008300  0.74966700  1
  Yb  Yb4  1  0.50000000  0.50000000  0.50000000  1
  Yb  Yb5  1  0.50000000  0.00000000  0.00000000  1
  Mo  Mo6  1  0.00000000  0.00000000  0.50000000  1
  Mo  Mo7  1  0.00000000  0.50000000  0.00000000  1
  O  O8  1  0.77325500  0.19163000  0.54182900  1
  O  O9  1  0.77325500  0.30837000  0.04182900  1
  O  O10  1  0.22674500  0.80837000  0.45817100  1
  O  O11  1  0.22674500  0.69163000  0.95817100  1
  O  O12  1  0.14063200  0.22954000  0.95378300  1
  O  O13  1  0.14063200  0.27046000  0.45378300  1
  O  O14  1  0.85936800  0.77046000  0.04621700  1
  O  O15  1  0.85936800  0.72954000  0.54621700  1
  O  O16  1  0.31175700  0.02429500  0.72889100  1
  O  O17  1  0.31175700  0.47570500  0.22889100  1
  O  O18  1  0.68824300  0.97570500  0.27110900  1
  O  O19  1  0.68824300  0.52429500  0.77110900  1
