# generated using pymatgen
data_NaHfScO4
_symmetry_space_group_name_H-M   'P 1'
_cell_length_a   3.18673800
_cell_length_b   9.59571400
_cell_length_c   11.30929500
_cell_angle_alpha   90.00000000
_cell_angle_beta   90.00000000
_cell_angle_gamma   90.00000000
_symmetry_Int_Tables_number   1
_chemical_formula_structural   NaHfScO4
_chemical_formula_sum   'Na4 Hf4 Sc4 O16'
_cell_volume   345.82723083
_cell_formula_units_Z   4
loop_
 _symmetry_equiv_pos_site_id
 _symmetry_equiv_pos_as_xyz
  1  'x, y, z'
loop_
 _atom_site_type_symbol
 _atom_site_label
 _atom_site_symmetry_multiplicity
 _atom_site_fract_x
 _atom_site_fract_y
 _atom_site_fract_z
 _atom_site_occupancy
  Na  Na0  1  0.50000000  0.25560800  0.90005700  1
  Na  Na1  1  0.50000000  0.75560800  0.09994300  1
  Na  Na2  1  0.00000000  0.74339500  0.59924800  1
  Na  Na3  1  0.00000000  0.24339500  0.40075200  1
  Hf  Hf4  1  0.00000000  0.56671900  0.36137100  1
  Hf  Hf5  1  0.00000000  0.06671900  0.63862900  1
  Hf  Hf6  1  0.00000000  0.57982800  0.85534900  1
  Hf  Hf7  1  0.00000000  0.07982800  0.14465100  1
  Sc  Sc8  1  0.50000000  0.43149600  0.13775800  1
  Sc  Sc9  1  0.50000000  0.93149600  0.86224200  1
  Sc  Sc10  1  0.50000000  0.42078100  0.64313500  1
  Sc  Sc11  1  0.50000000  0.92078100  0.35686500  1
  O  O12  1  0.50000000  0.20344000  0.59728100  1
  O  O13  1  0.50000000  0.70344000  0.40271900  1
  O  O14  1  0.00000000  0.79016500  0.90284200  1
  O  O15  1  0.00000000  0.29016500  0.09715800  1
  O  O16  1  0.50000000  0.11772400  0.26481800  1
  O  O17  1  0.50000000  0.61772400  0.73518200  1
  O  O18  1  0.00000000  0.88745700  0.23245900  1
  O  O19  1  0.00000000  0.38745700  0.76754100  1
  O  O20  1  0.50000000  0.42728500  0.32621300  1
  O  O21  1  0.50000000  0.92728500  0.67378700  1
  O  O22  1  0.00000000  0.57362300  0.17855400  1
  O  O23  1  0.00000000  0.07362300  0.82144600  1
  O  O24  1  0.50000000  0.02160600  0.03556000  1
  O  O25  1  0.50000000  0.52160600  0.96444000  1
  O  O26  1  0.00000000  0.98087100  0.46886000  1
  O  O27  1  0.00000000  0.48087100  0.53114000  1
