# generated using pymatgen
data_Rb3Sc2(AsO4)3
_symmetry_space_group_name_H-M   'P 1'
_cell_length_a   17.19958466
_cell_length_b   17.19958466
_cell_length_c   17.19958466
_cell_angle_alpha   90.00000000
_cell_angle_beta   90.00000000
_cell_angle_gamma   90.00000000
_symmetry_Int_Tables_number   1
_chemical_formula_structural   Rb3Sc2(AsO4)3
_chemical_formula_sum   'Rb48 Sc32 As48 O192'
_cell_volume   5088.07938634
_cell_formula_units_Z   16
loop_
 _symmetry_equiv_pos_site_id
 _symmetry_equiv_pos_as_xyz
  1  'x, y, z'
loop_
 _atom_site_type_symbol
 _atom_site_label
 _atom_site_symmetry_multiplicity
 _atom_site_fract_x
 _atom_site_fract_y
 _atom_site_fract_z
 _atom_site_occupancy
  Rb  Rb0  1  0.49443219  0.74513624  0.99756794  1
  Rb  Rb1  1  0.50556781  0.24513624  0.50243206  1
  Rb  Rb2  1  0.00556781  0.25486376  0.49756794  1
  Rb  Rb3  1  0.99443219  0.75486376  0.00243206  1
  Rb  Rb4  1  0.99756794  0.49443219  0.74513624  1
  Rb  Rb5  1  0.50243206  0.50556781  0.24513624  1
  Rb  Rb6  1  0.49756794  0.00556781  0.25486376  1
  Rb  Rb7  1  0.00243206  0.99443219  0.75486376  1
  Rb  Rb8  1  0.74513624  0.99756794  0.49443219  1
  Rb  Rb9  1  0.24513624  0.50243206  0.50556781  1
  Rb  Rb10  1  0.25486376  0.49756794  0.00556781  1
  Rb  Rb11  1  0.75486376  0.00243206  0.99443219  1
  Rb  Rb12  1  0.50556781  0.25486376  0.00243206  1
  Rb  Rb13  1  0.49443219  0.75486376  0.49756794  1
  Rb  Rb14  1  0.99443219  0.74513624  0.50243206  1
  Rb  Rb15  1  0.00556781  0.24513624  0.99756794  1
  Rb  Rb16  1  0.00243206  0.50556781  0.25486376  1
  Rb  Rb17  1  0.49756794  0.49443219  0.75486376  1
  Rb  Rb18  1  0.50243206  0.99443219  0.74513624  1
  Rb  Rb19  1  0.99756794  0.00556781  0.24513624  1
  Rb  Rb20  1  0.25486376  0.00243206  0.50556781  1
  Rb  Rb21  1  0.75486376  0.49756794  0.49443219  1
  Rb  Rb22  1  0.74513624  0.50243206  0.99443219  1
  Rb  Rb23  1  0.24513624  0.99756794  0.00556781  1
  Rb  Rb24  1  0.36951571  0.63048429  0.13048429  1
  Rb  Rb25  1  0.63048429  0.13048429  0.36951571  1
  Rb  Rb26  1  0.13048429  0.36951571  0.63048429  1
  Rb  Rb27  1  0.86951571  0.86951571  0.86951571  1
  Rb  Rb28  1  0.63048429  0.36951571  0.86951571  1
  Rb  Rb29  1  0.36951571  0.86951571  0.63048429  1
  Rb  Rb30  1  0.86951571  0.63048429  0.36951571  1
  Rb  Rb31  1  0.13048429  0.13048429  0.13048429  1
  Rb  Rb32  1  0.24808283  0.75191717  0.25191717  1
  Rb  Rb33  1  0.75191717  0.25191717  0.24808283  1
  Rb  Rb34  1  0.25191717  0.24808283  0.75191717  1
  Rb  Rb35  1  0.74808283  0.74808283  0.74808283  1
  Rb  Rb36  1  0.75191717  0.24808283  0.74808283  1
  Rb  Rb37  1  0.24808283  0.74808283  0.75191717  1
  Rb  Rb38  1  0.74808283  0.75191717  0.24808283  1
  Rb  Rb39  1  0.25191717  0.25191717  0.25191717  1
  Rb  Rb40  1  0.12465009  0.87534991  0.37534991  1
  Rb  Rb41  1  0.87534991  0.37534991  0.12465009  1
  Rb  Rb42  1  0.37534991  0.12465009  0.87534991  1
  Rb  Rb43  1  0.62465009  0.62465009  0.62465009  1
  Rb  Rb44  1  0.87534991  0.12465009  0.62465009  1
  Rb  Rb45  1  0.12465009  0.62465009  0.87534991  1
  Rb  Rb46  1  0.62465009  0.87534991  0.12465009  1
  Rb  Rb47  1  0.37534991  0.37534991  0.37534991  1
  Sc  Sc48  1  0.28310162  0.99705616  0.25080622  1
  Sc  Sc49  1  0.71689838  0.49705616  0.24919378  1
  Sc  Sc50  1  0.21689838  0.00294384  0.75080622  1
  Sc  Sc51  1  0.78310162  0.50294384  0.74919378  1
  Sc  Sc52  1  0.25080622  0.28310162  0.99705616  1
  Sc  Sc53  1  0.24919378  0.71689838  0.49705616  1
  Sc  Sc54  1  0.75080622  0.21689838  0.00294384  1
  Sc  Sc55  1  0.74919378  0.78310162  0.50294384  1
  Sc  Sc56  1  0.99705616  0.25080622  0.28310162  1
  Sc  Sc57  1  0.49705616  0.24919378  0.71689838  1
  Sc  Sc58  1  0.00294384  0.75080622  0.21689838  1
  Sc  Sc59  1  0.50294384  0.74919378  0.78310162  1
  Sc  Sc60  1  0.71689838  0.00294384  0.74919378  1
  Sc  Sc61  1  0.28310162  0.50294384  0.75080622  1
  Sc  Sc62  1  0.78310162  0.99705616  0.24919378  1
  Sc  Sc63  1  0.21689838  0.49705616  0.25080622  1
  Sc  Sc64  1  0.74919378  0.71689838  0.00294384  1
  Sc  Sc65  1  0.75080622  0.28310162  0.50294384  1
  Sc  Sc66  1  0.24919378  0.78310162  0.99705616  1
  Sc  Sc67  1  0.25080622  0.21689838  0.49705616  1
  Sc  Sc68  1  0.00294384  0.74919378  0.71689838  1
  Sc  Sc69  1  0.50294384  0.75080622  0.28310162  1
  Sc  Sc70  1  0.99705616  0.24919378  0.78310162  1
  Sc  Sc71  1  0.49705616  0.25080622  0.21689838  1
  Sc  Sc72  1  0.50000000  -0.00000000  0.00000000  1
  Sc  Sc73  1  0.50000000  0.50000000  0.50000000  1
  Sc  Sc74  1  0.00000000  -0.00000000  0.50000000  1
  Sc  Sc75  1  0.00000000  0.50000000  0.00000000  1
  Sc  Sc76  1  0.50000000  -0.00000000  0.50000000  1
  Sc  Sc77  1  0.50000000  0.50000000  0.00000000  1
  Sc  Sc78  1  0.00000000  -0.00000000  0.00000000  1
  Sc  Sc79  1  0.00000000  0.50000000  0.50000000  1
  As  As80  1  0.36132615  0.13100911  0.09943616  1
  As  As81  1  0.63867385  0.63100911  0.40056384  1
  As  As82  1  0.13867385  0.86899089  0.59943616  1
  As  As83  1  0.86132615  0.36899089  0.90056384  1
  As  As84  1  0.09943616  0.36132615  0.13100911  1
  As  As85  1  0.40056384  0.63867385  0.63100911  1
  As  As86  1  0.59943616  0.13867385  0.86899089  1
  As  As87  1  0.90056384  0.86132615  0.36899089  1
  As  As88  1  0.13100911  0.09943616  0.36132615  1
  As  As89  1  0.63100911  0.40056384  0.63867385  1
  As  As90  1  0.86899089  0.59943616  0.13867385  1
  As  As91  1  0.36899089  0.90056384  0.86132615  1
  As  As92  1  0.63867385  0.86899089  0.90056384  1
  As  As93  1  0.36132615  0.36899089  0.59943616  1
  As  As94  1  0.86132615  0.13100911  0.40056384  1
  As  As95  1  0.13867385  0.63100911  0.09943616  1
  As  As96  1  0.90056384  0.63867385  0.86899089  1
  As  As97  1  0.59943616  0.36132615  0.36899089  1
  As  As98  1  0.40056384  0.86132615  0.13100911  1
  As  As99  1  0.09943616  0.13867385  0.63100911  1
  As  As100  1  0.86899089  0.90056384  0.63867385  1
  As  As101  1  0.36899089  0.59943616  0.36132615  1
  As  As102  1  0.13100911  0.40056384  0.86132615  1
  As  As103  1  0.63100911  0.09943616  0.13867385  1
  As  As104  1  0.36541860  0.86918576  0.39575713  1
  As  As105  1  0.63458140  0.36918576  0.10424287  1
  As  As106  1  0.13458140  0.13081424  0.89575713  1
  As  As107  1  0.86541860  0.63081424  0.60424287  1
  As  As108  1  0.39575713  0.36541860  0.86918576  1
  As  As109  1  0.10424287  0.63458140  0.36918576  1
  As  As110  1  0.89575713  0.13458140  0.13081424  1
  As  As111  1  0.60424287  0.86541860  0.63081424  1
  As  As112  1  0.86918576  0.39575713  0.36541860  1
  As  As113  1  0.36918576  0.10424287  0.63458140  1
  As  As114  1  0.13081424  0.89575713  0.13458140  1
  As  As115  1  0.63081424  0.60424287  0.86541860  1
  As  As116  1  0.63458140  0.13081424  0.60424287  1
  As  As117  1  0.36541860  0.63081424  0.89575713  1
  As  As118  1  0.86541860  0.86918576  0.10424287  1
  As  As119  1  0.13458140  0.36918576  0.39575713  1
  As  As120  1  0.60424287  0.63458140  0.13081424  1
  As  As121  1  0.89575713  0.36541860  0.63081424  1
  As  As122  1  0.10424287  0.86541860  0.86918576  1
  As  As123  1  0.39575713  0.13458140  0.36918576  1
  As  As124  1  0.13081424  0.60424287  0.63458140  1
  As  As125  1  0.63081424  0.89575713  0.36541860  1
  As  As126  1  0.86918576  0.10424287  0.86541860  1
  As  As127  1  0.36918576  0.39575713  0.13458140  1
  O  O128  1  0.39960184  0.06132962  0.03842294  1
  O  O129  1  0.60039816  0.56132962  0.46157706  1
  O  O130  1  0.10039816  0.93867038  0.53842294  1
  O  O131  1  0.89960184  0.43867038  0.96157706  1
  O  O132  1  0.03842294  0.39960184  0.06132962  1
  O  O133  1  0.46157706  0.60039816  0.56132962  1
  O  O134  1  0.53842294  0.10039816  0.93867038  1
  O  O135  1  0.96157706  0.89960184  0.43867038  1
  O  O136  1  0.06132962  0.03842294  0.39960184  1
  O  O137  1  0.56132962  0.46157706  0.60039816  1
  O  O138  1  0.93867038  0.53842294  0.10039816  1
  O  O139  1  0.43867038  0.96157706  0.89960184  1
  O  O140  1  0.60039816  0.93867038  0.96157706  1
  O  O141  1  0.39960184  0.43867038  0.53842294  1
  O  O142  1  0.89960184  0.06132962  0.46157706  1
  O  O143  1  0.10039816  0.56132962  0.03842294  1
  O  O144  1  0.96157706  0.60039816  0.93867038  1
  O  O145  1  0.53842294  0.39960184  0.43867038  1
  O  O146  1  0.46157706  0.89960184  0.06132962  1
  O  O147  1  0.03842294  0.10039816  0.56132962  1
  O  O148  1  0.93867038  0.96157706  0.60039816  1
  O  O149  1  0.43867038  0.53842294  0.39960184  1
  O  O150  1  0.06132962  0.46157706  0.89960184  1
  O  O151  1  0.56132962  0.03842294  0.10039816  1
  O  O152  1  0.30744480  0.09260442  0.17482155  1
  O  O153  1  0.69255520  0.59260442  0.32517845  1
  O  O154  1  0.19255520  0.90739558  0.67482155  1
  O  O155  1  0.80744480  0.40739558  0.82517845  1
  O  O156  1  0.17482155  0.30744480  0.09260442  1
  O  O157  1  0.32517845  0.69255520  0.59260442  1
  O  O158  1  0.67482155  0.19255520  0.90739558  1
  O  O159  1  0.82517845  0.80744480  0.40739558  1
  O  O160  1  0.09260442  0.17482155  0.30744480  1
  O  O161  1  0.59260442  0.32517845  0.69255520  1
  O  O162  1  0.90739558  0.67482155  0.19255520  1
  O  O163  1  0.40739558  0.82517845  0.80744480  1
  O  O164  1  0.69255520  0.90739558  0.82517845  1
  O  O165  1  0.30744480  0.40739558  0.67482155  1
  O  O166  1  0.80744480  0.09260442  0.32517845  1
  O  O167  1  0.19255520  0.59260442  0.17482155  1
  O  O168  1  0.82517845  0.69255520  0.90739558  1
  O  O169  1  0.67482155  0.30744480  0.40739558  1
  O  O170  1  0.32517845  0.80744480  0.09260442  1
  O  O171  1  0.17482155  0.19255520  0.59260442  1
  O  O172  1  0.90739558  0.82517845  0.69255520  1
  O  O173  1  0.40739558  0.67482155  0.30744480  1
  O  O174  1  0.09260442  0.32517845  0.80744480  1
  O  O175  1  0.59260442  0.17482155  0.19255520  1
  O  O176  1  0.37052695  0.93264357  0.19307498  1
  O  O177  1  0.62947305  0.43264357  0.30692502  1
  O  O178  1  0.12947305  0.06735643  0.69307498  1
  O  O179  1  0.87052695  0.56735643  0.80692502  1
  O  O180  1  0.19307498  0.37052695  0.93264357  1
  O  O181  1  0.30692502  0.62947305  0.43264357  1
  O  O182  1  0.69307498  0.12947305  0.06735643  1
  O  O183  1  0.80692502  0.87052695  0.56735643  1
  O  O184  1  0.93264357  0.19307498  0.37052695  1
  O  O185  1  0.43264357  0.30692502  0.62947305  1
  O  O186  1  0.06735643  0.69307498  0.12947305  1
  O  O187  1  0.56735643  0.80692502  0.87052695  1
  O  O188  1  0.62947305  0.06735643  0.80692502  1
  O  O189  1  0.37052695  0.56735643  0.69307498  1
  O  O190  1  0.87052695  0.93264357  0.30692502  1
  O  O191  1  0.12947305  0.43264357  0.19307498  1
  O  O192  1  0.80692502  0.62947305  0.06735643  1
  O  O193  1  0.69307498  0.37052695  0.56735643  1
  O  O194  1  0.30692502  0.87052695  0.93264357  1
  O  O195  1  0.19307498  0.12947305  0.43264357  1
  O  O196  1  0.06735643  0.80692502  0.62947305  1
  O  O197  1  0.56735643  0.69307498  0.37052695  1
  O  O198  1  0.93264357  0.30692502  0.87052695  1
  O  O199  1  0.43264357  0.19307498  0.12947305  1
  O  O200  1  0.17750497  0.04239469  0.29305774  1
  O  O201  1  0.82249503  0.54239469  0.20694226  1
  O  O202  1  0.32249503  0.95760531  0.79305774  1
  O  O203  1  0.67750497  0.45760531  0.70694226  1
  O  O204  1  0.29305774  0.17750497  0.04239469  1
  O  O205  1  0.20694226  0.82249503  0.54239469  1
  O  O206  1  0.79305774  0.32249503  0.95760531  1
  O  O207  1  0.70694226  0.67750497  0.45760531  1
  O  O208  1  0.04239469  0.29305774  0.17750497  1
  O  O209  1  0.54239469  0.20694226  0.82249503  1
  O  O210  1  0.95760531  0.79305774  0.32249503  1
  O  O211  1  0.45760531  0.70694226  0.67750497  1
  O  O212  1  0.82249503  0.95760531  0.70694226  1
  O  O213  1  0.17750497  0.45760531  0.79305774  1
  O  O214  1  0.67750497  0.04239469  0.20694226  1
  O  O215  1  0.32249503  0.54239469  0.29305774  1
  O  O216  1  0.70694226  0.82249503  0.95760531  1
  O  O217  1  0.79305774  0.17750497  0.45760531  1
  O  O218  1  0.20694226  0.67750497  0.04239469  1
  O  O219  1  0.29305774  0.32249503  0.54239469  1
  O  O220  1  0.95760531  0.70694226  0.82249503  1
  O  O221  1  0.45760531  0.79305774  0.17750497  1
  O  O222  1  0.04239469  0.20694226  0.67750497  1
  O  O223  1  0.54239469  0.29305774  0.32249503  1
  O  O224  1  0.28942348  0.90466344  0.34015671  1
  O  O225  1  0.71057652  0.40466344  0.15984329  1
  O  O226  1  0.21057652  0.09533656  0.84015671  1
  O  O227  1  0.78942348  0.59533656  0.65984329  1
  O  O228  1  0.34015671  0.28942348  0.90466344  1
  O  O229  1  0.15984329  0.71057652  0.40466344  1
  O  O230  1  0.84015671  0.21057652  0.09533656  1
  O  O231  1  0.65984329  0.78942348  0.59533656  1
  O  O232  1  0.90466344  0.34015671  0.28942348  1
  O  O233  1  0.40466344  0.15984329  0.71057652  1
  O  O234  1  0.09533656  0.84015671  0.21057652  1
  O  O235  1  0.59533656  0.65984329  0.78942348  1
  O  O236  1  0.71057652  0.09533656  0.65984329  1
  O  O237  1  0.28942348  0.59533656  0.84015671  1
  O  O238  1  0.78942348  0.90466344  0.15984329  1
  O  O239  1  0.21057652  0.40466344  0.34015671  1
  O  O240  1  0.65984329  0.71057652  0.09533656  1
  O  O241  1  0.84015671  0.28942348  0.59533656  1
  O  O242  1  0.15984329  0.78942348  0.90466344  1
  O  O243  1  0.34015671  0.21057652  0.40466344  1
  O  O244  1  0.09533656  0.65984329  0.71057652  1
  O  O245  1  0.59533656  0.84015671  0.28942348  1
  O  O246  1  0.90466344  0.15984329  0.78942348  1
  O  O247  1  0.40466344  0.34015671  0.21057652  1
  O  O248  1  0.39961757  0.93403258  0.46489752  1
  O  O249  1  0.60038243  0.43403258  0.03510248  1
  O  O250  1  0.10038243  0.06596742  0.96489752  1
  O  O251  1  0.89961757  0.56596742  0.53510248  1
  O  O252  1  0.46489752  0.39961757  0.93403258  1
  O  O253  1  0.03510248  0.60038243  0.43403258  1
  O  O254  1  0.96489752  0.10038243  0.06596742  1
  O  O255  1  0.53510248  0.89961757  0.56596742  1
  O  O256  1  0.93403258  0.46489752  0.39961757  1
  O  O257  1  0.43403258  0.03510248  0.60038243  1
  O  O258  1  0.06596742  0.96489752  0.10038243  1
  O  O259  1  0.56596742  0.53510248  0.89961757  1
  O  O260  1  0.60038243  0.06596742  0.53510248  1
  O  O261  1  0.39961757  0.56596742  0.96489752  1
  O  O262  1  0.89961757  0.93403258  0.03510248  1
  O  O263  1  0.10038243  0.43403258  0.46489752  1
  O  O264  1  0.53510248  0.60038243  0.06596742  1
  O  O265  1  0.96489752  0.39961757  0.56596742  1
  O  O266  1  0.03510248  0.89961757  0.93403258  1
  O  O267  1  0.46489752  0.10038243  0.43403258  1
  O  O268  1  0.06596742  0.53510248  0.60038243  1
  O  O269  1  0.56596742  0.96489752  0.39961757  1
  O  O270  1  0.93403258  0.03510248  0.89961757  1
  O  O271  1  0.43403258  0.46489752  0.10038243  1
  O  O272  1  0.34249864  0.05671952  0.33842671  1
  O  O273  1  0.65750136  0.55671952  0.16157329  1
  O  O274  1  0.15750136  0.94328048  0.83842671  1
  O  O275  1  0.84249864  0.44328048  0.66157329  1
  O  O276  1  0.33842671  0.34249864  0.05671952  1
  O  O277  1  0.16157329  0.65750136  0.55671952  1
  O  O278  1  0.83842671  0.15750136  0.94328048  1
  O  O279  1  0.66157329  0.84249864  0.44328048  1
  O  O280  1  0.05671952  0.33842671  0.34249864  1
  O  O281  1  0.55671952  0.16157329  0.65750136  1
  O  O282  1  0.94328048  0.83842671  0.15750136  1
  O  O283  1  0.44328048  0.66157329  0.84249864  1
  O  O284  1  0.65750136  0.94328048  0.66157329  1
  O  O285  1  0.34249864  0.44328048  0.83842671  1
  O  O286  1  0.84249864  0.05671952  0.16157329  1
  O  O287  1  0.15750136  0.55671952  0.33842671  1
  O  O288  1  0.66157329  0.65750136  0.94328048  1
  O  O289  1  0.83842671  0.34249864  0.44328048  1
  O  O290  1  0.16157329  0.84249864  0.05671952  1
  O  O291  1  0.33842671  0.15750136  0.55671952  1
  O  O292  1  0.94328048  0.66157329  0.65750136  1
  O  O293  1  0.44328048  0.83842671  0.34249864  1
  O  O294  1  0.05671952  0.16157329  0.84249864  1
  O  O295  1  0.55671952  0.33842671  0.15750136  1
  O  O296  1  0.20882343  0.94645748  0.17013202  1
  O  O297  1  0.79117657  0.44645748  0.32986798  1
  O  O298  1  0.29117657  0.05354252  0.67013202  1
  O  O299  1  0.70882343  0.55354252  0.82986798  1
  O  O300  1  0.17013202  0.20882343  0.94645748  1
  O  O301  1  0.32986798  0.79117657  0.44645748  1
  O  O302  1  0.67013202  0.29117657  0.05354252  1
  O  O303  1  0.82986798  0.70882343  0.55354252  1
  O  O304  1  0.94645748  0.17013202  0.20882343  1
  O  O305  1  0.44645748  0.32986798  0.79117657  1
  O  O306  1  0.05354252  0.67013202  0.29117657  1
  O  O307  1  0.55354252  0.82986798  0.70882343  1
  O  O308  1  0.79117657  0.05354252  0.82986798  1
  O  O309  1  0.20882343  0.55354252  0.67013202  1
  O  O310  1  0.70882343  0.94645748  0.32986798  1
  O  O311  1  0.29117657  0.44645748  0.17013202  1
  O  O312  1  0.82986798  0.79117657  0.05354252  1
  O  O313  1  0.67013202  0.20882343  0.55354252  1
  O  O314  1  0.32986798  0.70882343  0.94645748  1
  O  O315  1  0.17013202  0.29117657  0.44645748  1
  O  O316  1  0.05354252  0.82986798  0.79117657  1
  O  O317  1  0.55354252  0.67013202  0.20882343  1
  O  O318  1  0.94645748  0.32986798  0.70882343  1
  O  O319  1  0.44645748  0.17013202  0.29117657  1
