# generated using pymatgen
data_Ba5Nd8Mn4O21
_symmetry_space_group_name_H-M   'P 1'
_cell_length_a   10.61288837
_cell_length_b   10.61288837
_cell_length_c   10.61288837
_cell_angle_alpha   94.50344857
_cell_angle_beta   94.50344857
_cell_angle_gamma   147.45421300
_symmetry_Int_Tables_number   1
_chemical_formula_structural   Ba5Nd8Mn4O21
_chemical_formula_sum   'Ba5 Nd8 Mn4 O21'
_cell_volume   617.31208051
_cell_formula_units_Z   1
loop_
 _symmetry_equiv_pos_site_id
 _symmetry_equiv_pos_as_xyz
  1  'x, y, z'
loop_
 _atom_site_type_symbol
 _atom_site_label
 _atom_site_symmetry_multiplicity
 _atom_site_fract_x
 _atom_site_fract_y
 _atom_site_fract_z
 _atom_site_occupancy
  Ba  Ba0  1  0.53074200  0.86433300  0.39507600  1
  Ba  Ba1  1  0.86433300  0.46925800  0.33359100  1
  Ba  Ba2  1  0.13566700  0.53074200  0.66640900  1
  Ba  Ba3  1  0.46925800  0.13566700  0.60492400  1
  Ba  Ba4  1  0.00000000  0.00000000  0.00000000  1
  Nd  Nd5  1  0.41093400  0.64295400  0.05388800  1
  Nd  Nd6  1  0.64295400  0.58906600  0.23202000  1
  Nd  Nd7  1  0.35704600  0.41093400  0.76798000  1
  Nd  Nd8  1  0.58906600  0.35704600  0.94611200  1
  Nd  Nd9  1  0.24715100  0.83143700  0.07858800  1
  Nd  Nd10  1  0.83143700  0.75284900  0.58428700  1
  Nd  Nd11  1  0.16856300  0.24715100  0.41571300  1
  Nd  Nd12  1  0.75284900  0.16856300  0.92141200  1
  Mn  Mn13  1  0.04034100  0.74790900  0.78825000  1
  Mn  Mn14  1  0.74790900  0.95965900  0.70756800  1
  Mn  Mn15  1  0.25209100  0.04034100  0.29243200  1
  Mn  Mn16  1  0.95965900  0.25209100  0.21175000  1
  O  O17  1  0.90157700  0.49477900  0.88860000  1
  O  O18  1  0.49477900  0.60618000  0.59320200  1
  O  O19  1  0.01297700  0.90157700  0.40679800  1
  O  O20  1  0.60618000  0.01297700  0.11140000  1
  O  O21  1  0.09842300  0.50522100  0.11140000  1
  O  O22  1  0.50522100  0.39382000  0.40679800  1
  O  O23  1  0.98702300  0.09842300  0.59320200  1
  O  O24  1  0.39382000  0.98702300  0.88860000  1
  O  O25  1  0.06849500  0.29367300  0.86710100  1
  O  O26  1  0.29367300  0.42657200  0.22517800  1
  O  O27  1  0.20139400  0.06849500  0.77482200  1
  O  O28  1  0.42657200  0.20139400  0.13289900  1
  O  O29  1  0.93150500  0.70632700  0.13289900  1
  O  O30  1  0.70632700  0.57342800  0.77482200  1
  O  O31  1  0.79860600  0.93150500  0.22517800  1
  O  O32  1  0.57342800  0.79860600  0.86710100  1
  O  O33  1  0.62291900  0.03211300  0.65503300  1
  O  O34  1  0.50000000  0.50000000  0.00000000  1
  O  O35  1  0.37708100  0.96788700  0.34496700  1
  O  O36  1  0.96788700  0.62291900  0.59080600  1
  O  O37  1  0.03211300  0.37708100  0.40919400  1
