# generated using pymatgen
data_Eu(GePt)2
_symmetry_space_group_name_H-M   'P 1'
_cell_length_a   4.37794500
_cell_length_b   4.39954500
_cell_length_c   10.20118143
_cell_angle_alpha   89.60662830
_cell_angle_beta   90.00000000
_cell_angle_gamma   90.00000000
_symmetry_Int_Tables_number   1
_chemical_formula_structural   Eu(GePt)2
_chemical_formula_sum   'Eu2 Ge4 Pt4'
_cell_volume   196.47997813
_cell_formula_units_Z   2
loop_
 _symmetry_equiv_pos_site_id
 _symmetry_equiv_pos_as_xyz
  1  'x, y, z'
loop_
 _atom_site_type_symbol
 _atom_site_label
 _atom_site_symmetry_multiplicity
 _atom_site_fract_x
 _atom_site_fract_y
 _atom_site_fract_z
 _atom_site_occupancy
  Eu  Eu0  1  0.75000000  0.74773700  0.25286600  1
  Eu  Eu1  1  0.25000000  0.25226300  0.74713400  1
  Ge  Ge2  1  0.75000000  0.76126600  0.87137900  1
  Ge  Ge3  1  0.25000000  0.23873400  0.12862100  1
  Ge  Ge4  1  0.75000000  0.25420200  0.49976000  1
  Ge  Ge5  1  0.25000000  0.74579800  0.50024000  1
  Pt  Pt6  1  0.75000000  0.75244700  0.62705200  1
  Pt  Pt7  1  0.25000000  0.24755300  0.37294800  1
  Pt  Pt8  1  0.75000000  0.26298000  0.99920700  1
  Pt  Pt9  1  0.25000000  0.73702000  0.00079300  1
