# generated using pymatgen
data_Ba(BiS2)2
_symmetry_space_group_name_H-M   'P 1'
_cell_length_a   22.06427417
_cell_length_b   22.06427417
_cell_length_c   4.18172100
_cell_angle_alpha   90.00000000
_cell_angle_beta   90.00000000
_cell_angle_gamma   120.00000052
_symmetry_Int_Tables_number   1
_chemical_formula_structural   Ba(BiS2)2
_chemical_formula_sum   'Ba9 Bi18 S36'
_cell_volume   1763.05140087
_cell_formula_units_Z   9
loop_
 _symmetry_equiv_pos_site_id
 _symmetry_equiv_pos_as_xyz
  1  'x, y, z'
loop_
 _atom_site_type_symbol
 _atom_site_label
 _atom_site_symmetry_multiplicity
 _atom_site_fract_x
 _atom_site_fract_y
 _atom_site_fract_z
 _atom_site_occupancy
  Ba  Ba0  1  0.66666700  0.33333300  0.50000000  1
  Ba  Ba1  1  0.33333300  0.66666700  0.00000000  1
  Ba  Ba2  1  0.00000000  0.00000000  0.50000000  1
  Ba  Ba3  1  0.41580700  0.17914600  0.50000000  1
  Ba  Ba4  1  0.82085400  0.23666100  0.50000000  1
  Ba  Ba5  1  0.76333900  0.58419300  0.50000000  1
  Ba  Ba6  1  0.58374900  0.82088200  0.00000000  1
  Ba  Ba7  1  0.17911800  0.76286700  0.00000000  1
  Ba  Ba8  1  0.23713300  0.41625100  0.00000000  1
  Bi  Bi9  1  0.43754900  0.55431200  0.50000000  1
  Bi  Bi10  1  0.44568800  0.88323700  0.50000000  1
  Bi  Bi11  1  0.11676300  0.56245100  0.50000000  1
  Bi  Bi12  1  0.56229200  0.44559500  0.00000000  1
  Bi  Bi13  1  0.55440500  0.11669700  0.00000000  1
  Bi  Bi14  1  0.88330300  0.43770800  0.00000000  1
  Bi  Bi15  1  0.65710000  0.03119400  0.50000000  1
  Bi  Bi16  1  0.96880600  0.62590500  0.50000000  1
  Bi  Bi17  1  0.37409500  0.34290000  0.50000000  1
  Bi  Bi18  1  0.34286700  0.96796300  0.00000000  1
  Bi  Bi19  1  0.03203700  0.37490400  0.00000000  1
  Bi  Bi20  1  0.62509600  0.65713300  0.00000000  1
  Bi  Bi21  1  0.99362200  0.79827700  0.00000000  1
  Bi  Bi22  1  0.20172300  0.19534600  0.00000000  1
  Bi  Bi23  1  0.80465400  0.00637800  0.00000000  1
  Bi  Bi24  1  0.00736200  0.20097100  0.50000000  1
  Bi  Bi25  1  0.79902900  0.80639100  0.50000000  1
  Bi  Bi26  1  0.19360900  0.99263800  0.50000000  1
  S  S27  1  0.83805900  0.48537700  0.50000000  1
  S  S28  1  0.51462300  0.35268200  0.50000000  1
  S  S29  1  0.64731800  0.16194100  0.50000000  1
  S  S30  1  0.16185500  0.51459400  0.00000000  1
  S  S31  1  0.48540600  0.64726100  0.00000000  1
  S  S32  1  0.35273900  0.83814500  0.00000000  1
  S  S33  1  0.93368000  0.83102800  0.50000000  1
  S  S34  1  0.16897200  0.10265200  0.50000000  1
  S  S35  1  0.89734800  0.06632000  0.50000000  1
  S  S36  1  0.05597200  0.14827600  0.00000000  1
  S  S37  1  0.85172400  0.90769600  0.00000000  1
  S  S38  1  0.09230400  0.94402800  0.00000000  1
  S  S39  1  0.06480000  0.76382300  0.50000000  1
  S  S40  1  0.23617700  0.30097700  0.50000000  1
  S  S41  1  0.69902300  0.93520000  0.50000000  1
  S  S42  1  0.93767200  0.23606000  0.00000000  1
  S  S43  1  0.76394000  0.70161300  0.00000000  1
  S  S44  1  0.29838700  0.06232800  0.00000000  1
  S  S45  1  0.24581100  0.89608100  0.50000000  1
  S  S46  1  0.10391900  0.34973000  0.50000000  1
  S  S47  1  0.65027000  0.75418900  0.50000000  1
  S  S48  1  0.75426400  0.10330100  0.00000000  1
  S  S49  1  0.89669900  0.65096300  0.00000000  1
  S  S50  1  0.34903700  0.24573600  0.00000000  1
  S  S51  1  0.60082600  0.55788900  0.50000000  1
  S  S52  1  0.44211100  0.04293800  0.50000000  1
  S  S53  1  0.95706200  0.39917400  0.50000000  1
  S  S54  1  0.39961200  0.44238800  0.00000000  1
  S  S55  1  0.55761200  0.95722400  0.00000000  1
  S  S56  1  0.04277600  0.60038800  0.00000000  1
  S  S57  1  0.22823700  0.68450000  0.50000000  1
  S  S58  1  0.31550000  0.54373700  0.50000000  1
  S  S59  1  0.45626300  0.77176300  0.50000000  1
  S  S60  1  0.77185900  0.31539700  0.00000000  1
  S  S61  1  0.68460300  0.45646200  0.00000000  1
  S  S62  1  0.54353800  0.22814100  0.00000000  1
