# generated using pymatgen
data_Tl2ZnH12(SeO7)2
_symmetry_space_group_name_H-M   'P 1'
_cell_length_a   12.84031300
_cell_length_b   6.45692300
_cell_length_c   9.41641271
_cell_angle_alpha   74.93812512
_cell_angle_beta   90.00000000
_cell_angle_gamma   90.00000000
_symmetry_Int_Tables_number   1
_chemical_formula_structural   Tl2ZnH12(SeO7)2
_chemical_formula_sum   'Tl4 Zn2 H24 Se4 O28'
_cell_volume   753.88402426
_cell_formula_units_Z   2
loop_
 _symmetry_equiv_pos_site_id
 _symmetry_equiv_pos_as_xyz
  1  'x, y, z'
loop_
 _atom_site_type_symbol
 _atom_site_label
 _atom_site_symmetry_multiplicity
 _atom_site_fract_x
 _atom_site_fract_y
 _atom_site_fract_z
 _atom_site_occupancy
  Tl  Tl0  1  0.14564600  0.65037000  0.62807800  1
  Tl  Tl1  1  0.64564600  0.34963000  0.87192200  1
  Tl  Tl2  1  0.85435400  0.34963000  0.37192200  1
  Tl  Tl3  1  0.35435400  0.65037000  0.12807800  1
  Zn  Zn4  1  0.50000000  0.00000000  0.50000000  1
  Zn  Zn5  1  0.00000000  0.00000000  0.00000000  1
  H  H6  1  0.41042500  0.67826600  0.70814400  1
  H  H7  1  0.91042500  0.32173400  0.79185600  1
  H  H8  1  0.58957500  0.32173400  0.29185600  1
  H  H9  1  0.08957500  0.67826600  0.20814400  1
  H  H10  1  0.37409900  0.89825100  0.74379200  1
  H  H11  1  0.87409900  0.10174900  0.75620800  1
  H  H12  1  0.62590100  0.10174900  0.25620800  1
  H  H13  1  0.12590100  0.89825100  0.24379200  1
  H  H14  1  0.40149800  0.06897900  0.23317300  1
  H  H15  1  0.90149800  0.93102100  0.26682700  1
  H  H16  1  0.59850200  0.93102100  0.76682700  1
  H  H17  1  0.09850200  0.06897900  0.73317300  1
  H  H18  1  0.31583300  0.99560900  0.35724000  1
  H  H19  1  0.81583300  0.00439100  0.14276000  1
  H  H20  1  0.68416700  0.00439100  0.64276000  1
  H  H21  1  0.18416700  0.99560900  0.85724000  1
  H  H22  1  0.55903400  0.66873900  0.39982100  1
  H  H23  1  0.05903400  0.33126100  0.10017900  1
  H  H24  1  0.44096600  0.33126100  0.60017900  1
  H  H25  1  0.94096600  0.66873900  0.89982100  1
  H  H26  1  0.63986000  0.67802600  0.52636000  1
  H  H27  1  0.13986000  0.32197400  0.97364000  1
  H  H28  1  0.36014000  0.32197400  0.47364000  1
  H  H29  1  0.86014000  0.67802600  0.02636000  1
  Se  Se30  1  0.36030400  0.26257900  0.90519300  1
  Se  Se31  1  0.86030400  0.73742100  0.59480700  1
  Se  Se32  1  0.63969600  0.73742100  0.09480700  1
  Se  Se33  1  0.13969600  0.26257900  0.40519300  1
  O  O34  1  0.25705700  0.41878300  0.91214700  1
  O  O35  1  0.75705700  0.58121700  0.58785300  1
  O  O36  1  0.74294300  0.58121700  0.08785300  1
  O  O37  1  0.24294300  0.41878300  0.41214700  1
  O  O38  1  0.42971600  0.22358200  0.06012600  1
  O  O39  1  0.92971600  0.77641800  0.43987400  1
  O  O40  1  0.57028400  0.77641800  0.93987400  1
  O  O41  1  0.07028400  0.22358200  0.56012600  1
  O  O42  1  0.43716400  0.39460400  0.76603200  1
  O  O43  1  0.93716400  0.60539600  0.73396800  1
  O  O44  1  0.56283600  0.60539600  0.23396800  1
  O  O45  1  0.06283600  0.39460400  0.26603200  1
  O  O46  1  0.32013700  0.02753100  0.87772700  1
  O  O47  1  0.82013700  0.97246900  0.62227300  1
  O  O48  1  0.67986300  0.97246900  0.12227300  1
  O  O49  1  0.17986300  0.02753100  0.37772700  1
  O  O50  1  0.39025300  0.82979400  0.66328400  1
  O  O51  1  0.89025300  0.17020600  0.83671600  1
  O  O52  1  0.60974700  0.17020600  0.33671600  1
  O  O53  1  0.10974700  0.82979400  0.16328400  1
  O  O54  1  0.38923300  0.97042600  0.33242900  1
  O  O55  1  0.88923300  0.02957400  0.16757100  1
  O  O56  1  0.61076700  0.02957400  0.66757100  1
  O  O57  1  0.11076700  0.97042600  0.83242900  1
  O  O58  1  0.56612900  0.70917400  0.49457800  1
  O  O59  1  0.06612900  0.29082600  0.00542200  1
  O  O60  1  0.43387100  0.29082600  0.50542200  1
  O  O61  1  0.93387100  0.70917400  0.99457800  1
