# generated using pymatgen
data_AgSb3IF24
_symmetry_space_group_name_H-M   'P 1'
_cell_length_a   10.59032804
_cell_length_b   10.59032804
_cell_length_c   9.82899809
_cell_angle_alpha   88.47753295
_cell_angle_beta   88.47753295
_cell_angle_gamma   119.43878437
_symmetry_Int_Tables_number   1
_chemical_formula_structural   AgSb3IF24
_chemical_formula_sum   'Ag2 Sb6 I2 F48'
_cell_volume   958.70131111
_cell_formula_units_Z   2
loop_
 _symmetry_equiv_pos_site_id
 _symmetry_equiv_pos_as_xyz
  1  'x, y, z'
loop_
 _atom_site_type_symbol
 _atom_site_label
 _atom_site_symmetry_multiplicity
 _atom_site_fract_x
 _atom_site_fract_y
 _atom_site_fract_z
 _atom_site_occupancy
  Ag  Ag0  1  0.00000000  0.00000000  0.50000000  1
  Ag  Ag1  1  0.00000000  0.00000000  0.00000000  1
  Sb  Sb2  1  0.34198100  0.17458200  0.75150600  1
  Sb  Sb3  1  0.82541800  0.65801900  0.74849400  1
  Sb  Sb4  1  0.82858500  0.17141500  0.75000000  1
  Sb  Sb5  1  0.17458200  0.34198100  0.25150600  1
  Sb  Sb6  1  0.17141500  0.82858500  0.25000000  1
  Sb  Sb7  1  0.65801900  0.82541800  0.24849400  1
  I  I8  1  0.33340900  0.66659100  0.75000000  1
  I  I9  1  0.66659100  0.33340900  0.25000000  1
  F  F10  1  0.32760600  0.31803700  0.85321600  1
  F  F11  1  0.98877700  0.67383800  0.84030300  1
  F  F12  1  0.68042500  0.00858800  0.85288400  1
  F  F13  1  0.31803700  0.32760600  0.35321600  1
  F  F14  1  0.00858800  0.68042500  0.35288400  1
  F  F15  1  0.67383800  0.98877700  0.34030300  1
  F  F16  1  0.67239400  0.68196300  0.14678400  1
  F  F17  1  0.01122300  0.32616200  0.15969700  1
  F  F18  1  0.31957500  0.99141200  0.14711600  1
  F  F19  1  0.68196300  0.67239400  0.64678400  1
  F  F20  1  0.99141200  0.31957500  0.64711600  1
  F  F21  1  0.32616200  0.01122300  0.65969700  1
  F  F22  1  0.48552100  0.31167000  0.62537200  1
  F  F23  1  0.83487500  0.52732600  0.62585000  1
  F  F24  1  0.69404500  0.17449900  0.62836500  1
  F  F25  1  0.31167000  0.48552100  0.12537200  1
  F  F26  1  0.17449900  0.69404500  0.12836500  1
  F  F27  1  0.52732600  0.83487500  0.12585000  1
  F  F28  1  0.51447900  0.68833000  0.37462800  1
  F  F29  1  0.16512500  0.47267400  0.37415000  1
  F  F30  1  0.30595500  0.82550100  0.37163500  1
  F  F31  1  0.68833000  0.51447900  0.87462800  1
  F  F32  1  0.82550100  0.30595500  0.87163500  1
  F  F33  1  0.47267400  0.16512500  0.87415000  1
  F  F34  1  0.19075400  0.52457600  0.86135400  1
  F  F35  1  0.33044400  0.80372300  0.85612600  1
  F  F36  1  0.47044300  0.66263900  0.85616200  1
  F  F37  1  0.52457600  0.19075400  0.36135400  1
  F  F38  1  0.66263900  0.47044300  0.35616200  1
  F  F39  1  0.80372300  0.33044400  0.35612600  1
  F  F40  1  0.80924600  0.47542400  0.13864600  1
  F  F41  1  0.66955600  0.19627700  0.14387400  1
  F  F42  1  0.52955700  0.33736100  0.14383800  1
  F  F43  1  0.47542400  0.80924600  0.63864600  1
  F  F44  1  0.33736100  0.52955700  0.64383800  1
  F  F45  1  0.19627700  0.66955600  0.64387400  1
  F  F46  1  0.18933900  0.16690500  0.64089800  1
  F  F47  1  0.97639400  0.82188600  0.62547700  1
  F  F48  1  0.84306100  0.02721600  0.63507800  1
  F  F49  1  0.16690500  0.18933900  0.14089800  1
  F  F50  1  0.02721600  0.84306100  0.13507800  1
  F  F51  1  0.82188600  0.97639400  0.12547700  1
  F  F52  1  0.81066100  0.83309500  0.35910200  1
  F  F53  1  0.02360600  0.17811400  0.37452300  1
  F  F54  1  0.15693900  0.97278400  0.36492200  1
  F  F55  1  0.83309500  0.81066100  0.85910200  1
  F  F56  1  0.97278400  0.15693900  0.86492200  1
  F  F57  1  0.17811400  0.02360600  0.87452300  1
