# generated using pymatgen
data_B2Se3O10
_symmetry_space_group_name_H-M   'P 1'
_cell_length_a   4.47767700
_cell_length_b   8.15634200
_cell_length_c   22.53034191
_cell_angle_alpha   90.00000000
_cell_angle_beta   95.10308192
_cell_angle_gamma   90.00000000
_symmetry_Int_Tables_number   1
_chemical_formula_structural   B2Se3O10
_chemical_formula_sum   'B8 Se12 O40'
_cell_volume   819.57958338
_cell_formula_units_Z   4
loop_
 _symmetry_equiv_pos_site_id
 _symmetry_equiv_pos_as_xyz
  1  'x, y, z'
loop_
 _atom_site_type_symbol
 _atom_site_label
 _atom_site_symmetry_multiplicity
 _atom_site_fract_x
 _atom_site_fract_y
 _atom_site_fract_z
 _atom_site_occupancy
  B  B0  1  0.53727600  0.69688500  0.79840100  1
  B  B1  1  0.46272400  0.19688500  0.70159900  1
  B  B2  1  0.46272400  0.30311500  0.20159900  1
  B  B3  1  0.53727600  0.80311500  0.29840100  1
  B  B4  1  0.66826600  0.07562100  0.93304600  1
  B  B5  1  0.33173400  0.57562100  0.56695400  1
  B  B6  1  0.33173400  0.92437900  0.06695400  1
  B  B7  1  0.66826600  0.42437900  0.43304600  1
  Se  Se8  1  0.07799400  0.53498000  0.85630700  1
  Se  Se9  1  0.92200600  0.03498000  0.64369300  1
  Se  Se10  1  0.92200600  0.46502000  0.14369300  1
  Se  Se11  1  0.07799400  0.96502000  0.35630700  1
  Se  Se12  1  0.47822700  0.04099600  0.81245200  1
  Se  Se13  1  0.52177300  0.54099600  0.68754800  1
  Se  Se14  1  0.52177300  0.95900400  0.18754800  1
  Se  Se15  1  0.47822700  0.45900400  0.31245200  1
  Se  Se16  1  0.79190800  0.78057500  0.00471100  1
  Se  Se17  1  0.20809200  0.28057500  0.49528900  1
  Se  Se18  1  0.20809200  0.21942500  0.99528900  1
  Se  Se19  1  0.79190800  0.71942500  0.50471100  1
  O  O20  1  0.22748000  0.36198000  0.83933300  1
  O  O21  1  0.77252000  0.86198000  0.66066700  1
  O  O22  1  0.77252000  0.63802000  0.16066700  1
  O  O23  1  0.22748000  0.13802000  0.33933300  1
  O  O24  1  0.97580700  0.55456800  0.92384800  1
  O  O25  1  0.02419300  0.05456800  0.57615200  1
  O  O26  1  0.02419300  0.44543200  0.07615200  1
  O  O27  1  0.97580700  0.94543200  0.42384800  1
  O  O28  1  0.32720100  0.69751500  0.84628500  1
  O  O29  1  0.67279900  0.19751500  0.65371500  1
  O  O30  1  0.67279900  0.30248500  0.15371500  1
  O  O31  1  0.32720100  0.80248500  0.34628500  1
  O  O32  1  0.77397200  0.56730800  0.80287900  1
  O  O33  1  0.22602800  0.06730800  0.69712100  1
  O  O34  1  0.22602800  0.43269200  0.19712100  1
  O  O35  1  0.77397200  0.93269200  0.30287900  1
  O  O36  1  0.63857700  0.16075600  0.75963600  1
  O  O37  1  0.36142300  0.66075600  0.74036400  1
  O  O38  1  0.36142300  0.83924400  0.24036400  1
  O  O39  1  0.63857700  0.33924400  0.25963600  1
  O  O40  1  0.71890600  0.11757000  0.87083200  1
  O  O41  1  0.28109400  0.61757000  0.62916800  1
  O  O42  1  0.28109400  0.88243000  0.12916800  1
  O  O43  1  0.71890600  0.38243000  0.37083200  1
  O  O44  1  0.67970000  0.85933000  0.80079200  1
  O  O45  1  0.32030000  0.35933000  0.69920800  1
  O  O46  1  0.32030000  0.14067000  0.19920800  1
  O  O47  1  0.67970000  0.64067000  0.30079200  1
  O  O48  1  0.17331800  0.80288200  0.02683000  1
  O  O49  1  0.82668200  0.30288200  0.47317000  1
  O  O50  1  0.82668200  0.19711800  0.97317000  1
  O  O51  1  0.17331800  0.69711800  0.52683000  1
  O  O52  1  0.76405800  0.90245600  0.94124100  1
  O  O53  1  0.23594200  0.40245600  0.55875900  1
  O  O54  1  0.23594200  0.09754400  0.05875900  1
  O  O55  1  0.76405800  0.59754400  0.44124100  1
  O  O56  1  0.65625000  0.91220700  0.05766400  1
  O  O57  1  0.34375000  0.41220700  0.44233600  1
  O  O58  1  0.34375000  0.08779300  0.94233600  1
  O  O59  1  0.65625000  0.58779300  0.55766400  1
