# generated using pymatgen
data_LuAl7Au3
_symmetry_space_group_name_H-M   'P 1'
_cell_length_a   8.43711901
_cell_length_b   8.43711901
_cell_length_c   8.43711847
_cell_angle_alpha   57.13149354
_cell_angle_beta   57.13149354
_cell_angle_gamma   57.13149466
_symmetry_Int_Tables_number   1
_chemical_formula_structural   LuAl7Au3
_chemical_formula_sum   'Lu2 Al14 Au6'
_cell_volume   396.61474336
_cell_formula_units_Z   2
loop_
 _symmetry_equiv_pos_site_id
 _symmetry_equiv_pos_as_xyz
  1  'x, y, z'
loop_
 _atom_site_type_symbol
 _atom_site_label
 _atom_site_symmetry_multiplicity
 _atom_site_fract_x
 _atom_site_fract_y
 _atom_site_fract_z
 _atom_site_occupancy
  Lu  Lu0  1  0.00000000  0.00000000  0.00000000  1
  Lu  Lu1  1  0.50000000  0.50000000  0.50000000  1
  Al  Al2  1  0.93026600  0.14722900  0.33329600  1
  Al  Al3  1  0.33329600  0.93026600  0.14722900  1
  Al  Al4  1  0.14722900  0.33329600  0.93026600  1
  Al  Al5  1  0.56973400  0.16670400  0.35277100  1
  Al  Al6  1  0.35277100  0.56973400  0.16670400  1
  Al  Al7  1  0.16670400  0.35277100  0.56973400  1
  Al  Al8  1  0.06973400  0.85277100  0.66670400  1
  Al  Al9  1  0.66670400  0.06973400  0.85277100  1
  Al  Al10  1  0.75000000  0.75000000  0.75000000  1
  Al  Al11  1  0.25000000  0.25000000  0.25000000  1
  Al  Al12  1  0.83329600  0.64722900  0.43026600  1
  Al  Al13  1  0.64722900  0.43026600  0.83329600  1
  Al  Al14  1  0.43026600  0.83329600  0.64722900  1
  Al  Al15  1  0.85277100  0.66670400  0.06973400  1
  Au  Au16  1  0.25000000  0.57553600  0.92446400  1
  Au  Au17  1  0.92446400  0.25000000  0.57553600  1
  Au  Au18  1  0.57553600  0.92446400  0.25000000  1
  Au  Au19  1  0.75000000  0.42446400  0.07553600  1
  Au  Au20  1  0.07553600  0.75000000  0.42446400  1
  Au  Au21  1  0.42446400  0.07553600  0.75000000  1
