# generated using pymatgen
data_Zr6Al16Ir7
_symmetry_space_group_name_H-M   'P 1'
_cell_length_a   8.74958799
_cell_length_b   8.74958799
_cell_length_c   8.74958799
_cell_angle_alpha   60.00000000
_cell_angle_beta   60.00000000
_cell_angle_gamma   60.00000000
_symmetry_Int_Tables_number   1
_chemical_formula_structural   Zr6Al16Ir7
_chemical_formula_sum   'Zr6 Al16 Ir7'
_cell_volume   473.63938773
_cell_formula_units_Z   1
loop_
 _symmetry_equiv_pos_site_id
 _symmetry_equiv_pos_as_xyz
  1  'x, y, z'
loop_
 _atom_site_type_symbol
 _atom_site_label
 _atom_site_symmetry_multiplicity
 _atom_site_fract_x
 _atom_site_fract_y
 _atom_site_fract_z
 _atom_site_occupancy
  Zr  Zr0  1  0.69073900  0.69073900  0.30926100  1
  Zr  Zr1  1  0.30926100  0.69073900  0.30926100  1
  Zr  Zr2  1  0.69073900  0.30926100  0.30926100  1
  Zr  Zr3  1  0.30926100  0.30926100  0.69073900  1
  Zr  Zr4  1  0.69073900  0.30926100  0.69073900  1
  Zr  Zr5  1  0.30926100  0.69073900  0.69073900  1
  Al  Al6  1  0.87998800  0.87998800  0.36003700  1
  Al  Al7  1  0.87998800  0.36003700  0.87998800  1
  Al  Al8  1  0.36003700  0.87998800  0.87998800  1
  Al  Al9  1  0.87998800  0.87998800  0.87998800  1
  Al  Al10  1  0.12001200  0.12001200  0.63996300  1
  Al  Al11  1  0.12001200  0.63996300  0.12001200  1
  Al  Al12  1  0.63996300  0.12001200  0.12001200  1
  Al  Al13  1  0.12001200  0.12001200  0.12001200  1
  Al  Al14  1  0.66167700  0.66167700  0.01496800  1
  Al  Al15  1  0.66167700  0.01496800  0.66167700  1
  Al  Al16  1  0.01496800  0.66167700  0.66167700  1
  Al  Al17  1  0.66167700  0.66167700  0.66167700  1
  Al  Al18  1  0.33832300  0.33832300  0.98503200  1
  Al  Al19  1  0.33832300  0.98503200  0.33832300  1
  Al  Al20  1  0.98503200  0.33832300  0.33832300  1
  Al  Al21  1  0.33832300  0.33832300  0.33832300  1
  Ir  Ir22  1  0.00000000  0.00000000  0.00000000  1
  Ir  Ir23  1  0.00000000  0.00000000  0.50000000  1
  Ir  Ir24  1  0.50000000  0.00000000  0.50000000  1
  Ir  Ir25  1  0.00000000  0.50000000  0.50000000  1
  Ir  Ir26  1  0.50000000  0.50000000  0.00000000  1
  Ir  Ir27  1  0.00000000  0.50000000  0.00000000  1
  Ir  Ir28  1  0.50000000  0.00000000  0.00000000  1
