# generated using pymatgen
data_Cs2Ni3Se4
_symmetry_space_group_name_H-M   'P 1'
_cell_length_a   9.22107852
_cell_length_b   8.14805595
_cell_length_c   6.17834511
_cell_angle_alpha   78.81254347
_cell_angle_beta   60.09377803
_cell_angle_gamma   41.09367850
_symmetry_Int_Tables_number   1
_chemical_formula_structural   Cs2Ni3Se4
_chemical_formula_sum   'Cs2 Ni3 Se4'
_cell_volume   250.67424301
_cell_formula_units_Z   1
loop_
 _symmetry_equiv_pos_site_id
 _symmetry_equiv_pos_as_xyz
  1  'x, y, z'
loop_
 _atom_site_type_symbol
 _atom_site_label
 _atom_site_symmetry_multiplicity
 _atom_site_fract_x
 _atom_site_fract_y
 _atom_site_fract_z
 _atom_site_occupancy
  Cs  Cs0  1  0.34435800  0.34435800  0.65564200  1
  Cs  Cs1  1  0.65564200  0.65564200  0.34435800  1
  Ni  Ni2  1  0.00000000  0.00000000  0.50000000  1
  Ni  Ni3  1  0.00000000  0.00000000  0.00000000  1
  Ni  Ni4  1  0.50000000  0.50000000  0.00000000  1
  Se  Se5  1  0.93334500  0.26810000  0.73190000  1
  Se  Se6  1  0.06665500  0.73190000  0.26810000  1
  Se  Se7  1  0.73190000  0.06665500  0.93334500  1
  Se  Se8  1  0.26810000  0.93334500  0.06665500  1
