# generated using pymatgen
data_NaSrVF6
_symmetry_space_group_name_H-M   'P 1'
_cell_length_a   5.49317500
_cell_length_b   9.50487400
_cell_length_c   10.54423900
_cell_angle_alpha   90.00000000
_cell_angle_beta   90.00000000
_cell_angle_gamma   90.00000000
_symmetry_Int_Tables_number   1
_chemical_formula_structural   NaSrVF6
_chemical_formula_sum   'Na4 Sr4 V4 F24'
_cell_volume   550.53513431
_cell_formula_units_Z   4
loop_
 _symmetry_equiv_pos_site_id
 _symmetry_equiv_pos_as_xyz
  1  'x, y, z'
loop_
 _atom_site_type_symbol
 _atom_site_label
 _atom_site_symmetry_multiplicity
 _atom_site_fract_x
 _atom_site_fract_y
 _atom_site_fract_z
 _atom_site_occupancy
  Na  Na0  1  0.04403100  0.64664500  0.08310000  1
  Na  Na1  1  0.45596900  0.35335500  0.58309900  1
  Na  Na2  1  0.95596900  0.14664500  0.41690100  1
  Na  Na3  1  0.54403100  0.85335500  0.91690100  1
  Sr  Sr4  1  0.50569300  0.31442400  0.17708000  1
  Sr  Sr5  1  0.99430700  0.68557600  0.67708000  1
  Sr  Sr6  1  0.49430700  0.81442400  0.32292000  1
  Sr  Sr7  1  0.00569300  0.18557600  0.82292000  1
  V  V8  1  0.03702600  0.00049600  0.12664400  1
  V  V9  1  0.46297400  0.99950400  0.62664400  1
  V  V10  1  0.96297400  0.50049600  0.37335600  1
  V  V11  1  0.53702600  0.49950400  0.87335600  1
  F  F12  1  0.20893800  0.14300600  0.58567700  1
  F  F13  1  0.29106200  0.85699400  0.08567700  1
  F  F14  1  0.79106200  0.64300600  0.91432300  1
  F  F15  1  0.70893800  0.35699400  0.41432300  1
  F  F16  1  0.21276000  0.62312100  0.29611200  1
  F  F17  1  0.28724000  0.37687900  0.79611200  1
  F  F18  1  0.78724000  0.12312100  0.20388800  1
  F  F19  1  0.71276000  0.87687900  0.70388800  1
  F  F20  1  0.21976700  0.16049400  0.04790400  1
  F  F21  1  0.28023300  0.83950600  0.54790400  1
  F  F22  1  0.78023300  0.66049400  0.45209600  1
  F  F23  1  0.71976700  0.33950600  0.95209600  1
  F  F24  1  0.15852300  0.33785500  0.31692300  1
  F  F25  1  0.34147700  0.66214500  0.81692300  1
  F  F26  1  0.84147700  0.83785500  0.18307700  1
  F  F27  1  0.65852300  0.16214500  0.68307700  1
  F  F28  1  0.35931800  0.50464000  0.03493500  1
  F  F29  1  0.14068200  0.49536000  0.53493500  1
  F  F30  1  0.64068200  0.00464000  0.46506500  1
  F  F31  1  0.85931800  0.99536000  0.96506500  1
  F  F32  1  0.22064700  0.02123800  0.28530000  1
  F  F33  1  0.27935300  0.97876200  0.78530000  1
  F  F34  1  0.77935300  0.52123800  0.21470000  1
  F  F35  1  0.72064700  0.47876200  0.71470000  1
