# generated using pymatgen
data_Pr3Tl5
_symmetry_space_group_name_H-M   'P 1'
_cell_length_a   6.78238335
_cell_length_b   6.78238335
_cell_length_c   10.63347400
_cell_angle_alpha   90.00000000
_cell_angle_beta   90.00000000
_cell_angle_gamma   102.78820845
_symmetry_Int_Tables_number   1
_chemical_formula_structural   Pr3Tl5
_chemical_formula_sum   'Pr6 Tl10'
_cell_volume   477.01416316
_cell_formula_units_Z   2
loop_
 _symmetry_equiv_pos_site_id
 _symmetry_equiv_pos_as_xyz
  1  'x, y, z'
loop_
 _atom_site_type_symbol
 _atom_site_label
 _atom_site_symmetry_multiplicity
 _atom_site_fract_x
 _atom_site_fract_y
 _atom_site_fract_z
 _atom_site_occupancy
  Pr  Pr0  1  0.62919000  0.62919000  0.25000000  1
  Pr  Pr1  1  0.37081000  0.37081000  0.75000000  1
  Pr  Pr2  1  0.79829800  0.20170200  0.50000000  1
  Pr  Pr3  1  0.79829800  0.20170200  0.00000000  1
  Pr  Pr4  1  0.20170200  0.79829800  0.50000000  1
  Pr  Pr5  1  0.20170200  0.79829800  0.00000000  1
  Tl  Tl6  1  0.00402500  0.00402500  0.25000000  1
  Tl  Tl7  1  0.99597500  0.99597500  0.75000000  1
  Tl  Tl8  1  0.30675700  0.30675700  0.05263200  1
  Tl  Tl9  1  0.69324300  0.69324300  0.94736800  1
  Tl  Tl10  1  0.30675700  0.30675700  0.44736800  1
  Tl  Tl11  1  0.69324300  0.69324300  0.55263200  1
  Tl  Tl12  1  0.05984000  0.50826600  0.25000000  1
  Tl  Tl13  1  0.49173400  0.94016000  0.75000000  1
  Tl  Tl14  1  0.94016000  0.49173400  0.75000000  1
  Tl  Tl15  1  0.50826600  0.05984000  0.25000000  1
