# generated using pymatgen
data_LiNbF6
_symmetry_space_group_name_H-M   'P 1'
_cell_length_a   5.54703878
_cell_length_b   5.54703878
_cell_length_c   5.54703929
_cell_angle_alpha   58.38020694
_cell_angle_beta   58.38020694
_cell_angle_gamma   58.38020592
_symmetry_Int_Tables_number   1
_chemical_formula_structural   LiNbF6
_chemical_formula_sum   'Li1 Nb1 F6'
_cell_volume   116.21423366
_cell_formula_units_Z   1
loop_
 _symmetry_equiv_pos_site_id
 _symmetry_equiv_pos_as_xyz
  1  'x, y, z'
loop_
 _atom_site_type_symbol
 _atom_site_label
 _atom_site_symmetry_multiplicity
 _atom_site_fract_x
 _atom_site_fract_y
 _atom_site_fract_z
 _atom_site_occupancy
  Li  Li0  1  0.50000000  0.50000000  0.50000000  1
  Nb  Nb1  1  0.00000000  0.00000000  0.00000000  1
  F  F2  1  0.84303100  0.67077400  0.24214500  1
  F  F3  1  0.67077400  0.24214500  0.84303100  1
  F  F4  1  0.24214500  0.84303100  0.67077400  1
  F  F5  1  0.15696900  0.32922600  0.75785500  1
  F  F6  1  0.32922600  0.75785500  0.15696900  1
  F  F7  1  0.75785500  0.15696900  0.32922600  1
