# generated using pymatgen
data_Cs3Bi2Cl9
_symmetry_space_group_name_H-M   'P 1'
_cell_length_a   7.98814568
_cell_length_b   7.98814568
_cell_length_c   9.72669000
_cell_angle_alpha   90.00000000
_cell_angle_beta   90.00000000
_cell_angle_gamma   119.99999738
_symmetry_Int_Tables_number   1
_chemical_formula_structural   Cs3Bi2Cl9
_chemical_formula_sum   'Cs3 Bi2 Cl9'
_cell_volume   537.51138970
_cell_formula_units_Z   1
loop_
 _symmetry_equiv_pos_site_id
 _symmetry_equiv_pos_as_xyz
  1  'x, y, z'
loop_
 _atom_site_type_symbol
 _atom_site_label
 _atom_site_symmetry_multiplicity
 _atom_site_fract_x
 _atom_site_fract_y
 _atom_site_fract_z
 _atom_site_occupancy
  Cs  Cs0  1  0.00000000  0.00000000  0.00000000  1
  Cs  Cs1  1  0.66666700  0.33333300  0.67237100  1
  Cs  Cs2  1  0.33333300  0.66666700  0.32762900  1
  Bi  Bi3  1  0.66666700  0.33333300  0.17544400  1
  Bi  Bi4  1  0.33333300  0.66666700  0.82455600  1
  Cl  Cl5  1  0.46795400  0.00000000  0.00000000  1
  Cl  Cl6  1  0.53204600  0.53204600  0.00000000  1
  Cl  Cl7  1  0.00000000  0.46795400  0.00000000  1
  Cl  Cl8  1  0.15025600  0.79600000  0.67687700  1
  Cl  Cl9  1  0.64574400  0.84974400  0.67687700  1
  Cl  Cl10  1  0.20400000  0.35425600  0.67687700  1
  Cl  Cl11  1  0.84974400  0.64574400  0.32312300  1
  Cl  Cl12  1  0.79600000  0.15025600  0.32312300  1
  Cl  Cl13  1  0.35425600  0.20400000  0.32312300  1
