# generated using pymatgen
data_Er2AlNi2
_symmetry_space_group_name_H-M   'P 1'
_cell_length_a   5.32479096
_cell_length_b   5.32479096
_cell_length_c   5.32479096
_cell_angle_alpha   134.41695906
_cell_angle_beta   119.66692132
_cell_angle_gamma   78.76509706
_symmetry_Int_Tables_number   1
_chemical_formula_structural   Er2AlNi2
_chemical_formula_sum   'Er2 Al1 Ni2'
_cell_volume   90.86391938
_cell_formula_units_Z   1
loop_
 _symmetry_equiv_pos_site_id
 _symmetry_equiv_pos_as_xyz
  1  'x, y, z'
loop_
 _atom_site_type_symbol
 _atom_site_label
 _atom_site_symmetry_multiplicity
 _atom_site_fract_x
 _atom_site_fract_y
 _atom_site_fract_z
 _atom_site_occupancy
  Er  Er0  1  0.70319300  0.20319300  0.50000000  1
  Er  Er1  1  0.29680700  0.79680700  0.50000000  1
  Al  Al2  1  0.00000000  0.00000000  0.00000000  1
  Ni  Ni3  1  0.27007000  0.50000000  0.77007000  1
  Ni  Ni4  1  0.72993000  0.50000000  0.22993000  1
