# generated using pymatgen
data_VH6(OF)3
_symmetry_space_group_name_H-M   'P 1'
_cell_length_a   5.05988959
_cell_length_b   5.06014586
_cell_length_c   20.23482389
_cell_angle_alpha   91.61661348
_cell_angle_beta   91.59624167
_cell_angle_gamma   91.69317437
_symmetry_Int_Tables_number   1
_chemical_formula_structural   VH6(OF)3
_chemical_formula_sum   'V4 H24 O12 F12'
_cell_volume   517.44220132
_cell_formula_units_Z   4
loop_
 _symmetry_equiv_pos_site_id
 _symmetry_equiv_pos_as_xyz
  1  'x, y, z'
loop_
 _atom_site_type_symbol
 _atom_site_label
 _atom_site_symmetry_multiplicity
 _atom_site_fract_x
 _atom_site_fract_y
 _atom_site_fract_z
 _atom_site_occupancy
  V  V0  1  0.00090300  0.00089600  0.49991400  1
  V  V1  1  0.00127900  0.00130900  0.75063200  1
  V  V2  1  0.00238700  0.00262200  0.00042600  1
  V  V3  1  0.00119100  0.00128000  0.25058900  1
  H  H4  1  0.55056100  0.77822100  0.04631500  1
  H  H5  1  0.54916900  0.77681000  0.29631200  1
  H  H6  1  0.54907100  0.77663800  0.54593500  1
  H  H7  1  0.54908800  0.77690000  0.79625800  1
  H  H8  1  0.18483200  0.54972100  0.19467100  1
  H  H9  1  0.18388000  0.54961700  0.44376200  1
  H  H10  1  0.18529600  0.55005400  0.69466300  1
  H  H11  1  0.18530500  0.55064700  0.94402200  1
  H  H12  1  0.77824800  0.55063100  0.04632800  1
  H  H13  1  0.77693500  0.54924100  0.29630300  1
  H  H14  1  0.77671800  0.54911700  0.54594200  1
  H  H15  1  0.77704600  0.54915000  0.79625600  1
  H  H16  1  0.54973800  0.18474400  0.19468300  1
  H  H17  1  0.54954200  0.18396500  0.44376700  1
  H  H18  1  0.55005600  0.18510000  0.69467200  1
  H  H19  1  0.55056400  0.18532000  0.94402100  1
  H  H20  1  0.18469600  0.77702700  0.13769100  1
  H  H21  1  0.18381700  0.77824900  0.38714000  1
  H  H22  1  0.18401600  0.77672300  0.63753000  1
  H  H23  1  0.18541100  0.77965300  0.88751800  1
  H  H24  1  0.77718800  0.18468000  0.13769200  1
  H  H25  1  0.77825300  0.18390200  0.38712700  1
  H  H26  1  0.77691600  0.18388900  0.63753500  1
  H  H27  1  0.77965000  0.18546400  0.88752100  1
  O  O28  1  0.12860000  0.73044800  0.18294600  1
  O  O29  1  0.12702600  0.73038300  0.43226800  1
  O  O30  1  0.12916800  0.73079400  0.68294500  1
  O  O31  1  0.13080300  0.73262400  0.93289100  1
  O  O32  1  0.73205200  0.73205200  0.03264100  1
  O  O33  1  0.73055300  0.73056300  0.28256200  1
  O  O34  1  0.73031600  0.73030000  0.53213800  1
  O  O35  1  0.73053700  0.73055500  0.78254900  1
  O  O36  1  0.73049700  0.12864600  0.18295200  1
  O  O37  1  0.73042100  0.12701600  0.43226900  1
  O  O38  1  0.73087500  0.12903700  0.68294800  1
  O  O39  1  0.73234600  0.13042700  0.93281700  1
  F  F40  1  0.26320500  0.87423100  0.06578900  1
  F  F41  1  0.26292100  0.87323900  0.31575600  1
  F  F42  1  0.26107400  0.87096300  0.56524300  1
  F  F43  1  0.26285200  0.87305900  0.81580400  1
  F  F44  1  0.26290000  0.26314300  0.21908000  1
  F  F45  1  0.26165100  0.26167700  0.46683600  1
  F  F46  1  0.26293500  0.26290600  0.71911500  1
  F  F47  1  0.26239800  0.26244200  0.96671600  1
  F  F48  1  0.87422000  0.26329400  0.06593800  1
  F  F49  1  0.87322000  0.26296100  0.31576500  1
  F  F50  1  0.87090900  0.26113800  0.56525500  1
  F  F51  1  0.87360500  0.26336900  0.81575300  1
