# generated using pymatgen
data_PrPtF7
_symmetry_space_group_name_H-M   'P 1'
_cell_length_a   5.70198200
_cell_length_b   9.24269400
_cell_length_c   12.37045711
_cell_angle_alpha   61.86434944
_cell_angle_beta   90.00000000
_cell_angle_gamma   90.00000000
_symmetry_Int_Tables_number   1
_chemical_formula_structural   PrPtF7
_chemical_formula_sum   'Pr4 Pt4 F28'
_cell_volume   574.90596958
_cell_formula_units_Z   4
loop_
 _symmetry_equiv_pos_site_id
 _symmetry_equiv_pos_as_xyz
  1  'x, y, z'
loop_
 _atom_site_type_symbol
 _atom_site_label
 _atom_site_symmetry_multiplicity
 _atom_site_fract_x
 _atom_site_fract_y
 _atom_site_fract_z
 _atom_site_occupancy
  Pr  Pr0  1  0.76068700  0.81100100  0.76424900  1
  Pr  Pr1  1  0.26068700  0.18899900  0.73575100  1
  Pr  Pr2  1  0.23931300  0.18899900  0.23575100  1
  Pr  Pr3  1  0.73931300  0.81100100  0.26424900  1
  Pt  Pt4  1  0.75671800  0.27327600  0.95752200  1
  Pt  Pt5  1  0.25671800  0.72672400  0.54247800  1
  Pt  Pt6  1  0.24328200  0.72672400  0.04247800  1
  Pt  Pt7  1  0.74328200  0.27327600  0.45752200  1
  F  F8  1  0.43140400  0.70732100  0.91641800  1
  F  F9  1  0.93140400  0.29267900  0.58358200  1
  F  F10  1  0.56859600  0.29267900  0.08358200  1
  F  F11  1  0.06859600  0.70732100  0.41641800  1
  F  F12  1  0.45050100  0.28183200  0.53928500  1
  F  F13  1  0.95050100  0.71816800  0.96071500  1
  F  F14  1  0.54949900  0.71816800  0.46071500  1
  F  F15  1  0.04949900  0.28183200  0.03928500  1
  F  F16  1  0.76606800  0.51429800  0.86173800  1
  F  F17  1  0.26606800  0.48570200  0.63826200  1
  F  F18  1  0.23393200  0.48570200  0.13826200  1
  F  F19  1  0.73393200  0.51429800  0.36173800  1
  F  F20  1  0.75737100  0.03206400  0.04889700  1
  F  F21  1  0.25737100  0.96793600  0.45110300  1
  F  F22  1  0.24262900  0.96793600  0.95110300  1
  F  F23  1  0.74262900  0.03206400  0.54889700  1
  F  F24  1  0.96881300  0.72824100  0.62967600  1
  F  F25  1  0.46881300  0.27175900  0.87032400  1
  F  F26  1  0.03118700  0.27175900  0.37032400  1
  F  F27  1  0.53118700  0.72824100  0.12967600  1
  F  F28  1  0.05914000  0.74153100  0.17165400  1
  F  F29  1  0.55914000  0.25846900  0.32834600  1
  F  F30  1  0.94086000  0.25846900  0.82834600  1
  F  F31  1  0.44086000  0.74153100  0.67165400  1
  F  F32  1  0.40534700  0.96666000  0.23102300  1
  F  F33  1  0.90534700  0.03334000  0.26897700  1
  F  F34  1  0.59465300  0.03334000  0.76897700  1
  F  F35  1  0.09465300  0.96666000  0.73102300  1
