# generated using pymatgen
data_YbAg(WO4)2
_symmetry_space_group_name_H-M   'P 1'
_cell_length_a   7.48824428
_cell_length_b   7.48824428
_cell_length_c   7.25567542
_cell_angle_alpha   65.12897279
_cell_angle_beta   65.12897279
_cell_angle_gamma   94.73034940
_symmetry_Int_Tables_number   1
_chemical_formula_structural   YbAg(WO4)2
_chemical_formula_sum   'Yb2 Ag2 W4 O16'
_cell_volume   317.82899026
_cell_formula_units_Z   2
loop_
 _symmetry_equiv_pos_site_id
 _symmetry_equiv_pos_as_xyz
  1  'x, y, z'
loop_
 _atom_site_type_symbol
 _atom_site_label
 _atom_site_symmetry_multiplicity
 _atom_site_fract_x
 _atom_site_fract_y
 _atom_site_fract_z
 _atom_site_occupancy
  Yb  Yb0  1  0.70521000  0.29479000  0.00000000  1
  Yb  Yb1  1  0.29479000  0.70521000  0.00000000  1
  Ag  Ag2  1  0.71044700  0.71044700  0.50975600  1
  Ag  Ag3  1  0.28955300  0.28955300  0.49024400  1
  W  W4  1  0.22254600  0.22254600  0.00729300  1
  W  W5  1  0.77745400  0.77745400  0.99270700  1
  W  W6  1  0.82971700  0.17028300  0.50000000  1
  W  W7  1  0.17028300  0.82971700  0.50000000  1
  O  O8  1  0.34828900  0.10243700  0.23272500  1
  O  O9  1  0.65171100  0.89756300  0.76727500  1
  O  O10  1  0.89756300  0.65171100  0.76727500  1
  O  O11  1  0.10243700  0.34828900  0.23272500  1
  O  O12  1  0.67366200  0.21267600  0.36378100  1
  O  O13  1  0.32633800  0.78732400  0.63621900  1
  O  O14  1  0.78732400  0.32633800  0.63621900  1
  O  O15  1  0.21267600  0.67366200  0.36378100  1
  O  O16  1  0.69449300  0.94552800  0.11039900  1
  O  O17  1  0.30550700  0.05447200  0.88960100  1
  O  O18  1  0.05447200  0.30550700  0.88960100  1
  O  O19  1  0.94552800  0.69449300  0.11039900  1
  O  O20  1  0.97661600  0.97661600  0.34009700  1
  O  O21  1  0.02338400  0.02338400  0.65990300  1
  O  O22  1  0.54497200  0.54497200  0.16765700  1
  O  O23  1  0.45502800  0.45502800  0.83234300  1
