# generated using pymatgen
data_K2ZnI4
_symmetry_space_group_name_H-M   'P 1'
_cell_length_a   7.98391366
_cell_length_b   8.34436600
_cell_length_c   9.87366080
_cell_angle_alpha   90.00000000
_cell_angle_beta   108.06380325
_cell_angle_gamma   90.00000000
_symmetry_Int_Tables_number   1
_chemical_formula_structural   K2ZnI4
_chemical_formula_sum   'K4 Zn2 I8'
_cell_volume   625.36888583
_cell_formula_units_Z   2
loop_
 _symmetry_equiv_pos_site_id
 _symmetry_equiv_pos_as_xyz
  1  'x, y, z'
loop_
 _atom_site_type_symbol
 _atom_site_label
 _atom_site_symmetry_multiplicity
 _atom_site_fract_x
 _atom_site_fract_y
 _atom_site_fract_z
 _atom_site_occupancy
  K  K0  1  0.21841400  0.25000000  0.55126000  1
  K  K1  1  0.78158600  0.75000000  0.44874000  1
  K  K2  1  0.26553500  0.25000000  0.06792400  1
  K  K3  1  0.73446500  0.75000000  0.93207600  1
  Zn  Zn4  1  0.77749500  0.25000000  0.70072600  1
  Zn  Zn5  1  0.22250500  0.75000000  0.29927400  1
  I  I6  1  0.59988200  0.25000000  0.42725900  1
  I  I7  1  0.40011800  0.75000000  0.57274100  1
  I  I8  1  0.00757600  0.99969300  0.24012300  1
  I  I9  1  0.99242400  0.00030700  0.75987700  1
  I  I10  1  0.99242400  0.49969300  0.75987700  1
  I  I11  1  0.00757600  0.50030700  0.24012300  1
  I  I12  1  0.57935100  0.25000000  0.87046100  1
  I  I13  1  0.42064900  0.75000000  0.12953900  1
