# generated using pymatgen
data_SmRh3
_symmetry_space_group_name_H-M   'P 1'
_cell_length_a   5.31777231
_cell_length_b   5.31777231
_cell_length_c   17.64035100
_cell_angle_alpha   90.00000000
_cell_angle_beta   90.00000000
_cell_angle_gamma   120.00000384
_symmetry_Int_Tables_number   1
_chemical_formula_structural   SmRh3
_chemical_formula_sum   'Sm6 Rh18'
_cell_volume   432.01349527
_cell_formula_units_Z   6
loop_
 _symmetry_equiv_pos_site_id
 _symmetry_equiv_pos_as_xyz
  1  'x, y, z'
loop_
 _atom_site_type_symbol
 _atom_site_label
 _atom_site_symmetry_multiplicity
 _atom_site_fract_x
 _atom_site_fract_y
 _atom_site_fract_z
 _atom_site_occupancy
  Sm  Sm0  1  0.33333300  0.66666700  0.95790200  1
  Sm  Sm1  1  0.66666700  0.33333300  0.04209800  1
  Sm  Sm2  1  0.66666700  0.33333300  0.45790200  1
  Sm  Sm3  1  0.33333300  0.66666700  0.54209800  1
  Sm  Sm4  1  0.33333300  0.66666700  0.75000000  1
  Sm  Sm5  1  0.66666700  0.33333300  0.25000000  1
  Rh  Rh6  1  0.16693100  0.83306900  0.37300300  1
  Rh  Rh7  1  0.16693100  0.33386200  0.37300300  1
  Rh  Rh8  1  0.66613800  0.83306900  0.37300300  1
  Rh  Rh9  1  0.83306900  0.16693100  0.62699700  1
  Rh  Rh10  1  0.83306900  0.66613800  0.62699700  1
  Rh  Rh11  1  0.33386200  0.16693100  0.62699700  1
  Rh  Rh12  1  0.83306900  0.16693100  0.87300300  1
  Rh  Rh13  1  0.83306900  0.66613800  0.87300300  1
  Rh  Rh14  1  0.33386200  0.16693100  0.87300300  1
  Rh  Rh15  1  0.16693100  0.83306900  0.12699700  1
  Rh  Rh16  1  0.16693100  0.33386200  0.12699700  1
  Rh  Rh17  1  0.66613800  0.83306900  0.12699700  1
  Rh  Rh18  1  0.33333300  0.66666700  0.25000000  1
  Rh  Rh19  1  0.66666700  0.33333300  0.75000000  1
  Rh  Rh20  1  0.00000000  0.00000000  0.25000000  1
  Rh  Rh21  1  0.00000000  0.00000000  0.75000000  1
  Rh  Rh22  1  0.00000000  0.00000000  0.50000000  1
  Rh  Rh23  1  0.00000000  0.00000000  0.00000000  1
