# generated using pymatgen
data_Gd2Nb3Ge4
_symmetry_space_group_name_H-M   'P 1'
_cell_length_a   7.04225300
_cell_length_b   7.21430800
_cell_length_c   13.62106200
_cell_angle_alpha   90.00000000
_cell_angle_beta   90.00000000
_cell_angle_gamma   90.00000000
_symmetry_Int_Tables_number   1
_chemical_formula_structural   Gd2Nb3Ge4
_chemical_formula_sum   'Gd8 Nb12 Ge16'
_cell_volume   692.01781185
_cell_formula_units_Z   4
loop_
 _symmetry_equiv_pos_site_id
 _symmetry_equiv_pos_as_xyz
  1  'x, y, z'
loop_
 _atom_site_type_symbol
 _atom_site_label
 _atom_site_symmetry_multiplicity
 _atom_site_fract_x
 _atom_site_fract_y
 _atom_site_fract_z
 _atom_site_occupancy
  Gd  Gd0  1  0.49800500  0.32723200  0.09498700  1
  Gd  Gd1  1  0.99800500  0.17276800  0.40501300  1
  Gd  Gd2  1  0.50199500  0.67276800  0.59498700  1
  Gd  Gd3  1  0.00199500  0.82723200  0.90501300  1
  Gd  Gd4  1  0.50199500  0.67276800  0.90501300  1
  Gd  Gd5  1  0.00199500  0.82723200  0.59498700  1
  Gd  Gd6  1  0.49800500  0.32723200  0.40501300  1
  Gd  Gd7  1  0.99800500  0.17276800  0.09498700  1
  Nb  Nb8  1  0.66425600  0.01272300  0.75000000  1
  Nb  Nb9  1  0.16425600  0.48727700  0.75000000  1
  Nb  Nb10  1  0.33574400  0.98727700  0.25000000  1
  Nb  Nb11  1  0.83574400  0.51272300  0.25000000  1
  Nb  Nb12  1  0.83946300  0.32827800  0.62681300  1
  Nb  Nb13  1  0.33946300  0.17172200  0.87318700  1
  Nb  Nb14  1  0.16053700  0.67172200  0.12681300  1
  Nb  Nb15  1  0.66053700  0.82827800  0.37318700  1
  Nb  Nb16  1  0.16053700  0.67172200  0.37318700  1
  Nb  Nb17  1  0.66053700  0.82827800  0.12681300  1
  Nb  Nb18  1  0.83946300  0.32827800  0.87318700  1
  Nb  Nb19  1  0.33946300  0.17172200  0.62681300  1
  Ge  Ge20  1  0.80468200  0.63440600  0.75000000  1
  Ge  Ge21  1  0.30468200  0.86559400  0.75000000  1
  Ge  Ge22  1  0.19531800  0.36559400  0.25000000  1
  Ge  Ge23  1  0.69531800  0.13440600  0.25000000  1
  Ge  Ge24  1  0.53913600  0.37624500  0.75000000  1
  Ge  Ge25  1  0.03913600  0.12375500  0.75000000  1
  Ge  Ge26  1  0.46086400  0.62375500  0.25000000  1
  Ge  Ge27  1  0.96086400  0.87624500  0.25000000  1
  Ge  Ge28  1  0.67173800  0.03965800  0.54227200  1
  Ge  Ge29  1  0.17173800  0.46034200  0.95772800  1
  Ge  Ge30  1  0.32826200  0.96034200  0.04227200  1
  Ge  Ge31  1  0.82826200  0.53965800  0.45772800  1
  Ge  Ge32  1  0.32826200  0.96034200  0.45772800  1
  Ge  Ge33  1  0.82826200  0.53965800  0.04227200  1
  Ge  Ge34  1  0.67173800  0.03965800  0.95772800  1
  Ge  Ge35  1  0.17173800  0.46034200  0.54227200  1
