# generated using pymatgen
data_Ca(BeN)2
_symmetry_space_group_name_H-M   'P 1'
_cell_length_a   5.23375155
_cell_length_b   5.23375155
_cell_length_c   5.23375155
_cell_angle_alpha   115.86207518
_cell_angle_beta   115.86207518
_cell_angle_gamma   97.33020373
_symmetry_Int_Tables_number   1
_chemical_formula_structural   Ca(BeN)2
_chemical_formula_sum   'Ca2 Be4 N4'
_cell_volume   106.76662106
_cell_formula_units_Z   2
loop_
 _symmetry_equiv_pos_site_id
 _symmetry_equiv_pos_as_xyz
  1  'x, y, z'
loop_
 _atom_site_type_symbol
 _atom_site_label
 _atom_site_symmetry_multiplicity
 _atom_site_fract_x
 _atom_site_fract_y
 _atom_site_fract_z
 _atom_site_occupancy
  Ca  Ca0  1  0.75000000  0.75000000  0.00000000  1
  Ca  Ca1  1  0.25000000  0.25000000  0.00000000  1
  Be  Be2  1  0.12626700  0.62626700  0.75253400  1
  Be  Be3  1  0.62626700  0.87373300  0.50000000  1
  Be  Be4  1  0.87373300  0.37373300  0.24746600  1
  Be  Be5  1  0.37373300  0.12626700  0.50000000  1
  N  N6  1  0.16942000  0.33058000  0.50000000  1
  N  N7  1  0.66942000  0.16942000  0.83884100  1
  N  N8  1  0.33058000  0.83058000  0.16115900  1
  N  N9  1  0.83058000  0.66942000  0.50000000  1
