# generated using pymatgen
data_MoO3
_symmetry_space_group_name_H-M   'P 1'
_cell_length_a   7.79575400
_cell_length_b   7.43680900
_cell_length_c   10.90640666
_cell_angle_alpha   47.24544249
_cell_angle_beta   90.00000000
_cell_angle_gamma   90.00000000
_symmetry_Int_Tables_number   1
_chemical_formula_structural   MoO3
_chemical_formula_sum   'Mo8 O24'
_cell_volume   464.28146469
_cell_formula_units_Z   8
loop_
 _symmetry_equiv_pos_site_id
 _symmetry_equiv_pos_as_xyz
  1  'x, y, z'
loop_
 _atom_site_type_symbol
 _atom_site_label
 _atom_site_symmetry_multiplicity
 _atom_site_fract_x
 _atom_site_fract_y
 _atom_site_fract_z
 _atom_site_occupancy
  Mo  Mo0  1  0.46466300  0.53481900  0.71593700  1
  Mo  Mo1  1  0.96466300  0.46518100  0.78406300  1
  Mo  Mo2  1  0.53533700  0.46518100  0.28406300  1
  Mo  Mo3  1  0.03533700  0.53481900  0.21593700  1
  Mo  Mo4  1  0.46702400  0.03481700  0.21460700  1
  Mo  Mo5  1  0.96702400  0.96518300  0.28539300  1
  Mo  Mo6  1  0.53297600  0.96518300  0.78539300  1
  Mo  Mo7  1  0.03297600  0.03481700  0.71460700  1
  O  O8  1  0.99439000  0.72340100  0.50212400  1
  O  O9  1  0.49439000  0.27659900  0.99787600  1
  O  O10  1  0.00561000  0.27659900  0.49787600  1
  O  O11  1  0.50561000  0.72340100  0.00212400  1
  O  O12  1  0.47556500  0.72776100  0.49779500  1
  O  O13  1  0.97556500  0.27223900  0.00220500  1
  O  O14  1  0.52443500  0.27223900  0.50220500  1
  O  O15  1  0.02443500  0.72776100  0.99779500  1
  O  O16  1  0.02761300  0.22850100  0.77240500  1
  O  O17  1  0.52761300  0.77149900  0.72759500  1
  O  O18  1  0.97238700  0.77149900  0.22759500  1
  O  O19  1  0.47238700  0.22850100  0.27240500  1
  O  O20  1  0.47214000  0.22773900  0.77138800  1
  O  O21  1  0.97214000  0.77226100  0.72861200  1
  O  O22  1  0.52786000  0.77226100  0.22861200  1
  O  O23  1  0.02786000  0.22773900  0.27138800  1
  O  O24  1  0.25864100  0.98871500  0.73309600  1
  O  O25  1  0.75864100  0.01128500  0.76690400  1
  O  O26  1  0.74135900  0.01128500  0.26690400  1
  O  O27  1  0.24135900  0.98871500  0.23309600  1
  O  O28  1  0.25893500  0.52895000  0.25098900  1
  O  O29  1  0.75893500  0.47105000  0.24901100  1
  O  O30  1  0.74106500  0.47105000  0.74901100  1
  O  O31  1  0.24106500  0.52895000  0.75098900  1
