# generated using pymatgen
data_Sr3Al3N5
_symmetry_space_group_name_H-M   'P 1'
_cell_length_a   5.78263100
_cell_length_b   7.29575309
_cell_length_c   8.63672429
_cell_angle_alpha   108.88641458
_cell_angle_beta   102.66045870
_cell_angle_gamma   96.09638724
_symmetry_Int_Tables_number   1
_chemical_formula_structural   Sr3Al3N5
_chemical_formula_sum   'Sr6 Al6 N10'
_cell_volume   330.12126816
_cell_formula_units_Z   2
loop_
 _symmetry_equiv_pos_site_id
 _symmetry_equiv_pos_as_xyz
  1  'x, y, z'
loop_
 _atom_site_type_symbol
 _atom_site_label
 _atom_site_symmetry_multiplicity
 _atom_site_fract_x
 _atom_site_fract_y
 _atom_site_fract_z
 _atom_site_occupancy
  Sr  Sr0  1  0.81167000  0.42282400  0.60829800  1
  Sr  Sr1  1  0.18833000  0.57717600  0.39170200  1
  Sr  Sr2  1  0.66854800  0.85873300  0.87809600  1
  Sr  Sr3  1  0.33145200  0.14126700  0.12190400  1
  Sr  Sr4  1  0.66285800  0.65641600  0.20813500  1
  Sr  Sr5  1  0.33714200  0.34358400  0.79186500  1
  Al  Al6  1  0.91069800  0.31761900  0.97354500  1
  Al  Al7  1  0.08930200  0.68238100  0.02645500  1
  Al  Al8  1  0.70144600  0.96145900  0.57529100  1
  Al  Al9  1  0.29855400  0.03854100  0.42470900  1
  Al  Al10  1  0.11140600  0.88544400  0.70913700  1
  Al  Al11  1  0.88859400  0.11455600  0.29086300  1
  N  N12  1  0.94866100  0.10832100  0.78122600  1
  N  N13  1  0.05133900  0.89167900  0.21877400  1
  N  N14  1  0.82664600  0.72470100  0.53112300  1
  N  N15  1  0.17335400  0.27529900  0.46887700  1
  N  N16  1  0.77035800  0.51968600  0.91100100  1
  N  N17  1  0.22964200  0.48031400  0.08899900  1
  N  N18  1  0.37712800  0.94787500  0.61308000  1
  N  N19  1  0.62287200  0.05212500  0.38692000  1
  N  N20  1  0.22006700  0.78160100  0.87984800  1
  N  N21  1  0.77993300  0.21839900  0.12015200  1
