# generated using pymatgen
data_Ba3Ta4Ti4O21
_symmetry_space_group_name_H-M   'P 1'
_cell_length_a   9.12876766
_cell_length_b   9.12876766
_cell_length_c   11.92856119
_cell_angle_alpha   89.96993129
_cell_angle_beta   89.96993129
_cell_angle_gamma   60.20478820
_symmetry_Int_Tables_number   1
_chemical_formula_structural   Ba3Ta4Ti4O21
_chemical_formula_sum   'Ba6 Ta8 Ti8 O42'
_cell_volume   862.65159639
_cell_formula_units_Z   2
loop_
 _symmetry_equiv_pos_site_id
 _symmetry_equiv_pos_as_xyz
  1  'x, y, z'
loop_
 _atom_site_type_symbol
 _atom_site_label
 _atom_site_symmetry_multiplicity
 _atom_site_fract_x
 _atom_site_fract_y
 _atom_site_fract_z
 _atom_site_occupancy
  Ba  Ba0  1  0.59472800  0.00248700  0.25028600  1
  Ba  Ba1  1  0.99751300  0.40527200  0.24971400  1
  Ba  Ba2  1  0.40866000  0.59134000  0.25000000  1
  Ba  Ba3  1  0.40527200  0.99751300  0.74971400  1
  Ba  Ba4  1  0.00248700  0.59472800  0.75028600  1
  Ba  Ba5  1  0.59134000  0.40866000  0.75000000  1
  Ta  Ta6  1  0.66900900  0.66185500  0.50010900  1
  Ta  Ta7  1  0.33099100  0.33814500  0.49989100  1
  Ta  Ta8  1  0.33814500  0.33099100  0.99989100  1
  Ta  Ta9  1  0.66185500  0.66900900  0.00010900  1
  Ta  Ta10  1  0.23920200  0.99861400  0.40702900  1
  Ta  Ta11  1  0.76079800  0.00138600  0.59297100  1
  Ta  Ta12  1  0.99861400  0.23920200  0.90702900  1
  Ta  Ta13  1  0.00138600  0.76079800  0.09297100  1
  Ti  Ti14  1  0.00099100  0.75304000  0.40671000  1
  Ti  Ti15  1  0.75431100  0.24549200  0.40338400  1
  Ti  Ti16  1  0.99900900  0.24696000  0.59329000  1
  Ti  Ti17  1  0.24568900  0.75450800  0.59661600  1
  Ti  Ti18  1  0.75304000  0.00099100  0.90671000  1
  Ti  Ti19  1  0.24549200  0.75431100  0.90338400  1
  Ti  Ti20  1  0.24696000  0.99900900  0.09329000  1
  Ti  Ti21  1  0.75450800  0.24568900  0.09661600  1
  O  O22  1  0.20322100  0.00040500  0.24792900  1
  O  O23  1  0.99959500  0.79677900  0.25207100  1
  O  O24  1  0.79234100  0.20765900  0.25000000  1
  O  O25  1  0.79677900  0.99959500  0.75207100  1
  O  O26  1  0.00040500  0.20322100  0.74792900  1
  O  O27  1  0.20765900  0.79234100  0.75000000  1
  O  O28  1  0.79740100  0.00018600  0.42554000  1
  O  O29  1  0.00011900  0.20247600  0.42628600  1
  O  O30  1  0.20283500  0.79690600  0.42624100  1
  O  O31  1  0.20259900  0.99981400  0.57446000  1
  O  O32  1  0.99988100  0.79752400  0.57371400  1
  O  O33  1  0.79716500  0.20309400  0.57375900  1
  O  O34  1  0.20247600  0.00011900  0.92628600  1
  O  O35  1  0.00018600  0.79740100  0.92554000  1
  O  O36  1  0.79690600  0.20283500  0.92624100  1
  O  O37  1  0.79752400  0.99988100  0.07371400  1
  O  O38  1  0.99981400  0.20259900  0.07446000  1
  O  O39  1  0.20309400  0.79716500  0.07375900  1
  O  O40  1  0.68835000  0.48069500  0.39932400  1
  O  O41  1  0.48234600  0.83099600  0.39943900  1
  O  O42  1  0.83229500  0.68794300  0.40183700  1
  O  O43  1  0.16868700  0.51922400  0.39949900  1
  O  O44  1  0.31323300  0.16897700  0.39955000  1
  O  O45  1  0.52008100  0.31178600  0.40143600  1
  O  O46  1  0.31165000  0.51930500  0.60067600  1
  O  O47  1  0.51765400  0.16900400  0.60056100  1
  O  O48  1  0.16770500  0.31205700  0.59816300  1
  O  O49  1  0.83131300  0.48077600  0.60050100  1
  O  O50  1  0.68676700  0.83102300  0.60045000  1
  O  O51  1  0.47991900  0.68821400  0.59856400  1
  O  O52  1  0.31178600  0.52008100  0.90143600  1
  O  O53  1  0.51922400  0.16868700  0.89949900  1
  O  O54  1  0.16897700  0.31323300  0.89955000  1
  O  O55  1  0.83099600  0.48234600  0.89943900  1
  O  O56  1  0.68794300  0.83229500  0.90183700  1
  O  O57  1  0.48069500  0.68835000  0.89932400  1
  O  O58  1  0.68821400  0.47991900  0.09856400  1
  O  O59  1  0.48077600  0.83131300  0.10050100  1
  O  O60  1  0.83102300  0.68676700  0.10045000  1
  O  O61  1  0.16900400  0.51765400  0.10056100  1
  O  O62  1  0.31205700  0.16770500  0.09816300  1
  O  O63  1  0.51930500  0.31165000  0.10067600  1
