# generated using pymatgen
data_Y3GaS6
_symmetry_space_group_name_H-M   'P 1'
_cell_length_a   8.56234141
_cell_length_b   8.56234141
_cell_length_c   6.49132800
_cell_angle_alpha   90.00000000
_cell_angle_beta   90.00000000
_cell_angle_gamma   102.39601184
_symmetry_Int_Tables_number   1
_chemical_formula_structural   Y3GaS6
_chemical_formula_sum   'Y6 Ga2 S12'
_cell_volume   464.80858608
_cell_formula_units_Z   2
loop_
 _symmetry_equiv_pos_site_id
 _symmetry_equiv_pos_as_xyz
  1  'x, y, z'
loop_
 _atom_site_type_symbol
 _atom_site_label
 _atom_site_symmetry_multiplicity
 _atom_site_fract_x
 _atom_site_fract_y
 _atom_site_fract_z
 _atom_site_occupancy
  Y  Y0  1  0.28419300  0.08528500  0.22434100  1
  Y  Y1  1  0.91471500  0.71580700  0.22434100  1
  Y  Y2  1  0.71580700  0.91471500  0.72434100  1
  Y  Y3  1  0.08528500  0.28419300  0.72434100  1
  Y  Y4  1  0.40088100  0.59911900  0.14113700  1
  Y  Y5  1  0.59911900  0.40088100  0.64113700  1
  Ga  Ga6  1  0.20136000  0.79864000  0.76149500  1
  Ga  Ga7  1  0.79864000  0.20136000  0.26149500  1
  S  S8  1  0.56774800  0.10113000  0.44102000  1
  S  S9  1  0.89887000  0.43225200  0.44102000  1
  S  S10  1  0.43225200  0.89887000  0.94102000  1
  S  S11  1  0.10113000  0.56774800  0.94102000  1
  S  S12  1  0.63414000  0.68981100  0.43347500  1
  S  S13  1  0.31018900  0.36586000  0.43347500  1
  S  S14  1  0.36586000  0.31018900  0.93347500  1
  S  S15  1  0.68981100  0.63414000  0.93347500  1
  S  S16  1  0.21770200  0.78229800  0.41035100  1
  S  S17  1  0.78229800  0.21770200  0.91035100  1
  S  S18  1  0.95966200  0.04033800  0.40434600  1
  S  S19  1  0.04033800  0.95966200  0.90434600  1
