# generated using pymatgen
data_Mg149I
_symmetry_space_group_name_H-M   'P 1'
_cell_length_a   15.91889525
_cell_length_b   15.91890188
_cell_length_c   15.60103375
_cell_angle_alpha   90.00000000
_cell_angle_beta   90.00000000
_cell_angle_gamma   120.00001147
_symmetry_Int_Tables_number   1
_chemical_formula_structural   Mg149I
_chemical_formula_sum   'Mg149 I1'
_cell_volume   3423.81262192
_cell_formula_units_Z   1
loop_
 _symmetry_equiv_pos_site_id
 _symmetry_equiv_pos_as_xyz
  1  'x, y, z'
loop_
 _atom_site_type_symbol
 _atom_site_label
 _atom_site_symmetry_multiplicity
 _atom_site_fract_x
 _atom_site_fract_y
 _atom_site_fract_z
 _atom_site_occupancy
  Mg  Mg0  1  0.20705065  0.00115014  0.00000000  1
  Mg  Mg1  1  0.79410049  0.00115114  0.00000000  1
  Mg  Mg2  1  0.79929720  0.20070280  0.00000000  1
  Mg  Mg3  1  0.40140560  0.20070280  0.00000000  1
  Mg  Mg4  1  0.60050059  0.20100219  0.00000000  1
  Mg  Mg5  1  0.99884986  0.20589951  0.00000000  1
  Mg  Mg6  1  0.20705065  0.20589951  0.00000000  1
  Mg  Mg7  1  0.60050059  0.39949841  0.00000000  1
  Mg  Mg8  1  0.79899781  0.39949841  0.00000000  1
  Mg  Mg9  1  0.20016001  0.40032001  0.00000000  1
  Mg  Mg10  1  0.00048446  0.40226103  0.00000000  1
  Mg  Mg11  1  0.40177657  0.40226103  0.00000000  1
  Mg  Mg12  1  0.59773797  0.59822343  0.00000000  1
  Mg  Mg13  1  0.00048446  0.59822343  0.00000000  1
  Mg  Mg14  1  0.79929720  0.59859540  0.00000000  1
  Mg  Mg15  1  0.39948683  0.60051317  0.00000000  1
  Mg  Mg16  1  0.20102634  0.60051317  0.00000000  1
  Mg  Mg17  1  0.79410049  0.79294935  0.00000000  1
  Mg  Mg18  1  0.99884986  0.79294935  0.00000000  1
  Mg  Mg19  1  0.39948683  0.79897366  0.00000000  1
  Mg  Mg20  1  0.20016001  0.79983999  0.00000000  1
  Mg  Mg21  1  0.59967999  0.79983999  0.00000000  1
  Mg  Mg22  1  0.40177657  0.99951554  0.00000000  1
  Mg  Mg23  1  0.59773797  0.99951554  0.00000000  1
  Mg  Mg24  1  0.66666700  0.33333300  0.16610847  1
  Mg  Mg25  1  0.66684993  0.13332957  0.16623195  1
  Mg  Mg26  1  0.46648064  0.13333057  0.16623195  1
  Mg  Mg27  1  0.86667043  0.33315007  0.16623195  1
  Mg  Mg28  1  0.46648064  0.33315007  0.16623195  1
  Mg  Mg29  1  0.66684993  0.53352036  0.16623195  1
  Mg  Mg30  1  0.86667043  0.53352036  0.16623195  1
  Mg  Mg31  1  0.26669068  0.53338035  0.16647301  1
  Mg  Mg32  1  0.46661865  0.73330932  0.16647301  1
  Mg  Mg33  1  0.26669068  0.73330932  0.16647301  1
  Mg  Mg34  1  0.26713472  0.33374572  0.16676600  1
  Mg  Mg35  1  0.06661000  0.33374572  0.16676600  1
  Mg  Mg36  1  0.66625428  0.73286528  0.16676600  1
  Mg  Mg37  1  0.06661000  0.73286528  0.16676600  1
  Mg  Mg38  1  0.26713472  0.93339000  0.16676600  1
  Mg  Mg39  1  0.66625428  0.93339000  0.16676600  1
  Mg  Mg40  1  0.26600579  0.13300340  0.16704268  1
  Mg  Mg41  1  0.86699760  0.13300340  0.16704268  1
  Mg  Mg42  1  0.86699760  0.73399421  0.16704268  1
  Mg  Mg43  1  0.06705899  0.53352950  0.16695280  1
  Mg  Mg44  1  0.46647050  0.53352950  0.16695280  1
  Mg  Mg45  1  0.46647050  0.93294101  0.16695280  1
  Mg  Mg46  1  0.06831494  0.13662988  0.17244228  1
  Mg  Mg47  1  0.06831494  0.93168506  0.17244228  1
  Mg  Mg48  1  0.86336912  0.93168506  0.17244228  1
  Mg  Mg49  1  0.79996093  0.20003907  0.33277269  1
  Mg  Mg50  1  0.40007913  0.20003907  0.33277269  1
  Mg  Mg51  1  0.79996093  0.59992187  0.33277269  1
  Mg  Mg52  1  0.00000000  0.00000000  0.33289728  1
  Mg  Mg53  1  0.19984514  0.39969028  0.33284066  1
  Mg  Mg54  1  0.19984514  0.80015386  0.33284066  1
  Mg  Mg55  1  0.60030872  0.80015486  0.33284066  1
  Mg  Mg56  1  0.60020119  0.20040338  0.33289770  1
  Mg  Mg57  1  0.60020119  0.39979781  0.33289770  1
  Mg  Mg58  1  0.79959662  0.39979781  0.33289770  1
  Mg  Mg59  1  0.39987557  0.60012443  0.33312666  1
  Mg  Mg60  1  0.20024886  0.60012443  0.33312666  1
  Mg  Mg61  1  0.39987557  0.79975114  0.33312666  1
  Mg  Mg62  1  0.40032389  0.00004142  0.33357138  1
  Mg  Mg63  1  0.59971753  0.00004142  0.33357138  1
  Mg  Mg64  1  0.40032389  0.40028247  0.33357138  1
  Mg  Mg65  1  0.99995858  0.40028247  0.33357138  1
  Mg  Mg66  1  0.59971753  0.59967611  0.33357138  1
  Mg  Mg67  1  0.99995858  0.59967611  0.33357138  1
  Mg  Mg68  1  0.79932748  0.00028973  0.33505048  1
  Mg  Mg69  1  0.20096224  0.00028973  0.33505048  1
  Mg  Mg70  1  0.99971027  0.20067152  0.33505048  1
  Mg  Mg71  1  0.20096224  0.20067252  0.33505048  1
  Mg  Mg72  1  0.99971027  0.79903776  0.33505048  1
  Mg  Mg73  1  0.79932748  0.79903776  0.33505048  1
  Mg  Mg74  1  0.06656398  0.13312796  0.50000000  1
  Mg  Mg75  1  0.46663574  0.13334765  0.50000000  1
  Mg  Mg76  1  0.66671191  0.13334765  0.50000000  1
  Mg  Mg77  1  0.86634732  0.13365268  0.50000000  1
  Mg  Mg78  1  0.26730435  0.13365268  0.50000000  1
  Mg  Mg79  1  0.86665235  0.33328909  0.50000000  1
  Mg  Mg80  1  0.46663574  0.33328909  0.50000000  1
  Mg  Mg81  1  0.66666700  0.33333300  0.50000000  1
  Mg  Mg82  1  0.26669988  0.33390630  0.50000000  1
  Mg  Mg83  1  0.06720642  0.33390630  0.50000000  1
  Mg  Mg84  1  0.86665235  0.53336426  0.50000000  1
  Mg  Mg85  1  0.66671191  0.53336426  0.50000000  1
  Mg  Mg86  1  0.06675807  0.53337854  0.50000000  1
  Mg  Mg87  1  0.46662146  0.53337854  0.50000000  1
  Mg  Mg88  1  0.26674599  0.53349298  0.50000000  1
  Mg  Mg89  1  0.86634732  0.73269465  0.50000000  1
  Mg  Mg90  1  0.66609370  0.73330012  0.50000000  1
  Mg  Mg91  1  0.06720642  0.73330012  0.50000000  1
  Mg  Mg92  1  0.46650702  0.73325401  0.50000000  1
  Mg  Mg93  1  0.26674599  0.73325401  0.50000000  1
  Mg  Mg94  1  0.66609370  0.93279358  0.50000000  1
  Mg  Mg95  1  0.26669988  0.93279358  0.50000000  1
  Mg  Mg96  1  0.46662146  0.93324193  0.50000000  1
  Mg  Mg97  1  0.86687204  0.93343602  0.50000000  1
  Mg  Mg98  1  0.06656398  0.93343602  0.50000000  1
  Mg  Mg99  1  0.79932748  0.00028973  0.66494952  1
  Mg  Mg100  1  0.20096224  0.00028973  0.66494952  1
  Mg  Mg101  1  0.99971027  0.20067152  0.66494952  1
  Mg  Mg102  1  0.20096224  0.20067252  0.66494952  1
  Mg  Mg103  1  0.99971027  0.79903776  0.66494952  1
  Mg  Mg104  1  0.79932748  0.79903776  0.66494952  1
  Mg  Mg105  1  0.40032389  0.00004142  0.66642862  1
  Mg  Mg106  1  0.59971753  0.00004142  0.66642862  1
  Mg  Mg107  1  0.40032389  0.40028247  0.66642862  1
  Mg  Mg108  1  0.99995858  0.40028247  0.66642862  1
  Mg  Mg109  1  0.59971753  0.59967611  0.66642862  1
  Mg  Mg110  1  0.99995858  0.59967611  0.66642862  1
  Mg  Mg111  1  0.39987557  0.60012443  0.66687234  1
  Mg  Mg112  1  0.20024886  0.60012443  0.66687234  1
  Mg  Mg113  1  0.39987557  0.79975114  0.66687234  1
  Mg  Mg114  1  0.60020119  0.20040338  0.66710230  1
  Mg  Mg115  1  0.60020119  0.39979781  0.66710230  1
  Mg  Mg116  1  0.79959662  0.39979781  0.66710230  1
  Mg  Mg117  1  0.19984514  0.39969028  0.66715934  1
  Mg  Mg118  1  0.19984514  0.80015386  0.66715934  1
  Mg  Mg119  1  0.60030872  0.80015486  0.66715934  1
  Mg  Mg120  1  0.00000000  0.00000000  0.66710272  1
  Mg  Mg121  1  0.79996093  0.20003907  0.66722631  1
  Mg  Mg122  1  0.40007913  0.20003907  0.66722631  1
  Mg  Mg123  1  0.79996093  0.59992187  0.66722631  1
  Mg  Mg124  1  0.06831494  0.13662988  0.82755772  1
  Mg  Mg125  1  0.06831494  0.93168506  0.82755772  1
  Mg  Mg126  1  0.86336912  0.93168506  0.82755772  1
  Mg  Mg127  1  0.06705899  0.53352950  0.83304620  1
  Mg  Mg128  1  0.46647050  0.53352950  0.83304620  1
  Mg  Mg129  1  0.46647050  0.93294101  0.83304620  1
  Mg  Mg130  1  0.26600579  0.13300340  0.83295732  1
  Mg  Mg131  1  0.86699760  0.13300340  0.83295732  1
  Mg  Mg132  1  0.86699760  0.73399421  0.83295732  1
  Mg  Mg133  1  0.26713472  0.33374572  0.83323400  1
  Mg  Mg134  1  0.06661000  0.33374572  0.83323400  1
  Mg  Mg135  1  0.66625428  0.73286528  0.83323400  1
  Mg  Mg136  1  0.06661000  0.73286528  0.83323400  1
  Mg  Mg137  1  0.26713472  0.93339000  0.83323400  1
  Mg  Mg138  1  0.66625428  0.93339000  0.83323400  1
  Mg  Mg139  1  0.26669068  0.53338035  0.83352699  1
  Mg  Mg140  1  0.46661865  0.73330932  0.83352699  1
  Mg  Mg141  1  0.26669068  0.73330932  0.83352699  1
  Mg  Mg142  1  0.66684993  0.13332957  0.83376805  1
  Mg  Mg143  1  0.46648064  0.13333057  0.83376805  1
  Mg  Mg144  1  0.86667043  0.33315007  0.83376805  1
  Mg  Mg145  1  0.46648064  0.33315007  0.83376805  1
  Mg  Mg146  1  0.66684993  0.53352036  0.83376805  1
  Mg  Mg147  1  0.86667043  0.53352036  0.83376805  1
  Mg  Mg148  1  0.66666700  0.33333300  0.83389153  1
  I  I149  1  0.00000000  0.00000000  0.00000000  1
