# generated using pymatgen
data_Rb2NdCl5
_symmetry_space_group_name_H-M   'P 1'
_cell_length_a   8.36068600
_cell_length_b   8.92034200
_cell_length_c   13.62581600
_cell_angle_alpha   90.00000000
_cell_angle_beta   90.00000000
_cell_angle_gamma   90.00000000
_symmetry_Int_Tables_number   1
_chemical_formula_structural   Rb2NdCl5
_chemical_formula_sum   'Rb8 Nd4 Cl20'
_cell_volume   1016.21578914
_cell_formula_units_Z   4
loop_
 _symmetry_equiv_pos_site_id
 _symmetry_equiv_pos_as_xyz
  1  'x, y, z'
loop_
 _atom_site_type_symbol
 _atom_site_label
 _atom_site_symmetry_multiplicity
 _atom_site_fract_x
 _atom_site_fract_y
 _atom_site_fract_z
 _atom_site_occupancy
  Rb  Rb0  1  0.53429200  0.49986700  0.82579100  1
  Rb  Rb1  1  0.46570800  0.50013300  0.17420900  1
  Rb  Rb2  1  0.03429200  0.50013300  0.67420900  1
  Rb  Rb3  1  0.46570800  0.99986700  0.17420900  1
  Rb  Rb4  1  0.96570800  0.49986700  0.32579100  1
  Rb  Rb5  1  0.53429200  0.00013300  0.82579100  1
  Rb  Rb6  1  0.96570800  0.00013300  0.32579100  1
  Rb  Rb7  1  0.03429200  0.99986700  0.67420900  1
  Nd  Nd8  1  0.57103600  0.75000000  0.50290800  1
  Nd  Nd9  1  0.42896400  0.25000000  0.49709200  1
  Nd  Nd10  1  0.07103600  0.25000000  0.99709200  1
  Nd  Nd11  1  0.92896400  0.75000000  0.00290800  1
  Cl  Cl12  1  0.83282400  0.75000000  0.80583500  1
  Cl  Cl13  1  0.16717600  0.25000000  0.19416500  1
  Cl  Cl14  1  0.33282400  0.25000000  0.69416500  1
  Cl  Cl15  1  0.66717600  0.75000000  0.30583500  1
  Cl  Cl16  1  0.36575600  0.75000000  0.66327300  1
  Cl  Cl17  1  0.63424400  0.25000000  0.33672700  1
  Cl  Cl18  1  0.86575600  0.25000000  0.83672700  1
  Cl  Cl19  1  0.13424400  0.75000000  0.16327300  1
  Cl  Cl20  1  0.90587700  0.75000000  0.51235500  1
  Cl  Cl21  1  0.09412300  0.25000000  0.48764500  1
  Cl  Cl22  1  0.40587700  0.25000000  0.98764500  1
  Cl  Cl23  1  0.59412300  0.75000000  0.01235500  1
  Cl  Cl24  1  0.65158200  0.03915800  0.57981200  1
  Cl  Cl25  1  0.34841800  0.96084200  0.42018800  1
  Cl  Cl26  1  0.15158200  0.96084200  0.92018800  1
  Cl  Cl27  1  0.34841800  0.53915800  0.42018800  1
  Cl  Cl28  1  0.84841800  0.03915800  0.07981200  1
  Cl  Cl29  1  0.65158200  0.46084200  0.57981200  1
  Cl  Cl30  1  0.84841800  0.46084200  0.07981200  1
  Cl  Cl31  1  0.15158200  0.53915800  0.92018800  1
