# generated using pymatgen
data_PrAg2
_symmetry_space_group_name_H-M   'P 1'
_cell_length_a   6.00265965
_cell_length_b   6.00265965
_cell_length_c   6.00265965
_cell_angle_alpha   132.40386126
_cell_angle_beta   104.66548373
_cell_angle_gamma   94.15602070
_symmetry_Int_Tables_number   1
_chemical_formula_structural   PrAg2
_chemical_formula_sum   'Pr2 Ag4'
_cell_volume   145.27570464
_cell_formula_units_Z   2
loop_
 _symmetry_equiv_pos_site_id
 _symmetry_equiv_pos_as_xyz
  1  'x, y, z'
loop_
 _atom_site_type_symbol
 _atom_site_label
 _atom_site_symmetry_multiplicity
 _atom_site_fract_x
 _atom_site_fract_y
 _atom_site_fract_z
 _atom_site_occupancy
  Pr  Pr0  1  0.21082900  0.46082900  0.75000000  1
  Pr  Pr1  1  0.78917100  0.53917100  0.25000000  1
  Ag  Ag2  1  0.38055500  0.83497900  0.54557600  1
  Ag  Ag3  1  0.61944500  0.16502100  0.45442400  1
  Ag  Ag4  1  0.21059700  0.16502100  0.04557600  1
  Ag  Ag5  1  0.78940300  0.83497900  0.95442400  1
