# generated using pymatgen
data_Ho2Nb3Ge4
_symmetry_space_group_name_H-M   'P 1'
_cell_length_a   7.00073200
_cell_length_b   7.17337700
_cell_length_c   13.58614800
_cell_angle_alpha   90.00000000
_cell_angle_beta   90.00000000
_cell_angle_gamma   90.00000000
_symmetry_Int_Tables_number   1
_chemical_formula_structural   Ho2Nb3Ge4
_chemical_formula_sum   'Ho8 Nb12 Ge16'
_cell_volume   682.28127074
_cell_formula_units_Z   4
loop_
 _symmetry_equiv_pos_site_id
 _symmetry_equiv_pos_as_xyz
  1  'x, y, z'
loop_
 _atom_site_type_symbol
 _atom_site_label
 _atom_site_symmetry_multiplicity
 _atom_site_fract_x
 _atom_site_fract_y
 _atom_site_fract_z
 _atom_site_occupancy
  Ho  Ho0  1  0.49662300  0.32593300  0.09459300  1
  Ho  Ho1  1  0.99662300  0.17406700  0.40540700  1
  Ho  Ho2  1  0.50337700  0.67406700  0.59459300  1
  Ho  Ho3  1  0.00337700  0.82593300  0.90540700  1
  Ho  Ho4  1  0.50337700  0.67406700  0.90540700  1
  Ho  Ho5  1  0.00337700  0.82593300  0.59459300  1
  Ho  Ho6  1  0.49662300  0.32593300  0.40540700  1
  Ho  Ho7  1  0.99662300  0.17406700  0.09459300  1
  Nb  Nb8  1  0.66439900  0.01237200  0.75000000  1
  Nb  Nb9  1  0.16439900  0.48762800  0.75000000  1
  Nb  Nb10  1  0.33560100  0.98762800  0.25000000  1
  Nb  Nb11  1  0.83560100  0.51237200  0.25000000  1
  Nb  Nb12  1  0.84022400  0.32897600  0.62641600  1
  Nb  Nb13  1  0.34022400  0.17102400  0.87358400  1
  Nb  Nb14  1  0.15977600  0.67102400  0.12641600  1
  Nb  Nb15  1  0.65977600  0.82897600  0.37358400  1
  Nb  Nb16  1  0.15977600  0.67102400  0.37358400  1
  Nb  Nb17  1  0.65977600  0.82897600  0.12641600  1
  Nb  Nb18  1  0.84022400  0.32897600  0.87358400  1
  Nb  Nb19  1  0.34022400  0.17102400  0.62641600  1
  Ge  Ge20  1  0.80471100  0.63914000  0.75000000  1
  Ge  Ge21  1  0.30471100  0.86086000  0.75000000  1
  Ge  Ge22  1  0.19528900  0.36086000  0.25000000  1
  Ge  Ge23  1  0.69528900  0.13914000  0.25000000  1
  Ge  Ge24  1  0.54007100  0.37871100  0.75000000  1
  Ge  Ge25  1  0.04007100  0.12128900  0.75000000  1
  Ge  Ge26  1  0.45992900  0.62128900  0.25000000  1
  Ge  Ge27  1  0.95992900  0.87871100  0.25000000  1
  Ge  Ge28  1  0.67470200  0.03827500  0.54146900  1
  Ge  Ge29  1  0.17470200  0.46172500  0.95853100  1
  Ge  Ge30  1  0.32529800  0.96172500  0.04146900  1
  Ge  Ge31  1  0.82529800  0.53827500  0.45853100  1
  Ge  Ge32  1  0.32529800  0.96172500  0.45853100  1
  Ge  Ge33  1  0.82529800  0.53827500  0.04146900  1
  Ge  Ge34  1  0.67470200  0.03827500  0.95853100  1
  Ge  Ge35  1  0.17470200  0.46172500  0.54146900  1
