# generated using pymatgen
data_KB3SeO7
_symmetry_space_group_name_H-M   'P 1'
_cell_length_a   17.86362300
_cell_length_b   4.67740000
_cell_length_c   8.78424627
_cell_angle_alpha   83.95126013
_cell_angle_beta   90.00000000
_cell_angle_gamma   90.00000000
_symmetry_Int_Tables_number   1
_chemical_formula_structural   KB3SeO7
_chemical_formula_sum   'K4 B12 Se4 O28'
_cell_volume   729.88412713
_cell_formula_units_Z   4
loop_
 _symmetry_equiv_pos_site_id
 _symmetry_equiv_pos_as_xyz
  1  'x, y, z'
loop_
 _atom_site_type_symbol
 _atom_site_label
 _atom_site_symmetry_multiplicity
 _atom_site_fract_x
 _atom_site_fract_y
 _atom_site_fract_z
 _atom_site_occupancy
  K  K0  1  0.60417100  0.32082700  0.93738800  1
  K  K1  1  0.10417100  0.67917300  0.56261200  1
  K  K2  1  0.39582900  0.67917300  0.06261200  1
  K  K3  1  0.89582900  0.32082700  0.43738800  1
  B  B4  1  0.39189600  0.29327100  0.72358400  1
  B  B5  1  0.89189600  0.70672900  0.77641600  1
  B  B6  1  0.60810400  0.70672900  0.27641600  1
  B  B7  1  0.10810400  0.29327100  0.22358400  1
  B  B8  1  0.26311200  0.47007100  0.76079500  1
  B  B9  1  0.76311200  0.52992900  0.73920500  1
  B  B10  1  0.73688800  0.52992900  0.23920500  1
  B  B11  1  0.23688800  0.47007100  0.26079500  1
  B  B12  1  0.18924100  0.47197100  0.00432900  1
  B  B13  1  0.68924100  0.52802900  0.49567100  1
  B  B14  1  0.81075900  0.52802900  0.99567100  1
  B  B15  1  0.31075900  0.47197100  0.50432900  1
  Se  Se16  1  0.48490300  0.79956200  0.68668600  1
  Se  Se17  1  0.98490300  0.20043800  0.81331400  1
  Se  Se18  1  0.51509700  0.20043800  0.31331400  1
  Se  Se19  1  0.01509700  0.79956200  0.18668600  1
  O  O20  1  0.40623900  0.97992000  0.76204000  1
  O  O21  1  0.90623900  0.02008000  0.73796000  1
  O  O22  1  0.59376100  0.02008000  0.23796000  1
  O  O23  1  0.09376100  0.97992000  0.26204000  1
  O  O24  1  0.55504700  0.86023200  0.80142900  1
  O  O25  1  0.05504700  0.13976800  0.69857100  1
  O  O26  1  0.44495300  0.13976800  0.19857100  1
  O  O27  1  0.94495300  0.86023200  0.30142900  1
  O  O28  1  0.45998500  0.44940000  0.77274500  1
  O  O29  1  0.95998500  0.55060000  0.72725500  1
  O  O30  1  0.54001500  0.55060000  0.22725500  1
  O  O31  1  0.04001500  0.44940000  0.27274500  1
  O  O32  1  0.32777000  0.35561900  0.82001800  1
  O  O33  1  0.82777000  0.64438100  0.67998200  1
  O  O34  1  0.67223000  0.64438100  0.17998200  1
  O  O35  1  0.17223000  0.35561900  0.32001800  1
  O  O36  1  0.25370000  0.53872100  0.60304700  1
  O  O37  1  0.75370000  0.46127900  0.89695300  1
  O  O38  1  0.74630000  0.46127900  0.39695300  1
  O  O39  1  0.24630000  0.53872100  0.10304700  1
  O  O40  1  0.20109900  0.51752500  0.84804000  1
  O  O41  1  0.70109900  0.48247500  0.65196000  1
  O  O42  1  0.79890100  0.48247500  0.15196000  1
  O  O43  1  0.29890100  0.51752500  0.34804000  1
  O  O44  1  0.12208700  0.36952900  0.05856900  1
  O  O45  1  0.62208700  0.63047100  0.44143100  1
  O  O46  1  0.87791300  0.63047100  0.94143100  1
  O  O47  1  0.37791300  0.36952900  0.55856900  1
