# generated using pymatgen
data_Cs2PrF6
_symmetry_space_group_name_H-M   'P 1'
_cell_length_a   7.36330682
_cell_length_b   7.36330682
_cell_length_c   3.90857500
_cell_angle_alpha   90.00000000
_cell_angle_beta   90.00000000
_cell_angle_gamma   120.00000738
_symmetry_Int_Tables_number   1
_chemical_formula_structural   Cs2PrF6
_chemical_formula_sum   'Cs2 Pr1 F6'
_cell_volume   183.52483579
_cell_formula_units_Z   1
loop_
 _symmetry_equiv_pos_site_id
 _symmetry_equiv_pos_as_xyz
  1  'x, y, z'
loop_
 _atom_site_type_symbol
 _atom_site_label
 _atom_site_symmetry_multiplicity
 _atom_site_fract_x
 _atom_site_fract_y
 _atom_site_fract_z
 _atom_site_occupancy
  Cs  Cs0  1  0.33333300  0.66666700  0.50000000  1
  Cs  Cs1  1  0.66666700  0.33333300  0.50000000  1
  Pr  Pr2  1  0.00000000  0.00000000  0.00000000  1
  F  F3  1  0.21220400  0.00000000  0.50000000  1
  F  F4  1  0.00000000  0.21220400  0.50000000  1
  F  F5  1  0.78779600  0.78779600  0.50000000  1
  F  F6  1  0.67478600  0.00000000  0.00000000  1
  F  F7  1  0.00000000  0.67478600  0.00000000  1
  F  F8  1  0.32521400  0.32521400  0.00000000  1
