# generated using pymatgen
data_Nd(GePt)2
_symmetry_space_group_name_H-M   'P 1'
_cell_length_a   4.38765200
_cell_length_b   4.39822300
_cell_length_c   10.09584700
_cell_angle_alpha   90.00000000
_cell_angle_beta   90.00000000
_cell_angle_gamma   90.00000000
_symmetry_Int_Tables_number   1
_chemical_formula_structural   Nd(GePt)2
_chemical_formula_sum   'Nd2 Ge4 Pt4'
_cell_volume   194.82836256
_cell_formula_units_Z   2
loop_
 _symmetry_equiv_pos_site_id
 _symmetry_equiv_pos_as_xyz
  1  'x, y, z'
loop_
 _atom_site_type_symbol
 _atom_site_label
 _atom_site_symmetry_multiplicity
 _atom_site_fract_x
 _atom_site_fract_y
 _atom_site_fract_z
 _atom_site_occupancy
  Nd  Nd0  1  0.25699800  0.00000000  0.74732700  1
  Nd  Nd1  1  0.75699800  0.50000000  0.25267300  1
  Ge  Ge2  1  0.23276800  0.00000000  0.13207300  1
  Ge  Ge3  1  0.73276800  0.50000000  0.86792700  1
  Ge  Ge4  1  0.27527700  0.50000000  0.49952700  1
  Ge  Ge5  1  0.77527700  0.00000000  0.50047300  1
  Pt  Pt6  1  0.27545400  0.00000000  0.37613400  1
  Pt  Pt7  1  0.77545400  0.50000000  0.62386600  1
  Pt  Pt8  1  0.23150300  0.50000000  0.99966800  1
  Pt  Pt9  1  0.73150300  0.00000000  0.00033200  1
