# generated using pymatgen
data_Ce2(Al3Ir)3
_symmetry_space_group_name_H-M   'P 1'
_cell_length_a   7.61675077
_cell_length_b   7.61675077
_cell_length_c   9.44834300
_cell_angle_alpha   90.00000000
_cell_angle_beta   90.00000000
_cell_angle_gamma   119.70851440
_symmetry_Int_Tables_number   1
_chemical_formula_structural   Ce2(Al3Ir)3
_chemical_formula_sum   'Ce4 Al18 Ir6'
_cell_volume   476.09531190
_cell_formula_units_Z   2
loop_
 _symmetry_equiv_pos_site_id
 _symmetry_equiv_pos_as_xyz
  1  'x, y, z'
loop_
 _atom_site_type_symbol
 _atom_site_label
 _atom_site_symmetry_multiplicity
 _atom_site_fract_x
 _atom_site_fract_y
 _atom_site_fract_z
 _atom_site_occupancy
  Ce  Ce0  1  0.99634800  0.66868100  0.25000000  1
  Ce  Ce1  1  0.00365200  0.33131900  0.75000000  1
  Ce  Ce2  1  0.66868100  0.99634800  0.25000000  1
  Ce  Ce3  1  0.33131900  0.00365200  0.75000000  1
  Al  Al4  1  0.12756400  0.12756400  0.25000000  1
  Al  Al5  1  0.87243600  0.87243600  0.75000000  1
  Al  Al6  1  0.00264700  0.33421700  0.07387800  1
  Al  Al7  1  0.99735300  0.66578300  0.92612200  1
  Al  Al8  1  0.99735300  0.66578300  0.57387800  1
  Al  Al9  1  0.33421700  0.00264700  0.42612200  1
  Al  Al10  1  0.00264700  0.33421700  0.42612200  1
  Al  Al11  1  0.66578300  0.99735300  0.57387800  1
  Al  Al12  1  0.66578300  0.99735300  0.92612200  1
  Al  Al13  1  0.33421700  0.00264700  0.07387800  1
  Al  Al14  1  0.33532200  0.33532200  0.55502300  1
  Al  Al15  1  0.66467800  0.66467800  0.44497700  1
  Al  Al16  1  0.66467800  0.66467800  0.05502300  1
  Al  Al17  1  0.33532200  0.33532200  0.94497700  1
  Al  Al18  1  0.33850600  0.54525300  0.25000000  1
  Al  Al19  1  0.66149400  0.45474700  0.75000000  1
  Al  Al20  1  0.54525300  0.33850600  0.25000000  1
  Al  Al21  1  0.45474700  0.66149400  0.75000000  1
  Ir  Ir22  1  0.67196300  0.32803700  0.00000000  1
  Ir  Ir23  1  0.32803700  0.67196300  0.00000000  1
  Ir  Ir24  1  0.32803700  0.67196300  0.50000000  1
  Ir  Ir25  1  0.67196300  0.32803700  0.50000000  1
  Ir  Ir26  1  0.00000000  0.00000000  0.00000000  1
  Ir  Ir27  1  0.00000000  0.00000000  0.50000000  1
