# generated using pymatgen
data_HfTl2Fe2(MoO4)6
_symmetry_space_group_name_H-M   'P 1'
_cell_length_a   8.67114800
_cell_length_b   8.67381141
_cell_length_c   8.67376181
_cell_angle_alpha   100.19649792
_cell_angle_beta   99.96504931
_cell_angle_gamma   100.42596475
_symmetry_Int_Tables_number   1
_chemical_formula_structural   HfTl2Fe2(MoO4)6
_chemical_formula_sum   'Hf1 Tl2 Fe2 Mo6 O24'
_cell_volume   617.13020571
_cell_formula_units_Z   1
loop_
 _symmetry_equiv_pos_site_id
 _symmetry_equiv_pos_as_xyz
  1  'x, y, z'
loop_
 _atom_site_type_symbol
 _atom_site_label
 _atom_site_symmetry_multiplicity
 _atom_site_fract_x
 _atom_site_fract_y
 _atom_site_fract_z
 _atom_site_occupancy
  Hf  Hf0  1  0.50000000  0.50000000  0.00000000  1
  Tl  Tl1  1  0.83942200  0.83910600  0.83761800  1
  Tl  Tl2  1  0.16057800  0.16089400  0.16238200  1
  Fe  Fe3  1  0.00000000  0.50000000  0.50000000  1
  Fe  Fe4  1  0.50000000  0.00000000  0.50000000  1
  Mo  Mo5  1  0.78995600  0.35121000  0.79820400  1
  Mo  Mo6  1  0.80417000  0.79060000  0.35880800  1
  Mo  Mo7  1  0.35138300  0.80417400  0.78414300  1
  Mo  Mo8  1  0.21004400  0.64879000  0.20179600  1
  Mo  Mo9  1  0.19583000  0.20940000  0.64119200  1
  Mo  Mo10  1  0.64861700  0.19582600  0.21585700  1
  O  O11  1  0.67955100  0.50457000  0.86721000  1
  O  O12  1  0.87092300  0.67659900  0.50460200  1
  O  O13  1  0.50241300  0.87158400  0.67448300  1
  O  O14  1  0.32044900  0.49543000  0.13279000  1
  O  O15  1  0.12907700  0.32340100  0.49539800  1
  O  O16  1  0.49758700  0.12841600  0.32551700  1
  O  O17  1  0.64585100  0.18518600  0.66642500  1
  O  O18  1  0.66950200  0.64730700  0.18889700  1
  O  O19  1  0.18499800  0.66695300  0.64517100  1
  O  O20  1  0.35414900  0.81481400  0.33357500  1
  O  O21  1  0.33049800  0.35269300  0.81110300  1
  O  O22  1  0.81500200  0.33304700  0.35482900  1
  O  O23  1  0.93166000  0.44624700  0.69548100  1
  O  O24  1  0.69730800  0.93050900  0.44796300  1
  O  O25  1  0.44691500  0.70160700  0.92923200  1
  O  O26  1  0.06834000  0.55375300  0.30451900  1
  O  O27  1  0.30269200  0.06949100  0.55203700  1
  O  O28  1  0.55308500  0.29839300  0.07076800  1
  O  O29  1  0.88923700  0.29325300  0.96437800  1
  O  O30  1  0.96768000  0.89050200  0.29531100  1
  O  O31  1  0.29217800  0.96723300  0.88714600  1
  O  O32  1  0.11076300  0.70674700  0.03562200  1
  O  O33  1  0.03232000  0.10949800  0.70468900  1
  O  O34  1  0.70782200  0.03276700  0.11285400  1
