# generated using pymatgen
data_KPr9(Si3O13)2
_symmetry_space_group_name_H-M   'P 1'
_cell_length_a   9.71719103
_cell_length_b   9.71719103
_cell_length_c   7.21729000
_cell_angle_alpha   90.00000000
_cell_angle_beta   90.00000000
_cell_angle_gamma   119.99999336
_symmetry_Int_Tables_number   1
_chemical_formula_structural   KPr9(Si3O13)2
_chemical_formula_sum   'K1 Pr9 Si6 O26'
_cell_volume   590.18245917
_cell_formula_units_Z   1
loop_
 _symmetry_equiv_pos_site_id
 _symmetry_equiv_pos_as_xyz
  1  'x, y, z'
loop_
 _atom_site_type_symbol
 _atom_site_label
 _atom_site_symmetry_multiplicity
 _atom_site_fract_x
 _atom_site_fract_y
 _atom_site_fract_z
 _atom_site_occupancy
  K  K0  1  0.00000000  0.00000000  0.49876200  1
  Pr  Pr1  1  0.66666700  0.33333300  0.99944800  1
  Pr  Pr2  1  0.66666700  0.33333300  0.49906900  1
  Pr  Pr3  1  0.00000000  0.00000000  0.99767900  1
  Pr  Pr4  1  0.34189300  0.43415900  0.74846900  1
  Pr  Pr5  1  0.56584100  0.90773400  0.74846900  1
  Pr  Pr6  1  0.09226600  0.65810700  0.74846900  1
  Pr  Pr7  1  0.32094700  0.90005800  0.25150100  1
  Pr  Pr8  1  0.09994200  0.42088900  0.25150100  1
  Pr  Pr9  1  0.57911100  0.67905300  0.25150100  1
  Si  Si10  1  0.96186300  0.26847600  0.75337900  1
  Si  Si11  1  0.73152400  0.69338600  0.75337900  1
  Si  Si12  1  0.30661400  0.03813700  0.75337900  1
  Si  Si13  1  0.69994500  0.06525400  0.24400600  1
  Si  Si14  1  0.93474600  0.63469100  0.24400600  1
  Si  Si15  1  0.36530900  0.30005500  0.24400600  1
  O  O16  1  0.85603400  0.07534300  0.76916800  1
  O  O17  1  0.92465700  0.78069100  0.76916800  1
  O  O18  1  0.21930900  0.14396600  0.76916800  1
  O  O19  1  0.80162400  0.26220400  0.24940700  1
  O  O20  1  0.73779600  0.53942000  0.24940700  1
  O  O21  1  0.46058000  0.19837600  0.24940700  1
  O  O22  1  0.65241600  0.49771100  0.74938600  1
  O  O23  1  0.50228900  0.15470500  0.74938600  1
  O  O24  1  0.84529500  0.34758400  0.74938600  1
  O  O25  1  0.02066800  0.82581800  0.22890600  1
  O  O26  1  0.17418200  0.19485100  0.22890600  1
  O  O27  1  0.80514900  0.97933200  0.22890600  1
  O  O28  1  0.33333300  0.66666700  0.75585200  1
  O  O29  1  0.33333300  0.66666700  0.25115100  1
  O  O30  1  0.08258600  0.33849800  0.57395200  1
  O  O31  1  0.66150200  0.74408800  0.57395200  1
  O  O32  1  0.25591200  0.91741400  0.57395200  1
  O  O33  1  0.57797600  0.01705200  0.06461500  1
  O  O34  1  0.98294800  0.56092400  0.06461500  1
  O  O35  1  0.43907600  0.42202400  0.06461500  1
  O  O36  1  0.58740400  0.01326000  0.43225600  1
  O  O37  1  0.98674000  0.57414400  0.43225600  1
  O  O38  1  0.42585600  0.41259600  0.43225600  1
  O  O39  1  0.08248600  0.32832200  0.93430300  1
  O  O40  1  0.67167800  0.75416500  0.93430300  1
  O  O41  1  0.24583500  0.91751400  0.93430300  1
