# generated using pymatgen
data_Rb2Mo3P3O17
_symmetry_space_group_name_H-M   'P 1'
_cell_length_a   9.67745300
_cell_length_b   11.02645700
_cell_length_c   15.94654906
_cell_angle_alpha   68.49443825
_cell_angle_beta   90.00000000
_cell_angle_gamma   90.00000000
_symmetry_Int_Tables_number   1
_chemical_formula_structural   Rb2Mo3P3O17
_chemical_formula_sum   'Rb8 Mo12 P12 O68'
_cell_volume   1583.16093790
_cell_formula_units_Z   4
loop_
 _symmetry_equiv_pos_site_id
 _symmetry_equiv_pos_as_xyz
  1  'x, y, z'
loop_
 _atom_site_type_symbol
 _atom_site_label
 _atom_site_symmetry_multiplicity
 _atom_site_fract_x
 _atom_site_fract_y
 _atom_site_fract_z
 _atom_site_occupancy
  Rb  Rb0  1  0.37826700  0.81893400  0.50876700  1
  Rb  Rb1  1  0.62173300  0.18106600  0.49123300  1
  Rb  Rb2  1  0.87826700  0.18106600  0.99123300  1
  Rb  Rb3  1  0.12173300  0.81893400  0.00876700  1
  Rb  Rb4  1  0.87277200  0.40329300  0.20799700  1
  Rb  Rb5  1  0.12722800  0.59670700  0.79200300  1
  Rb  Rb6  1  0.37277200  0.59670700  0.29200300  1
  Rb  Rb7  1  0.62722800  0.40329300  0.70799700  1
  Mo  Mo8  1  0.11699900  0.95352600  0.24394900  1
  Mo  Mo9  1  0.88300100  0.04647400  0.75605100  1
  Mo  Mo10  1  0.61699900  0.04647400  0.25605100  1
  Mo  Mo11  1  0.38300100  0.95352600  0.74394900  1
  Mo  Mo12  1  0.61859200  0.75285300  0.06327600  1
  Mo  Mo13  1  0.38140800  0.24714700  0.93672400  1
  Mo  Mo14  1  0.11859200  0.24714700  0.43672400  1
  Mo  Mo15  1  0.88140800  0.75285300  0.56327600  1
  Mo  Mo16  1  0.75415500  0.57862700  0.40446900  1
  Mo  Mo17  1  0.24584500  0.42137300  0.59553100  1
  Mo  Mo18  1  0.25415500  0.42137300  0.09553100  1
  Mo  Mo19  1  0.74584500  0.57862700  0.90446900  1
  P  P20  1  0.82269700  0.83773500  0.20258900  1
  P  P21  1  0.17730300  0.16226500  0.79741100  1
  P  P22  1  0.32269700  0.16226500  0.29741100  1
  P  P23  1  0.67730300  0.83773500  0.70258900  1
  P  P24  1  0.59570600  0.33122900  0.06919700  1
  P  P25  1  0.40429400  0.66877100  0.93080300  1
  P  P26  1  0.09570600  0.66877100  0.43080300  1
  P  P27  1  0.90429400  0.33122900  0.56919700  1
  P  P28  1  0.39919500  0.95711900  0.12126700  1
  P  P29  1  0.60080500  0.04288100  0.87873300  1
  P  P30  1  0.89919500  0.04288100  0.37873300  1
  P  P31  1  0.10080500  0.95711900  0.62126700  1
  O  O32  1  0.97171100  0.95636100  0.33496300  1
  O  O33  1  0.02828900  0.04363900  0.66503700  1
  O  O34  1  0.47171100  0.04363900  0.16503700  1
  O  O35  1  0.52828900  0.95636100  0.83496300  1
  O  O36  1  0.43974800  0.73169600  0.00179800  1
  O  O37  1  0.56025200  0.26830400  0.99820200  1
  O  O38  1  0.93974800  0.26830400  0.49820200  1
  O  O39  1  0.06025200  0.73169600  0.50179800  1
  O  O40  1  0.76145600  0.73195800  0.28742400  1
  O  O41  1  0.23854400  0.26804200  0.71257600  1
  O  O42  1  0.26145600  0.26804200  0.21257600  1
  O  O43  1  0.73854400  0.73195800  0.78742400  1
  O  O44  1  0.58240100  0.60116200  0.42702500  1
  O  O45  1  0.41759900  0.39883800  0.57297500  1
  O  O46  1  0.08240100  0.39883800  0.07297500  1
  O  O47  1  0.91759900  0.60116200  0.92702500  1
  O  O48  1  0.74455900  0.46261800  0.35404700  1
  O  O49  1  0.25544100  0.53738200  0.64595300  1
  O  O50  1  0.24455900  0.53738200  0.14595300  1
  O  O51  1  0.75544100  0.46261800  0.85404700  1
  O  O52  1  0.78700900  0.80702300  0.11732100  1
  O  O53  1  0.21299100  0.19297700  0.88267900  1
  O  O54  1  0.28700900  0.19297700  0.38267900  1
  O  O55  1  0.71299100  0.80702300  0.61732100  1
  O  O56  1  0.67058300  0.23115300  0.14962000  1
  O  O57  1  0.32941700  0.76884700  0.85038000  1
  O  O58  1  0.17058300  0.76884700  0.35038000  1
  O  O59  1  0.82941700  0.23115300  0.64962000  1
  O  O60  1  0.98238000  0.83948900  0.20259800  1
  O  O61  1  0.01762000  0.16051100  0.79740200  1
  O  O62  1  0.48238000  0.16051100  0.29740200  1
  O  O63  1  0.51762000  0.83948900  0.70259800  1
  O  O64  1  0.60994500  0.60409300  0.15245600  1
  O  O65  1  0.39005500  0.39590700  0.84754400  1
  O  O66  1  0.10994500  0.39590700  0.34754400  1
  O  O67  1  0.89005500  0.60409300  0.65245600  1
  O  O68  1  0.70753700  0.44000000  0.02695600  1
  O  O69  1  0.29246300  0.56000000  0.97304400  1
  O  O70  1  0.20753700  0.56000000  0.47304400  1
  O  O71  1  0.79246300  0.44000000  0.52695600  1
  O  O72  1  0.86054100  0.96137600  0.47591900  1
  O  O73  1  0.13945900  0.03862400  0.52408100  1
  O  O74  1  0.36054100  0.03862400  0.02408100  1
  O  O75  1  0.63945900  0.96137600  0.97591900  1
  O  O76  1  0.49016000  0.83669200  0.13002200  1
  O  O77  1  0.50984000  0.16330800  0.86997800  1
  O  O78  1  0.99016000  0.16330800  0.36997800  1
  O  O79  1  0.00984000  0.83669200  0.63002200  1
  O  O80  1  0.78722700  0.71328000  0.48150400  1
  O  O81  1  0.21277300  0.28672000  0.51849600  1
  O  O82  1  0.28722700  0.28672000  0.01849600  1
  O  O83  1  0.71277300  0.71328000  0.98150400  1
  O  O84  1  0.76236100  0.97168300  0.19263900  1
  O  O85  1  0.23763900  0.02831700  0.80736100  1
  O  O86  1  0.26236100  0.02831700  0.30736100  1
  O  O87  1  0.73763900  0.97168300  0.69263900  1
  O  O88  1  0.26616400  0.89422700  0.17574200  1
  O  O89  1  0.73383600  0.10577300  0.82425800  1
  O  O90  1  0.76616400  0.10577300  0.32425800  1
  O  O91  1  0.23383600  0.89422700  0.67574200  1
  O  O92  1  0.56899400  0.90495700  0.34180300  1
  O  O93  1  0.43100600  0.09504300  0.65819700  1
  O  O94  1  0.06899400  0.09504300  0.15819700  1
  O  O95  1  0.93100600  0.90495700  0.84180300  1
  O  O96  1  0.96913600  0.60864400  0.40322300  1
  O  O97  1  0.03086400  0.39135600  0.59677700  1
  O  O98  1  0.46913600  0.39135600  0.09677700  1
  O  O99  1  0.53086400  0.60864400  0.90322300  1
