# generated using pymatgen
data_K7TaAs4
_symmetry_space_group_name_H-M   'P 1'
_cell_length_a   8.41874900
_cell_length_b   9.24858600
_cell_length_c   10.37117800
_cell_angle_alpha   90.00000000
_cell_angle_beta   90.00000000
_cell_angle_gamma   90.00000000
_symmetry_Int_Tables_number   1
_chemical_formula_structural   K7TaAs4
_chemical_formula_sum   'K14 Ta2 As8'
_cell_volume   807.51572620
_cell_formula_units_Z   2
loop_
 _symmetry_equiv_pos_site_id
 _symmetry_equiv_pos_as_xyz
  1  'x, y, z'
loop_
 _atom_site_type_symbol
 _atom_site_label
 _atom_site_symmetry_multiplicity
 _atom_site_fract_x
 _atom_site_fract_y
 _atom_site_fract_z
 _atom_site_occupancy
  K  K0  1  0.70947900  0.83355400  0.71719900  1
  K  K1  1  0.20947900  0.16644600  0.78280100  1
  K  K2  1  0.20947900  0.16644600  0.21719900  1
  K  K3  1  0.70947900  0.83355400  0.28280100  1
  K  K4  1  0.87200200  0.46588800  0.71163000  1
  K  K5  1  0.37200200  0.53411200  0.78837000  1
  K  K6  1  0.37200200  0.53411200  0.21163000  1
  K  K7  1  0.87200200  0.46588800  0.28837000  1
  K  K8  1  0.16183200  0.66140900  0.50000000  1
  K  K9  1  0.66183200  0.33859100  0.00000000  1
  K  K10  1  0.87762100  0.03432000  0.00000000  1
  K  K11  1  0.37762100  0.96568000  0.50000000  1
  K  K12  1  0.39059900  0.89170500  0.00000000  1
  K  K13  1  0.89059900  0.10829500  0.50000000  1
  Ta  Ta14  1  0.99871300  0.67311900  0.00000000  1
  Ta  Ta15  1  0.49871300  0.32688100  0.50000000  1
  As  As16  1  0.70107500  0.68209100  0.00000000  1
  As  As17  1  0.20107500  0.31790900  0.50000000  1
  As  As18  1  0.09382200  0.80620600  0.79853900  1
  As  As19  1  0.59382200  0.19379400  0.70146100  1
  As  As20  1  0.59382200  0.19379400  0.29853900  1
  As  As21  1  0.09382200  0.80620600  0.20146100  1
  As  As22  1  0.57790500  0.59024000  0.50000000  1
  As  As23  1  0.07790500  0.40976000  0.00000000  1
