# generated using pymatgen
data_YbIn5Rh
_symmetry_space_group_name_H-M   'P 1'
_cell_length_a   4.68710100
_cell_length_b   4.68710100
_cell_length_c   7.55495600
_cell_angle_alpha   90.00000000
_cell_angle_beta   90.00000000
_cell_angle_gamma   90.00000000
_symmetry_Int_Tables_number   1
_chemical_formula_structural   YbIn5Rh
_chemical_formula_sum   'Yb1 In5 Rh1'
_cell_volume   165.97419212
_cell_formula_units_Z   1
loop_
 _symmetry_equiv_pos_site_id
 _symmetry_equiv_pos_as_xyz
  1  'x, y, z'
loop_
 _atom_site_type_symbol
 _atom_site_label
 _atom_site_symmetry_multiplicity
 _atom_site_fract_x
 _atom_site_fract_y
 _atom_site_fract_z
 _atom_site_occupancy
  Yb  Yb0  1  0.00000000  0.00000000  0.00000000  1
  In  In1  1  0.50000000  0.50000000  0.00000000  1
  In  In2  1  0.50000000  0.00000000  0.30000700  1
  In  In3  1  0.00000000  0.50000000  0.30000700  1
  In  In4  1  0.50000000  0.00000000  0.69999300  1
  In  In5  1  0.00000000  0.50000000  0.69999300  1
  Rh  Rh6  1  0.00000000  0.00000000  0.50000000  1
