# generated using pymatgen
data_Sr(LuS2)2
_symmetry_space_group_name_H-M   'P 1'
_cell_length_a   3.92774300
_cell_length_b   11.98181200
_cell_length_c   14.13539500
_cell_angle_alpha   90.00000000
_cell_angle_beta   90.00000000
_cell_angle_gamma   90.00000000
_symmetry_Int_Tables_number   1
_chemical_formula_structural   Sr(LuS2)2
_chemical_formula_sum   'Sr4 Lu8 S16'
_cell_volume   665.23258379
_cell_formula_units_Z   4
loop_
 _symmetry_equiv_pos_site_id
 _symmetry_equiv_pos_as_xyz
  1  'x, y, z'
loop_
 _atom_site_type_symbol
 _atom_site_label
 _atom_site_symmetry_multiplicity
 _atom_site_fract_x
 _atom_site_fract_y
 _atom_site_fract_z
 _atom_site_occupancy
  Sr  Sr0  1  0.25000000  0.76080800  0.33425300  1
  Sr  Sr1  1  0.25000000  0.26080800  0.16574700  1
  Sr  Sr2  1  0.75000000  0.23919200  0.66574700  1
  Sr  Sr3  1  0.75000000  0.73919200  0.83425300  1
  Lu  Lu4  1  0.25000000  0.43891600  0.38996700  1
  Lu  Lu5  1  0.25000000  0.93891600  0.11003300  1
  Lu  Lu6  1  0.75000000  0.56108400  0.61003300  1
  Lu  Lu7  1  0.75000000  0.06108400  0.88996700  1
  Lu  Lu8  1  0.25000000  0.41786100  0.90122100  1
  Lu  Lu9  1  0.25000000  0.91786100  0.59877900  1
  Lu  Lu10  1  0.75000000  0.58213900  0.09877900  1
  Lu  Lu11  1  0.75000000  0.08213900  0.40122100  1
  S  S12  1  0.25000000  0.20459100  0.83402900  1
  S  S13  1  0.25000000  0.70459100  0.66597100  1
  S  S14  1  0.75000000  0.79540900  0.16597100  1
  S  S15  1  0.75000000  0.29540900  0.33402900  1
  S  S16  1  0.25000000  0.12586100  0.52891400  1
  S  S17  1  0.25000000  0.62586100  0.97108600  1
  S  S18  1  0.75000000  0.87413900  0.47108600  1
  S  S19  1  0.75000000  0.37413900  0.02891400  1
  S  S20  1  0.25000000  0.02667000  0.28447800  1
  S  S21  1  0.25000000  0.52667000  0.21552200  1
  S  S22  1  0.75000000  0.97333000  0.71552200  1
  S  S23  1  0.75000000  0.47333000  0.78447800  1
  S  S24  1  0.25000000  0.41141400  0.57701700  1
  S  S25  1  0.25000000  0.91141400  0.92298300  1
  S  S26  1  0.75000000  0.58858600  0.42298300  1
  S  S27  1  0.75000000  0.08858600  0.07701700  1
