# generated using pymatgen
data_Cs3FeO3
_symmetry_space_group_name_H-M   'P 1'
_cell_length_a   7.40713927
_cell_length_b   7.84926135
_cell_length_c   12.38167800
_cell_angle_alpha   90.00004557
_cell_angle_beta   90.00019759
_cell_angle_gamma   104.46119536
_symmetry_Int_Tables_number   1
_chemical_formula_structural   Cs3FeO3
_chemical_formula_sum   'Cs12 Fe4 O12'
_cell_volume   697.06994688
_cell_formula_units_Z   4
loop_
 _symmetry_equiv_pos_site_id
 _symmetry_equiv_pos_as_xyz
  1  'x, y, z'
loop_
 _atom_site_type_symbol
 _atom_site_label
 _atom_site_symmetry_multiplicity
 _atom_site_fract_x
 _atom_site_fract_y
 _atom_site_fract_z
 _atom_site_occupancy
  Cs  Cs0  1  0.45518000  0.49658000  0.70655200  1
  Cs  Cs1  1  0.54481500  0.00341000  0.20654500  1
  Cs  Cs2  1  0.54481200  0.50342100  0.29345300  1
  Cs  Cs3  1  0.45519100  0.99658600  0.79345800  1
  Cs  Cs4  1  0.66380200  0.36755300  0.99165400  1
  Cs  Cs5  1  0.33619300  0.13245400  0.49164700  1
  Cs  Cs6  1  0.33620200  0.63245900  0.00835000  1
  Cs  Cs7  1  0.66380300  0.86754900  0.50834100  1
  Cs  Cs8  1  0.97999600  0.08774100  0.74335000  1
  Cs  Cs9  1  0.02001700  0.41228100  0.24333800  1
  Cs  Cs10  1  0.02000300  0.91226200  0.25665400  1
  Cs  Cs11  1  0.97999000  0.58771900  0.75666800  1
  Fe  Fe12  1  0.84438700  0.34982400  0.50804000  1
  Fe  Fe13  1  0.15561800  0.15014300  0.00805000  1
  Fe  Fe14  1  0.15559900  0.65016700  0.49195400  1
  Fe  Fe15  1  0.84440600  0.84984300  0.99195200  1
  O  O16  1  0.88063000  0.10301400  0.03220900  1
  O  O17  1  0.11938200  0.39697500  0.53220400  1
  O  O18  1  0.11937500  0.89698700  0.96779400  1
  O  O19  1  0.88061400  0.60303000  0.46778800  1
  O  O20  1  0.70579600  0.27117000  0.63424700  1
  O  O21  1  0.29419900  0.22881700  0.13424500  1
  O  O22  1  0.29420500  0.72882500  0.36575100  1
  O  O23  1  0.70578800  0.77116900  0.86575800  1
  O  O24  1  0.25059100  0.29636700  0.88891400  1
  O  O25  1  0.74940200  0.20364100  0.38891200  1
  O  O26  1  0.74941200  0.70364900  0.11108900  1
  O  O27  1  0.25059200  0.79636500  0.61108200  1
