# generated using pymatgen
data_Sb2H18C3(IN)9
_symmetry_space_group_name_H-M   'P 1'
_cell_length_a   9.56691679
_cell_length_b   9.56691679
_cell_length_c   22.07705000
_cell_angle_alpha   90.00000000
_cell_angle_beta   90.00000000
_cell_angle_gamma   113.88885570
_symmetry_Int_Tables_number   1
_chemical_formula_structural   Sb2H18C3(IN)9
_chemical_formula_sum   'Sb4 H36 C6 I18 N18'
_cell_volume   1847.52066983
_cell_formula_units_Z   2
loop_
 _symmetry_equiv_pos_site_id
 _symmetry_equiv_pos_as_xyz
  1  'x, y, z'
loop_
 _atom_site_type_symbol
 _atom_site_label
 _atom_site_symmetry_multiplicity
 _atom_site_fract_x
 _atom_site_fract_y
 _atom_site_fract_z
 _atom_site_occupancy
  Sb  Sb0  1  0.72774500  0.27225500  0.34481500  1
  Sb  Sb1  1  0.27225500  0.72774500  0.65518500  1
  Sb  Sb2  1  0.72774500  0.27225500  0.15518500  1
  Sb  Sb3  1  0.27225500  0.72774500  0.84481500  1
  H  H4  1  0.66354200  0.16935900  0.56969800  1
  H  H5  1  0.16935900  0.66354200  0.43030200  1
  H  H6  1  0.66354200  0.16935900  0.93030200  1
  H  H7  1  0.16935900  0.66354200  0.06969800  1
  H  H8  1  0.33645800  0.83064100  0.43030200  1
  H  H9  1  0.83064100  0.33645800  0.56969800  1
  H  H10  1  0.33645800  0.83064100  0.06969800  1
  H  H11  1  0.83064100  0.33645800  0.93030200  1
  H  H12  1  0.64985900  0.57728300  0.61688100  1
  H  H13  1  0.57728300  0.64985900  0.38311900  1
  H  H14  1  0.64985900  0.57728300  0.88311900  1
  H  H15  1  0.57728300  0.64985900  0.11688100  1
  H  H16  1  0.35014100  0.42271700  0.38311900  1
  H  H17  1  0.42271700  0.35014100  0.61688100  1
  H  H18  1  0.35014100  0.42271700  0.11688100  1
  H  H19  1  0.42271700  0.35014100  0.88311900  1
  H  H20  1  0.81994000  0.57187100  0.59229000  1
  H  H21  1  0.57187100  0.81994000  0.40771000  1
  H  H22  1  0.81994000  0.57187100  0.90771000  1
  H  H23  1  0.57187100  0.81994000  0.09229000  1
  H  H24  1  0.18006000  0.42812900  0.40771000  1
  H  H25  1  0.42812900  0.18006000  0.59229000  1
  H  H26  1  0.18006000  0.42812900  0.09229000  1
  H  H27  1  0.42812900  0.18006000  0.90771000  1
  H  H28  1  0.28178300  0.88567600  0.25000000  1
  H  H29  1  0.88567600  0.28178300  0.75000000  1
  H  H30  1  0.71821700  0.11432400  0.75000000  1
  H  H31  1  0.11432400  0.71821700  0.25000000  1
  H  H32  1  0.09305000  0.13842400  0.25000000  1
  H  H33  1  0.13842400  0.09305000  0.75000000  1
  H  H34  1  0.90695000  0.86157600  0.75000000  1
  H  H35  1  0.86157600  0.90695000  0.25000000  1
  H  H36  1  0.26800600  0.12341000  0.25000000  1
  H  H37  1  0.12341000  0.26800600  0.75000000  1
  H  H38  1  0.73199400  0.87659000  0.75000000  1
  H  H39  1  0.87659000  0.73199400  0.25000000  1
  C  C40  1  0.63566200  0.36433800  0.59226200  1
  C  C41  1  0.36433800  0.63566200  0.40773800  1
  C  C42  1  0.63566200  0.36433800  0.90773800  1
  C  C43  1  0.36433800  0.63566200  0.09226200  1
  C  C44  1  0.08196500  0.91803500  0.25000000  1
  C  C45  1  0.91803500  0.08196500  0.75000000  1
  I  I46  1  0.60312900  0.98977900  0.25000000  1
  I  I47  1  0.98977900  0.60312900  0.75000000  1
  I  I48  1  0.39687100  0.01022100  0.75000000  1
  I  I49  1  0.01022100  0.39687100  0.25000000  1
  I  I50  1  0.87803700  0.12196300  0.41785400  1
  I  I51  1  0.12196300  0.87803700  0.58214600  1
  I  I52  1  0.87803700  0.12196300  0.08214600  1
  I  I53  1  0.12196300  0.87803700  0.91785400  1
  I  I54  1  0.57062600  0.42937400  0.25000000  1
  I  I55  1  0.42937400  0.57062600  0.75000000  1
  I  I56  1  0.85175800  0.55611700  0.41464500  1
  I  I57  1  0.55611700  0.85175800  0.58535500  1
  I  I58  1  0.85175800  0.55611700  0.08535500  1
  I  I59  1  0.55611700  0.85175800  0.91464500  1
  I  I60  1  0.14824200  0.44388300  0.58535500  1
  I  I61  1  0.44388300  0.14824200  0.41464500  1
  I  I62  1  0.14824200  0.44388300  0.91464500  1
  I  I63  1  0.44388300  0.14824200  0.08535500  1
  N  N64  1  0.71440200  0.28559800  0.57275800  1
  N  N65  1  0.28559800  0.71440200  0.42724200  1
  N  N66  1  0.71440200  0.28559800  0.92724200  1
  N  N67  1  0.28559800  0.71440200  0.07275800  1
  N  N68  1  0.70744500  0.51469500  0.60247000  1
  N  N69  1  0.51469500  0.70744500  0.39753000  1
  N  N70  1  0.70744500  0.51469500  0.89753000  1
  N  N71  1  0.51469500  0.70744500  0.10247000  1
  N  N72  1  0.29255500  0.48530500  0.39753000  1
  N  N73  1  0.48530500  0.29255500  0.60247000  1
  N  N74  1  0.29255500  0.48530500  0.10247000  1
  N  N75  1  0.48530500  0.29255500  0.89753000  1
  N  N76  1  0.16531800  0.83468200  0.25000000  1
  N  N77  1  0.83468200  0.16531800  0.75000000  1
  N  N78  1  0.15206800  0.07066000  0.25000000  1
  N  N79  1  0.07066000  0.15206800  0.75000000  1
  N  N80  1  0.84793200  0.92934000  0.75000000  1
  N  N81  1  0.92934000  0.84793200  0.25000000  1
