# generated using pymatgen
data_NbSn6OF15
_symmetry_space_group_name_H-M   'P 1'
_cell_length_a   10.49337623
_cell_length_b   10.49337623
_cell_length_c   11.06694377
_cell_angle_alpha   89.98031535
_cell_angle_beta   89.98031535
_cell_angle_gamma   45.23775499
_symmetry_Int_Tables_number   1
_chemical_formula_structural   NbSn6OF15
_chemical_formula_sum   'Nb2 Sn12 O2 F30'
_cell_volume   865.24252926
_cell_formula_units_Z   2
loop_
 _symmetry_equiv_pos_site_id
 _symmetry_equiv_pos_as_xyz
  1  'x, y, z'
loop_
 _atom_site_type_symbol
 _atom_site_label
 _atom_site_symmetry_multiplicity
 _atom_site_fract_x
 _atom_site_fract_y
 _atom_site_fract_z
 _atom_site_occupancy
  Nb  Nb0  1  0.67390400  0.33157200  0.76405900  1
  Nb  Nb1  1  0.33157200  0.67390400  0.26405900  1
  Sn  Sn2  1  0.24642600  0.45484400  0.53292900  1
  Sn  Sn3  1  0.54524900  0.75323000  0.96862500  1
  Sn  Sn4  1  0.75323000  0.54524900  0.46862500  1
  Sn  Sn5  1  0.45484400  0.24642600  0.03292900  1
  Sn  Sn6  1  0.71609800  0.87067800  0.68296900  1
  Sn  Sn7  1  0.12988100  0.28279800  0.81748300  1
  Sn  Sn8  1  0.28279800  0.12988100  0.31748300  1
  Sn  Sn9  1  0.87067800  0.71609800  0.18296900  1
  Sn  Sn10  1  0.10466600  0.74369600  0.90520600  1
  Sn  Sn11  1  0.25677000  0.89396600  0.59543100  1
  Sn  Sn12  1  0.89396600  0.25677000  0.09543100  1
  Sn  Sn13  1  0.74369600  0.10466600  0.40520600  1
  O  O14  1  0.70787600  0.36008000  0.91701700  1
  O  O15  1  0.36008000  0.70787600  0.41701700  1
  F  F16  1  0.50889300  0.80760900  0.54121900  1
  F  F17  1  0.19361200  0.49166000  0.95959500  1
  F  F18  1  0.49166000  0.19361200  0.45959500  1
  F  F19  1  0.80760900  0.50889300  0.04121900  1
  F  F20  1  0.42711400  0.43634900  0.78489800  1
  F  F21  1  0.56167700  0.57192400  0.70709500  1
  F  F22  1  0.57192400  0.56167700  0.20709500  1
  F  F23  1  0.43634900  0.42711400  0.28489800  1
  F  F24  1  0.86246200  0.60962400  0.59184200  1
  F  F25  1  0.38977100  0.13838200  0.90839000  1
  F  F26  1  0.13838200  0.38977100  0.40839000  1
  F  F27  1  0.60962400  0.86246200  0.09184200  1
  F  F28  1  0.88342500  0.84952500  0.01679800  1
  F  F29  1  0.15137300  0.11540300  0.48251100  1
  F  F30  1  0.11540300  0.15137300  0.98251100  1
  F  F31  1  0.84952500  0.88342500  0.51679800  1
  F  F32  1  0.77059100  0.08972900  0.78968500  1
  F  F33  1  0.90773900  0.22852400  0.70259600  1
  F  F34  1  0.22852400  0.90773900  0.20259600  1
  F  F35  1  0.08972900  0.77059100  0.28968500  1
  F  F36  1  0.70996500  0.72683400  0.84019600  1
  F  F37  1  0.27345500  0.28941400  0.65985100  1
  F  F38  1  0.28941400  0.27345500  0.15985100  1
  F  F39  1  0.72683400  0.70996500  0.34019600  1
  F  F40  1  0.98282900  0.70989300  0.75635400  1
  F  F41  1  0.29043400  0.01743000  0.74443400  1
  F  F42  1  0.01743000  0.29043400  0.24443400  1
  F  F43  1  0.70989300  0.98282900  0.25635400  1
  F  F44  1  0.63869600  0.29392800  0.58081600  1
  F  F45  1  0.29392800  0.63869600  0.08081600  1
