# generated using pymatgen
data_ErAg(PSe3)2
_symmetry_space_group_name_H-M   'P 1'
_cell_length_a   6.65356498
_cell_length_b   6.65356498
_cell_length_c   15.23170800
_cell_angle_alpha   90.00000000
_cell_angle_beta   90.00000000
_cell_angle_gamma   119.99998982
_symmetry_Int_Tables_number   1
_chemical_formula_structural   ErAg(PSe3)2
_chemical_formula_sum   'Er2 Ag2 P4 Se12'
_cell_volume   583.96670515
_cell_formula_units_Z   2
loop_
 _symmetry_equiv_pos_site_id
 _symmetry_equiv_pos_as_xyz
  1  'x, y, z'
loop_
 _atom_site_type_symbol
 _atom_site_label
 _atom_site_symmetry_multiplicity
 _atom_site_fract_x
 _atom_site_fract_y
 _atom_site_fract_z
 _atom_site_occupancy
  Er  Er0  1  0.00000000  0.00000000  0.75000000  1
  Er  Er1  1  0.00000000  0.00000000  0.25000000  1
  Ag  Ag2  1  0.33333300  0.66666700  0.75000000  1
  Ag  Ag3  1  0.66666700  0.33333300  0.25000000  1
  P  P4  1  0.66666700  0.33333300  0.67532800  1
  P  P5  1  0.66666700  0.33333300  0.82467200  1
  P  P6  1  0.33333300  0.66666700  0.32467200  1
  P  P7  1  0.33333300  0.66666700  0.17532800  1
  Se  Se8  1  0.02213100  0.34378500  0.13156500  1
  Se  Se9  1  0.65621500  0.67834700  0.13156500  1
  Se  Se10  1  0.32165300  0.97786900  0.13156500  1
  Se  Se11  1  0.65621500  0.97786900  0.36843500  1
  Se  Se12  1  0.32165300  0.34378500  0.36843500  1
  Se  Se13  1  0.02213100  0.67834700  0.36843500  1
  Se  Se14  1  0.97786900  0.65621500  0.86843500  1
  Se  Se15  1  0.34378500  0.32165300  0.86843500  1
  Se  Se16  1  0.67834700  0.02213100  0.86843500  1
  Se  Se17  1  0.34378500  0.02213100  0.63156500  1
  Se  Se18  1  0.67834700  0.65621500  0.63156500  1
  Se  Se19  1  0.97786900  0.32165300  0.63156500  1
