# generated using pymatgen
data_Ti2Tl3P5S18
_symmetry_space_group_name_H-M   'P 1'
_cell_length_a   12.03269497
_cell_length_b   12.03269497
_cell_length_c   20.92051466
_cell_angle_alpha   73.86011239
_cell_angle_beta   73.86011239
_cell_angle_gamma   30.94579784
_symmetry_Int_Tables_number   1
_chemical_formula_structural   Ti2Tl3P5S18
_chemical_formula_sum   'Ti4 Tl6 P10 S36'
_cell_volume   1491.39005993
_cell_formula_units_Z   2
loop_
 _symmetry_equiv_pos_site_id
 _symmetry_equiv_pos_as_xyz
  1  'x, y, z'
loop_
 _atom_site_type_symbol
 _atom_site_label
 _atom_site_symmetry_multiplicity
 _atom_site_fract_x
 _atom_site_fract_y
 _atom_site_fract_z
 _atom_site_occupancy
  Ti  Ti0  1  0.62339900  0.14116800  0.37081600  1
  Ti  Ti1  1  0.85895300  0.37638400  0.12890800  1
  Ti  Ti2  1  0.37638400  0.85895300  0.62890800  1
  Ti  Ti3  1  0.14116800  0.62339900  0.87081600  1
  Tl  Tl4  1  0.03151900  0.28591700  0.32278400  1
  Tl  Tl5  1  0.71714700  0.96795800  0.17602700  1
  Tl  Tl6  1  0.96795800  0.71714700  0.67602700  1
  Tl  Tl7  1  0.28591700  0.03151900  0.82278400  1
  Tl  Tl8  1  0.94421600  0.06482800  0.49545100  1
  Tl  Tl9  1  0.06482800  0.94421600  0.99545100  1
  P  P10  1  0.74873800  0.25167900  0.25001600  1
  P  P11  1  0.25167900  0.74873800  0.75001600  1
  P  P12  1  0.45682400  0.29780800  0.51474500  1
  P  P13  1  0.69921100  0.54504400  0.98537800  1
  P  P14  1  0.54504400  0.69921100  0.48537800  1
  P  P15  1  0.29780800  0.45682400  0.01474500  1
  P  P16  1  0.65749400  0.85702600  0.35812700  1
  P  P17  1  0.14197900  0.34321300  0.14210700  1
  P  P18  1  0.34321300  0.14197900  0.64210700  1
  P  P19  1  0.85702600  0.65749400  0.85812700  1
  S  S20  1  0.90642000  0.05322900  0.33510400  1
  S  S21  1  0.94517300  0.09541000  0.16471500  1
  S  S22  1  0.09541000  0.94517300  0.66471500  1
  S  S23  1  0.05322900  0.90642000  0.83510400  1
  S  S24  1  0.61784900  0.81002800  0.28938400  1
  S  S25  1  0.18979100  0.38187300  0.21095300  1
  S  S26  1  0.38187300  0.18979100  0.71095300  1
  S  S27  1  0.81002800  0.61784900  0.78938400  1
  S  S28  1  0.48085200  0.37593400  0.57474700  1
  S  S29  1  0.61439900  0.52652500  0.92645800  1
  S  S30  1  0.52652500  0.61439900  0.42645800  1
  S  S31  1  0.37593400  0.48085200  0.07474700  1
  S  S32  1  0.39046100  0.17297400  0.38216400  1
  S  S33  1  0.82653500  0.61034500  0.11803900  1
  S  S34  1  0.61034500  0.82653500  0.61803900  1
  S  S35  1  0.17297400  0.39046100  0.88216400  1
  S  S36  1  0.32831100  0.47778100  0.42428900  1
  S  S37  1  0.52064600  0.67263800  0.07599300  1
  S  S38  1  0.67263800  0.52064600  0.57599300  1
  S  S39  1  0.47778100  0.32831100  0.92428900  1
  S  S40  1  0.21661300  0.10642400  0.16332800  1
  S  S41  1  0.89377300  0.78316300  0.33654200  1
  S  S42  1  0.78316300  0.89377300  0.83654200  1
  S  S43  1  0.10642400  0.21661300  0.66332800  1
  S  S44  1  0.74919800  0.98671700  0.48492700  1
  S  S45  1  0.01169100  0.25586000  0.01463900  1
  S  S46  1  0.25586000  0.01169100  0.51463900  1
  S  S47  1  0.98671700  0.74919800  0.98492700  1
  S  S48  1  0.77234000  0.64816000  0.44722200  1
  S  S49  1  0.35194000  0.22799400  0.05303200  1
  S  S50  1  0.22799400  0.35194000  0.55303200  1
  S  S51  1  0.64816000  0.77234000  0.94722200  1
  S  S52  1  0.64684300  0.50556300  0.23752400  1
  S  S53  1  0.49507400  0.35297000  0.26257800  1
  S  S54  1  0.35297000  0.49507400  0.76257800  1
  S  S55  1  0.50556300  0.64684300  0.73752400  1
