# generated using pymatgen
data_Ba9In4
_symmetry_space_group_name_H-M   'P 1'
_cell_length_a   10.46707988
_cell_length_b   10.46707988
_cell_length_c   10.46707988
_cell_angle_alpha   94.67277046
_cell_angle_beta   94.67277046
_cell_angle_gamma   146.83203092
_symmetry_Int_Tables_number   1
_chemical_formula_structural   Ba9In4
_chemical_formula_sum   'Ba9 In4'
_cell_volume   601.29491030
_cell_formula_units_Z   1
loop_
 _symmetry_equiv_pos_site_id
 _symmetry_equiv_pos_as_xyz
  1  'x, y, z'
loop_
 _atom_site_type_symbol
 _atom_site_label
 _atom_site_symmetry_multiplicity
 _atom_site_fract_x
 _atom_site_fract_y
 _atom_site_fract_z
 _atom_site_occupancy
  Ba  Ba0  1  0.50000000  0.50000000  0.00000000  1
  Ba  Ba1  1  0.18663200  0.11136700  0.29799800  1
  Ba  Ba2  1  0.81336800  0.88863300  0.70200200  1
  Ba  Ba3  1  0.88863300  0.18663200  0.07526500  1
  Ba  Ba4  1  0.11136700  0.81336800  0.92473500  1
  Ba  Ba5  1  0.12470600  0.38794400  0.51264900  1
  Ba  Ba6  1  0.87529400  0.61205600  0.48735100  1
  Ba  Ba7  1  0.61205600  0.12470600  0.73676200  1
  Ba  Ba8  1  0.38794400  0.87529400  0.26323800  1
  In  In9  1  0.40096100  0.26252200  0.66348300  1
  In  In10  1  0.59903900  0.73747800  0.33651700  1
  In  In11  1  0.73747800  0.40096100  0.13843800  1
  In  In12  1  0.26252200  0.59903900  0.86156200  1
