# generated using pymatgen
data_NaNb13O33
_symmetry_space_group_name_H-M   'P 1'
_cell_length_a   3.82657800
_cell_length_b   11.66463034
_cell_length_c   15.69221070
_cell_angle_alpha   91.50719348
_cell_angle_beta   90.00000000
_cell_angle_gamma   99.44058952
_symmetry_Int_Tables_number   1
_chemical_formula_structural   NaNb13O33
_chemical_formula_sum   'Na1 Nb13 O33'
_cell_volume   690.69936640
_cell_formula_units_Z   1
loop_
 _symmetry_equiv_pos_site_id
 _symmetry_equiv_pos_as_xyz
  1  'x, y, z'
loop_
 _atom_site_type_symbol
 _atom_site_label
 _atom_site_symmetry_multiplicity
 _atom_site_fract_x
 _atom_site_fract_y
 _atom_site_fract_z
 _atom_site_occupancy
  Na  Na0  1  0.50000000  0.00000000  0.50000000  1
  Nb  Nb1  1  0.00000000  0.00000000  0.00000000  1
  Nb  Nb2  1  0.07142300  0.14284600  0.22730200  1
  Nb  Nb3  1  0.92857700  0.85715400  0.77269800  1
  Nb  Nb4  1  0.22445800  0.44891700  0.13695500  1
  Nb  Nb5  1  0.77554200  0.55108300  0.86304500  1
  Nb  Nb6  1  0.15378200  0.30756400  0.90374300  1
  Nb  Nb7  1  0.84621800  0.69243600  0.09625700  1
  Nb  Nb8  1  0.13706600  0.27413200  0.46758600  1
  Nb  Nb9  1  0.86293400  0.72586800  0.53241400  1
  Nb  Nb10  1  0.29150300  0.58300600  0.37377600  1
  Nb  Nb11  1  0.70849700  0.41699400  0.62622400  1
  Nb  Nb12  1  0.08548200  0.17096400  0.67469200  1
  Nb  Nb13  1  0.91451800  0.82903600  0.32530800  1
  O  O14  1  0.08119700  0.16239400  0.95208200  1
  O  O15  1  0.91880300  0.83760600  0.04791800  1
  O  O16  1  0.50000000  0.00000000  0.00000000  1
  O  O17  1  0.32072500  0.64144900  0.09873100  1
  O  O18  1  0.67927500  0.35855100  0.90126900  1
  O  O19  1  0.25040400  0.50080900  0.86314200  1
  O  O20  1  0.74959600  0.49919100  0.13685800  1
  O  O21  1  0.15284400  0.30568900  0.19514000  1
  O  O22  1  0.84715600  0.69431100  0.80486000  1
  O  O23  1  0.43101400  0.86202800  0.74471600  1
  O  O24  1  0.56898600  0.13797200  0.25528400  1
  O  O25  1  0.19408600  0.38817300  0.02745000  1
  O  O26  1  0.80591400  0.61182700  0.97255000  1
  O  O27  1  0.03543300  0.07086600  0.11922300  1
  O  O28  1  0.96456700  0.92913400  0.88077700  1
  O  O29  1  0.12732600  0.25465200  0.78767200  1
  O  O30  1  0.87267400  0.74534800  0.21232800  1
  O  O31  1  0.26696400  0.53392800  0.26336400  1
  O  O32  1  0.73303600  0.46607200  0.73663600  1
  O  O33  1  0.10031000  0.20062000  0.36557300  1
  O  O34  1  0.89969000  0.79938000  0.63442700  1
  O  O35  1  0.01154800  0.02309500  0.71002300  1
  O  O36  1  0.98845200  0.97690500  0.28997700  1
  O  O37  1  0.39016900  0.78033800  0.33628600  1
  O  O38  1  0.60983100  0.21966200  0.66371400  1
  O  O39  1  0.18270800  0.36541600  0.61197600  1
  O  O40  1  0.81729200  0.63458400  0.38802400  1
  O  O41  1  0.22209400  0.44418900  0.43037400  1
  O  O42  1  0.77790600  0.55581100  0.56962600  1
  O  O43  1  0.34708900  0.69417900  0.50304800  1
  O  O44  1  0.65291100  0.30582100  0.49695200  1
  O  O45  1  0.06883000  0.13766100  0.54479400  1
  O  O46  1  0.93117000  0.86233900  0.45520600  1
