# generated using pymatgen
data_KSr6Sc(SiO4)4
_symmetry_space_group_name_H-M   'P 1'
_cell_length_a   7.21629400
_cell_length_b   11.32410400
_cell_length_c   19.34662000
_cell_angle_alpha   90.00000000
_cell_angle_beta   90.00000000
_cell_angle_gamma   90.00000000
_symmetry_Int_Tables_number   1
_chemical_formula_structural   KSr6Sc(SiO4)4
_chemical_formula_sum   'K4 Sr24 Sc4 Si16 O64'
_cell_volume   1580.96832652
_cell_formula_units_Z   4
loop_
 _symmetry_equiv_pos_site_id
 _symmetry_equiv_pos_as_xyz
  1  'x, y, z'
loop_
 _atom_site_type_symbol
 _atom_site_label
 _atom_site_symmetry_multiplicity
 _atom_site_fract_x
 _atom_site_fract_y
 _atom_site_fract_z
 _atom_site_occupancy
  K  K0  1  0.84428500  0.75000000  0.67756800  1
  K  K1  1  0.15571500  0.25000000  0.32243200  1
  K  K2  1  0.34428500  0.25000000  0.82243200  1
  K  K3  1  0.65571500  0.75000000  0.17756800  1
  Sr  Sr4  1  0.67007600  0.49827200  0.90903000  1
  Sr  Sr5  1  0.32992400  0.50172800  0.09097000  1
  Sr  Sr6  1  0.17007600  0.50172800  0.59097000  1
  Sr  Sr7  1  0.32992400  0.99827200  0.09097000  1
  Sr  Sr8  1  0.82992400  0.49827200  0.40903000  1
  Sr  Sr9  1  0.67007600  0.00172800  0.90903000  1
  Sr  Sr10  1  0.82992400  0.00172800  0.40903000  1
  Sr  Sr11  1  0.17007600  0.99827200  0.59097000  1
  Sr  Sr12  1  0.51365000  0.52667200  0.72446800  1
  Sr  Sr13  1  0.48635000  0.47332800  0.27553200  1
  Sr  Sr14  1  0.01365000  0.47332800  0.77553200  1
  Sr  Sr15  1  0.48635000  0.02667200  0.27553200  1
  Sr  Sr16  1  0.98635000  0.52667200  0.22446800  1
  Sr  Sr17  1  0.51365000  0.97332800  0.72446800  1
  Sr  Sr18  1  0.98635000  0.97332800  0.22446800  1
  Sr  Sr19  1  0.01365000  0.02667200  0.77553200  1
  Sr  Sr20  1  0.49926200  0.75000000  0.52092700  1
  Sr  Sr21  1  0.50073800  0.25000000  0.47907300  1
  Sr  Sr22  1  0.99926200  0.25000000  0.97907300  1
  Sr  Sr23  1  0.00073800  0.75000000  0.02092700  1
  Sr  Sr24  1  0.27576600  0.75000000  0.84246300  1
  Sr  Sr25  1  0.72423400  0.25000000  0.15753700  1
  Sr  Sr26  1  0.77576600  0.25000000  0.65753700  1
  Sr  Sr27  1  0.22423400  0.75000000  0.34246300  1
  Sc  Sc28  1  0.01688200  0.75000000  0.50179600  1
  Sc  Sc29  1  0.98311800  0.25000000  0.49820400  1
  Sc  Sc30  1  0.51688200  0.25000000  0.99820400  1
  Sc  Sc31  1  0.48311800  0.75000000  0.00179600  1
  Si  Si32  1  0.77578200  0.75000000  0.84677000  1
  Si  Si33  1  0.22421800  0.25000000  0.15323000  1
  Si  Si34  1  0.27578200  0.25000000  0.65323000  1
  Si  Si35  1  0.72421800  0.75000000  0.34677000  1
  Si  Si36  1  0.72950200  0.50300900  0.57626500  1
  Si  Si37  1  0.27049800  0.49699100  0.42373500  1
  Si  Si38  1  0.22950200  0.49699100  0.92373500  1
  Si  Si39  1  0.27049800  0.00300900  0.42373500  1
  Si  Si40  1  0.77049800  0.50300900  0.07626500  1
  Si  Si41  1  0.72950200  0.99699100  0.57626500  1
  Si  Si42  1  0.77049800  0.99699100  0.07626500  1
  Si  Si43  1  0.22950200  0.00300900  0.92373500  1
  Si  Si44  1  0.26755600  0.75000000  0.67353000  1
  Si  Si45  1  0.73244400  0.25000000  0.32647000  1
  Si  Si46  1  0.76755600  0.25000000  0.82647000  1
  Si  Si47  1  0.23244400  0.75000000  0.17353000  1
  O  O48  1  0.00802500  0.75000000  0.17801000  1
  O  O49  1  0.99197500  0.25000000  0.82199000  1
  O  O50  1  0.50802500  0.25000000  0.32199000  1
  O  O51  1  0.49197500  0.75000000  0.67801000  1
  O  O52  1  0.18544200  0.75000000  0.59252600  1
  O  O53  1  0.81455800  0.25000000  0.40747400  1
  O  O54  1  0.68544200  0.25000000  0.90747400  1
  O  O55  1  0.31455800  0.75000000  0.09252600  1
  O  O56  1  0.96895400  0.75000000  0.89025500  1
  O  O57  1  0.03104600  0.25000000  0.10974500  1
  O  O58  1  0.46895400  0.25000000  0.60974500  1
  O  O59  1  0.53104600  0.75000000  0.39025500  1
  O  O60  1  0.59747800  0.75000000  0.90383700  1
  O  O61  1  0.40252200  0.25000000  0.09616300  1
  O  O62  1  0.09747800  0.25000000  0.59616300  1
  O  O63  1  0.90252200  0.75000000  0.40383700  1
  O  O64  1  0.78524200  0.11764900  0.53097500  1
  O  O65  1  0.21475800  0.88235100  0.46902500  1
  O  O66  1  0.28524200  0.88235100  0.96902500  1
  O  O67  1  0.21475800  0.61764900  0.46902500  1
  O  O68  1  0.71475800  0.11764900  0.03097500  1
  O  O69  1  0.78524200  0.38235100  0.53097500  1
  O  O70  1  0.71475800  0.38235100  0.03097500  1
  O  O71  1  0.28524200  0.61764900  0.96902500  1
  O  O72  1  0.51032300  0.53407500  0.58347700  1
  O  O73  1  0.48967700  0.46592500  0.41652300  1
  O  O74  1  0.01032300  0.46592500  0.91652300  1
  O  O75  1  0.48967700  0.03407500  0.41652300  1
  O  O76  1  0.98967700  0.53407500  0.08347700  1
  O  O77  1  0.51032300  0.96592500  0.58347700  1
  O  O78  1  0.98967700  0.96592500  0.08347700  1
  O  O79  1  0.01032300  0.03407500  0.91652300  1
  O  O80  1  0.82512100  0.01707500  0.65303900  1
  O  O81  1  0.17487900  0.98292500  0.34696100  1
  O  O82  1  0.32512100  0.98292500  0.84696100  1
  O  O83  1  0.17487900  0.51707500  0.34696100  1
  O  O84  1  0.67487900  0.01707500  0.15303900  1
  O  O85  1  0.82512100  0.48292500  0.65303900  1
  O  O86  1  0.67487900  0.48292500  0.15303900  1
  O  O87  1  0.32512100  0.51707500  0.84696100  1
  O  O88  1  0.68895000  0.13063300  0.78814800  1
  O  O89  1  0.31105000  0.86936700  0.21185200  1
  O  O90  1  0.18895000  0.86936700  0.71185200  1
  O  O91  1  0.31105000  0.63063300  0.21185200  1
  O  O92  1  0.81105000  0.13063300  0.28814800  1
  O  O93  1  0.68895000  0.36936700  0.78814800  1
  O  O94  1  0.81105000  0.36936700  0.28814800  1
  O  O95  1  0.18895000  0.63063300  0.71185200  1
  O  O96  1  0.75267200  0.62739000  0.80211100  1
  O  O97  1  0.24732800  0.37261000  0.19788900  1
  O  O98  1  0.25267200  0.37261000  0.69788900  1
  O  O99  1  0.24732800  0.12739000  0.19788900  1
  O  O100  1  0.74732800  0.62739000  0.30211100  1
  O  O101  1  0.75267200  0.87261000  0.80211100  1
  O  O102  1  0.74732800  0.87261000  0.30211100  1
  O  O103  1  0.25267200  0.12739000  0.69788900  1
  O  O104  1  0.83557100  0.61488700  0.53503700  1
  O  O105  1  0.16442900  0.38511300  0.46496300  1
  O  O106  1  0.33557100  0.38511300  0.96496300  1
  O  O107  1  0.16442900  0.11488700  0.46496300  1
  O  O108  1  0.66442900  0.61488700  0.03503700  1
  O  O109  1  0.83557100  0.88511300  0.53503700  1
  O  O110  1  0.66442900  0.88511300  0.03503700  1
  O  O111  1  0.33557100  0.11488700  0.96496300  1
