# generated using pymatgen
data_In2Hg6(PCl3)3
_symmetry_space_group_name_H-M   'P 1'
_cell_length_a   10.94162700
_cell_length_b   10.54111300
_cell_length_c   11.07459224
_cell_angle_alpha   63.73786182
_cell_angle_beta   90.00000000
_cell_angle_gamma   90.00000000
_symmetry_Int_Tables_number   1
_chemical_formula_structural   In2Hg6(PCl3)3
_chemical_formula_sum   'In4 Hg12 P6 Cl18'
_cell_volume   1145.46430383
_cell_formula_units_Z   2
loop_
 _symmetry_equiv_pos_site_id
 _symmetry_equiv_pos_as_xyz
  1  'x, y, z'
loop_
 _atom_site_type_symbol
 _atom_site_label
 _atom_site_symmetry_multiplicity
 _atom_site_fract_x
 _atom_site_fract_y
 _atom_site_fract_z
 _atom_site_occupancy
  In  In0  1  0.87477100  0.35976900  0.91021600  1
  In  In1  1  0.37477100  0.64023100  0.08978400  1
  In  In2  1  0.74532400  0.69223300  0.67019100  1
  In  In3  1  0.24532400  0.30776700  0.32980900  1
  Hg  Hg4  1  0.48235000  0.17139600  0.00814900  1
  Hg  Hg5  1  0.98235000  0.82860400  0.99185100  1
  Hg  Hg6  1  0.55973500  0.27911900  0.62433800  1
  Hg  Hg7  1  0.05973500  0.72088100  0.37566200  1
  Hg  Hg8  1  0.31102500  0.51164500  0.67362600  1
  Hg  Hg9  1  0.81102500  0.48835500  0.32637400  1
  Hg  Hg10  1  0.72485700  0.86948300  0.22393400  1
  Hg  Hg11  1  0.22485700  0.13051700  0.77606600  1
  Hg  Hg12  1  0.63994800  0.14552700  0.35170600  1
  Hg  Hg13  1  0.13994800  0.85447300  0.64829400  1
  Hg  Hg14  1  0.38522300  0.88038600  0.37058800  1
  Hg  Hg15  1  0.88522300  0.11961400  0.62941200  1
  P  P16  1  0.55686900  0.01784800  0.23347900  1
  P  P17  1  0.05686900  0.98215200  0.76652100  1
  P  P18  1  0.72190900  0.26238800  0.48066800  1
  P  P19  1  0.22190900  0.73761200  0.51933200  1
  P  P20  1  0.39927400  0.27481700  0.78006200  1
  P  P21  1  0.89927400  0.72518300  0.21993800  1
  Cl  Cl22  1  0.78704600  0.13575100  0.91468500  1
  Cl  Cl23  1  0.28704600  0.86424900  0.08531500  1
  Cl  Cl24  1  0.87203900  0.87982500  0.48479700  1
  Cl  Cl25  1  0.37203900  0.12017500  0.51520300  1
  Cl  Cl26  1  0.65327600  0.46809100  0.86998700  1
  Cl  Cl27  1  0.15327600  0.53190900  0.13001300  1
  Cl  Cl28  1  0.92060900  0.63489000  0.84828100  1
  Cl  Cl29  1  0.42060900  0.36511000  0.15171900  1
  Cl  Cl30  1  0.87277700  0.48734400  0.64104500  1
  Cl  Cl31  1  0.37277700  0.51265600  0.35895500  1
  Cl  Cl32  1  0.59466000  0.65442200  0.51811700  1
  Cl  Cl33  1  0.09466000  0.34557800  0.48188300  1
  Cl  Cl34  1  0.65210600  0.87898800  0.71279700  1
  Cl  Cl35  1  0.15210600  0.12101200  0.28720300  1
  Cl  Cl36  1  0.85368100  0.30136500  0.15179800  1
  Cl  Cl37  1  0.35368100  0.69863500  0.84820200  1
  Cl  Cl38  1  0.09369000  0.30881200  0.90318400  1
  Cl  Cl39  1  0.59369000  0.69118800  0.09681600  1
