# generated using pymatgen
data_GdHfF7
_symmetry_space_group_name_H-M   'P 1'
_cell_length_a   5.74956400
_cell_length_b   6.17495372
_cell_length_c   8.35005411
_cell_angle_alpha   101.92781350
_cell_angle_beta   90.00000000
_cell_angle_gamma   90.00000000
_symmetry_Int_Tables_number   1
_chemical_formula_structural   GdHfF7
_chemical_formula_sum   'Gd2 Hf2 F14'
_cell_volume   290.05359091
_cell_formula_units_Z   2
loop_
 _symmetry_equiv_pos_site_id
 _symmetry_equiv_pos_as_xyz
  1  'x, y, z'
loop_
 _atom_site_type_symbol
 _atom_site_label
 _atom_site_symmetry_multiplicity
 _atom_site_fract_x
 _atom_site_fract_y
 _atom_site_fract_z
 _atom_site_occupancy
  Gd  Gd0  1  0.69861900  0.65643100  0.68619300  1
  Gd  Gd1  1  0.19861900  0.34356900  0.31380700  1
  Hf  Hf2  1  0.70875700  0.81175700  0.22388600  1
  Hf  Hf3  1  0.20875700  0.18824300  0.77611400  1
  F  F4  1  0.88543600  0.44955200  0.47529400  1
  F  F5  1  0.38543600  0.55044800  0.52470600  1
  F  F6  1  0.42240400  0.92867300  0.76733900  1
  F  F7  1  0.92240400  0.07132700  0.23266100  1
  F  F8  1  0.94642300  0.96795000  0.76137000  1
  F  F9  1  0.44642300  0.03205000  0.23863000  1
  F  F10  1  0.99887900  0.45042800  0.78654800  1
  F  F11  1  0.49887900  0.54957200  0.21345200  1
  F  F12  1  0.70518800  0.75682600  0.97937500  1
  F  F13  1  0.20518800  0.24317400  0.02062500  1
  F  F14  1  0.71262100  0.85958400  0.46997400  1
  F  F15  1  0.21262100  0.14041600  0.53002600  1
  F  F16  1  0.49803400  0.37597500  0.78223300  1
  F  F17  1  0.99803400  0.62402500  0.21776700  1
