# generated using pymatgen
data_Ba(SmS2)2
_symmetry_space_group_name_H-M   'P 1'
_cell_length_a   4.14580000
_cell_length_b   12.35861400
_cell_length_c   14.86510700
_cell_angle_alpha   90.00000000
_cell_angle_beta   90.00000000
_cell_angle_gamma   90.00000000
_symmetry_Int_Tables_number   1
_chemical_formula_structural   Ba(SmS2)2
_chemical_formula_sum   'Ba4 Sm8 S16'
_cell_volume   761.63370495
_cell_formula_units_Z   4
loop_
 _symmetry_equiv_pos_site_id
 _symmetry_equiv_pos_as_xyz
  1  'x, y, z'
loop_
 _atom_site_type_symbol
 _atom_site_label
 _atom_site_symmetry_multiplicity
 _atom_site_fract_x
 _atom_site_fract_y
 _atom_site_fract_z
 _atom_site_occupancy
  Ba  Ba0  1  0.25000000  0.75451100  0.34058400  1
  Ba  Ba1  1  0.25000000  0.25451100  0.15941600  1
  Ba  Ba2  1  0.75000000  0.24548900  0.65941600  1
  Ba  Ba3  1  0.75000000  0.74548900  0.84058400  1
  Sm  Sm4  1  0.25000000  0.42426600  0.89605300  1
  Sm  Sm5  1  0.25000000  0.92426600  0.60394700  1
  Sm  Sm6  1  0.75000000  0.57573400  0.10394700  1
  Sm  Sm7  1  0.75000000  0.07573400  0.39605300  1
  Sm  Sm8  1  0.25000000  0.42476800  0.39276200  1
  Sm  Sm9  1  0.25000000  0.92476800  0.10723800  1
  Sm  Sm10  1  0.75000000  0.57523200  0.60723800  1
  Sm  Sm11  1  0.75000000  0.07523200  0.89276200  1
  S  S12  1  0.25000000  0.21049700  0.82773800  1
  S  S13  1  0.25000000  0.71049700  0.67226200  1
  S  S14  1  0.75000000  0.78950300  0.17226200  1
  S  S15  1  0.75000000  0.28950300  0.32773800  1
  S  S16  1  0.25000000  0.12954500  0.52055500  1
  S  S17  1  0.25000000  0.62954500  0.97944500  1
  S  S18  1  0.75000000  0.87045500  0.47944500  1
  S  S19  1  0.75000000  0.37045500  0.02055500  1
  S  S20  1  0.25000000  0.51690200  0.21701700  1
  S  S21  1  0.25000000  0.01690200  0.28298300  1
  S  S22  1  0.75000000  0.48309800  0.78298300  1
  S  S23  1  0.75000000  0.98309800  0.71701700  1
  S  S24  1  0.25000000  0.42256800  0.57932000  1
  S  S25  1  0.25000000  0.92256800  0.92068000  1
  S  S26  1  0.75000000  0.57743200  0.42068000  1
  S  S27  1  0.75000000  0.07743200  0.07932000  1
