# generated using pymatgen
data_Lu8Te
_symmetry_space_group_name_H-M   'P 1'
_cell_length_a   9.03426749
_cell_length_b   9.03426749
_cell_length_c   3.69257600
_cell_angle_alpha   90.00000000
_cell_angle_beta   90.00000000
_cell_angle_gamma   119.99999624
_symmetry_Int_Tables_number   1
_chemical_formula_structural   Lu8Te
_chemical_formula_sum   'Lu8 Te1'
_cell_volume   261.00328945
_cell_formula_units_Z   1
loop_
 _symmetry_equiv_pos_site_id
 _symmetry_equiv_pos_as_xyz
  1  'x, y, z'
loop_
 _atom_site_type_symbol
 _atom_site_label
 _atom_site_symmetry_multiplicity
 _atom_site_fract_x
 _atom_site_fract_y
 _atom_site_fract_z
 _atom_site_occupancy
  Lu  Lu0  1  0.72215800  0.72215800  0.00000000  1
  Lu  Lu1  1  0.00000000  0.27784200  0.00000000  1
  Lu  Lu2  1  0.61363600  0.00000000  0.50000000  1
  Lu  Lu3  1  0.38636400  0.38636400  0.50000000  1
  Lu  Lu4  1  0.00000000  0.61363600  0.50000000  1
  Lu  Lu5  1  0.33333300  0.66666700  0.00000000  1
  Lu  Lu6  1  0.66666700  0.33333300  0.00000000  1
  Lu  Lu7  1  0.27784200  0.00000000  0.00000000  1
  Te  Te8  1  0.00000000  0.00000000  0.50000000  1
