# generated using pymatgen
data_LaAlGe2O7
_symmetry_space_group_name_H-M   'P 1'
_cell_length_a   6.63000400
_cell_length_b   7.37766900
_cell_length_c   12.99898482
_cell_angle_alpha   62.51216989
_cell_angle_beta   90.00000000
_cell_angle_gamma   90.00000000
_symmetry_Int_Tables_number   1
_chemical_formula_structural   LaAlGe2O7
_chemical_formula_sum   'La4 Al4 Ge8 O28'
_cell_volume   564.05223620
_cell_formula_units_Z   4
loop_
 _symmetry_equiv_pos_site_id
 _symmetry_equiv_pos_as_xyz
  1  'x, y, z'
loop_
 _atom_site_type_symbol
 _atom_site_label
 _atom_site_symmetry_multiplicity
 _atom_site_fract_x
 _atom_site_fract_y
 _atom_site_fract_z
 _atom_site_occupancy
  La  La0  1  0.35207000  0.73870400  0.52560600  1
  La  La1  1  0.64793000  0.26129600  0.47439400  1
  La  La2  1  0.85207000  0.26129600  0.97439400  1
  La  La3  1  0.14793000  0.73870400  0.02560600  1
  Al  Al4  1  0.39766400  0.71348200  0.26969300  1
  Al  Al5  1  0.60233600  0.28651800  0.73030700  1
  Al  Al6  1  0.89766400  0.28651800  0.23030700  1
  Al  Al7  1  0.10233600  0.71348200  0.76969300  1
  Ge  Ge8  1  0.65732100  0.70871000  0.04959900  1
  Ge  Ge9  1  0.34267900  0.29129000  0.95040100  1
  Ge  Ge10  1  0.15732100  0.29129000  0.45040100  1
  Ge  Ge11  1  0.84267900  0.70871000  0.54959900  1
  Ge  Ge12  1  0.90973500  0.80329300  0.28080500  1
  Ge  Ge13  1  0.09026500  0.19670700  0.71919500  1
  Ge  Ge14  1  0.40973500  0.19670700  0.21919500  1
  Ge  Ge15  1  0.59026500  0.80329300  0.78080500  1
  O  O16  1  0.37540600  0.92872300  0.29986900  1
  O  O17  1  0.62459400  0.07127700  0.70013100  1
  O  O18  1  0.87540600  0.07127700  0.20013100  1
  O  O19  1  0.12459400  0.92872300  0.79986900  1
  O  O20  1  0.82209500  0.90674500  0.02336100  1
  O  O21  1  0.17790500  0.09325500  0.97663900  1
  O  O22  1  0.32209500  0.09325500  0.47663900  1
  O  O23  1  0.67790500  0.90674500  0.52336100  1
  O  O24  1  0.61511100  0.27450800  0.27650600  1
  O  O25  1  0.38488900  0.72549200  0.72349400  1
  O  O26  1  0.11511100  0.72549200  0.22349400  1
  O  O27  1  0.88488900  0.27450800  0.77650600  1
  O  O28  1  0.99606500  0.74664900  0.42718000  1
  O  O29  1  0.00393500  0.25335100  0.57282000  1
  O  O30  1  0.49606500  0.25335100  0.07282000  1
  O  O31  1  0.50393500  0.74664900  0.92718000  1
  O  O32  1  0.45045900  0.70337000  0.13604200  1
  O  O33  1  0.54954100  0.29663000  0.86395800  1
  O  O34  1  0.95045900  0.29663000  0.36395800  1
  O  O35  1  0.04954100  0.70337000  0.63604200  1
  O  O36  1  0.83722100  0.50408400  0.08734400  1
  O  O37  1  0.16277900  0.49591600  0.91265600  1
  O  O38  1  0.33722100  0.49591600  0.41265600  1
  O  O39  1  0.66277900  0.50408400  0.58734400  1
  O  O40  1  0.68143800  0.66260500  0.31214500  1
  O  O41  1  0.31856200  0.33739500  0.68785500  1
  O  O42  1  0.18143800  0.33739500  0.18785500  1
  O  O43  1  0.81856200  0.66260500  0.81214500  1
