# generated using pymatgen
data_TmAsSe
_symmetry_space_group_name_H-M   'P 1'
_cell_length_a   3.87337900
_cell_length_b   3.88647800
_cell_length_c   17.40454100
_cell_angle_alpha   90.00000000
_cell_angle_beta   90.00000000
_cell_angle_gamma   90.00000000
_symmetry_Int_Tables_number   1
_chemical_formula_structural   TmAsSe
_chemical_formula_sum   'Tm4 As4 Se4'
_cell_volume   262.00451880
_cell_formula_units_Z   4
loop_
 _symmetry_equiv_pos_site_id
 _symmetry_equiv_pos_as_xyz
  1  'x, y, z'
loop_
 _atom_site_type_symbol
 _atom_site_label
 _atom_site_symmetry_multiplicity
 _atom_site_fract_x
 _atom_site_fract_y
 _atom_site_fract_z
 _atom_site_occupancy
  Tm  Tm0  1  0.75000000  0.24088500  0.86109900  1
  Tm  Tm1  1  0.75000000  0.25911500  0.36109900  1
  Tm  Tm2  1  0.25000000  0.75911500  0.13890100  1
  Tm  Tm3  1  0.25000000  0.74088500  0.63890100  1
  As  As4  1  0.25000000  0.22571300  0.50080800  1
  As  As5  1  0.25000000  0.27428700  0.00080800  1
  As  As6  1  0.75000000  0.77428700  0.49919200  1
  As  As7  1  0.75000000  0.72571300  0.99919200  1
  Se  Se8  1  0.75000000  0.24211900  0.68809200  1
  Se  Se9  1  0.75000000  0.25788100  0.18809200  1
  Se  Se10  1  0.25000000  0.75788000  0.31190800  1
  Se  Se11  1  0.25000000  0.74212000  0.81190800  1
