# generated using pymatgen
data_Er2Si4CN6
_symmetry_space_group_name_H-M   'P 1'
_cell_length_a   9.93883300
_cell_length_b   5.93819300
_cell_length_c   11.89678637
_cell_angle_alpha   60.43639453
_cell_angle_beta   90.00000000
_cell_angle_gamma   90.00000000
_symmetry_Int_Tables_number   1
_chemical_formula_structural   Er2Si4CN6
_chemical_formula_sum   'Er8 Si16 C4 N24'
_cell_volume   610.72122868
_cell_formula_units_Z   4
loop_
 _symmetry_equiv_pos_site_id
 _symmetry_equiv_pos_as_xyz
  1  'x, y, z'
loop_
 _atom_site_type_symbol
 _atom_site_label
 _atom_site_symmetry_multiplicity
 _atom_site_fract_x
 _atom_site_fract_y
 _atom_site_fract_z
 _atom_site_occupancy
  Er  Er0  1  0.08663600  0.34110900  0.91814600  1
  Er  Er1  1  0.91336400  0.65889100  0.08185400  1
  Er  Er2  1  0.58663600  0.65889100  0.58185400  1
  Er  Er3  1  0.41336400  0.34110900  0.41814600  1
  Er  Er4  1  0.93373100  0.66918700  0.59508500  1
  Er  Er5  1  0.06626900  0.33081300  0.40491500  1
  Er  Er6  1  0.43373100  0.33081300  0.90491500  1
  Er  Er7  1  0.56626900  0.66918700  0.09508500  1
  Si  Si8  1  0.28700900  0.83542800  0.92035000  1
  Si  Si9  1  0.71299100  0.16457200  0.07965000  1
  Si  Si10  1  0.78700900  0.16457200  0.57965000  1
  Si  Si11  1  0.21299100  0.83542800  0.42035000  1
  Si  Si12  1  0.27229200  0.32308900  0.65872500  1
  Si  Si13  1  0.72770800  0.67691100  0.34127500  1
  Si  Si14  1  0.77229200  0.67691100  0.84127500  1
  Si  Si15  1  0.22770800  0.32308900  0.15872500  1
  Si  Si16  1  0.02019000  0.99487200  0.74923700  1
  Si  Si17  1  0.97981000  0.00512800  0.25076300  1
  Si  Si18  1  0.52019000  0.00512800  0.75076300  1
  Si  Si19  1  0.47981000  0.99487200  0.24923700  1
  Si  Si20  1  0.29455200  0.79820600  0.67658300  1
  Si  Si21  1  0.70544800  0.20179400  0.32341700  1
  Si  Si22  1  0.79455200  0.20179400  0.82341700  1
  Si  Si23  1  0.20544800  0.79820600  0.17658300  1
  C  C24  1  0.20842900  0.97688900  0.75226100  1
  C  C25  1  0.79157100  0.02311100  0.24773900  1
  C  C26  1  0.70842900  0.02311100  0.74773900  1
  C  C27  1  0.29157100  0.97688900  0.25226100  1
  N  N28  1  0.45528700  0.94187100  0.90040500  1
  N  N29  1  0.54471300  0.05812900  0.09959500  1
  N  N30  1  0.95528700  0.05812900  0.59959500  1
  N  N31  1  0.04471300  0.94187100  0.40040500  1
  N  N32  1  0.44701100  0.30086100  0.63665200  1
  N  N33  1  0.55298900  0.69913900  0.36334800  1
  N  N34  1  0.94701100  0.69913900  0.86334800  1
  N  N35  1  0.05298900  0.30086100  0.13665200  1
  N  N36  1  0.46478100  0.75582700  0.72365900  1
  N  N37  1  0.53521900  0.24417300  0.27634100  1
  N  N38  1  0.96478100  0.24417300  0.77634100  1
  N  N39  1  0.03521900  0.75582700  0.22365900  1
  N  N40  1  0.20909800  0.49352800  0.50049900  1
  N  N41  1  0.79090200  0.50647200  0.49950100  1
  N  N42  1  0.70909800  0.50647200  0.99950100  1
  N  N43  1  0.29090200  0.49352800  0.00049900  1
  N  N44  1  0.23556200  0.48061700  0.74676200  1
  N  N45  1  0.76443800  0.51938300  0.25323800  1
  N  N46  1  0.73556200  0.51938300  0.75323800  1
  N  N47  1  0.26443800  0.48061700  0.24676200  1
  N  N48  1  0.29059500  0.95863800  0.50919400  1
  N  N49  1  0.70940500  0.04136200  0.49080600  1
  N  N50  1  0.79059500  0.04136200  0.99080600  1
  N  N51  1  0.20940500  0.95863800  0.00919400  1
