# generated using pymatgen
data_Tl3AsSe4
_symmetry_space_group_name_H-M   'P 1'
_cell_length_a   9.32400600
_cell_length_b   9.72702700
_cell_length_c   11.53477100
_cell_angle_alpha   90.00000000
_cell_angle_beta   90.00000000
_cell_angle_gamma   90.00000000
_symmetry_Int_Tables_number   1
_chemical_formula_structural   Tl3AsSe4
_chemical_formula_sum   'Tl12 As4 Se16'
_cell_volume   1046.14441918
_cell_formula_units_Z   4
loop_
 _symmetry_equiv_pos_site_id
 _symmetry_equiv_pos_as_xyz
  1  'x, y, z'
loop_
 _atom_site_type_symbol
 _atom_site_label
 _atom_site_symmetry_multiplicity
 _atom_site_fract_x
 _atom_site_fract_y
 _atom_site_fract_z
 _atom_site_occupancy
  Tl  Tl0  1  0.89549500  0.38935200  0.75000000  1
  Tl  Tl1  1  0.39549500  0.11064800  0.75000000  1
  Tl  Tl2  1  0.10450500  0.61064800  0.25000000  1
  Tl  Tl3  1  0.60450500  0.88935200  0.25000000  1
  Tl  Tl4  1  0.56509800  0.69542600  0.55494200  1
  Tl  Tl5  1  0.06509800  0.80457400  0.94505800  1
  Tl  Tl6  1  0.43490200  0.30457400  0.05494200  1
  Tl  Tl7  1  0.93490200  0.19542600  0.44505800  1
  Tl  Tl8  1  0.43490200  0.30457400  0.44505800  1
  Tl  Tl9  1  0.93490200  0.19542600  0.05494200  1
  Tl  Tl10  1  0.56509800  0.69542600  0.94505800  1
  Tl  Tl11  1  0.06509800  0.80457400  0.55494200  1
  As  As12  1  0.77733300  0.97093600  0.75000000  1
  As  As13  1  0.27733300  0.52906400  0.75000000  1
  As  As14  1  0.22266700  0.02906400  0.25000000  1
  As  As15  1  0.72266700  0.47093600  0.25000000  1
  Se  Se16  1  0.80812100  0.72819800  0.75000000  1
  Se  Se17  1  0.30812100  0.77180200  0.75000000  1
  Se  Se18  1  0.19187900  0.27180200  0.25000000  1
  Se  Se19  1  0.69187900  0.22819800  0.25000000  1
  Se  Se20  1  0.50755300  0.43012500  0.75000000  1
  Se  Se21  1  0.00755300  0.06987500  0.75000000  1
  Se  Se22  1  0.49244700  0.56987500  0.25000000  1
  Se  Se23  1  0.99244700  0.93012500  0.25000000  1
  Se  Se24  1  0.64598900  0.03018700  0.58177800  1
  Se  Se25  1  0.14598900  0.46981300  0.91822200  1
  Se  Se26  1  0.35401100  0.96981300  0.08177800  1
  Se  Se27  1  0.85401100  0.53018700  0.41822200  1
  Se  Se28  1  0.35401100  0.96981300  0.41822200  1
  Se  Se29  1  0.85401100  0.53018700  0.08177800  1
  Se  Se30  1  0.64598900  0.03018700  0.91822200  1
  Se  Se31  1  0.14598900  0.46981300  0.58177800  1
