# generated using pymatgen
data_KMg3V3CuO12
_symmetry_space_group_name_H-M   'P 1'
_cell_length_a   8.90868053
_cell_length_b   8.90868053
_cell_length_c   6.96251282
_cell_angle_alpha   75.22290418
_cell_angle_beta   75.22290418
_cell_angle_gamma   92.54162296
_symmetry_Int_Tables_number   1
_chemical_formula_structural   KMg3V3CuO12
_chemical_formula_sum   'K2 Mg6 V6 Cu2 O24'
_cell_volume   513.07992976
_cell_formula_units_Z   2
loop_
 _symmetry_equiv_pos_site_id
 _symmetry_equiv_pos_as_xyz
  1  'x, y, z'
loop_
 _atom_site_type_symbol
 _atom_site_label
 _atom_site_symmetry_multiplicity
 _atom_site_fract_x
 _atom_site_fract_y
 _atom_site_fract_z
 _atom_site_occupancy
  K  K0  1  0.51497900  0.48502100  0.25000000  1
  K  K1  1  0.48502100  0.51497900  0.75000000  1
  Mg  Mg2  1  0.55331700  0.87609900  0.37483000  1
  Mg  Mg3  1  0.44668300  0.12390100  0.62517000  1
  Mg  Mg4  1  0.12390100  0.44668300  0.12517000  1
  Mg  Mg5  1  0.87609900  0.55331700  0.87483000  1
  Mg  Mg6  1  0.24061100  0.75938900  0.25000000  1
  Mg  Mg7  1  0.75938900  0.24061100  0.75000000  1
  V  V8  1  0.38058200  0.14757800  0.12195900  1
  V  V9  1  0.61941800  0.85242200  0.87804100  1
  V  V10  1  0.85242200  0.61941800  0.37804100  1
  V  V11  1  0.14757800  0.38058200  0.62195900  1
  V  V12  1  0.78814600  0.21185400  0.25000000  1
  V  V13  1  0.21185400  0.78814600  0.75000000  1
  Cu  Cu14  1  0.99721500  0.00278500  0.25000000  1
  Cu  Cu15  1  0.00278500  0.99721500  0.75000000  1
  O  O16  1  0.67329300  0.68384100  0.38724100  1
  O  O17  1  0.32670700  0.31615900  0.61275900  1
  O  O18  1  0.31615900  0.32670700  0.11275900  1
  O  O19  1  0.68384100  0.67329300  0.88724100  1
  O  O20  1  0.77270500  0.01064900  0.26781100  1
  O  O21  1  0.22729500  0.98935100  0.73218900  1
  O  O22  1  0.98935100  0.22729500  0.23218900  1
  O  O23  1  0.01064900  0.77270500  0.76781100  1
  O  O24  1  0.67892000  0.24763400  0.47822900  1
  O  O25  1  0.32108000  0.75236600  0.52177100  1
  O  O26  1  0.75236600  0.32108000  0.02177100  1
  O  O27  1  0.24763400  0.67892000  0.97822900  1
  O  O28  1  0.22093300  0.00360600  0.17718100  1
  O  O29  1  0.77906700  0.99639400  0.82281900  1
  O  O30  1  0.99639400  0.77906700  0.32281900  1
  O  O31  1  0.00360600  0.22093300  0.67718100  1
  O  O32  1  0.47182200  0.09891700  0.32151000  1
  O  O33  1  0.52817800  0.90108300  0.67849000  1
  O  O34  1  0.90108300  0.52817800  0.17849000  1
  O  O35  1  0.09891700  0.47182200  0.82151000  1
  O  O36  1  0.48679000  0.83094600  0.12165900  1
  O  O37  1  0.51321000  0.16905400  0.87834100  1
  O  O38  1  0.16905400  0.51321000  0.37834100  1
  O  O39  1  0.83094600  0.48679000  0.62165900  1
