# generated using pymatgen
data_LiIrF6
_symmetry_space_group_name_H-M   'P 1'
_cell_length_a   5.49673255
_cell_length_b   5.49673255
_cell_length_c   5.49673228
_cell_angle_alpha   56.70411123
_cell_angle_beta   56.70411123
_cell_angle_gamma   56.70410818
_symmetry_Int_Tables_number   1
_chemical_formula_structural   LiIrF6
_chemical_formula_sum   'Li1 Ir1 F6'
_cell_volume   108.49785630
_cell_formula_units_Z   1
loop_
 _symmetry_equiv_pos_site_id
 _symmetry_equiv_pos_as_xyz
  1  'x, y, z'
loop_
 _atom_site_type_symbol
 _atom_site_label
 _atom_site_symmetry_multiplicity
 _atom_site_fract_x
 _atom_site_fract_y
 _atom_site_fract_z
 _atom_site_occupancy
  Li  Li0  1  0.50000000  0.50000000  0.50000000  1
  Ir  Ir1  1  0.00000000  0.00000000  0.00000000  1
  F  F2  1  0.23905800  0.64522800  0.87466900  1
  F  F3  1  0.87466900  0.23905800  0.64522800  1
  F  F4  1  0.35477200  0.12533100  0.76094200  1
  F  F5  1  0.64522800  0.87466900  0.23905800  1
  F  F6  1  0.12533100  0.76094200  0.35477200  1
  F  F7  1  0.76094200  0.35477200  0.12533100  1
