# generated using pymatgen
data_La4MnS6O
_symmetry_space_group_name_H-M   'P 1'
_cell_length_a   9.50805460
_cell_length_b   9.50805460
_cell_length_c   6.86594100
_cell_angle_alpha   90.00000000
_cell_angle_beta   90.00000000
_cell_angle_gamma   120.00000419
_symmetry_Int_Tables_number   1
_chemical_formula_structural   La4MnS6O
_chemical_formula_sum   'La8 Mn2 S12 O2'
_cell_volume   537.54399509
_cell_formula_units_Z   2
loop_
 _symmetry_equiv_pos_site_id
 _symmetry_equiv_pos_as_xyz
  1  'x, y, z'
loop_
 _atom_site_type_symbol
 _atom_site_label
 _atom_site_symmetry_multiplicity
 _atom_site_fract_x
 _atom_site_fract_y
 _atom_site_fract_z
 _atom_site_occupancy
  La  La0  1  0.66666700  0.33333300  0.71487400  1
  La  La1  1  0.33333300  0.66666700  0.21487400  1
  La  La2  1  0.19727300  0.80272700  0.68298500  1
  La  La3  1  0.39454600  0.19727300  0.18298500  1
  La  La4  1  0.80272700  0.60545400  0.18298500  1
  La  La5  1  0.19727300  0.39454600  0.68298500  1
  La  La6  1  0.60545400  0.80272700  0.68298500  1
  La  La7  1  0.80272700  0.19727300  0.18298500  1
  Mn  Mn8  1  0.00000000  0.00000000  0.48448700  1
  Mn  Mn9  1  0.00000000  0.00000000  0.98448700  1
  S  S10  1  0.53086200  0.06172500  0.46086400  1
  S  S11  1  0.46913800  0.93827500  0.96086400  1
  S  S12  1  0.06172500  0.53086200  0.96086400  1
  S  S13  1  0.53086200  0.46913800  0.46086400  1
  S  S14  1  0.87649000  0.12351000  0.78524000  1
  S  S15  1  0.75298100  0.87649000  0.28524000  1
  S  S16  1  0.12351000  0.24701900  0.28524000  1
  S  S17  1  0.87649000  0.75298100  0.78524000  1
  S  S18  1  0.46913800  0.53086200  0.96086400  1
  S  S19  1  0.93827500  0.46913800  0.46086400  1
  S  S20  1  0.12351000  0.87649000  0.28524000  1
  S  S21  1  0.24701900  0.12351000  0.78524000  1
  O  O22  1  0.33333300  0.66666700  0.56084500  1
  O  O23  1  0.66666700  0.33333300  0.06084500  1
