# generated using pymatgen
data_Pr2O3
_symmetry_space_group_name_H-M   'P 1'
_cell_length_a   9.77718259
_cell_length_b   9.77718259
_cell_length_c   9.77718259
_cell_angle_alpha   109.47122063
_cell_angle_beta   109.47122063
_cell_angle_gamma   109.47122063
_symmetry_Int_Tables_number   1
_chemical_formula_structural   Pr2O3
_chemical_formula_sum   'Pr16 O24'
_cell_volume   719.48092853
_cell_formula_units_Z   8
loop_
 _symmetry_equiv_pos_site_id
 _symmetry_equiv_pos_as_xyz
  1  'x, y, z'
loop_
 _atom_site_type_symbol
 _atom_site_label
 _atom_site_symmetry_multiplicity
 _atom_site_fract_x
 _atom_site_fract_y
 _atom_site_fract_z
 _atom_site_occupancy
  Pr  Pr0  1  0.71951600  0.46951600  0.25000000  1
  Pr  Pr1  1  0.75000000  0.78048400  0.03048400  1
  Pr  Pr2  1  0.03048400  0.75000000  0.78048400  1
  Pr  Pr3  1  0.25000000  0.71951600  0.46951600  1
  Pr  Pr4  1  0.46951600  0.25000000  0.71951600  1
  Pr  Pr5  1  0.78048400  0.03048400  0.75000000  1
  Pr  Pr6  1  0.28048400  0.53048400  0.75000000  1
  Pr  Pr7  1  0.25000000  0.21951600  0.96951600  1
  Pr  Pr8  1  0.96951600  0.25000000  0.21951600  1
  Pr  Pr9  1  0.75000000  0.28048400  0.53048400  1
  Pr  Pr10  1  0.53048400  0.75000000  0.28048400  1
  Pr  Pr11  1  0.21951600  0.96951600  0.25000000  1
  Pr  Pr12  1  0.50000000  0.00000000  0.00000000  1
  Pr  Pr13  1  0.00000000  0.00000000  0.50000000  1
  Pr  Pr14  1  0.00000000  0.50000000  0.00000000  1
  Pr  Pr15  1  0.50000000  0.50000000  0.50000000  1
  O  O16  1  0.48799700  0.75878400  0.02770500  1
  O  O17  1  0.26892100  0.74121600  0.22921300  1
  O  O18  1  0.01200300  0.03970800  0.27078700  1
  O  O19  1  0.46029200  0.47229500  0.23107900  1
  O  O20  1  0.47229500  0.23107900  0.46029200  1
  O  O21  1  0.02770500  0.48799700  0.75878400  1
  O  O22  1  0.74121600  0.22921300  0.26892100  1
  O  O23  1  0.27078700  0.01200300  0.03970800  1
  O  O24  1  0.75878400  0.02770500  0.48799700  1
  O  O25  1  0.22921300  0.26892100  0.74121600  1
  O  O26  1  0.03970800  0.27078700  0.01200300  1
  O  O27  1  0.23107900  0.46029200  0.47229500  1
  O  O28  1  0.51200300  0.24121600  0.97229500  1
  O  O29  1  0.73107900  0.25878400  0.77078700  1
  O  O30  1  0.98799700  0.96029200  0.72921300  1
  O  O31  1  0.53970800  0.52770500  0.76892100  1
  O  O32  1  0.76892100  0.53970800  0.52770500  1
  O  O33  1  0.96029200  0.72921300  0.98799700  1
  O  O34  1  0.77078700  0.73107900  0.25878400  1
  O  O35  1  0.24121600  0.97229500  0.51200300  1
  O  O36  1  0.72921300  0.98799700  0.96029200  1
  O  O37  1  0.25878400  0.77078700  0.73107900  1
  O  O38  1  0.97229500  0.51200300  0.24121600  1
  O  O39  1  0.52770500  0.76892100  0.53970800  1
