# generated using pymatgen
data_Sr2SnH18(SeO3)4
_symmetry_space_group_name_H-M   'P 1'
_cell_length_a   5.99180500
_cell_length_b   8.51170997
_cell_length_c   9.70972235
_cell_angle_alpha   97.08778298
_cell_angle_beta   103.83720401
_cell_angle_gamma   110.39823205
_symmetry_Int_Tables_number   1
_chemical_formula_structural   Sr2SnH18(SeO3)4
_chemical_formula_sum   'Sr2 Sn1 H18 Se4 O12'
_cell_volume   438.89481395
_cell_formula_units_Z   1
loop_
 _symmetry_equiv_pos_site_id
 _symmetry_equiv_pos_as_xyz
  1  'x, y, z'
loop_
 _atom_site_type_symbol
 _atom_site_label
 _atom_site_symmetry_multiplicity
 _atom_site_fract_x
 _atom_site_fract_y
 _atom_site_fract_z
 _atom_site_occupancy
  Sr  Sr0  1  0.66629200  0.79909600  0.03791600  1
  Sr  Sr1  1  0.33370800  0.20090400  0.96208400  1
  Sn  Sn2  1  0.00000000  0.50000000  0.00000000  1
  H  H3  1  0.79562700  0.51610500  0.21062000  1
  H  H4  1  0.20437300  0.48389500  0.78938000  1
  H  H5  1  0.31721300  0.72965700  0.24343500  1
  H  H6  1  0.68278700  0.27034300  0.75656500  1
  H  H7  1  0.78584800  0.59705900  0.77673800  1
  H  H8  1  0.21415200  0.40294100  0.22326200  1
  H  H9  1  0.21987600  0.90087600  0.13537300  1
  H  H10  1  0.78012400  0.09912400  0.86462700  1
  H  H11  1  0.22638600  0.06106200  0.23734300  1
  H  H12  1  0.77361400  0.93893800  0.76265700  1
  H  H13  1  0.14282000  0.80249100  0.85849500  1
  H  H14  1  0.85718000  0.19750900  0.14150500  1
  H  H15  1  0.31408900  0.86896800  0.75795400  1
  H  H16  1  0.68591100  0.13103200  0.24204600  1
  H  H17  1  0.99555600  0.84340800  0.38013000  1
  H  H18  1  0.00444400  0.15659200  0.61987000  1
  H  H19  1  0.74037200  0.84938500  0.38890700  1
  H  H20  1  0.25962800  0.15061500  0.61109300  1
  Se  Se21  1  0.78457000  0.48732900  0.48503400  1
  Se  Se22  1  0.21543000  0.51267100  0.51496600  1
  Se  Se23  1  0.59983500  0.19000100  0.48070300  1
  Se  Se24  1  0.40016500  0.80999900  0.51929700  1
  O  O25  1  0.73993200  0.50984100  0.10548400  1
  O  O26  1  0.26006800  0.49015900  0.89451600  1
  O  O27  1  0.28578700  0.72721200  0.13845600  1
  O  O28  1  0.71421300  0.27278800  0.86154400  1
  O  O29  1  0.88372400  0.66009900  0.87758700  1
  O  O30  1  0.11627600  0.33990100  0.12241300  1
  O  O31  1  0.15627900  0.99638600  0.13543600  1
  O  O32  1  0.84372100  0.00361400  0.86456400  1
  O  O33  1  0.31206500  0.88531600  0.86017500  1
  O  O34  1  0.68793500  0.11468400  0.13982500  1
  O  O35  1  0.84554500  0.85724900  0.32431700  1
  O  O36  1  0.15445500  0.14275100  0.67568300  1
