# generated using pymatgen
data_Ba3TaAs3O
_symmetry_space_group_name_H-M   'P 1'
_cell_length_a   6.81808800
_cell_length_b   11.24893700
_cell_length_c   13.68253000
_cell_angle_alpha   90.00000000
_cell_angle_beta   90.00000000
_cell_angle_gamma   90.00000000
_symmetry_Int_Tables_number   1
_chemical_formula_structural   Ba3TaAs3O
_chemical_formula_sum   'Ba12 Ta4 As12 O4'
_cell_volume   1049.39863715
_cell_formula_units_Z   4
loop_
 _symmetry_equiv_pos_site_id
 _symmetry_equiv_pos_as_xyz
  1  'x, y, z'
loop_
 _atom_site_type_symbol
 _atom_site_label
 _atom_site_symmetry_multiplicity
 _atom_site_fract_x
 _atom_site_fract_y
 _atom_site_fract_z
 _atom_site_occupancy
  Ba  Ba0  1  0.24292600  0.04477100  0.13095000  1
  Ba  Ba1  1  0.72714300  0.75000000  0.12857200  1
  Ba  Ba2  1  0.77285700  0.25000000  0.62857200  1
  Ba  Ba3  1  0.27285700  0.25000000  0.87142800  1
  Ba  Ba4  1  0.75707400  0.95522900  0.86905000  1
  Ba  Ba5  1  0.25707400  0.54477100  0.63095000  1
  Ba  Ba6  1  0.24292600  0.45522900  0.13095000  1
  Ba  Ba7  1  0.74292600  0.04477100  0.36905000  1
  Ba  Ba8  1  0.25707400  0.95522900  0.63095000  1
  Ba  Ba9  1  0.74292600  0.45522900  0.36905000  1
  Ba  Ba10  1  0.75707400  0.54477100  0.86905000  1
  Ba  Ba11  1  0.22714300  0.75000000  0.37142800  1
  Ta  Ta12  1  0.66152700  0.75000000  0.54532400  1
  Ta  Ta13  1  0.16152700  0.75000000  0.95467600  1
  Ta  Ta14  1  0.33847300  0.25000000  0.45467600  1
  Ta  Ta15  1  0.83847300  0.25000000  0.04532400  1
  As  As16  1  0.27234000  0.25000000  0.63339500  1
  As  As17  1  0.77234000  0.25000000  0.86660500  1
  As  As18  1  0.72766000  0.75000000  0.36660500  1
  As  As19  1  0.22766000  0.75000000  0.13339500  1
  As  As20  1  0.73614400  0.44375200  0.11761900  1
  As  As21  1  0.23614400  0.05624800  0.38238100  1
  As  As22  1  0.26385600  0.94375200  0.88238100  1
  As  As23  1  0.76385600  0.55624800  0.61761900  1
  As  As24  1  0.26385600  0.55624800  0.88238100  1
  As  As25  1  0.23614400  0.44375200  0.38238100  1
  As  As26  1  0.73614400  0.05624800  0.11761900  1
  As  As27  1  0.76385600  0.94375200  0.61761900  1
  O  O28  1  0.11377900  0.25000000  0.05318200  1
  O  O29  1  0.61377900  0.25000000  0.44681800  1
  O  O30  1  0.88622100  0.75000000  0.94681800  1
  O  O31  1  0.38622100  0.75000000  0.55318200  1
