# generated using pymatgen
data_Cs2NbCuSe4
_symmetry_space_group_name_H-M   'P 1'
_cell_length_a   15.03250619
_cell_length_b   13.35981600
_cell_length_c   8.02981431
_cell_angle_alpha   85.45910256
_cell_angle_beta   62.36727308
_cell_angle_gamma   32.17362436
_symmetry_Int_Tables_number   1
_chemical_formula_structural   Cs2NbCuSe4
_chemical_formula_sum   'Cs4 Nb2 Cu2 Se8'
_cell_volume   568.60880581
_cell_formula_units_Z   2
loop_
 _symmetry_equiv_pos_site_id
 _symmetry_equiv_pos_as_xyz
  1  'x, y, z'
loop_
 _atom_site_type_symbol
 _atom_site_label
 _atom_site_symmetry_multiplicity
 _atom_site_fract_x
 _atom_site_fract_y
 _atom_site_fract_z
 _atom_site_occupancy
  Cs  Cs0  1  0.57223200  0.57223200  0.92776800  1
  Cs  Cs1  1  0.92776800  0.92776800  0.57223200  1
  Cs  Cs2  1  0.67776800  0.67776800  0.32223200  1
  Cs  Cs3  1  0.32223200  0.32223200  0.67776800  1
  Nb  Nb4  1  0.50000000  0.50000000  0.50000000  1
  Nb  Nb5  1  0.75000000  0.75000000  0.75000000  1
  Cu  Cu6  1  0.25000000  0.25000000  0.25000000  1
  Cu  Cu7  1  0.00000000  0.00000000  0.00000000  1
  Se  Se8  1  0.21436300  0.89226800  0.59880800  1
  Se  Se9  1  0.29456100  0.59880800  0.89226800  1
  Se  Se10  1  0.59880800  0.29456100  0.21436300  1
  Se  Se11  1  0.89226800  0.21436300  0.29456100  1
  Se  Se12  1  0.65119200  0.95543900  0.03563700  1
  Se  Se13  1  0.35773200  0.03563700  0.95543900  1
  Se  Se14  1  0.95543900  0.65119200  0.35773200  1
  Se  Se15  1  0.03563700  0.35773200  0.65119200  1
