# generated using pymatgen
data_Pr32In3Rh19
_symmetry_space_group_name_H-M   'P 1'
_cell_length_a   11.92451368
_cell_length_b   11.92451368
_cell_length_c   10.10286000
_cell_angle_alpha   90.00000000
_cell_angle_beta   90.00000000
_cell_angle_gamma   90.74560629
_symmetry_Int_Tables_number   1
_chemical_formula_structural   Pr32In3Rh19
_chemical_formula_sum   'Pr32 In3 Rh19'
_cell_volume   1436.44470697
_cell_formula_units_Z   1
loop_
 _symmetry_equiv_pos_site_id
 _symmetry_equiv_pos_as_xyz
  1  'x, y, z'
loop_
 _atom_site_type_symbol
 _atom_site_label
 _atom_site_symmetry_multiplicity
 _atom_site_fract_x
 _atom_site_fract_y
 _atom_site_fract_z
 _atom_site_occupancy
  Pr  Pr0  1  0.49947500  0.49947500  0.80689000  1
  Pr  Pr1  1  0.99278400  0.99278400  0.79934500  1
  Pr  Pr2  1  0.49947500  0.49947500  0.19311000  1
  Pr  Pr3  1  0.99278400  0.99278400  0.20065500  1
  Pr  Pr4  1  0.71483100  0.07125900  0.00000000  1
  Pr  Pr5  1  0.30166700  0.91323700  0.00000000  1
  Pr  Pr6  1  0.21587500  0.44088400  0.00000000  1
  Pr  Pr7  1  0.78711200  0.57632700  0.00000000  1
  Pr  Pr8  1  0.44088400  0.21587500  0.00000000  1
  Pr  Pr9  1  0.57632700  0.78711200  0.00000000  1
  Pr  Pr10  1  0.07125900  0.71483100  0.00000000  1
  Pr  Pr11  1  0.91323700  0.30166700  0.00000000  1
  Pr  Pr12  1  0.58220900  0.20694200  0.69390400  1
  Pr  Pr13  1  0.41972200  0.79079000  0.69343300  1
  Pr  Pr14  1  0.08009600  0.29254800  0.69723100  1
  Pr  Pr15  1  0.91840300  0.70687800  0.69582500  1
  Pr  Pr16  1  0.29254800  0.08009600  0.69723100  1
  Pr  Pr17  1  0.70687800  0.91840300  0.69582500  1
  Pr  Pr18  1  0.20694200  0.58220900  0.69390400  1
  Pr  Pr19  1  0.79079000  0.41972200  0.69343300  1
  Pr  Pr20  1  0.41972200  0.79079000  0.30656700  1
  Pr  Pr21  1  0.58220900  0.20694200  0.30609600  1
  Pr  Pr22  1  0.91840300  0.70687800  0.30417500  1
  Pr  Pr23  1  0.08009600  0.29254800  0.30276900  1
  Pr  Pr24  1  0.70687800  0.91840300  0.30417500  1
  Pr  Pr25  1  0.29254800  0.08009600  0.30276900  1
  Pr  Pr26  1  0.79079000  0.41972200  0.30656700  1
  Pr  Pr27  1  0.20694200  0.58220900  0.30609600  1
  Pr  Pr28  1  0.64399100  0.64399100  0.50000000  1
  Pr  Pr29  1  0.35654900  0.35654900  0.50000000  1
  Pr  Pr30  1  0.14213400  0.85608000  0.50000000  1
  Pr  Pr31  1  0.85608000  0.14213400  0.50000000  1
  In  In32  1  0.49955600  0.99914700  0.50000000  1
  In  In33  1  0.99914700  0.49955600  0.50000000  1
  In  In34  1  0.16097700  0.16097700  0.00000000  1
  Rh  Rh35  1  0.67636900  0.67636900  0.77681100  1
  Rh  Rh36  1  0.32171900  0.32171900  0.78107800  1
  Rh  Rh37  1  0.17733300  0.82259400  0.77605400  1
  Rh  Rh38  1  0.82259400  0.17733300  0.77605400  1
  Rh  Rh39  1  0.32171900  0.32171900  0.21892200  1
  Rh  Rh40  1  0.67636900  0.67636900  0.22318900  1
  Rh  Rh41  1  0.82259400  0.17733300  0.22394600  1
  Rh  Rh42  1  0.17733300  0.82259400  0.22394600  1
  Rh  Rh43  1  0.10315300  0.10315300  0.50000000  1
  Rh  Rh44  1  0.89739900  0.89739900  0.50000000  1
  Rh  Rh45  1  0.60180700  0.39757700  0.50000000  1
  Rh  Rh46  1  0.39757700  0.60180700  0.50000000  1
  Rh  Rh47  1  0.50106900  0.99904900  0.84163100  1
  Rh  Rh48  1  0.99904900  0.50106900  0.84163100  1
  Rh  Rh49  1  0.50106900  0.99904900  0.15836900  1
  Rh  Rh50  1  0.99904900  0.50106900  0.15836900  1
  Rh  Rh51  1  0.84401200  0.84401200  0.00000000  1
  Rh  Rh52  1  0.65648200  0.34398400  0.00000000  1
  Rh  Rh53  1  0.34398400  0.65648200  0.00000000  1
