# generated using pymatgen
data_Sm8(Ga16Cu)3
_symmetry_space_group_name_H-M   'P 1'
_cell_length_a   6.10501200
_cell_length_b   6.10501200
_cell_length_c   30.72665200
_cell_angle_alpha   90.00000000
_cell_angle_beta   90.00000000
_cell_angle_gamma   90.00000000
_symmetry_Int_Tables_number   1
_chemical_formula_structural   Sm8(Ga16Cu)3
_chemical_formula_sum   'Sm8 Ga48 Cu3'
_cell_volume   1145.21831693
_cell_formula_units_Z   1
loop_
 _symmetry_equiv_pos_site_id
 _symmetry_equiv_pos_as_xyz
  1  'x, y, z'
loop_
 _atom_site_type_symbol
 _atom_site_label
 _atom_site_symmetry_multiplicity
 _atom_site_fract_x
 _atom_site_fract_y
 _atom_site_fract_z
 _atom_site_occupancy
  Sm  Sm0  1  0.75000000  0.25000000  0.12405700  1
  Sm  Sm1  1  0.75000000  0.25000000  0.62284400  1
  Sm  Sm2  1  0.25000000  0.75000000  0.12349200  1
  Sm  Sm3  1  0.25000000  0.75000000  0.62279500  1
  Sm  Sm4  1  0.25000000  0.75000000  0.37720500  1
  Sm  Sm5  1  0.25000000  0.75000000  0.87650800  1
  Sm  Sm6  1  0.75000000  0.25000000  0.37715600  1
  Sm  Sm7  1  0.75000000  0.25000000  0.87594300  1
  Ga  Ga8  1  0.50081800  0.00081800  0.45710200  1
  Ga  Ga9  1  0.50949000  0.00949000  0.95855700  1
  Ga  Ga10  1  0.00072300  0.99927700  0.45710700  1
  Ga  Ga11  1  0.99298700  0.00701300  0.95840600  1
  Ga  Ga12  1  0.49927700  0.50072300  0.45710700  1
  Ga  Ga13  1  0.50701300  0.49298700  0.95840600  1
  Ga  Ga14  1  0.99918200  0.49918200  0.45710200  1
  Ga  Ga15  1  0.99051000  0.49051000  0.95855700  1
  Ga  Ga16  1  0.50701300  0.00701300  0.04159400  1
  Ga  Ga17  1  0.49927700  0.99927700  0.54289300  1
  Ga  Ga18  1  0.99051000  0.00949000  0.04144300  1
  Ga  Ga19  1  0.99918200  0.00081800  0.54289800  1
  Ga  Ga20  1  0.50949000  0.49051000  0.04144300  1
  Ga  Ga21  1  0.50081800  0.49918200  0.54289800  1
  Ga  Ga22  1  0.99298700  0.49298700  0.04159400  1
  Ga  Ga23  1  0.00072300  0.50072300  0.54289300  1
  Ga  Ga24  1  0.57179200  0.07179200  0.21322300  1
  Ga  Ga25  1  0.57247200  0.07247200  0.71319400  1
  Ga  Ga26  1  0.07255000  0.92745000  0.21324200  1
  Ga  Ga27  1  0.07272400  0.92727600  0.71319200  1
  Ga  Ga28  1  0.42745000  0.57255000  0.21324200  1
  Ga  Ga29  1  0.42727600  0.57272400  0.71319200  1
  Ga  Ga30  1  0.92820800  0.42820800  0.21322300  1
  Ga  Ga31  1  0.92752800  0.42752800  0.71319400  1
  Ga  Ga32  1  0.42727600  0.92727600  0.28680800  1
  Ga  Ga33  1  0.42745000  0.92745000  0.78675800  1
  Ga  Ga34  1  0.92752800  0.07247200  0.28680600  1
  Ga  Ga35  1  0.92820800  0.07179200  0.78677700  1
  Ga  Ga36  1  0.57247200  0.42752800  0.28680600  1
  Ga  Ga37  1  0.57179200  0.42820800  0.78677700  1
  Ga  Ga38  1  0.07272400  0.57272400  0.28680800  1
  Ga  Ga39  1  0.07255000  0.57255000  0.78675800  1
  Ga  Ga40  1  0.25000000  0.25000000  0.08915800  1
  Ga  Ga41  1  0.25000000  0.25000000  0.58976000  1
  Ga  Ga42  1  0.75000000  0.75000000  0.08915800  1
  Ga  Ga43  1  0.75000000  0.75000000  0.58976000  1
  Ga  Ga44  1  0.75000000  0.75000000  0.41024000  1
  Ga  Ga45  1  0.75000000  0.75000000  0.91084200  1
  Ga  Ga46  1  0.25000000  0.25000000  0.41024000  1
  Ga  Ga47  1  0.25000000  0.25000000  0.91084200  1
  Ga  Ga48  1  0.25000000  0.25000000  0.16861000  1
  Ga  Ga49  1  0.25000000  0.25000000  0.66879500  1
  Ga  Ga50  1  0.75000000  0.75000000  0.16861000  1
  Ga  Ga51  1  0.75000000  0.75000000  0.66879500  1
  Ga  Ga52  1  0.75000000  0.75000000  0.33120500  1
  Ga  Ga53  1  0.75000000  0.75000000  0.83139000  1
  Ga  Ga54  1  0.25000000  0.25000000  0.33120500  1
  Ga  Ga55  1  0.25000000  0.25000000  0.83139000  1
  Cu  Cu56  1  0.75000000  0.25000000  0.50000000  1
  Cu  Cu57  1  0.25000000  0.75000000  0.00000000  1
  Cu  Cu58  1  0.25000000  0.75000000  0.50000000  1
