# generated using pymatgen
data_KFe2P3(O4F3)2
_symmetry_space_group_name_H-M   'P 1'
_cell_length_a   7.35114400
_cell_length_b   7.71793404
_cell_length_c   10.58885246
_cell_angle_alpha   101.26613074
_cell_angle_beta   110.28220029
_cell_angle_gamma   90.47303737
_symmetry_Int_Tables_number   1
_chemical_formula_structural   KFe2P3(O4F3)2
_chemical_formula_sum   'K2 Fe4 P6 O16 F12'
_cell_volume   550.76893614
_cell_formula_units_Z   2
loop_
 _symmetry_equiv_pos_site_id
 _symmetry_equiv_pos_as_xyz
  1  'x, y, z'
loop_
 _atom_site_type_symbol
 _atom_site_label
 _atom_site_symmetry_multiplicity
 _atom_site_fract_x
 _atom_site_fract_y
 _atom_site_fract_z
 _atom_site_occupancy
  K  K0  1  0.79929200  0.07261300  0.80808800  1
  K  K1  1  0.20070800  0.92738700  0.19191200  1
  Fe  Fe2  1  0.65438700  0.31770800  0.33198600  1
  Fe  Fe3  1  0.34561300  0.68229200  0.66801400  1
  Fe  Fe4  1  0.50000000  0.50000000  0.00000000  1
  Fe  Fe5  1  0.00000000  0.00000000  0.50000000  1
  P  P6  1  0.65817600  0.72519000  0.50381500  1
  P  P7  1  0.34182400  0.27481000  0.49618500  1
  P  P8  1  0.32152300  0.08850600  0.82047200  1
  P  P9  1  0.67847700  0.91149400  0.17952800  1
  P  P10  1  0.05899300  0.57902800  0.83053700  1
  P  P11  1  0.94100700  0.42097200  0.16946300  1
  O  O12  1  0.73412300  0.56108000  0.44141700  1
  O  O13  1  0.26587700  0.43892000  0.55858300  1
  O  O14  1  0.80168200  0.88949900  0.55619500  1
  O  O15  1  0.19831800  0.11050100  0.44380500  1
  O  O16  1  0.57103700  0.07246700  0.21166200  1
  O  O17  1  0.42896300  0.92753300  0.78833800  1
  O  O18  1  0.46669600  0.25008700  0.89326700  1
  O  O19  1  0.53330400  0.74991300  0.10673300  1
  O  O20  1  0.85968800  0.88463800  0.29696200  1
  O  O21  1  0.14031200  0.11536200  0.70303800  1
  O  O22  1  0.88524300  0.33205900  0.26452700  1
  O  O23  1  0.11475700  0.66794100  0.73547300  1
  O  O24  1  0.79360400  0.49103200  0.05683200  1
  O  O25  1  0.20639600  0.50896800  0.94316800  1
  O  O26  1  0.42501100  0.29757700  0.38669500  1
  O  O27  1  0.57498900  0.70242300  0.61330500  1
  F  F28  1  0.83497100  0.20471200  0.47477300  1
  F  F29  1  0.16502900  0.79528800  0.52522700  1
  F  F30  1  0.50259600  0.41371900  0.16482300  1
  F  F31  1  0.49740400  0.58628100  0.83517700  1
  F  F32  1  0.76561200  0.95011200  0.06648900  1
  F  F33  1  0.23438800  0.04988800  0.93351100  1
  F  F34  1  0.89229400  0.43010500  0.74830100  1
  F  F35  1  0.10770600  0.56989500  0.25169900  1
  F  F36  1  0.52003200  0.22844400  0.61936300  1
  F  F37  1  0.47996800  0.77155600  0.38063700  1
  F  F38  1  0.05661100  0.28802300  0.09861600  1
  F  F39  1  0.94338900  0.71197700  0.90138400  1
