# generated using pymatgen
data_Sr3ErRhO6
_symmetry_space_group_name_H-M   'P 1'
_cell_length_a   6.84441015
_cell_length_b   6.84441015
_cell_length_c   6.84441013
_cell_angle_alpha   92.22870076
_cell_angle_beta   92.22870076
_cell_angle_gamma   92.22870421
_symmetry_Int_Tables_number   1
_chemical_formula_structural   Sr3ErRhO6
_chemical_formula_sum   'Sr6 Er2 Rh2 O12'
_cell_volume   319.88582699
_cell_formula_units_Z   2
loop_
 _symmetry_equiv_pos_site_id
 _symmetry_equiv_pos_as_xyz
  1  'x, y, z'
loop_
 _atom_site_type_symbol
 _atom_site_label
 _atom_site_symmetry_multiplicity
 _atom_site_fract_x
 _atom_site_fract_y
 _atom_site_fract_z
 _atom_site_occupancy
  Sr  Sr0  1  0.88129300  0.61870700  0.25000000  1
  Sr  Sr1  1  0.61870700  0.25000000  0.88129300  1
  Sr  Sr2  1  0.25000000  0.88129300  0.61870700  1
  Sr  Sr3  1  0.11870700  0.38129300  0.75000000  1
  Sr  Sr4  1  0.75000000  0.11870700  0.38129300  1
  Sr  Sr5  1  0.38129300  0.75000000  0.11870700  1
  Er  Er6  1  0.75000000  0.75000000  0.75000000  1
  Er  Er7  1  0.25000000  0.25000000  0.25000000  1
  Rh  Rh8  1  0.50000000  0.50000000  0.50000000  1
  Rh  Rh9  1  0.00000000  0.00000000  0.00000000  1
  O  O10  1  0.59249800  0.79213000  0.45797700  1
  O  O11  1  0.45797700  0.59249800  0.79213000  1
  O  O12  1  0.79213000  0.45797700  0.59249800  1
  O  O13  1  0.90750200  0.04202300  0.70787000  1
  O  O14  1  0.70787000  0.90750200  0.04202300  1
  O  O15  1  0.04202300  0.70787000  0.90750200  1
  O  O16  1  0.40750200  0.20787000  0.54202300  1
  O  O17  1  0.54202300  0.40750200  0.20787000  1
  O  O18  1  0.20787000  0.54202300  0.40750200  1
  O  O19  1  0.09249800  0.95797700  0.29213000  1
  O  O20  1  0.95797700  0.29213000  0.09249800  1
  O  O21  1  0.29213000  0.09249800  0.95797700  1
