# generated using pymatgen
data_Pr3Os
_symmetry_space_group_name_H-M   'P 1'
_cell_length_a   6.59266100
_cell_length_b   7.53477100
_cell_length_c   9.76169500
_cell_angle_alpha   90.00000000
_cell_angle_beta   90.00000000
_cell_angle_gamma   90.00000000
_symmetry_Int_Tables_number   1
_chemical_formula_structural   Pr3Os
_chemical_formula_sum   'Pr12 Os4'
_cell_volume   484.90430109
_cell_formula_units_Z   4
loop_
 _symmetry_equiv_pos_site_id
 _symmetry_equiv_pos_as_xyz
  1  'x, y, z'
loop_
 _atom_site_type_symbol
 _atom_site_label
 _atom_site_symmetry_multiplicity
 _atom_site_fract_x
 _atom_site_fract_y
 _atom_site_fract_z
 _atom_site_occupancy
  Pr  Pr0  1  0.32635800  0.67397000  0.06684900  1
  Pr  Pr1  1  0.17364200  0.17397000  0.43315100  1
  Pr  Pr2  1  0.67364200  0.32603000  0.56684900  1
  Pr  Pr3  1  0.82635800  0.82603000  0.93315100  1
  Pr  Pr4  1  0.67364200  0.32603000  0.93315100  1
  Pr  Pr5  1  0.82635800  0.82603000  0.56684900  1
  Pr  Pr6  1  0.32635800  0.67397000  0.43315100  1
  Pr  Pr7  1  0.17364200  0.17397000  0.06684900  1
  Pr  Pr8  1  0.85846400  0.54098100  0.25000000  1
  Pr  Pr9  1  0.64153600  0.04098100  0.25000000  1
  Pr  Pr10  1  0.14153600  0.45901900  0.75000000  1
  Pr  Pr11  1  0.35846400  0.95901900  0.75000000  1
  Os  Os12  1  0.05077000  0.88590100  0.25000000  1
  Os  Os13  1  0.44923000  0.38590100  0.25000000  1
  Os  Os14  1  0.94923000  0.11409900  0.75000000  1
  Os  Os15  1  0.55077000  0.61409900  0.75000000  1
