# generated using pymatgen
data_KCd(PO3)3
_symmetry_space_group_name_H-M   'P 1'
_cell_length_a   6.90203915
_cell_length_b   6.90203915
_cell_length_c   10.34048000
_cell_angle_alpha   90.00000000
_cell_angle_beta   90.00000000
_cell_angle_gamma   119.99999188
_symmetry_Int_Tables_number   1
_chemical_formula_structural   KCd(PO3)3
_chemical_formula_sum   'K2 Cd2 P6 O18'
_cell_volume   426.60525743
_cell_formula_units_Z   2
loop_
 _symmetry_equiv_pos_site_id
 _symmetry_equiv_pos_as_xyz
  1  'x, y, z'
loop_
 _atom_site_type_symbol
 _atom_site_label
 _atom_site_symmetry_multiplicity
 _atom_site_fract_x
 _atom_site_fract_y
 _atom_site_fract_z
 _atom_site_occupancy
  K  K0  1  0.00000000  0.00000000  0.00000000  1
  K  K1  1  0.00000000  0.00000000  0.50000000  1
  Cd  Cd2  1  0.66666700  0.33333300  0.00000000  1
  Cd  Cd3  1  0.66666700  0.33333300  0.50000000  1
  P  P4  1  0.37934600  0.44166700  0.25000000  1
  P  P5  1  0.55833300  0.93768000  0.25000000  1
  P  P6  1  0.37934600  0.93768000  0.75000000  1
  P  P7  1  0.06232000  0.62065400  0.25000000  1
  P  P8  1  0.55833300  0.62065400  0.75000000  1
  P  P9  1  0.06232000  0.44166700  0.75000000  1
  O  O10  1  0.94527100  0.60726900  0.12488500  1
  O  O11  1  0.39273100  0.33800200  0.12488500  1
  O  O12  1  0.94527100  0.60726900  0.37511500  1
  O  O13  1  0.94527100  0.33800200  0.62488500  1
  O  O14  1  0.66199800  0.05472900  0.12488500  1
  O  O15  1  0.39273100  0.33800200  0.37511500  1
  O  O16  1  0.39273100  0.05472900  0.62488500  1
  O  O17  1  0.94527100  0.33800200  0.87511500  1
  O  O18  1  0.66199800  0.05472900  0.37511500  1
  O  O19  1  0.39273100  0.05472900  0.87511500  1
  O  O20  1  0.66199800  0.60726900  0.62488500  1
  O  O21  1  0.66199800  0.60726900  0.87511500  1
  O  O22  1  0.14275500  0.43768300  0.25000000  1
  O  O23  1  0.56231700  0.70507200  0.25000000  1
  O  O24  1  0.14275500  0.70507200  0.75000000  1
  O  O25  1  0.29492800  0.85724500  0.25000000  1
  O  O26  1  0.56231700  0.85724500  0.75000000  1
  O  O27  1  0.29492800  0.43768300  0.75000000  1
