# generated using pymatgen
data_KNa2Li3Fe2(Si2O5)6
_symmetry_space_group_name_H-M   'P 1'
_cell_length_a   10.19476794
_cell_length_b   10.19476794
_cell_length_c   14.30264200
_cell_angle_alpha   90.00000000
_cell_angle_beta   90.00000000
_cell_angle_gamma   119.99999959
_symmetry_Int_Tables_number   1
_chemical_formula_structural   KNa2Li3Fe2(Si2O5)6
_chemical_formula_sum   'K2 Na4 Li6 Fe4 Si24 O60'
_cell_volume   1287.36468232
_cell_formula_units_Z   2
loop_
 _symmetry_equiv_pos_site_id
 _symmetry_equiv_pos_as_xyz
  1  'x, y, z'
loop_
 _atom_site_type_symbol
 _atom_site_label
 _atom_site_symmetry_multiplicity
 _atom_site_fract_x
 _atom_site_fract_y
 _atom_site_fract_z
 _atom_site_occupancy
  K  K0  1  0.00000000  0.00000000  0.25000000  1
  K  K1  1  0.00000000  0.00000000  0.75000000  1
  Na  Na2  1  0.66666700  0.33333300  0.50000000  1
  Na  Na3  1  0.66666700  0.33333300  0.00000000  1
  Na  Na4  1  0.33333300  0.66666700  0.00000000  1
  Na  Na5  1  0.33333300  0.66666700  0.50000000  1
  Li  Li6  1  0.50000000  0.00000000  0.25000000  1
  Li  Li7  1  0.00000000  0.50000000  0.75000000  1
  Li  Li8  1  0.50000000  0.50000000  0.75000000  1
  Li  Li9  1  0.50000000  0.00000000  0.75000000  1
  Li  Li10  1  0.00000000  0.50000000  0.25000000  1
  Li  Li11  1  0.50000000  0.50000000  0.25000000  1
  Fe  Fe12  1  0.33333300  0.66666700  0.75000000  1
  Fe  Fe13  1  0.66666700  0.33333300  0.75000000  1
  Fe  Fe14  1  0.66666700  0.33333300  0.25000000  1
  Fe  Fe15  1  0.33333300  0.66666700  0.25000000  1
  Si  Si16  1  0.35525500  0.11957700  0.38791200  1
  Si  Si17  1  0.76432300  0.64474500  0.61208800  1
  Si  Si18  1  0.35525500  0.11957700  0.61208800  1
  Si  Si19  1  0.64474500  0.76432300  0.88791200  1
  Si  Si20  1  0.11957700  0.35525500  0.88791200  1
  Si  Si21  1  0.88042300  0.64474500  0.88791200  1
  Si  Si22  1  0.35525500  0.23567700  0.88791200  1
  Si  Si23  1  0.23567700  0.88042300  0.88791200  1
  Si  Si24  1  0.76432300  0.64474500  0.38791200  1
  Si  Si25  1  0.76432300  0.11957700  0.88791200  1
  Si  Si26  1  0.88042300  0.23567700  0.38791200  1
  Si  Si27  1  0.11957700  0.76432300  0.38791200  1
  Si  Si28  1  0.23567700  0.88042300  0.11208800  1
  Si  Si29  1  0.88042300  0.23567700  0.61208800  1
  Si  Si30  1  0.64474500  0.88042300  0.38791200  1
  Si  Si31  1  0.35525500  0.23567700  0.11208800  1
  Si  Si32  1  0.88042300  0.64474500  0.11208800  1
  Si  Si33  1  0.11957700  0.35525500  0.11208800  1
  Si  Si34  1  0.64474500  0.76432300  0.11208800  1
  Si  Si35  1  0.76432300  0.11957700  0.11208800  1
  Si  Si36  1  0.11957700  0.76432300  0.61208800  1
  Si  Si37  1  0.64474500  0.88042300  0.61208800  1
  Si  Si38  1  0.23567700  0.35525500  0.61208800  1
  Si  Si39  1  0.23567700  0.35525500  0.38791200  1
  O  O40  1  0.13958500  0.73954700  0.50000000  1
  O  O41  1  0.49411100  0.65832900  0.82974000  1
  O  O42  1  0.16421800  0.50588900  0.82974000  1
  O  O43  1  0.83578200  0.49411100  0.82974000  1
  O  O44  1  0.34167100  0.50588900  0.67026000  1
  O  O45  1  0.65832900  0.49411100  0.67026000  1
  O  O46  1  0.65832900  0.16421800  0.82974000  1
  O  O47  1  0.83578200  0.34167100  0.67026000  1
  O  O48  1  0.16421800  0.65832900  0.67026000  1
  O  O49  1  0.49411100  0.83578200  0.67026000  1
  O  O50  1  0.50588900  0.34167100  0.82974000  1
  O  O51  1  0.34167100  0.83578200  0.82974000  1
  O  O52  1  0.65832900  0.49411100  0.32974000  1
  O  O53  1  0.50588900  0.16421800  0.32974000  1
  O  O54  1  0.83578200  0.34167100  0.32974000  1
  O  O55  1  0.16421800  0.65832900  0.32974000  1
  O  O56  1  0.34167100  0.83578200  0.17026000  1
  O  O57  1  0.34167100  0.50588900  0.32974000  1
  O  O58  1  0.49411100  0.83578200  0.32974000  1
  O  O59  1  0.50588900  0.34167100  0.17026000  1
  O  O60  1  0.83578200  0.49411100  0.17026000  1
  O  O61  1  0.16421800  0.50588900  0.17026000  1
  O  O62  1  0.49411100  0.65832900  0.17026000  1
  O  O63  1  0.65832900  0.16421800  0.17026000  1
  O  O64  1  0.27551800  0.05408600  0.86482500  1
  O  O65  1  0.72448200  0.77856800  0.63517500  1
  O  O66  1  0.22143200  0.94591400  0.63517500  1
  O  O67  1  0.77856800  0.05408600  0.63517500  1
  O  O68  1  0.94591400  0.22143200  0.86482500  1
  O  O69  1  0.94591400  0.72448200  0.63517500  1
  O  O70  1  0.27551800  0.22143200  0.63517500  1
  O  O71  1  0.72448200  0.94591400  0.86482500  1
  O  O72  1  0.22143200  0.27551800  0.86482500  1
  O  O73  1  0.77856800  0.72448200  0.86482500  1
  O  O74  1  0.73954700  0.13958500  0.00000000  1
  O  O75  1  0.59996300  0.73954700  0.00000000  1
  O  O76  1  0.13958500  0.40003700  0.00000000  1
  O  O77  1  0.86041500  0.59996300  0.00000000  1
  O  O78  1  0.40003700  0.26045300  0.00000000  1
  O  O79  1  0.59996300  0.86041500  0.50000000  1
  O  O80  1  0.26045300  0.40003700  0.50000000  1
  O  O81  1  0.26045300  0.86041500  0.00000000  1
  O  O82  1  0.50588900  0.16421800  0.67026000  1
  O  O83  1  0.86041500  0.26045300  0.50000000  1
  O  O84  1  0.40003700  0.13958500  0.50000000  1
  O  O85  1  0.73954700  0.59996300  0.50000000  1
  O  O86  1  0.94591400  0.22143200  0.13517500  1
  O  O87  1  0.72448200  0.94591400  0.13517500  1
  O  O88  1  0.22143200  0.27551800  0.13517500  1
  O  O89  1  0.77856800  0.72448200  0.13517500  1
  O  O90  1  0.27551800  0.05408600  0.13517500  1
  O  O91  1  0.72448200  0.77856800  0.36482500  1
  O  O92  1  0.05408600  0.27551800  0.36482500  1
  O  O93  1  0.05408600  0.77856800  0.13517500  1
  O  O94  1  0.22143200  0.94591400  0.36482500  1
  O  O95  1  0.77856800  0.05408600  0.36482500  1
  O  O96  1  0.27551800  0.22143200  0.36482500  1
  O  O97  1  0.94591400  0.72448200  0.36482500  1
  O  O98  1  0.05408600  0.77856800  0.86482500  1
  O  O99  1  0.05408600  0.27551800  0.63517500  1
