# generated using pymatgen
data_Co2Te3O8
_symmetry_space_group_name_H-M   'P 1'
_cell_length_a   6.95368231
_cell_length_b   6.95368231
_cell_length_c   11.67665962
_cell_angle_alpha   81.66605012
_cell_angle_beta   81.66605012
_cell_angle_gamma   44.19276114
_symmetry_Int_Tables_number   1
_chemical_formula_structural   Co2Te3O8
_chemical_formula_sum   'Co4 Te6 O16'
_cell_volume   388.72960259
_cell_formula_units_Z   2
loop_
 _symmetry_equiv_pos_site_id
 _symmetry_equiv_pos_as_xyz
  1  'x, y, z'
loop_
 _atom_site_type_symbol
 _atom_site_label
 _atom_site_symmetry_multiplicity
 _atom_site_fract_x
 _atom_site_fract_y
 _atom_site_fract_z
 _atom_site_occupancy
  Co  Co0  1  0.02844500  0.43087100  0.15064000  1
  Co  Co1  1  0.56912900  0.97155500  0.34936000  1
  Co  Co2  1  0.97155500  0.56912900  0.84936000  1
  Co  Co3  1  0.43087100  0.02844500  0.65064000  1
  Te  Te4  1  0.84703200  0.15296800  0.75000000  1
  Te  Te5  1  0.15296800  0.84703200  0.25000000  1
  Te  Te6  1  0.94048700  0.33030300  0.44690500  1
  Te  Te7  1  0.66969700  0.05951300  0.05309500  1
  Te  Te8  1  0.05951300  0.66969700  0.55309500  1
  Te  Te9  1  0.33030300  0.94048700  0.94690500  1
  O  O10  1  0.27152600  0.25433100  0.96891900  1
  O  O11  1  0.74566900  0.72847400  0.53108100  1
  O  O12  1  0.72847400  0.74566900  0.03108100  1
  O  O13  1  0.25433100  0.27152600  0.46891900  1
  O  O14  1  0.56952700  0.82298600  0.80825400  1
  O  O15  1  0.17701400  0.43047300  0.69174600  1
  O  O16  1  0.43047300  0.17701400  0.19174600  1
  O  O17  1  0.82298600  0.56952700  0.30825400  1
  O  O18  1  0.98846500  0.23625300  0.86312100  1
  O  O19  1  0.76374700  0.01153500  0.63687900  1
  O  O20  1  0.01099100  0.15430300  0.14247000  1
  O  O21  1  0.84569700  0.98900900  0.35753000  1
  O  O22  1  0.98900900  0.84569700  0.85753000  1
  O  O23  1  0.15430300  0.01099100  0.64247000  1
  O  O24  1  0.23625300  0.98846500  0.36312100  1
  O  O25  1  0.01153500  0.76374700  0.13687900  1
