# generated using pymatgen
data_Sm5Si3
_symmetry_space_group_name_H-M   'P 1'
_cell_length_a   8.65469275
_cell_length_b   8.65469275
_cell_length_c   6.56657900
_cell_angle_alpha   90.00000000
_cell_angle_beta   90.00000000
_cell_angle_gamma   120.00000573
_symmetry_Int_Tables_number   1
_chemical_formula_structural   Sm5Si3
_chemical_formula_sum   'Sm10 Si6'
_cell_volume   425.96418898
_cell_formula_units_Z   2
loop_
 _symmetry_equiv_pos_site_id
 _symmetry_equiv_pos_as_xyz
  1  'x, y, z'
loop_
 _atom_site_type_symbol
 _atom_site_label
 _atom_site_symmetry_multiplicity
 _atom_site_fract_x
 _atom_site_fract_y
 _atom_site_fract_z
 _atom_site_occupancy
  Sm  Sm0  1  0.66666700  0.33333300  0.50000000  1
  Sm  Sm1  1  0.33333300  0.66666700  0.50000000  1
  Sm  Sm2  1  0.33333300  0.66666700  0.00000000  1
  Sm  Sm3  1  0.66666700  0.33333300  0.00000000  1
  Sm  Sm4  1  0.75272700  0.75272700  0.25000000  1
  Sm  Sm5  1  0.24727300  0.00000000  0.25000000  1
  Sm  Sm6  1  0.00000000  0.24727300  0.25000000  1
  Sm  Sm7  1  0.24727300  0.24727300  0.75000000  1
  Sm  Sm8  1  0.75272700  0.00000000  0.75000000  1
  Sm  Sm9  1  0.00000000  0.75272700  0.75000000  1
  Si  Si10  1  0.39091200  0.39091200  0.25000000  1
  Si  Si11  1  0.60908800  0.00000000  0.25000000  1
  Si  Si12  1  0.00000000  0.60908800  0.25000000  1
  Si  Si13  1  0.60908800  0.60908800  0.75000000  1
  Si  Si14  1  0.39091200  0.00000000  0.75000000  1
  Si  Si15  1  0.00000000  0.39091200  0.75000000  1
