# generated using pymatgen
data_Tb5(ReO6)2
_symmetry_space_group_name_H-M   'P 1'
_cell_length_a   6.87867368
_cell_length_b   6.87867368
_cell_length_c   7.60892683
_cell_angle_alpha   73.70564567
_cell_angle_beta   73.70564567
_cell_angle_gamma   48.93929116
_symmetry_Int_Tables_number   1
_chemical_formula_structural   Tb5(ReO6)2
_chemical_formula_sum   'Tb5 Re2 O12'
_cell_volume   258.24430518
_cell_formula_units_Z   1
loop_
 _symmetry_equiv_pos_site_id
 _symmetry_equiv_pos_as_xyz
  1  'x, y, z'
loop_
 _atom_site_type_symbol
 _atom_site_label
 _atom_site_symmetry_multiplicity
 _atom_site_fract_x
 _atom_site_fract_y
 _atom_site_fract_z
 _atom_site_occupancy
  Tb  Tb0  1  0.69609700  0.69609700  0.64045800  1
  Tb  Tb1  1  0.30390300  0.30390300  0.35954200  1
  Tb  Tb2  1  0.68614800  0.68614800  0.17391700  1
  Tb  Tb3  1  0.31385200  0.31385200  0.82608300  1
  Tb  Tb4  1  0.00000000  0.00000000  0.50000000  1
  Re  Re5  1  0.78536300  0.21463700  0.00000000  1
  Re  Re6  1  0.21463700  0.78536300  0.00000000  1
  O  O7  1  0.00014200  0.00014200  0.20567100  1
  O  O8  1  0.99985800  0.99985800  0.79432900  1
  O  O9  1  0.58175000  0.08913400  0.08561200  1
  O  O10  1  0.41825000  0.91086600  0.91438800  1
  O  O11  1  0.91086600  0.41825000  0.91438800  1
  O  O12  1  0.08913400  0.58175000  0.08561200  1
  O  O13  1  0.49938000  0.49938000  0.17603800  1
  O  O14  1  0.50062000  0.50062000  0.82396200  1
  O  O15  1  0.40626600  0.90140800  0.42504500  1
  O  O16  1  0.59373400  0.09859200  0.57495500  1
  O  O17  1  0.09859200  0.59373400  0.57495500  1
  O  O18  1  0.90140800  0.40626600  0.42504500  1
