# generated using pymatgen
data_Eu(ZnGe)2
_symmetry_space_group_name_H-M   'P 1'
_cell_length_a   4.34934900
_cell_length_b   4.34934900
_cell_length_c   10.59325500
_cell_angle_alpha   90.00000000
_cell_angle_beta   90.00000000
_cell_angle_gamma   90.00000000
_symmetry_Int_Tables_number   1
_chemical_formula_structural   Eu(ZnGe)2
_chemical_formula_sum   'Eu2 Zn4 Ge4'
_cell_volume   200.39087521
_cell_formula_units_Z   2
loop_
 _symmetry_equiv_pos_site_id
 _symmetry_equiv_pos_as_xyz
  1  'x, y, z'
loop_
 _atom_site_type_symbol
 _atom_site_label
 _atom_site_symmetry_multiplicity
 _atom_site_fract_x
 _atom_site_fract_y
 _atom_site_fract_z
 _atom_site_occupancy
  Eu  Eu0  1  0.00000000  0.50000000  0.24989000  1
  Eu  Eu1  1  0.50000000  0.00000000  0.75011000  1
  Zn  Zn2  1  0.50000000  0.50000000  0.50000000  1
  Zn  Zn3  1  0.00000000  0.00000000  0.50000000  1
  Zn  Zn4  1  0.50000000  0.00000000  0.13292700  1
  Zn  Zn5  1  0.00000000  0.50000000  0.86707300  1
  Ge  Ge6  1  0.00000000  0.00000000  0.00000000  1
  Ge  Ge7  1  0.50000000  0.50000000  0.00000000  1
  Ge  Ge8  1  0.50000000  0.00000000  0.36463000  1
  Ge  Ge9  1  0.00000000  0.50000000  0.63537000  1
