# generated using pymatgen
data_Y3(CuSn)4
_symmetry_space_group_name_H-M   'P 1'
_cell_length_a   8.45167483
_cell_length_b   8.45167483
_cell_length_c   8.45167483
_cell_angle_alpha   149.17550021
_cell_angle_beta   131.22488160
_cell_angle_gamma   58.81808367
_symmetry_Int_Tables_number   1
_chemical_formula_structural   Y3(CuSn)4
_chemical_formula_sum   'Y3 Cu4 Sn4'
_cell_volume   230.84455500
_cell_formula_units_Z   1
loop_
 _symmetry_equiv_pos_site_id
 _symmetry_equiv_pos_as_xyz
  1  'x, y, z'
loop_
 _atom_site_type_symbol
 _atom_site_label
 _atom_site_symmetry_multiplicity
 _atom_site_fract_x
 _atom_site_fract_y
 _atom_site_fract_z
 _atom_site_occupancy
  Y  Y0  1  0.50000000  0.00000000  0.50000000  1
  Y  Y1  1  0.86948200  0.86948200  0.00000000  1
  Y  Y2  1  0.13051800  0.13051800  0.00000000  1
  Cu  Cu3  1  0.48388600  0.67174100  0.81214400  1
  Cu  Cu4  1  0.85959700  0.67174100  0.18785600  1
  Cu  Cu5  1  0.14040300  0.32825900  0.81214400  1
  Cu  Cu6  1  0.51611400  0.32825900  0.18785600  1
  Sn  Sn7  1  0.28387600  0.78387600  0.50000000  1
  Sn  Sn8  1  0.71612400  0.21612400  0.50000000  1
  Sn  Sn9  1  0.79647200  0.50000000  0.29647200  1
  Sn  Sn10  1  0.20352800  0.50000000  0.70352800  1
