# generated using pymatgen
data_Li5(CuGe)2
_symmetry_space_group_name_H-M   'P 1'
_cell_length_a   4.22795437
_cell_length_b   4.22795437
_cell_length_c   8.05607200
_cell_angle_alpha   90.00000000
_cell_angle_beta   90.00000000
_cell_angle_gamma   120.00000583
_symmetry_Int_Tables_number   1
_chemical_formula_structural   Li5(CuGe)2
_chemical_formula_sum   'Li5 Cu2 Ge2'
_cell_volume   124.71380475
_cell_formula_units_Z   1
loop_
 _symmetry_equiv_pos_site_id
 _symmetry_equiv_pos_as_xyz
  1  'x, y, z'
loop_
 _atom_site_type_symbol
 _atom_site_label
 _atom_site_symmetry_multiplicity
 _atom_site_fract_x
 _atom_site_fract_y
 _atom_site_fract_z
 _atom_site_occupancy
  Li  Li0  1  0.33333300  0.66666700  0.11414000  1
  Li  Li1  1  0.66666700  0.33333300  0.88586000  1
  Li  Li2  1  0.33333300  0.66666700  0.43133100  1
  Li  Li3  1  0.66666700  0.33333300  0.56866900  1
  Li  Li4  1  0.00000000  0.00000000  0.00000000  1
  Cu  Cu5  1  0.00000000  0.00000000  0.30808300  1
  Cu  Cu6  1  0.00000000  0.00000000  0.69191700  1
  Ge  Ge7  1  0.33333300  0.66666700  0.75892900  1
  Ge  Ge8  1  0.66666700  0.33333300  0.24107100  1
