# generated using pymatgen
data_Y11Sn10
_symmetry_space_group_name_H-M   'P 1'
_cell_length_a   11.88624055
_cell_length_b   11.88624055
_cell_length_c   11.88624055
_cell_angle_alpha   121.18387760
_cell_angle_beta   121.18387760
_cell_angle_gamma   87.96141020
_symmetry_Int_Tables_number   1
_chemical_formula_structural   Y11Sn10
_chemical_formula_sum   'Y22 Sn20'
_cell_volume   1165.40899014
_cell_formula_units_Z   2
loop_
 _symmetry_equiv_pos_site_id
 _symmetry_equiv_pos_as_xyz
  1  'x, y, z'
loop_
 _atom_site_type_symbol
 _atom_site_label
 _atom_site_symmetry_multiplicity
 _atom_site_fract_x
 _atom_site_fract_y
 _atom_site_fract_z
 _atom_site_occupancy
  Y  Y0  1  0.81148900  0.06354700  0.25205800  1
  Y  Y1  1  0.81148900  0.55943100  0.74794200  1
  Y  Y2  1  0.06354700  0.81148900  0.25205800  1
  Y  Y3  1  0.55943100  0.81148900  0.74794200  1
  Y  Y4  1  0.18851100  0.93645300  0.74794200  1
  Y  Y5  1  0.18851100  0.44056900  0.25205800  1
  Y  Y6  1  0.93645300  0.18851100  0.74794200  1
  Y  Y7  1  0.44056900  0.18851100  0.25205800  1
  Y  Y8  1  0.17430400  0.17430400  0.34860800  1
  Y  Y9  1  0.82569600  0.82569600  0.65139200  1
  Y  Y10  1  0.17430400  0.82569600  0.00000000  1
  Y  Y11  1  0.82569600  0.17430400  0.00000000  1
  Y  Y12  1  0.66353300  0.66353300  0.00000000  1
  Y  Y13  1  0.33646700  0.33646700  0.00000000  1
  Y  Y14  1  0.60212200  0.93190500  0.32978300  1
  Y  Y15  1  0.60212200  0.27233900  0.67021700  1
  Y  Y16  1  0.93190500  0.60212200  0.32978300  1
  Y  Y17  1  0.27233900  0.60212200  0.67021700  1
  Y  Y18  1  0.39787800  0.06809500  0.67021700  1
  Y  Y19  1  0.39787800  0.72766100  0.32978300  1
  Y  Y20  1  0.06809500  0.39787800  0.67021700  1
  Y  Y21  1  0.72766100  0.39787800  0.32978300  1
  Sn  Sn22  1  0.35632000  0.00000000  0.35632000  1
  Sn  Sn23  1  0.64368000  0.00000000  0.64368000  1
  Sn  Sn24  1  0.00000000  0.64368000  0.64368000  1
  Sn  Sn25  1  0.00000000  0.35632000  0.35632000  1
  Sn  Sn26  1  0.88785300  0.88785300  0.00000000  1
  Sn  Sn27  1  0.11214700  0.11214700  0.00000000  1
  Sn  Sn28  1  0.37046700  0.37046700  0.74093400  1
  Sn  Sn29  1  0.62953300  0.62953300  0.25906600  1
  Sn  Sn30  1  0.37046700  0.62953300  0.00000000  1
  Sn  Sn31  1  0.62953300  0.37046700  0.00000000  1
  Sn  Sn32  1  0.75000000  0.25000000  0.50000000  1
  Sn  Sn33  1  0.25000000  0.75000000  0.50000000  1
  Sn  Sn34  1  0.88244600  0.88244600  0.41313500  1
  Sn  Sn35  1  0.46931000  0.46931000  0.58686500  1
  Sn  Sn36  1  0.88244600  0.46931000  0.00000000  1
  Sn  Sn37  1  0.46931000  0.88244600  0.00000000  1
  Sn  Sn38  1  0.11755400  0.11755400  0.58686500  1
  Sn  Sn39  1  0.53069000  0.53069000  0.41313500  1
  Sn  Sn40  1  0.11755400  0.53069000  0.00000000  1
  Sn  Sn41  1  0.53069000  0.11755400  0.00000000  1
