# generated using pymatgen
data_Tm6GaNi2
_symmetry_space_group_name_H-M   'P 1'
_cell_length_a   8.17527814
_cell_length_b   8.17527814
_cell_length_c   8.17527814
_cell_angle_alpha   106.87212926
_cell_angle_beta   110.52437735
_cell_angle_gamma   111.04845802
_symmetry_Int_Tables_number   1
_chemical_formula_structural   Tm6GaNi2
_chemical_formula_sum   'Tm12 Ga2 Ni4'
_cell_volume   419.96126513
_cell_formula_units_Z   2
loop_
 _symmetry_equiv_pos_site_id
 _symmetry_equiv_pos_as_xyz
  1  'x, y, z'
loop_
 _atom_site_type_symbol
 _atom_site_label
 _atom_site_symmetry_multiplicity
 _atom_site_fract_x
 _atom_site_fract_y
 _atom_site_fract_z
 _atom_site_occupancy
  Tm  Tm0  1  0.69920400  0.26313900  0.96234200  1
  Tm  Tm1  1  0.30079600  0.73686100  0.03765800  1
  Tm  Tm2  1  0.69920400  0.73686100  0.43606500  1
  Tm  Tm3  1  0.30079600  0.26313900  0.56393500  1
  Tm  Tm4  1  0.80295800  0.12621000  0.32325200  1
  Tm  Tm5  1  0.80295800  0.47970600  0.67674800  1
  Tm  Tm6  1  0.19704200  0.87379000  0.67674800  1
  Tm  Tm7  1  0.19704200  0.52029400  0.32325200  1
  Tm  Tm8  1  0.60081400  0.78300600  0.81780900  1
  Tm  Tm9  1  0.96519700  0.78300600  0.18219100  1
  Tm  Tm10  1  0.03480300  0.21699400  0.81780900  1
  Tm  Tm11  1  0.39918600  0.21699400  0.18219100  1
  Ga  Ga12  1  0.50000000  0.50000000  0.00000000  1
  Ga  Ga13  1  0.50000000  0.00000000  0.50000000  1
  Ni  Ni14  1  0.85611600  0.50000000  0.35611600  1
  Ni  Ni15  1  0.14388400  0.50000000  0.64388400  1
  Ni  Ni16  1  0.00000000  0.12196700  0.12196700  1
  Ni  Ni17  1  0.00000000  0.87803300  0.87803300  1
