# generated using pymatgen
data_Y(CuS)3
_symmetry_space_group_name_H-M   'P 1'
_cell_length_a   6.67275201
_cell_length_b   6.67260290
_cell_length_c   7.43976028
_cell_angle_alpha   63.34948721
_cell_angle_beta   89.99635790
_cell_angle_gamma   59.99975758
_symmetry_Int_Tables_number   1
_chemical_formula_structural   Y(CuS)3
_chemical_formula_sum   'Y2 Cu6 S6'
_cell_volume   245.40207124
_cell_formula_units_Z   2
loop_
 _symmetry_equiv_pos_site_id
 _symmetry_equiv_pos_as_xyz
  1  'x, y, z'
loop_
 _atom_site_type_symbol
 _atom_site_label
 _atom_site_symmetry_multiplicity
 _atom_site_fract_x
 _atom_site_fract_y
 _atom_site_fract_z
 _atom_site_occupancy
  Y  Y0  1  0.00017700  0.99964200  0.00052300  1
  Y  Y1  1  0.33315600  0.33369100  0.99947700  1
  Cu  Cu2  1  0.45199100  0.41985600  0.37047500  1
  Cu  Cu3  1  0.79020900  0.75780500  0.37038700  1
  Cu  Cu4  1  0.12812100  0.08170800  0.37038300  1
  Cu  Cu5  1  0.20521300  0.25162600  0.62961700  1
  Cu  Cu6  1  0.54312400  0.57552800  0.62961300  1
  Cu  Cu7  1  0.88134200  0.91347700  0.62952500  1
  S  S8  1  0.24914200  0.83564800  0.74784200  1
  S  S9  1  0.91514900  0.50126500  0.74784000  1
  S  S10  1  0.58357100  0.16724400  0.74788700  1
  S  S11  1  0.74976300  0.16609000  0.25211300  1
  S  S12  1  0.41818400  0.83206800  0.25216000  1
  S  S13  1  0.08419100  0.49768500  0.25215800  1
