# generated using pymatgen
data_Cs2CaV2O7
_symmetry_space_group_name_H-M   'P 1'
_cell_length_a   6.18591200
_cell_length_b   10.74737500
_cell_length_c   15.75679602
_cell_angle_alpha   62.92181095
_cell_angle_beta   90.00000000
_cell_angle_gamma   90.00000000
_symmetry_Int_Tables_number   1
_chemical_formula_structural   Cs2CaV2O7
_chemical_formula_sum   'Cs8 Ca4 V8 O28'
_cell_volume   932.72249420
_cell_formula_units_Z   4
loop_
 _symmetry_equiv_pos_site_id
 _symmetry_equiv_pos_as_xyz
  1  'x, y, z'
loop_
 _atom_site_type_symbol
 _atom_site_label
 _atom_site_symmetry_multiplicity
 _atom_site_fract_x
 _atom_site_fract_y
 _atom_site_fract_z
 _atom_site_occupancy
  Cs  Cs0  1  0.22789700  0.03342800  0.82808400  1
  Cs  Cs1  1  0.27210300  0.03342800  0.32808400  1
  Cs  Cs2  1  0.77210300  0.96657200  0.17191600  1
  Cs  Cs3  1  0.72789700  0.96657200  0.67191600  1
  Cs  Cs4  1  0.76708500  0.51477400  0.35033200  1
  Cs  Cs5  1  0.73291500  0.51477400  0.85033200  1
  Cs  Cs6  1  0.23291500  0.48522600  0.64966800  1
  Cs  Cs7  1  0.26708500  0.48522600  0.14966800  1
  Ca  Ca8  1  0.25595900  0.23629200  0.51458900  1
  Ca  Ca9  1  0.24404100  0.23629200  0.01458900  1
  Ca  Ca10  1  0.74404100  0.76370800  0.48541100  1
  Ca  Ca11  1  0.75595900  0.76370800  0.98541100  1
  V  V12  1  0.22887100  0.82866800  0.62193800  1
  V  V13  1  0.27112900  0.82866800  0.12193800  1
  V  V14  1  0.77112900  0.17133200  0.37806200  1
  V  V15  1  0.72887100  0.17133200  0.87806200  1
  V  V16  1  0.23829400  0.66541300  0.86776300  1
  V  V17  1  0.26170600  0.66541300  0.36776300  1
  V  V18  1  0.76170600  0.33458700  0.13223700  1
  V  V19  1  0.73829400  0.33458700  0.63223700  1
  O  O20  1  0.42933500  0.81170200  0.55313300  1
  O  O21  1  0.07066500  0.81170200  0.05313300  1
  O  O22  1  0.57066500  0.18829800  0.44686700  1
  O  O23  1  0.92933500  0.18829800  0.94686700  1
  O  O24  1  0.98091000  0.77831000  0.59813600  1
  O  O25  1  0.51909000  0.77831000  0.09813600  1
  O  O26  1  0.01909000  0.22169000  0.40186400  1
  O  O27  1  0.48091000  0.22169000  0.90186400  1
  O  O28  1  0.21988300  0.99427600  0.61395900  1
  O  O29  1  0.28011700  0.99427600  0.11395900  1
  O  O30  1  0.78011700  0.00572400  0.38604100  1
  O  O31  1  0.71988300  0.00572400  0.88604100  1
  O  O32  1  0.30306300  0.70378900  0.74444000  1
  O  O33  1  0.19693700  0.70378900  0.24444000  1
  O  O34  1  0.69693700  0.29621100  0.25556000  1
  O  O35  1  0.80306300  0.29621100  0.75556000  1
  O  O36  1  0.99997600  0.74672600  0.87112000  1
  O  O37  1  0.50002400  0.74672600  0.37112000  1
  O  O38  1  0.00002400  0.25327400  0.12888000  1
  O  O39  1  0.49997600  0.25327400  0.62888000  1
  O  O40  1  0.21495200  0.48675100  0.92786000  1
  O  O41  1  0.28504800  0.48675100  0.42786000  1
  O  O42  1  0.78504800  0.51324900  0.07214000  1
  O  O43  1  0.71495200  0.51324900  0.57214000  1
  O  O44  1  0.45415100  0.72527200  0.90754300  1
  O  O45  1  0.04584900  0.72527200  0.40754300  1
  O  O46  1  0.54584900  0.27472800  0.09245700  1
  O  O47  1  0.95415100  0.27472800  0.59245700  1
