# generated using pymatgen
data_Lu4Co3
_symmetry_space_group_name_H-M   'P 1'
_cell_length_a   3.93099500
_cell_length_b   11.02453301
_cell_length_c   11.02242487
_cell_angle_alpha   59.99026058
_cell_angle_beta   90.00256945
_cell_angle_gamma   90.00236659
_symmetry_Int_Tables_number   1
_chemical_formula_structural   Lu4Co3
_chemical_formula_sum   'Lu12 Co9'
_cell_volume   413.64505965
_cell_formula_units_Z   3
loop_
 _symmetry_equiv_pos_site_id
 _symmetry_equiv_pos_as_xyz
  1  'x, y, z'
loop_
 _atom_site_type_symbol
 _atom_site_label
 _atom_site_symmetry_multiplicity
 _atom_site_fract_x
 _atom_site_fract_y
 _atom_site_fract_z
 _atom_site_occupancy
  Lu  Lu0  1  0.74949800  0.62048100  0.86471900  1
  Lu  Lu1  1  0.74951300  0.51478300  0.62050900  1
  Lu  Lu2  1  0.74949000  0.86469400  0.51476100  1
  Lu  Lu3  1  0.25050200  0.37951900  0.13528100  1
  Lu  Lu4  1  0.25048700  0.48521700  0.37949100  1
  Lu  Lu5  1  0.25051000  0.13530600  0.48523900  1
  Lu  Lu6  1  0.74887500  0.77457000  0.24768900  1
  Lu  Lu7  1  0.74889400  0.97776100  0.77459200  1
  Lu  Lu8  1  0.74885100  0.24769300  0.97771800  1
  Lu  Lu9  1  0.25112500  0.22543000  0.75231100  1
  Lu  Lu10  1  0.25110600  0.02223900  0.22540800  1
  Lu  Lu11  1  0.25114900  0.75230700  0.02228200  1
  Co  Co12  1  0.75060500  0.33336000  0.33331300  1
  Co  Co13  1  0.24939500  0.66664000  0.66668700  1
  Co  Co14  1  0.74917300  0.28277800  0.56179400  1
  Co  Co15  1  0.74914800  0.15544100  0.28276800  1
  Co  Co16  1  0.74915300  0.56182100  0.15542200  1
  Co  Co17  1  0.25082700  0.71722200  0.43820600  1
  Co  Co18  1  0.25085200  0.84455900  0.71723200  1
  Co  Co19  1  0.25084700  0.43817900  0.84457800  1
  Co  Co20  1  0.50000000  0.00000000  0.00000000  1
