# generated using pymatgen
data_CuHg(SeO3)2
_symmetry_space_group_name_H-M   'P 1'
_cell_length_a   10.57372600
_cell_length_b   7.53892200
_cell_length_c   7.73782790
_cell_angle_alpha   85.15874168
_cell_angle_beta   90.00000000
_cell_angle_gamma   90.00000000
_symmetry_Int_Tables_number   1
_chemical_formula_structural   CuHg(SeO3)2
_chemical_formula_sum   'Cu4 Hg4 Se8 O24'
_cell_volume   614.61645741
_cell_formula_units_Z   4
loop_
 _symmetry_equiv_pos_site_id
 _symmetry_equiv_pos_as_xyz
  1  'x, y, z'
loop_
 _atom_site_type_symbol
 _atom_site_label
 _atom_site_symmetry_multiplicity
 _atom_site_fract_x
 _atom_site_fract_y
 _atom_site_fract_z
 _atom_site_occupancy
  Cu  Cu0  1  0.91696700  0.98106600  0.31647300  1
  Cu  Cu1  1  0.41696700  0.51893400  0.68352700  1
  Cu  Cu2  1  0.08303300  0.01893400  0.68352700  1
  Cu  Cu3  1  0.58303300  0.48106600  0.31647300  1
  Hg  Hg4  1  0.94466500  0.51013800  0.26069400  1
  Hg  Hg5  1  0.44466500  0.98986200  0.73930600  1
  Hg  Hg6  1  0.05533500  0.48986200  0.73930600  1
  Hg  Hg7  1  0.55533500  0.01013800  0.26069400  1
  Se  Se8  1  0.10869400  0.18912100  0.04863600  1
  Se  Se9  1  0.60869400  0.31087900  0.95136400  1
  Se  Se10  1  0.89130600  0.81087900  0.95136400  1
  Se  Se11  1  0.39130600  0.68912100  0.04863600  1
  Se  Se12  1  0.78095000  0.25532300  0.56747400  1
  Se  Se13  1  0.28095000  0.24467700  0.43252600  1
  Se  Se14  1  0.21905000  0.74467700  0.43252600  1
  Se  Se15  1  0.71905000  0.75532300  0.56747400  1
  O  O16  1  0.01506500  0.15842000  0.86702000  1
  O  O17  1  0.51506500  0.34158000  0.13298000  1
  O  O18  1  0.98493500  0.84158000  0.13298000  1
  O  O19  1  0.48493500  0.65842000  0.86702000  1
  O  O20  1  0.14286600  0.41251700  0.00426600  1
  O  O21  1  0.64286600  0.08748300  0.99573400  1
  O  O22  1  0.85713400  0.58748300  0.99573400  1
  O  O23  1  0.35713400  0.91251700  0.00426600  1
  O  O24  1  0.99210600  0.20631800  0.20835100  1
  O  O25  1  0.49210600  0.29368200  0.79164900  1
  O  O26  1  0.00789400  0.79368200  0.79164900  1
  O  O27  1  0.50789400  0.70631800  0.20835100  1
  O  O28  1  0.88286900  0.08014700  0.53807300  1
  O  O29  1  0.38286900  0.41985300  0.46192700  1
  O  O30  1  0.11713100  0.91985300  0.46192700  1
  O  O31  1  0.61713100  0.58014700  0.53807300  1
  O  O32  1  0.71080300  0.28763300  0.36386100  1
  O  O33  1  0.21080300  0.21236700  0.63613900  1
  O  O34  1  0.28919700  0.71236700  0.63613900  1
  O  O35  1  0.78919700  0.78763300  0.36386100  1
  O  O36  1  0.88433800  0.43695200  0.55019300  1
  O  O37  1  0.38433800  0.06304800  0.44980700  1
  O  O38  1  0.11566200  0.56304800  0.44980700  1
  O  O39  1  0.61566200  0.93695200  0.55019300  1
