# generated using pymatgen
data_BeH12(N2Cl)2
_symmetry_space_group_name_H-M   'P 1'
_cell_length_a   6.81512800
_cell_length_b   9.38446900
_cell_length_c   11.92748900
_cell_angle_alpha   90.00000000
_cell_angle_beta   90.00000000
_cell_angle_gamma   90.00000000
_symmetry_Int_Tables_number   1
_chemical_formula_structural   BeH12(N2Cl)2
_chemical_formula_sum   'Be4 H48 N16 Cl8'
_cell_volume   762.83874993
_cell_formula_units_Z   4
loop_
 _symmetry_equiv_pos_site_id
 _symmetry_equiv_pos_as_xyz
  1  'x, y, z'
loop_
 _atom_site_type_symbol
 _atom_site_label
 _atom_site_symmetry_multiplicity
 _atom_site_fract_x
 _atom_site_fract_y
 _atom_site_fract_z
 _atom_site_occupancy
  Be  Be0  1  0.55996000  0.74805000  0.58252400  1
  Be  Be1  1  0.05995900  0.25195000  0.41747600  1
  Be  Be2  1  0.05995900  0.75195000  0.08252400  1
  Be  Be3  1  0.55996000  0.24805000  0.91747600  1
  H  H4  1  0.55213400  0.89238700  0.42207200  1
  H  H5  1  0.05213400  0.10761300  0.57792800  1
  H  H6  1  0.05213400  0.60761300  0.92207200  1
  H  H7  1  0.55213400  0.39238700  0.07792800  1
  H  H8  1  0.54076900  0.72307400  0.38802100  1
  H  H9  1  0.04076900  0.27692600  0.61197900  1
  H  H10  1  0.04076900  0.77692600  0.88802100  1
  H  H11  1  0.54076900  0.22307400  0.11197900  1
  H  H12  1  0.75220300  0.79615300  0.42269300  1
  H  H13  1  0.25220300  0.20384700  0.57730700  1
  H  H14  1  0.25220300  0.70384700  0.92269300  1
  H  H15  1  0.75220300  0.29615300  0.07730700  1
  H  H16  1  0.78498800  0.90877400  0.66495800  1
  H  H17  1  0.28498800  0.09122600  0.33504200  1
  H  H18  1  0.28498800  0.59122600  0.16495800  1
  H  H19  1  0.78498800  0.40877400  0.83504200  1
  H  H20  1  0.87772400  0.74436400  0.65173800  1
  H  H21  1  0.37772400  0.25563600  0.34826200  1
  H  H22  1  0.37772400  0.75563600  0.15173800  1
  H  H23  1  0.87772400  0.24436400  0.84826200  1
  H  H24  1  0.71688300  0.77681200  0.74980900  1
  H  H25  1  0.21688300  0.22318800  0.25019100  1
  H  H26  1  0.21688300  0.72318800  0.24980900  1
  H  H27  1  0.71688300  0.27681200  0.75019100  1
  H  H28  1  0.57412700  0.54278900  0.68478800  1
  H  H29  1  0.07412700  0.45721100  0.31521200  1
  H  H30  1  0.07412700  0.95721100  0.18478800  1
  H  H31  1  0.57412700  0.04278900  0.81521200  1
  H  H32  1  0.39933200  0.52685800  0.59151800  1
  H  H33  1  0.89933200  0.47314200  0.40848200  1
  H  H34  1  0.89933200  0.97314200  0.09151800  1
  H  H35  1  0.39933200  0.02685800  0.90848200  1
  H  H36  1  0.62929800  0.50305300  0.55241200  1
  H  H37  1  0.12929800  0.49694700  0.44758800  1
  H  H38  1  0.12929800  0.99694700  0.05241200  1
  H  H39  1  0.62929800  0.00305300  0.94758800  1
  H  H40  1  0.24141400  0.82579000  0.55643000  1
  H  H41  1  0.74141400  0.17421000  0.44357000  1
  H  H42  1  0.74141400  0.67421000  0.05643000  1
  H  H43  1  0.24141400  0.32579000  0.94357000  1
  H  H44  1  0.35369100  0.92586200  0.65067400  1
  H  H45  1  0.85369100  0.07413800  0.34932600  1
  H  H46  1  0.85369100  0.57413800  0.15067400  1
  H  H47  1  0.35369100  0.42586200  0.84932600  1
  H  H48  1  0.26917800  0.76388100  0.68428200  1
  H  H49  1  0.76917800  0.23611900  0.31571800  1
  H  H50  1  0.76917800  0.73611900  0.18428200  1
  H  H51  1  0.26917800  0.26388100  0.81571800  1
  N  N52  1  0.60397900  0.79354400  0.44317600  1
  N  N53  1  0.10397900  0.20645600  0.55682400  1
  N  N54  1  0.10397900  0.70645600  0.94317600  1
  N  N55  1  0.60397900  0.29354400  0.05682400  1
  N  N56  1  0.75156200  0.80193200  0.66774200  1
  N  N57  1  0.25156200  0.19806800  0.33225800  1
  N  N58  1  0.25156200  0.69806800  0.16774200  1
  N  N59  1  0.75156200  0.30193200  0.83225800  1
  N  N60  1  0.54046000  0.56396600  0.60232500  1
  N  N61  1  0.04046000  0.43603400  0.39767500  1
  N  N62  1  0.04046000  0.93603400  0.10232500  1
  N  N63  1  0.54046000  0.06396600  0.89767500  1
  N  N64  1  0.33846000  0.82243500  0.62335600  1
  N  N65  1  0.83846000  0.17756500  0.37664400  1
  N  N66  1  0.83846000  0.67756500  0.12335600  1
  N  N67  1  0.33846000  0.32243500  0.87664400  1
  Cl  Cl68  1  0.57548700  0.64098900  0.89035000  1
  Cl  Cl69  1  0.07548700  0.35901100  0.10965000  1
  Cl  Cl70  1  0.07548700  0.85901100  0.39035000  1
  Cl  Cl71  1  0.57548700  0.14098900  0.60965000  1
  Cl  Cl72  1  0.06775200  0.03175900  0.83199200  1
  Cl  Cl73  1  0.56775200  0.96824100  0.16800800  1
  Cl  Cl74  1  0.56775200  0.46824100  0.33199200  1
  Cl  Cl75  1  0.06775200  0.53175900  0.66800800  1
