# generated using pymatgen
data_RbY2Cl7
_symmetry_space_group_name_H-M   'P 1'
_cell_length_a   7.02743400
_cell_length_b   12.73377000
_cell_length_c   13.58093700
_cell_angle_alpha   90.00000000
_cell_angle_beta   90.00000000
_cell_angle_gamma   90.00000000
_symmetry_Int_Tables_number   1
_chemical_formula_structural   RbY2Cl7
_chemical_formula_sum   'Rb4 Y8 Cl28'
_cell_volume   1215.30003771
_cell_formula_units_Z   4
loop_
 _symmetry_equiv_pos_site_id
 _symmetry_equiv_pos_as_xyz
  1  'x, y, z'
loop_
 _atom_site_type_symbol
 _atom_site_label
 _atom_site_symmetry_multiplicity
 _atom_site_fract_x
 _atom_site_fract_y
 _atom_site_fract_z
 _atom_site_occupancy
  Rb  Rb0  1  0.25000000  0.80412300  0.04102500  1
  Rb  Rb1  1  0.75000000  0.19587700  0.95897500  1
  Rb  Rb2  1  0.75000000  0.30412300  0.45897500  1
  Rb  Rb3  1  0.25000000  0.69587700  0.54102500  1
  Y  Y4  1  0.25000000  0.46013200  0.23707800  1
  Y  Y5  1  0.75000000  0.53986800  0.76292200  1
  Y  Y6  1  0.75000000  0.96013200  0.26292200  1
  Y  Y7  1  0.25000000  0.03986800  0.73707800  1
  Y  Y8  1  0.25000000  0.15703400  0.24960000  1
  Y  Y9  1  0.75000000  0.84296600  0.75040000  1
  Y  Y10  1  0.75000000  0.65703400  0.25040000  1
  Y  Y11  1  0.25000000  0.34296600  0.74960000  1
  Cl  Cl12  1  0.01020400  0.30671300  0.17589400  1
  Cl  Cl13  1  0.98979600  0.69328700  0.82410600  1
  Cl  Cl14  1  0.98979600  0.80671300  0.32410600  1
  Cl  Cl15  1  0.51020400  0.69328700  0.82410600  1
  Cl  Cl16  1  0.01020400  0.19328700  0.67589400  1
  Cl  Cl17  1  0.48979600  0.30671300  0.17589400  1
  Cl  Cl18  1  0.48979600  0.19328700  0.67589400  1
  Cl  Cl19  1  0.51020400  0.80671300  0.32410600  1
  Cl  Cl20  1  0.01137100  0.57798900  0.12358200  1
  Cl  Cl21  1  0.98862900  0.42201100  0.87641800  1
  Cl  Cl22  1  0.98862900  0.07798900  0.37641800  1
  Cl  Cl23  1  0.51137100  0.42201100  0.87641800  1
  Cl  Cl24  1  0.01137100  0.92201100  0.62358200  1
  Cl  Cl25  1  0.48862900  0.57798900  0.12358200  1
  Cl  Cl26  1  0.48862900  0.92201100  0.62358200  1
  Cl  Cl27  1  0.51137100  0.07798900  0.37641800  1
  Cl  Cl28  1  0.00898800  0.03971600  0.13410000  1
  Cl  Cl29  1  0.99101200  0.96028400  0.86590000  1
  Cl  Cl30  1  0.99101200  0.53971600  0.36590000  1
  Cl  Cl31  1  0.50898800  0.96028400  0.86590000  1
  Cl  Cl32  1  0.00898800  0.46028400  0.63410000  1
  Cl  Cl33  1  0.49101200  0.03971600  0.13410000  1
  Cl  Cl34  1  0.49101200  0.46028400  0.63410000  1
  Cl  Cl35  1  0.50898800  0.53971600  0.36590000  1
  Cl  Cl36  1  0.25000000  0.31167200  0.38946600  1
  Cl  Cl37  1  0.75000000  0.68832800  0.61053400  1
  Cl  Cl38  1  0.75000000  0.81167200  0.11053400  1
  Cl  Cl39  1  0.25000000  0.18832800  0.88946600  1
