# generated using pymatgen
data_Y2AlSi2
_symmetry_space_group_name_H-M   'P 1'
_cell_length_a   5.61782238
_cell_length_b   5.61782238
_cell_length_c   5.61782238
_cell_angle_alpha   137.63582618
_cell_angle_beta   117.41320318
_cell_angle_gamma   78.50507204
_symmetry_Int_Tables_number   1
_chemical_formula_structural   Y2AlSi2
_chemical_formula_sum   'Y2 Al1 Si2'
_cell_volume   103.07098915
_cell_formula_units_Z   1
loop_
 _symmetry_equiv_pos_site_id
 _symmetry_equiv_pos_as_xyz
  1  'x, y, z'
loop_
 _atom_site_type_symbol
 _atom_site_label
 _atom_site_symmetry_multiplicity
 _atom_site_fract_x
 _atom_site_fract_y
 _atom_site_fract_z
 _atom_site_occupancy
  Y  Y0  1  0.71110600  0.21110600  0.50000000  1
  Y  Y1  1  0.28889400  0.78889400  0.50000000  1
  Al  Al2  1  0.00000000  0.00000000  0.00000000  1
  Si  Si3  1  0.28900000  0.50000000  0.78900000  1
  Si  Si4  1  0.71100000  0.50000000  0.21100000  1
