# generated using pymatgen
data_Gd(NO3)3
_symmetry_space_group_name_H-M   'P 1'
_cell_length_a   6.28722900
_cell_length_b   9.79529000
_cell_length_c   11.20050971
_cell_angle_alpha   86.66990368
_cell_angle_beta   90.00000000
_cell_angle_gamma   90.00000000
_symmetry_Int_Tables_number   1
_chemical_formula_structural   Gd(NO3)3
_chemical_formula_sum   'Gd4 N12 O36'
_cell_volume   688.62123812
_cell_formula_units_Z   4
loop_
 _symmetry_equiv_pos_site_id
 _symmetry_equiv_pos_as_xyz
  1  'x, y, z'
loop_
 _atom_site_type_symbol
 _atom_site_label
 _atom_site_symmetry_multiplicity
 _atom_site_fract_x
 _atom_site_fract_y
 _atom_site_fract_z
 _atom_site_occupancy
  Gd  Gd0  1  0.67551000  0.29279900  0.73703400  1
  Gd  Gd1  1  0.17551000  0.20720100  0.26296600  1
  Gd  Gd2  1  0.32449000  0.70720100  0.26296600  1
  Gd  Gd3  1  0.82449000  0.79279900  0.73703400  1
  N  N4  1  0.38507200  0.16938700  0.49361500  1
  N  N5  1  0.88507200  0.33061300  0.50638500  1
  N  N6  1  0.61492800  0.83061300  0.50638500  1
  N  N7  1  0.11492800  0.66938700  0.49361500  1
  N  N8  1  0.72626500  0.19692000  0.20888700  1
  N  N9  1  0.22626500  0.30308000  0.79111300  1
  N  N10  1  0.27373500  0.80308000  0.79111300  1
  N  N11  1  0.77373500  0.69692000  0.20888700  1
  N  N12  1  0.72348100  0.53299300  0.88604200  1
  N  N13  1  0.22348100  0.96700700  0.11395800  1
  N  N14  1  0.27651900  0.46700700  0.11395800  1
  N  N15  1  0.77651900  0.03299300  0.88604200  1
  O  O16  1  0.42763000  0.27251200  0.42252500  1
  O  O17  1  0.92763000  0.22748800  0.57747500  1
  O  O18  1  0.57237000  0.72748800  0.57747500  1
  O  O19  1  0.07237000  0.77251200  0.42252500  1
  O  O20  1  0.26127700  0.07883700  0.45583900  1
  O  O21  1  0.76127700  0.42116300  0.54416100  1
  O  O22  1  0.73872300  0.92116300  0.54416100  1
  O  O23  1  0.23872300  0.57883700  0.45583900  1
  O  O24  1  0.46064400  0.15726500  0.59712000  1
  O  O25  1  0.96064400  0.34273500  0.40288000  1
  O  O26  1  0.53935600  0.84273500  0.40288000  1
  O  O27  1  0.03935600  0.65726500  0.59712000  1
  O  O28  1  0.81326400  0.10069400  0.27297600  1
  O  O29  1  0.31326400  0.39930600  0.72702400  1
  O  O30  1  0.18673600  0.89930600  0.72702400  1
  O  O31  1  0.68673600  0.60069400  0.27297600  1
  O  O32  1  0.53195100  0.19400900  0.18344600  1
  O  O33  1  0.03195100  0.30599100  0.81655400  1
  O  O34  1  0.46804900  0.80599100  0.81655400  1
  O  O35  1  0.96804900  0.69400900  0.18344600  1
  O  O36  1  0.84189500  0.29554700  0.16963600  1
  O  O37  1  0.34189500  0.20445300  0.83036400  1
  O  O38  1  0.15810500  0.70445300  0.83036400  1
  O  O39  1  0.65810500  0.79554700  0.16963600  1
  O  O40  1  0.73709700  0.54455100  0.76873700  1
  O  O41  1  0.23709700  0.95544900  0.23126300  1
  O  O42  1  0.26290300  0.45544900  0.23126300  1
  O  O43  1  0.76290300  0.04455100  0.76873700  1
  O  O44  1  0.66627700  0.41929100  0.93174700  1
  O  O45  1  0.16627700  0.08070900  0.06825300  1
  O  O46  1  0.33372300  0.58070900  0.06825300  1
  O  O47  1  0.83372300  0.91929100  0.93174700  1
  O  O48  1  0.76860200  0.63461500  0.94232200  1
  O  O49  1  0.26860200  0.86538500  0.05767800  1
  O  O50  1  0.23139800  0.36538500  0.05767800  1
  O  O51  1  0.73139800  0.13461500  0.94232200  1
