# generated using pymatgen
data_NdScS3
_symmetry_space_group_name_H-M   'P 1'
_cell_length_a   6.51551300
_cell_length_b   7.17013400
_cell_length_c   9.60943300
_cell_angle_alpha   90.00000000
_cell_angle_beta   90.00000000
_cell_angle_gamma   90.00000000
_symmetry_Int_Tables_number   1
_chemical_formula_structural   NdScS3
_chemical_formula_sum   'Nd4 Sc4 S12'
_cell_volume   448.92485479
_cell_formula_units_Z   4
loop_
 _symmetry_equiv_pos_site_id
 _symmetry_equiv_pos_as_xyz
  1  'x, y, z'
loop_
 _atom_site_type_symbol
 _atom_site_label
 _atom_site_symmetry_multiplicity
 _atom_site_fract_x
 _atom_site_fract_y
 _atom_site_fract_z
 _atom_site_occupancy
  Nd  Nd0  1  0.53786700  0.40260700  0.75000000  1
  Nd  Nd1  1  0.46213300  0.59739300  0.25000000  1
  Nd  Nd2  1  0.03786700  0.09739300  0.25000000  1
  Nd  Nd3  1  0.96213300  0.90260700  0.75000000  1
  Sc  Sc4  1  0.00000000  0.50000000  0.00000000  1
  Sc  Sc5  1  0.00000000  0.50000000  0.50000000  1
  Sc  Sc6  1  0.50000000  0.00000000  0.50000000  1
  Sc  Sc7  1  0.50000000  0.00000000  0.00000000  1
  S  S8  1  0.82185000  0.18844000  0.56251500  1
  S  S9  1  0.17815000  0.81156000  0.06251500  1
  S  S10  1  0.32185000  0.31156000  0.06251500  1
  S  S11  1  0.67815000  0.68844000  0.56251500  1
  S  S12  1  0.82185000  0.18844000  0.93748500  1
  S  S13  1  0.17815000  0.81156000  0.43748500  1
  S  S14  1  0.32185000  0.31156000  0.43748500  1
  S  S15  1  0.67815000  0.68844000  0.93748500  1
  S  S16  1  0.87129800  0.46269800  0.25000000  1
  S  S17  1  0.12870200  0.53730200  0.75000000  1
  S  S18  1  0.37129800  0.03730200  0.75000000  1
  S  S19  1  0.62870200  0.96269800  0.25000000  1
