# generated using pymatgen
data_Ce2Te7Br2O17
_symmetry_space_group_name_H-M   'P 1'
_cell_length_a   5.50694500
_cell_length_b   9.93575200
_cell_length_c   20.61872528
_cell_angle_alpha   68.76865238
_cell_angle_beta   90.00000000
_cell_angle_gamma   90.00000000
_symmetry_Int_Tables_number   1
_chemical_formula_structural   Ce2Te7Br2O17
_chemical_formula_sum   'Ce4 Te14 Br4 O34'
_cell_volume   1051.59334132
_cell_formula_units_Z   2
loop_
 _symmetry_equiv_pos_site_id
 _symmetry_equiv_pos_as_xyz
  1  'x, y, z'
loop_
 _atom_site_type_symbol
 _atom_site_label
 _atom_site_symmetry_multiplicity
 _atom_site_fract_x
 _atom_site_fract_y
 _atom_site_fract_z
 _atom_site_occupancy
  Ce  Ce0  1  0.86464000  0.49546100  0.90846000  1
  Ce  Ce1  1  0.13536000  0.50453900  0.09154000  1
  Ce  Ce2  1  0.86464000  0.50453900  0.59154000  1
  Ce  Ce3  1  0.13536000  0.49546100  0.40846000  1
  Te  Te4  1  0.39645700  0.21458800  0.91055500  1
  Te  Te5  1  0.60354300  0.78541200  0.08944500  1
  Te  Te6  1  0.39645700  0.78541200  0.58944500  1
  Te  Te7  1  0.60354300  0.21458800  0.41055500  1
  Te  Te8  1  0.55979600  0.50000000  0.75000000  1
  Te  Te9  1  0.44020400  0.50000000  0.25000000  1
  Te  Te10  1  0.67418000  0.23680100  0.07967200  1
  Te  Te11  1  0.32582000  0.76319900  0.92032800  1
  Te  Te12  1  0.67418000  0.76319900  0.42032800  1
  Te  Te13  1  0.32582000  0.23680100  0.57967200  1
  Te  Te14  1  0.01790400  0.82601700  0.74384300  1
  Te  Te15  1  0.98209600  0.17398300  0.25615700  1
  Te  Te16  1  0.01790400  0.17398300  0.75615700  1
  Te  Te17  1  0.98209600  0.82601700  0.24384300  1
  Br  Br18  1  0.83304400  0.96985400  0.92101100  1
  Br  Br19  1  0.16695600  0.03014600  0.07898900  1
  Br  Br20  1  0.83304400  0.03014600  0.57898900  1
  Br  Br21  1  0.16695600  0.96985400  0.42101100  1
  O  O22  1  0.63561200  0.34305400  0.84981000  1
  O  O23  1  0.36438800  0.65694600  0.15019000  1
  O  O24  1  0.63561200  0.65694600  0.65019000  1
  O  O25  1  0.36438800  0.34305400  0.34981000  1
  O  O26  1  0.42877000  0.36232000  0.08887900  1
  O  O27  1  0.57123000  0.63768000  0.91112100  1
  O  O28  1  0.42877000  0.63768000  0.41112100  1
  O  O29  1  0.57123000  0.36232000  0.58887900  1
  O  O30  1  0.12142800  0.71242700  0.83708600  1
  O  O31  1  0.87857200  0.28757300  0.16291400  1
  O  O32  1  0.12142800  0.28757300  0.66291400  1
  O  O33  1  0.87857200  0.71242700  0.33708600  1
  O  O34  1  0.59589400  0.27685600  0.97737400  1
  O  O35  1  0.40410600  0.72314400  0.02262600  1
  O  O36  1  0.59589400  0.72314400  0.52262600  1
  O  O37  1  0.40410600  0.27685600  0.47737400  1
  O  O38  1  0.16215600  0.36001100  0.90049900  1
  O  O39  1  0.83784400  0.63998900  0.09950100  1
  O  O40  1  0.16215600  0.63998900  0.59950100  1
  O  O41  1  0.83784400  0.36001100  0.40049900  1
  O  O42  1  0.90088000  0.38601200  0.03237100  1
  O  O43  1  0.09912000  0.61398800  0.96762900  1
  O  O44  1  0.90088000  0.61398800  0.46762900  1
  O  O45  1  0.09912000  0.38601200  0.53237100  1
  O  O46  1  0.78922600  0.59878000  0.78597500  1
  O  O47  1  0.21077400  0.40122000  0.21402500  1
  O  O48  1  0.78922600  0.40122000  0.71402500  1
  O  O49  1  0.21077400  0.59878000  0.28597500  1
  O  O50  1  0.18917300  0.00000000  0.75000000  1
  O  O51  1  0.81082700  0.00000000  0.25000000  1
  O  O52  1  0.27740300  0.77546900  0.69793200  1
  O  O53  1  0.72259700  0.22453100  0.30206800  1
  O  O54  1  0.27740300  0.22453100  0.80206800  1
  O  O55  1  0.72259700  0.77546900  0.19793200  1
