# generated using pymatgen
data_Tm2Ge2O7
_symmetry_space_group_name_H-M   'P 1'
_cell_length_a   6.79945100
_cell_length_b   6.79945100
_cell_length_c   12.37775200
_cell_angle_alpha   90.00000000
_cell_angle_beta   90.00000000
_cell_angle_gamma   90.00000000
_symmetry_Int_Tables_number   1
_chemical_formula_structural   Tm2Ge2O7
_chemical_formula_sum   'Tm8 Ge8 O28'
_cell_volume   572.25483896
_cell_formula_units_Z   4
loop_
 _symmetry_equiv_pos_site_id
 _symmetry_equiv_pos_as_xyz
  1  'x, y, z'
loop_
 _atom_site_type_symbol
 _atom_site_label
 _atom_site_symmetry_multiplicity
 _atom_site_fract_x
 _atom_site_fract_y
 _atom_site_fract_z
 _atom_site_occupancy
  Tm  Tm0  1  0.64510100  0.12644500  0.36480300  1
  Tm  Tm1  1  0.35489900  0.87355500  0.86480300  1
  Tm  Tm2  1  0.12644500  0.64510100  0.63519700  1
  Tm  Tm3  1  0.62644500  0.85489900  0.11480300  1
  Tm  Tm4  1  0.37355500  0.14510100  0.61480300  1
  Tm  Tm5  1  0.85489900  0.62644500  0.88519700  1
  Tm  Tm6  1  0.14510100  0.37355500  0.38519700  1
  Tm  Tm7  1  0.87355500  0.35489900  0.13519700  1
  Ge  Ge8  1  0.84977600  0.10005000  0.88203300  1
  Ge  Ge9  1  0.15022400  0.89995000  0.38203300  1
  Ge  Ge10  1  0.10005000  0.84977600  0.11796700  1
  Ge  Ge11  1  0.60005000  0.65022400  0.63203300  1
  Ge  Ge12  1  0.39995000  0.34977600  0.13203300  1
  Ge  Ge13  1  0.65022400  0.60005000  0.36796700  1
  Ge  Ge14  1  0.34977600  0.39995000  0.86796700  1
  Ge  Ge15  1  0.89995000  0.15022400  0.61796700  1
  O  O16  1  0.85683100  0.32081100  0.95594600  1
  O  O17  1  0.14316900  0.67918900  0.45594600  1
  O  O18  1  0.32081100  0.85683100  0.04405400  1
  O  O19  1  0.82081100  0.64316900  0.70594600  1
  O  O20  1  0.17918900  0.35683100  0.20594600  1
  O  O21  1  0.64316900  0.82081100  0.29405400  1
  O  O22  1  0.35683100  0.17918900  0.79405400  1
  O  O23  1  0.67918900  0.14316900  0.54405400  1
  O  O24  1  0.66175400  0.93381400  0.92946100  1
  O  O25  1  0.33824600  0.06618600  0.42946100  1
  O  O26  1  0.93381400  0.66175400  0.07053900  1
  O  O27  1  0.43381400  0.83824600  0.67946100  1
  O  O28  1  0.56618600  0.16175400  0.17946100  1
  O  O29  1  0.83824600  0.43381400  0.32053900  1
  O  O30  1  0.16175400  0.56618600  0.82053900  1
  O  O31  1  0.06618600  0.33824600  0.57053900  1
  O  O32  1  0.80366100  0.19633900  0.75000000  1
  O  O33  1  0.30366100  0.30366100  0.00000000  1
  O  O34  1  0.69633900  0.69633900  0.50000000  1
  O  O35  1  0.19633900  0.80366100  0.25000000  1
  O  O36  1  0.07983600  0.96507200  0.62150400  1
  O  O37  1  0.53492800  0.57983600  0.87150400  1
  O  O38  1  0.46507200  0.42016400  0.37150400  1
  O  O39  1  0.57983600  0.53492800  0.12849600  1
  O  O40  1  0.42016400  0.46507200  0.62849600  1
  O  O41  1  0.92016400  0.03492800  0.12150400  1
  O  O42  1  0.96507200  0.07983600  0.37849600  1
  O  O43  1  0.03492800  0.92016400  0.87849600  1
