# generated using pymatgen
data_Al2Ru
_symmetry_space_group_name_H-M   'P 1'
_cell_length_a   5.98116105
_cell_length_b   5.01550392
_cell_length_c   4.67476664
_cell_angle_alpha   76.13837153
_cell_angle_beta   54.50135445
_cell_angle_gamma   49.36027403
_symmetry_Int_Tables_number   1
_chemical_formula_structural   Al2Ru
_chemical_formula_sum   'Al4 Ru2'
_cell_volume   84.42554988
_cell_formula_units_Z   2
loop_
 _symmetry_equiv_pos_site_id
 _symmetry_equiv_pos_as_xyz
  1  'x, y, z'
loop_
 _atom_site_type_symbol
 _atom_site_label
 _atom_site_symmetry_multiplicity
 _atom_site_fract_x
 _atom_site_fract_y
 _atom_site_fract_z
 _atom_site_occupancy
  Al  Al0  1  0.57907100  0.92092900  0.57907100  1
  Al  Al1  1  0.92092900  0.57907100  0.92092900  1
  Al  Al2  1  0.67092900  0.32907100  0.67092900  1
  Al  Al3  1  0.32907100  0.67092900  0.32907100  1
  Ru  Ru4  1  0.25000000  0.25000000  0.25000000  1
  Ru  Ru5  1  0.00000000  0.00000000  0.00000000  1
