# generated using pymatgen
data_Ho4(Al8Pt3)3
_symmetry_space_group_name_H-M   'P 1'
_cell_length_a   7.49869278
_cell_length_b   7.54924603
_cell_length_c   13.21864872
_cell_angle_alpha   84.63665390
_cell_angle_beta   79.26334349
_cell_angle_gamma   59.94171838
_symmetry_Int_Tables_number   1
_chemical_formula_structural   Ho4(Al8Pt3)3
_chemical_formula_sum   'Ho4 Al24 Pt9'
_cell_volume   636.32838250
_cell_formula_units_Z   1
loop_
 _symmetry_equiv_pos_site_id
 _symmetry_equiv_pos_as_xyz
  1  'x, y, z'
loop_
 _atom_site_type_symbol
 _atom_site_label
 _atom_site_symmetry_multiplicity
 _atom_site_fract_x
 _atom_site_fract_y
 _atom_site_fract_z
 _atom_site_occupancy
  Ho  Ho0  1  0.39318800  0.16880800  0.80785300  1
  Ho  Ho1  1  0.60681200  0.83119200  0.19214700  1
  Ho  Ho2  1  0.73441200  0.49834700  0.80736200  1
  Ho  Ho3  1  0.26558800  0.50165300  0.19263800  1
  Al  Al4  1  0.68493300  0.83373700  0.94447600  1
  Al  Al5  1  0.31506700  0.16626300  0.05552400  1
  Al  Al6  1  0.14659900  0.83236400  0.56067300  1
  Al  Al7  1  0.85340100  0.16763600  0.43932700  1
  Al  Al8  1  0.47947500  0.16669600  0.55835000  1
  Al  Al9  1  0.52052500  0.83330400  0.44165000  1
  Al  Al10  1  0.21680500  0.16528600  0.32943600  1
  Al  Al11  1  0.78319500  0.83471400  0.67056400  1
  Al  Al12  1  0.43765400  0.50589600  0.67061200  1
  Al  Al13  1  0.56234600  0.49410400  0.32938800  1
  Al  Al14  1  0.10925200  0.16031900  0.66972800  1
  Al  Al15  1  0.89074800  0.83968100  0.33027200  1
  Al  Al16  1  0.35336900  0.49929000  0.94468200  1
  Al  Al17  1  0.64663100  0.50071000  0.05531800  1
  Al  Al18  1  0.01572700  0.16768800  0.95275000  1
  Al  Al19  1  0.98427300  0.83231200  0.04725000  1
  Al  Al20  1  0.18648400  0.49932300  0.44149200  1
  Al  Al21  1  0.81351600  0.50067700  0.55850800  1
  Al  Al22  1  0.73441300  0.16348100  0.18317700  1
  Al  Al23  1  0.26558700  0.83651900  0.81682300  1
  Al  Al24  1  0.06178500  0.63154600  0.81558000  1
  Al  Al25  1  0.93821500  0.36845400  0.18442000  1
  Al  Al26  1  0.85528600  0.04128400  0.81590600  1
  Al  Al27  1  0.14471400  0.95871600  0.18409400  1
  Pt  Pt28  1  0.12003400  0.49271000  0.63866100  1
  Pt  Pt29  1  0.87996600  0.50729000  0.36133900  1
  Pt  Pt30  1  0.65697400  0.17124100  0.99975600  1
  Pt  Pt31  1  0.34302600  0.82875900  0.00024400  1
  Pt  Pt32  1  0.53887400  0.16667100  0.36126700  1
  Pt  Pt33  1  0.46112600  0.83332900  0.63873300  1
  Pt  Pt34  1  0.77929300  0.17451900  0.63658400  1
  Pt  Pt35  1  0.22070700  0.82548100  0.36341600  1
  Pt  Pt36  1  0.00000000  0.50000000  0.00000000  1
