# generated using pymatgen
data_Na3TaS4
_symmetry_space_group_name_H-M   'P 1'
_cell_length_a   19.87845735
_cell_length_b   14.91322569
_cell_length_c   14.31702498
_cell_angle_alpha   85.67166688
_cell_angle_beta   48.42440285
_cell_angle_gamma   45.90393027
_symmetry_Int_Tables_number   1
_chemical_formula_structural   Na3TaS4
_chemical_formula_sum   'Na24 Ta8 S32'
_cell_volume   1584.70061516
_cell_formula_units_Z   8
loop_
 _symmetry_equiv_pos_site_id
 _symmetry_equiv_pos_as_xyz
  1  'x, y, z'
loop_
 _atom_site_type_symbol
 _atom_site_label
 _atom_site_symmetry_multiplicity
 _atom_site_fract_x
 _atom_site_fract_y
 _atom_site_fract_z
 _atom_site_occupancy
  Na  Na0  1  0.66911000  0.83089000  0.83089000  1
  Na  Na1  1  0.41911000  0.58089000  0.58089000  1
  Na  Na2  1  0.18455700  0.31544300  0.31544300  1
  Na  Na3  1  0.93455700  0.06544300  0.06544300  1
  Na  Na4  1  0.44888800  0.54407000  0.05477500  1
  Na  Na5  1  0.95226700  0.05477500  0.54407000  1
  Na  Na6  1  0.19522500  0.29773300  0.80111200  1
  Na  Na7  1  0.70593000  0.80111200  0.29773300  1
  Na  Na8  1  0.00221500  0.44232100  0.73865500  1
  Na  Na9  1  0.81680900  0.73865500  0.44232100  1
  Na  Na10  1  0.51134500  0.43319100  0.24778500  1
  Na  Na11  1  0.80767900  0.24778500  0.43319100  1
  Na  Na12  1  0.80754000  0.97174000  0.88310300  1
  Na  Na13  1  0.33761700  0.88310300  0.97174000  1
  Na  Na14  1  0.36689700  0.91238300  0.44246000  1
  Na  Na15  1  0.27826000  0.44246000  0.91238300  1
  Na  Na16  1  0.51366000  0.23248100  0.93670500  1
  Na  Na17  1  0.31715400  0.93670500  0.23248100  1
  Na  Na18  1  0.31329500  0.93284600  0.73634000  1
  Na  Na19  1  0.01751900  0.73634000  0.93284600  1
  Na  Na20  1  0.89759900  0.91624300  0.37876300  1
  Na  Na21  1  0.80739400  0.37876300  0.91624300  1
  Na  Na22  1  0.87123700  0.44260600  0.35240100  1
  Na  Na23  1  0.33375700  0.35240100  0.44260600  1
  Ta  Ta24  1  0.11310700  0.89961500  0.64131800  1
  Ta  Ta25  1  0.34595900  0.64131800  0.89961500  1
  Ta  Ta26  1  0.60868200  0.90404100  0.13689300  1
  Ta  Ta27  1  0.35038500  0.13689300  0.90404100  1
  Ta  Ta28  1  0.10951600  0.62075300  0.41059500  1
  Ta  Ta29  1  0.85913600  0.41059500  0.62075300  1
  Ta  Ta30  1  0.83940500  0.39086400  0.14048400  1
  Ta  Ta31  1  0.62924700  0.14048400  0.39086400  1
  S  S32  1  0.81883100  0.17746900  0.84963600  1
  S  S33  1  0.15406400  0.84963600  0.17746900  1
  S  S34  1  0.40036400  0.09593600  0.43116900  1
  S  S35  1  0.07253100  0.43116900  0.09593600  1
  S  S36  1  0.16806600  0.70421300  0.64121900  1
  S  S37  1  0.48650200  0.64121900  0.70421300  1
  S  S38  1  0.60878100  0.76349800  0.08193400  1
  S  S39  1  0.54578700  0.08193400  0.76349800  1
  S  S40  1  0.29205400  0.78305300  0.36190000  1
  S  S41  1  0.56299300  0.36190000  0.78305300  1
  S  S42  1  0.88810000  0.68700700  0.95794600  1
  S  S43  1  0.46694700  0.95794600  0.68700700  1
  S  S44  1  0.17904000  0.92687200  0.70726600  1
  S  S45  1  0.18682100  0.70726600  0.92687200  1
  S  S46  1  0.54273400  0.06317900  0.07096000  1
  S  S47  1  0.32312800  0.07096000  0.06317900  1
  S  S48  1  0.89838600  0.91307400  0.60078300  1
  S  S49  1  0.58775700  0.60078300  0.91307400  1
  S  S50  1  0.64921700  0.66224300  0.35161400  1
  S  S51  1  0.33692600  0.35161400  0.66224300  1
  S  S52  1  0.38810200  0.42955400  0.21173000  1
  S  S53  1  0.97061400  0.21173000  0.42955400  1
  S  S54  1  0.03827000  0.27938600  0.86189800  1
  S  S55  1  0.82044600  0.86189800  0.27938600  1
  S  S56  1  0.12474800  0.56320100  0.24768300  1
  S  S57  1  0.06436900  0.24768300  0.56320100  1
  S  S58  1  0.00231700  0.18563100  0.12525200  1
  S  S59  1  0.68679900  0.12525200  0.18563100  1
  S  S60  1  0.03371600  0.56586700  0.57489100  1
  S  S61  1  0.82552600  0.57489100  0.56586700  1
  S  S62  1  0.67510900  0.42447400  0.21628400  1
  S  S63  1  0.68413300  0.21628400  0.42447400  1
