# generated using pymatgen
data_Sb2Os(OF7)2
_symmetry_space_group_name_H-M   'P 1'
_cell_length_a   7.73187600
_cell_length_b   9.03917712
_cell_length_c   10.45102309
_cell_angle_alpha   97.48405872
_cell_angle_beta   111.23637550
_cell_angle_gamma   110.62200261
_symmetry_Int_Tables_number   1
_chemical_formula_structural   Sb2Os(OF7)2
_chemical_formula_sum   'Sb4 Os2 O4 F28'
_cell_volume   608.73197293
_cell_formula_units_Z   2
loop_
 _symmetry_equiv_pos_site_id
 _symmetry_equiv_pos_as_xyz
  1  'x, y, z'
loop_
 _atom_site_type_symbol
 _atom_site_label
 _atom_site_symmetry_multiplicity
 _atom_site_fract_x
 _atom_site_fract_y
 _atom_site_fract_z
 _atom_site_occupancy
  Sb  Sb0  1  0.90725600  0.19866900  0.86423600  1
  Sb  Sb1  1  0.09274400  0.80133100  0.13576400  1
  Sb  Sb2  1  0.44499900  0.34636500  0.68090500  1
  Sb  Sb3  1  0.55500100  0.65363500  0.31909500  1
  Os  Os4  1  0.82282000  0.23763500  0.24827600  1
  Os  Os5  1  0.17718000  0.76236500  0.75172400  1
  O  O6  1  0.00103900  0.43768100  0.30058300  1
  O  O7  1  0.99896100  0.56231900  0.69941700  1
  O  O8  1  0.76644500  0.22695100  0.38959400  1
  O  O9  1  0.23355500  0.77304900  0.61040600  1
  F  F10  1  0.09695100  0.42421600  0.93574100  1
  F  F11  1  0.90304900  0.57578400  0.06425900  1
  F  F12  1  0.65082800  0.56864700  0.76078200  1
  F  F13  1  0.34917200  0.43135300  0.23921800  1
  F  F14  1  0.10936300  0.12438800  0.94571100  1
  F  F15  1  0.89063700  0.87561200  0.05428900  1
  F  F16  1  0.91216900  0.17829600  0.68347400  1
  F  F17  1  0.08783100  0.82170400  0.31652600  1
  F  F18  1  0.02261700  0.16002900  0.29642100  1
  F  F19  1  0.97738300  0.83997100  0.70357900  1
  F  F20  1  0.87396300  0.22869000  0.04659700  1
  F  F21  1  0.12603700  0.77131000  0.95340300  1
  F  F22  1  0.51631400  0.32347100  0.52625500  1
  F  F23  1  0.48368600  0.67652900  0.47374500  1
  F  F24  1  0.40825900  0.35883100  0.85052600  1
  F  F25  1  0.59174100  0.64116900  0.14947400  1
  F  F26  1  0.68624200  0.28113400  0.79208700  1
  F  F27  1  0.31375800  0.71886600  0.20791300  1
  F  F28  1  0.27130700  0.11529300  0.61147600  1
  F  F29  1  0.72869300  0.88470700  0.38852400  1
  F  F30  1  0.68543400  0.98617400  0.79682500  1
  F  F31  1  0.31456600  0.01382600  0.20317500  1
  F  F32  1  0.61139700  0.28125500  0.13379700  1
  F  F33  1  0.38860300  0.71874500  0.86620300  1
  F  F34  1  0.64796000  0.01686700  0.13383800  1
  F  F35  1  0.35204000  0.98313300  0.86616200  1
  F  F36  1  0.22965600  0.40742200  0.58615600  1
  F  F37  1  0.77034400  0.59257800  0.41384400  1
