# generated using pymatgen
data_Eu4C2N4F5
_symmetry_space_group_name_H-M   'P 1'
_cell_length_a   16.16368700
_cell_length_b   16.16368700
_cell_length_c   6.53839600
_cell_angle_alpha   90.00000000
_cell_angle_beta   90.00000000
_cell_angle_gamma   90.00000000
_symmetry_Int_Tables_number   1
_chemical_formula_structural   Eu4C2N4F5
_chemical_formula_sum   'Eu32 C16 N32 F40'
_cell_volume   1708.25257572
_cell_formula_units_Z   8
loop_
 _symmetry_equiv_pos_site_id
 _symmetry_equiv_pos_as_xyz
  1  'x, y, z'
loop_
 _atom_site_type_symbol
 _atom_site_label
 _atom_site_symmetry_multiplicity
 _atom_site_fract_x
 _atom_site_fract_y
 _atom_site_fract_z
 _atom_site_occupancy
  Eu  Eu0  1  0.66289600  0.08787000  0.50815300  1
  Eu  Eu1  1  0.16289600  0.41213000  0.99184700  1
  Eu  Eu2  1  0.33710400  0.91213000  0.50815300  1
  Eu  Eu3  1  0.83710400  0.58787000  0.99184700  1
  Eu  Eu4  1  0.91213000  0.66289600  0.49184700  1
  Eu  Eu5  1  0.58787000  0.16289600  0.00815300  1
  Eu  Eu6  1  0.08787000  0.33710400  0.49184700  1
  Eu  Eu7  1  0.41213000  0.83710400  0.00815300  1
  Eu  Eu8  1  0.58070100  0.83128600  0.51121400  1
  Eu  Eu9  1  0.08070100  0.66871400  0.98878600  1
  Eu  Eu10  1  0.41929900  0.16871400  0.51121400  1
  Eu  Eu11  1  0.91929900  0.33128600  0.98878600  1
  Eu  Eu12  1  0.16871400  0.58070100  0.48878600  1
  Eu  Eu13  1  0.33128600  0.08070100  0.01121400  1
  Eu  Eu14  1  0.83128600  0.41929900  0.48878600  1
  Eu  Eu15  1  0.66871400  0.91929900  0.01121400  1
  Eu  Eu16  1  0.83160900  0.07974400  0.00760900  1
  Eu  Eu17  1  0.33160900  0.42025600  0.49239100  1
  Eu  Eu18  1  0.16839100  0.92025600  0.00760900  1
  Eu  Eu19  1  0.66839100  0.57974400  0.49239100  1
  Eu  Eu20  1  0.92025600  0.83160900  0.99239100  1
  Eu  Eu21  1  0.57974400  0.33160900  0.50760900  1
  Eu  Eu22  1  0.07974400  0.16839100  0.99239100  1
  Eu  Eu23  1  0.42025600  0.66839100  0.50760900  1
  Eu  Eu24  1  0.92335300  0.17595400  0.48680400  1
  Eu  Eu25  1  0.42335300  0.32404600  0.01319600  1
  Eu  Eu26  1  0.07664700  0.82404600  0.48680400  1
  Eu  Eu27  1  0.57664700  0.67595400  0.01319600  1
  Eu  Eu28  1  0.82404600  0.92335300  0.51319600  1
  Eu  Eu29  1  0.67595400  0.42335300  0.98680400  1
  Eu  Eu30  1  0.17595400  0.07664700  0.51319600  1
  Eu  Eu31  1  0.32404600  0.57664700  0.98680400  1
  C  C32  1  0.50000000  0.00000000  0.79202000  1
  C  C33  1  0.00000000  0.50000000  0.70798000  1
  C  C34  1  0.00000000  0.50000000  0.20798000  1
  C  C35  1  0.50000000  0.00000000  0.29202000  1
  C  C36  1  0.74749700  0.25047300  0.77679200  1
  C  C37  1  0.24749700  0.24952700  0.72320800  1
  C  C38  1  0.25250300  0.74952700  0.77679200  1
  C  C39  1  0.75250300  0.75047300  0.72320800  1
  C  C40  1  0.74952700  0.74749700  0.22320800  1
  C  C41  1  0.75047300  0.24749700  0.27679200  1
  C  C42  1  0.25047300  0.25250300  0.22320800  1
  C  C43  1  0.24952700  0.75250300  0.27679200  1
  C  C44  1  0.00000000  0.00000000  0.23678900  1
  C  C45  1  0.50000000  0.50000000  0.26321100  1
  C  C46  1  0.00000000  0.00000000  0.76321100  1
  C  C47  1  0.50000000  0.50000000  0.73678900  1
  N  N48  1  0.82548300  0.26219500  0.25993100  1
  N  N49  1  0.32548300  0.23780500  0.24006900  1
  N  N50  1  0.17451700  0.73780500  0.25993100  1
  N  N51  1  0.67451700  0.76219500  0.24006900  1
  N  N52  1  0.73780500  0.82548300  0.74006900  1
  N  N53  1  0.76219500  0.32548300  0.75993100  1
  N  N54  1  0.26219500  0.17451700  0.74006900  1
  N  N55  1  0.23780500  0.67451700  0.75993100  1
  N  N56  1  0.98804000  0.07560000  0.23416800  1
  N  N57  1  0.48804000  0.42440000  0.26583200  1
  N  N58  1  0.01196000  0.92440000  0.23416800  1
  N  N59  1  0.51196000  0.57560000  0.26583200  1
  N  N60  1  0.92440000  0.98804000  0.76583200  1
  N  N61  1  0.57560000  0.48804000  0.73416800  1
  N  N62  1  0.07560000  0.01196000  0.76583200  1
  N  N63  1  0.42440000  0.51196000  0.73416800  1
  N  N64  1  0.57467900  0.01684600  0.79369900  1
  N  N65  1  0.07467900  0.48315400  0.70630100  1
  N  N66  1  0.42532100  0.98315400  0.79369900  1
  N  N67  1  0.92532100  0.51684600  0.70630100  1
  N  N68  1  0.98315400  0.57467900  0.20630100  1
  N  N69  1  0.51684600  0.07467900  0.29369900  1
  N  N70  1  0.01684600  0.42532100  0.20630100  1
  N  N71  1  0.48315400  0.92532100  0.29369900  1
  N  N72  1  0.73266200  0.17600900  0.79651200  1
  N  N73  1  0.23266200  0.32399100  0.70348800  1
  N  N74  1  0.26733800  0.82399100  0.79651200  1
  N  N75  1  0.76733800  0.67600900  0.70348800  1
  N  N76  1  0.82399100  0.73266200  0.20348800  1
  N  N77  1  0.67600900  0.23266200  0.29651200  1
  N  N78  1  0.17600900  0.26733800  0.20348800  1
  N  N79  1  0.32399100  0.76733800  0.29651200  1
  F  F80  1  0.00078800  0.25136800  0.23852800  1
  F  F81  1  0.50078800  0.24863200  0.26147200  1
  F  F82  1  0.99921200  0.74863200  0.23852800  1
  F  F83  1  0.49921200  0.75136800  0.26147200  1
  F  F84  1  0.74863200  0.00078800  0.76147200  1
  F  F85  1  0.75136800  0.50078800  0.73852800  1
  F  F86  1  0.25136800  0.99921200  0.76147200  1
  F  F87  1  0.24863200  0.49921200  0.73852800  1
  F  F88  1  0.92881600  0.18282300  0.86540600  1
  F  F89  1  0.42881600  0.31717700  0.63459400  1
  F  F90  1  0.07118400  0.81717700  0.86540600  1
  F  F91  1  0.57118400  0.68282300  0.63459400  1
  F  F92  1  0.81717700  0.92881600  0.13459400  1
  F  F93  1  0.68282300  0.42881600  0.36540600  1
  F  F94  1  0.18282300  0.07118400  0.13459400  1
  F  F95  1  0.31717700  0.57118400  0.36540600  1
  F  F96  1  0.56224700  0.18916400  0.63113200  1
  F  F97  1  0.06224700  0.31083600  0.86886800  1
  F  F98  1  0.43775300  0.81083600  0.63113200  1
  F  F99  1  0.93775300  0.68916400  0.86886800  1
  F  F100  1  0.81083600  0.56224700  0.36886800  1
  F  F101  1  0.68916400  0.06224700  0.13113200  1
  F  F102  1  0.18916400  0.43775300  0.36886800  1
  F  F103  1  0.31083600  0.93775300  0.13113200  1
  F  F104  1  0.67343100  0.93858700  0.39710200  1
  F  F105  1  0.17343100  0.56141300  0.10289800  1
  F  F106  1  0.32656900  0.06141300  0.39710200  1
  F  F107  1  0.82656900  0.43858700  0.10289800  1
  F  F108  1  0.06141300  0.67343100  0.60289800  1
  F  F109  1  0.43858700  0.17343100  0.89710200  1
  F  F110  1  0.93858700  0.32656900  0.60289800  1
  F  F111  1  0.56141300  0.82656900  0.89710200  1
  F  F112  1  0.81558300  0.07516200  0.40241000  1
  F  F113  1  0.31558300  0.42483800  0.09759000  1
  F  F114  1  0.18441700  0.92483800  0.40241000  1
  F  F115  1  0.68441700  0.57516200  0.09759000  1
  F  F116  1  0.92483800  0.81558300  0.59759000  1
  F  F117  1  0.57516200  0.31558300  0.90241000  1
  F  F118  1  0.07516200  0.18441700  0.59759000  1
  F  F119  1  0.42483800  0.68441700  0.90241000  1
