# generated using pymatgen
data_Sr4MnRuO8
_symmetry_space_group_name_H-M   'P 1'
_cell_length_a   6.85502924
_cell_length_b   6.85502924
_cell_length_c   5.65633400
_cell_angle_alpha   90.00000000
_cell_angle_beta   90.00000000
_cell_angle_gamma   131.26368598
_symmetry_Int_Tables_number   1
_chemical_formula_structural   Sr4MnRuO8
_chemical_formula_sum   'Sr4 Mn1 Ru1 O8'
_cell_volume   199.79655169
_cell_formula_units_Z   1
loop_
 _symmetry_equiv_pos_site_id
 _symmetry_equiv_pos_as_xyz
  1  'x, y, z'
loop_
 _atom_site_type_symbol
 _atom_site_label
 _atom_site_symmetry_multiplicity
 _atom_site_fract_x
 _atom_site_fract_y
 _atom_site_fract_z
 _atom_site_occupancy
  Sr  Sr0  1  0.64235800  0.35764200  0.00000000  1
  Sr  Sr1  1  0.14447600  0.85552400  0.50000000  1
  Sr  Sr2  1  0.85552400  0.14447600  0.50000000  1
  Sr  Sr3  1  0.35764200  0.64235800  0.00000000  1
  Mn  Mn4  1  0.50000000  0.50000000  0.50000000  1
  Ru  Ru5  1  0.00000000  0.00000000  0.00000000  1
  O  O6  1  0.75480400  0.75480400  0.75479400  1
  O  O7  1  0.24519600  0.24519600  0.24520600  1
  O  O8  1  0.24519600  0.24519600  0.75479400  1
  O  O9  1  0.75480400  0.75480400  0.24520600  1
  O  O10  1  0.83828600  0.16171400  0.00000000  1
  O  O11  1  0.34259100  0.65740900  0.50000000  1
  O  O12  1  0.65740900  0.34259100  0.50000000  1
  O  O13  1  0.16171400  0.83828600  0.00000000  1
