# generated using pymatgen
data_K5Nb3O3F14
_symmetry_space_group_name_H-M   'P 1'
_cell_length_a   20.41089900
_cell_length_b   8.03246700
_cell_length_c   11.62440300
_cell_angle_alpha   90.00000000
_cell_angle_beta   90.00000000
_cell_angle_gamma   90.00000000
_symmetry_Int_Tables_number   1
_chemical_formula_structural   K5Nb3O3F14
_chemical_formula_sum   'K20 Nb12 O12 F56'
_cell_volume   1905.81939157
_cell_formula_units_Z   4
loop_
 _symmetry_equiv_pos_site_id
 _symmetry_equiv_pos_as_xyz
  1  'x, y, z'
loop_
 _atom_site_type_symbol
 _atom_site_label
 _atom_site_symmetry_multiplicity
 _atom_site_fract_x
 _atom_site_fract_y
 _atom_site_fract_z
 _atom_site_occupancy
  K  K0  1  0.00000000  0.45173100  0.89811000  1
  K  K1  1  0.50000000  0.54826900  0.39811000  1
  K  K2  1  0.14878000  0.52816200  0.50303300  1
  K  K3  1  0.85122000  0.52816200  0.50303300  1
  K  K4  1  0.35122000  0.47183800  0.00303300  1
  K  K5  1  0.64878000  0.47183800  0.00303300  1
  K  K6  1  0.17293100  0.23467500  0.10809200  1
  K  K7  1  0.82706900  0.23467500  0.10809200  1
  K  K8  1  0.32706900  0.76532500  0.60809200  1
  K  K9  1  0.67293100  0.76532500  0.60809200  1
  K  K10  1  0.39275800  0.04553300  0.24998400  1
  K  K11  1  0.60724200  0.04553300  0.24998400  1
  K  K12  1  0.10724200  0.95446700  0.74998400  1
  K  K13  1  0.89275800  0.95446700  0.74998400  1
  K  K14  1  0.50000000  0.05619800  0.89106300  1
  K  K15  1  0.00000000  0.94380200  0.39106300  1
  K  K16  1  0.34125500  0.26187900  0.64284700  1
  K  K17  1  0.65874500  0.26187900  0.64284700  1
  K  K18  1  0.15874500  0.73812100  0.14284700  1
  K  K19  1  0.84125500  0.73812100  0.14284700  1
  Nb  Nb20  1  0.19396900  0.45008300  0.81664600  1
  Nb  Nb21  1  0.80603100  0.45008300  0.81664600  1
  Nb  Nb22  1  0.30603100  0.54991700  0.31664600  1
  Nb  Nb23  1  0.69396900  0.54991700  0.31664600  1
  Nb  Nb24  1  0.30131300  0.99621500  0.92420700  1
  Nb  Nb25  1  0.69868700  0.99621500  0.92420700  1
  Nb  Nb26  1  0.19868700  0.00378500  0.42420700  1
  Nb  Nb27  1  0.80131300  0.00378500  0.42420700  1
  Nb  Nb28  1  0.00000000  0.92531900  0.02157500  1
  Nb  Nb29  1  0.50000000  0.07468100  0.52157500  1
  Nb  Nb30  1  0.00000000  0.46638800  0.23397300  1
  Nb  Nb31  1  0.50000000  0.53361200  0.73397300  1
  O  O32  1  0.14494100  0.60821200  0.75597300  1
  O  O33  1  0.85505900  0.60821200  0.75597300  1
  O  O34  1  0.35505900  0.39178800  0.25597300  1
  O  O35  1  0.64494100  0.39178800  0.25597300  1
  O  O36  1  0.34268500  0.80892100  0.95068800  1
  O  O37  1  0.65731500  0.80892100  0.95068800  1
  O  O38  1  0.15731500  0.19107900  0.45068800  1
  O  O39  1  0.84268500  0.19107900  0.45068800  1
  O  O40  1  0.00000000  0.07817500  0.91223400  1
  O  O41  1  0.50000000  0.92182500  0.41223400  1
  O  O42  1  0.00000000  0.26727300  0.29497300  1
  O  O43  1  0.50000000  0.73272700  0.79497300  1
  F  F44  1  0.28202700  0.53207400  0.76863900  1
  F  F45  1  0.71797300  0.53207400  0.76863900  1
  F  F46  1  0.21797300  0.46792600  0.26863900  1
  F  F47  1  0.78202700  0.46792600  0.26863900  1
  F  F48  1  0.19685700  0.30473300  0.68053100  1
  F  F49  1  0.80314300  0.30473300  0.68053100  1
  F  F50  1  0.30314300  0.69526700  0.18053100  1
  F  F51  1  0.69685700  0.69526700  0.18053100  1
  F  F52  1  0.12187500  0.30830700  0.87702900  1
  F  F53  1  0.87812500  0.30830700  0.87702900  1
  F  F54  1  0.37812500  0.69169300  0.37702900  1
  F  F55  1  0.62187500  0.69169300  0.37702900  1
  F  F56  1  0.20862800  0.53462300  0.97605700  1
  F  F57  1  0.79137200  0.53462300  0.97605700  1
  F  F58  1  0.29137200  0.46537700  0.47605700  1
  F  F59  1  0.70862800  0.46537700  0.47605700  1
  F  F60  1  0.25481800  0.25071400  0.89373900  1
  F  F61  1  0.74518200  0.25071400  0.89373900  1
  F  F62  1  0.24518200  0.74928600  0.39373900  1
  F  F63  1  0.75481800  0.74928600  0.39373900  1
  F  F64  1  0.37474600  0.11893800  0.85202000  1
  F  F65  1  0.62525400  0.11893800  0.85202000  1
  F  F66  1  0.12525400  0.88106200  0.35202000  1
  F  F67  1  0.87474600  0.88106200  0.35202000  1
  F  F68  1  0.26931300  0.95684600  0.76585600  1
  F  F69  1  0.73068700  0.95684600  0.76585600  1
  F  F70  1  0.23068700  0.04315400  0.26585600  1
  F  F71  1  0.76931300  0.04315400  0.26585600  1
  F  F72  1  0.21179300  0.94870000  0.98321000  1
  F  F73  1  0.78820700  0.94870000  0.98321000  1
  F  F74  1  0.28820700  0.05130000  0.48321000  1
  F  F75  1  0.71179300  0.05130000  0.48321000  1
  F  F76  1  0.32035800  0.12005400  0.06800600  1
  F  F77  1  0.67964200  0.12005400  0.06800600  1
  F  F78  1  0.17964200  0.87994600  0.56800600  1
  F  F79  1  0.82035800  0.87994600  0.56800600  1
  F  F80  1  0.07148800  0.01408000  0.11862100  1
  F  F81  1  0.92851200  0.01408000  0.11862100  1
  F  F82  1  0.42851200  0.98592000  0.61862100  1
  F  F83  1  0.57148800  0.98592000  0.61862100  1
  F  F84  1  0.06588600  0.77330000  0.95138500  1
  F  F85  1  0.93411400  0.77330000  0.95138500  1
  F  F86  1  0.43411400  0.22670000  0.45138500  1
  F  F87  1  0.56588600  0.22670000  0.45138500  1
  F  F88  1  0.00000000  0.73002900  0.15916000  1
  F  F89  1  0.50000000  0.26997100  0.65916000  1
  F  F90  1  0.06814600  0.56888500  0.33091400  1
  F  F91  1  0.93185400  0.56888500  0.33091400  1
  F  F92  1  0.43185400  0.43111500  0.83091400  1
  F  F93  1  0.56814600  0.43111500  0.83091400  1
  F  F94  1  0.06743200  0.43657000  0.11058800  1
  F  F95  1  0.93256800  0.43657000  0.11058800  1
  F  F96  1  0.43256800  0.56343000  0.61058800  1
  F  F97  1  0.56743200  0.56343000  0.61058800  1
  F  F98  1  0.00000000  0.91076500  0.61990800  1
  F  F99  1  0.50000000  0.08923500  0.11990800  1
