# generated using pymatgen
data_Ba3(AlAs2)2
_symmetry_space_group_name_H-M   'P 1'
_cell_length_a   7.56800300
_cell_length_b   11.98496500
_cell_length_c   12.02479700
_cell_angle_alpha   90.00000000
_cell_angle_beta   90.00000000
_cell_angle_gamma   90.00000000
_symmetry_Int_Tables_number   1
_chemical_formula_structural   Ba3(AlAs2)2
_chemical_formula_sum   'Ba12 Al8 As16'
_cell_volume   1090.67615662
_cell_formula_units_Z   4
loop_
 _symmetry_equiv_pos_site_id
 _symmetry_equiv_pos_as_xyz
  1  'x, y, z'
loop_
 _atom_site_type_symbol
 _atom_site_label
 _atom_site_symmetry_multiplicity
 _atom_site_fract_x
 _atom_site_fract_y
 _atom_site_fract_z
 _atom_site_occupancy
  Ba  Ba0  1  0.58161500  0.07729500  0.36141000  1
  Ba  Ba1  1  0.08161500  0.42270500  0.13859000  1
  Ba  Ba2  1  0.41838500  0.57729500  0.63859000  1
  Ba  Ba3  1  0.91838500  0.92270500  0.86141000  1
  Ba  Ba4  1  0.41838500  0.92270500  0.63859000  1
  Ba  Ba5  1  0.91838500  0.57729500  0.86141000  1
  Ba  Ba6  1  0.58161500  0.42270500  0.36141000  1
  Ba  Ba7  1  0.08161500  0.07729500  0.13859000  1
  Ba  Ba8  1  0.59335200  0.25000000  0.73892000  1
  Ba  Ba9  1  0.09335200  0.25000000  0.76108000  1
  Ba  Ba10  1  0.40664800  0.75000000  0.26108000  1
  Ba  Ba11  1  0.90664800  0.75000000  0.23892000  1
  Al  Al12  1  0.55971900  0.12538300  0.03719400  1
  Al  Al13  1  0.05971900  0.37461700  0.46280600  1
  Al  Al14  1  0.44028100  0.62538300  0.96280600  1
  Al  Al15  1  0.94028100  0.87461700  0.53719400  1
  Al  Al16  1  0.44028100  0.87461700  0.96280600  1
  Al  Al17  1  0.94028100  0.62538300  0.53719400  1
  Al  Al18  1  0.55971900  0.37461700  0.03719400  1
  Al  Al19  1  0.05971900  0.12538300  0.46280600  1
  As  As20  1  0.65789800  0.55912100  0.11270200  1
  As  As21  1  0.15789800  0.94087900  0.38729800  1
  As  As22  1  0.34210200  0.05912100  0.88729800  1
  As  As23  1  0.84210200  0.44087900  0.61270200  1
  As  As24  1  0.34210200  0.44087900  0.88729800  1
  As  As25  1  0.84210200  0.05912100  0.61270200  1
  As  As26  1  0.65789800  0.94087900  0.11270200  1
  As  As27  1  0.15789800  0.55912100  0.38729800  1
  As  As28  1  0.81339100  0.25000000  0.97196300  1
  As  As29  1  0.31339100  0.25000000  0.52803700  1
  As  As30  1  0.18660900  0.75000000  0.02803700  1
  As  As31  1  0.68660900  0.75000000  0.47196300  1
  As  As32  1  0.90840500  0.25000000  0.32592100  1
  As  As33  1  0.40840500  0.25000000  0.17407900  1
  As  As34  1  0.09159500  0.75000000  0.67407900  1
  As  As35  1  0.59159500  0.75000000  0.82592100  1
