# generated using pymatgen
data_Pr(InPt)2
_symmetry_space_group_name_H-M   'P 1'
_cell_length_a   4.53607000
_cell_length_b   10.37298200
_cell_length_c   10.39315956
_cell_angle_alpha   63.20616510
_cell_angle_beta   90.00000000
_cell_angle_gamma   90.00000000
_symmetry_Int_Tables_number   1
_chemical_formula_structural   Pr(InPt)2
_chemical_formula_sum   'Pr4 In8 Pt8'
_cell_volume   436.52040702
_cell_formula_units_Z   4
loop_
 _symmetry_equiv_pos_site_id
 _symmetry_equiv_pos_as_xyz
  1  'x, y, z'
loop_
 _atom_site_type_symbol
 _atom_site_label
 _atom_site_symmetry_multiplicity
 _atom_site_fract_x
 _atom_site_fract_y
 _atom_site_fract_z
 _atom_site_occupancy
  Pr  Pr0  1  0.25000000  0.95221700  0.78984300  1
  Pr  Pr1  1  0.75000000  0.04778300  0.21015700  1
  Pr  Pr2  1  0.25000000  0.59869700  0.70998600  1
  Pr  Pr3  1  0.75000000  0.40130300  0.29001400  1
  In  In4  1  0.25000000  0.35484800  0.55253200  1
  In  In5  1  0.75000000  0.64515200  0.44746800  1
  In  In6  1  0.25000000  0.11887200  0.42468500  1
  In  In7  1  0.75000000  0.88112800  0.57531500  1
  In  In8  1  0.25000000  0.22652300  0.89626000  1
  In  In9  1  0.75000000  0.77347700  0.10374000  1
  In  In10  1  0.25000000  0.59433900  0.04087300  1
  In  In11  1  0.75000000  0.40566100  0.95912700  1
  Pt  Pt12  1  0.25000000  0.62624200  0.29667400  1
  Pt  Pt13  1  0.75000000  0.37375800  0.70332600  1
  Pt  Pt14  1  0.25000000  0.84278400  0.41857300  1
  Pt  Pt15  1  0.75000000  0.15721600  0.58142700  1
  Pt  Pt16  1  0.25000000  0.29457600  0.13165900  1
  Pt  Pt17  1  0.75000000  0.70542400  0.86834100  1
  Pt  Pt18  1  0.25000000  0.93017100  0.09956400  1
  Pt  Pt19  1  0.75000000  0.06982900  0.90043600  1
