# generated using pymatgen
data_Ti3VS6
_symmetry_space_group_name_H-M   'P 1'
_cell_length_a   6.70653319
_cell_length_b   6.70653319
_cell_length_c   6.70653327
_cell_angle_alpha   52.13353426
_cell_angle_beta   52.13353426
_cell_angle_gamma   52.13353674
_symmetry_Int_Tables_number   1
_chemical_formula_structural   Ti3VS6
_chemical_formula_sum   'Ti3 V1 S6'
_cell_volume   173.86153275
_cell_formula_units_Z   1
loop_
 _symmetry_equiv_pos_site_id
 _symmetry_equiv_pos_as_xyz
  1  'x, y, z'
loop_
 _atom_site_type_symbol
 _atom_site_label
 _atom_site_symmetry_multiplicity
 _atom_site_fract_x
 _atom_site_fract_y
 _atom_site_fract_z
 _atom_site_occupancy
  Ti  Ti0  1  0.00000000  0.00000000  0.00000000  1
  Ti  Ti1  1  0.33214300  0.33214300  0.33214300  1
  Ti  Ti2  1  0.66785700  0.66785700  0.66785700  1
  V  V3  1  0.50000000  0.50000000  0.50000000  1
  S  S4  1  0.91429900  0.58273200  0.24836200  1
  S  S5  1  0.58273200  0.24836200  0.91429900  1
  S  S6  1  0.24836200  0.91429900  0.58273200  1
  S  S7  1  0.75163800  0.08570100  0.41726800  1
  S  S8  1  0.41726800  0.75163800  0.08570100  1
  S  S9  1  0.08570100  0.41726800  0.75163800  1
