# generated using pymatgen
data_SbPbBrO2
_symmetry_space_group_name_H-M   'P 1'
_cell_length_a   7.07362690
_cell_length_b   7.07362690
_cell_length_c   5.56987900
_cell_angle_alpha   90.00000000
_cell_angle_beta   90.00000000
_cell_angle_gamma   131.97317332
_symmetry_Int_Tables_number   1
_chemical_formula_structural   SbPbBrO2
_chemical_formula_sum   'Sb2 Pb2 Br2 O4'
_cell_volume   207.19845939
_cell_formula_units_Z   2
loop_
 _symmetry_equiv_pos_site_id
 _symmetry_equiv_pos_as_xyz
  1  'x, y, z'
loop_
 _atom_site_type_symbol
 _atom_site_label
 _atom_site_symmetry_multiplicity
 _atom_site_fract_x
 _atom_site_fract_y
 _atom_site_fract_z
 _atom_site_occupancy
  Sb  Sb0  1  0.92462200  0.07537800  0.25000000  1
  Sb  Sb1  1  0.07537800  0.92462200  0.75000000  1
  Pb  Pb2  1  0.61228000  0.38772000  0.25000000  1
  Pb  Pb3  1  0.38772000  0.61228000  0.75000000  1
  Br  Br4  1  0.25510600  0.74489400  0.25000000  1
  Br  Br5  1  0.74489400  0.25510600  0.75000000  1
  O  O6  1  0.22497500  0.22497500  0.00000000  1
  O  O7  1  0.77502500  0.77502500  0.00000000  1
  O  O8  1  0.77502500  0.77502500  0.50000000  1
  O  O9  1  0.22497500  0.22497500  0.50000000  1
