# generated using pymatgen
data_Tm2(Al3Ir)3
_symmetry_space_group_name_H-M   'P 1'
_cell_length_a   7.52738065
_cell_length_b   7.52738065
_cell_length_c   9.42388000
_cell_angle_alpha   90.00000000
_cell_angle_beta   90.00000000
_cell_angle_gamma   119.68571925
_symmetry_Int_Tables_number   1
_chemical_formula_structural   Tm2(Al3Ir)3
_chemical_formula_sum   'Tm4 Al18 Ir6'
_cell_volume   463.88978592
_cell_formula_units_Z   2
loop_
 _symmetry_equiv_pos_site_id
 _symmetry_equiv_pos_as_xyz
  1  'x, y, z'
loop_
 _atom_site_type_symbol
 _atom_site_label
 _atom_site_symmetry_multiplicity
 _atom_site_fract_x
 _atom_site_fract_y
 _atom_site_fract_z
 _atom_site_occupancy
  Tm  Tm0  1  0.99543500  0.66952000  0.25000000  1
  Tm  Tm1  1  0.00456500  0.33048000  0.75000000  1
  Tm  Tm2  1  0.66952000  0.99543500  0.25000000  1
  Tm  Tm3  1  0.33048000  0.00456500  0.75000000  1
  Al  Al4  1  0.12621200  0.12621200  0.25000000  1
  Al  Al5  1  0.87378800  0.87378800  0.75000000  1
  Al  Al6  1  0.00085900  0.33471900  0.07412400  1
  Al  Al7  1  0.99914100  0.66528100  0.92587600  1
  Al  Al8  1  0.99914100  0.66528100  0.57412400  1
  Al  Al9  1  0.33471900  0.00085900  0.42587600  1
  Al  Al10  1  0.00085900  0.33471900  0.42587600  1
  Al  Al11  1  0.66528100  0.99914100  0.57412400  1
  Al  Al12  1  0.66528100  0.99914100  0.92587600  1
  Al  Al13  1  0.33471900  0.00085900  0.07412400  1
  Al  Al14  1  0.33319300  0.33319300  0.55498700  1
  Al  Al15  1  0.66680700  0.66680700  0.44501300  1
  Al  Al16  1  0.66680700  0.66680700  0.05498700  1
  Al  Al17  1  0.33319300  0.33319300  0.94501300  1
  Al  Al18  1  0.33773600  0.54745700  0.25000000  1
  Al  Al19  1  0.66226400  0.45254300  0.75000000  1
  Al  Al20  1  0.54745700  0.33773600  0.25000000  1
  Al  Al21  1  0.45254300  0.66226400  0.75000000  1
  Ir  Ir22  1  0.67217900  0.32782100  0.00000000  1
  Ir  Ir23  1  0.32782100  0.67217900  0.00000000  1
  Ir  Ir24  1  0.32782100  0.67217900  0.50000000  1
  Ir  Ir25  1  0.67217900  0.32782100  0.50000000  1
  Ir  Ir26  1  0.00000000  0.00000000  0.00000000  1
  Ir  Ir27  1  0.00000000  0.00000000  0.50000000  1
