# generated using pymatgen
data_K2BaNb2S11
_symmetry_space_group_name_H-M   'P 1'
_cell_length_a   12.91854058
_cell_length_b   14.85985132
_cell_length_c   17.77929062
_cell_angle_alpha   94.99841511
_cell_angle_beta   90.00000000
_cell_angle_gamma   90.00000000
_symmetry_Int_Tables_number   1
_chemical_formula_structural   K2BaNb2S11
_chemical_formula_sum   'K16 Ba8 Nb16 S88'
_cell_volume   3400.06816348
_cell_formula_units_Z   8
loop_
 _symmetry_equiv_pos_site_id
 _symmetry_equiv_pos_as_xyz
  1  'x, y, z'
loop_
 _atom_site_type_symbol
 _atom_site_label
 _atom_site_symmetry_multiplicity
 _atom_site_fract_x
 _atom_site_fract_y
 _atom_site_fract_z
 _atom_site_occupancy
  K  K0  1  0.87726682  0.89063162  0.93306408  1
  K  K1  1  0.12273318  0.10936838  0.06693592  1
  K  K2  1  0.37726682  0.10936838  0.56693592  1
  K  K3  1  0.62273318  0.89063162  0.43306408  1
  K  K4  1  0.94747157  0.85237130  0.59012766  1
  K  K5  1  0.05252843  0.14762870  0.40987234  1
  K  K6  1  0.44747157  0.14762870  0.90987234  1
  K  K7  1  0.55252843  0.85237130  0.09012766  1
  K  K8  1  0.73576046  0.67034321  0.76124751  1
  K  K9  1  0.26423954  0.32965679  0.23875249  1
  K  K10  1  0.23576046  0.32965679  0.73875249  1
  K  K11  1  0.76423954  0.67034321  0.26124751  1
  K  K12  1  0.25073207  0.85942906  0.71523279  1
  K  K13  1  0.74926793  0.14057094  0.28476721  1
  K  K14  1  0.75073207  0.14057094  0.78476721  1
  K  K15  1  0.24926793  0.85942906  0.21523279  1
  Ba  Ba16  1  0.38593982  0.61795325  0.89606806  1
  Ba  Ba17  1  0.61406018  0.38204675  0.10393194  1
  Ba  Ba18  1  0.88593982  0.38204675  0.60393194  1
  Ba  Ba19  1  0.11406018  0.61795325  0.39606806  1
  Ba  Ba20  1  0.92972877  0.34859747  0.92750379  1
  Ba  Ba21  1  0.07027123  0.65140253  0.07249621  1
  Ba  Ba22  1  0.42972877  0.65140253  0.57249621  1
  Ba  Ba23  1  0.57027123  0.34859747  0.42750379  1
  Nb  Nb24  1  0.56994860  0.40580422  0.66541996  1
  Nb  Nb25  1  0.43005140  0.59419578  0.33458004  1
  Nb  Nb26  1  0.06994860  0.59419578  0.83458004  1
  Nb  Nb27  1  0.93005140  0.40580422  0.16541996  1
  Nb  Nb28  1  0.61409501  0.38081907  0.85955758  1
  Nb  Nb29  1  0.38590499  0.61918093  0.14044242  1
  Nb  Nb30  1  0.11409501  0.61918093  0.64044242  1
  Nb  Nb31  1  0.88590499  0.38081907  0.35955758  1
  Nb  Nb32  1  0.53772829  0.85318921  0.85572281  1
  Nb  Nb33  1  0.46227171  0.14681079  0.14427719  1
  Nb  Nb34  1  0.03772829  0.14681079  0.64427719  1
  Nb  Nb35  1  0.96227171  0.85318921  0.35572281  1
  Nb  Nb36  1  0.54728881  0.90040858  0.66522188  1
  Nb  Nb37  1  0.45271119  0.09959142  0.33477812  1
  Nb  Nb38  1  0.04728881  0.09959142  0.83477812  1
  Nb  Nb39  1  0.95271119  0.90040858  0.16522188  1
  S  S40  1  0.60659817  0.50842962  0.96179652  1
  S  S41  1  0.39340183  0.49157038  0.03820348  1
  S  S42  1  0.10659817  0.49157038  0.53820348  1
  S  S43  1  0.89340183  0.50842962  0.46179652  1
  S  S44  1  0.94028477  0.67343280  0.92084673  1
  S  S45  1  0.05971523  0.32656720  0.07915327  1
  S  S46  1  0.44028477  0.32656720  0.57915327  1
  S  S47  1  0.55971523  0.67343280  0.42084673  1
  S  S48  1  0.64852851  0.49381814  0.58374076  1
  S  S49  1  0.35147149  0.50618186  0.41625924  1
  S  S50  1  0.14852851  0.50618186  0.91625924  1
  S  S51  1  0.85147149  0.49381814  0.08374076  1
  S  S52  1  0.49722408  0.76086779  0.73114429  1
  S  S53  1  0.50277592  0.23913221  0.26885571  1
  S  S54  1  0.99722408  0.23913221  0.76885571  1
  S  S55  1  0.00277592  0.76086779  0.23114429  1
  S  S56  1  0.42489721  0.92792145  0.95492046  1
  S  S57  1  0.57510279  0.07207855  0.04507954  1
  S  S58  1  0.92489721  0.07207855  0.54507954  1
  S  S59  1  0.07510279  0.92792145  0.45492046  1
  S  S60  1  0.92469617  0.49630019  0.78932951  1
  S  S61  1  0.07530383  0.50369981  0.21067049  1
  S  S62  1  0.42469617  0.50369981  0.71067049  1
  S  S63  1  0.57530383  0.49630019  0.28932951  1
  S  S64  1  0.42162772  0.74324738  0.40466790  1
  S  S65  1  0.57837228  0.25675262  0.59533210  1
  S  S66  1  0.92162772  0.25675262  0.09533210  1
  S  S67  1  0.07837228  0.74324738  0.90466790  1
  S  S68  1  0.98423288  0.70311838  0.72161926  1
  S  S69  1  0.01576712  0.29688162  0.27838074  1
  S  S70  1  0.48423288  0.29688162  0.77838074  1
  S  S71  1  0.51576712  0.70311838  0.22161926  1
  S  S72  1  0.42572621  0.88309455  0.57366136  1
  S  S73  1  0.57427379  0.11690545  0.42633864  1
  S  S74  1  0.92572621  0.11690545  0.92633864  1
  S  S75  1  0.07427379  0.88309455  0.07366136  1
  S  S76  1  0.60609495  0.74243263  0.91925348  1
  S  S77  1  0.39390505  0.25756737  0.08074652  1
  S  S78  1  0.10609495  0.25756737  0.58074652  1
  S  S79  1  0.89390505  0.74243263  0.41925348  1
  S  S80  1  0.73489147  0.50744795  0.89225514  1
  S  S81  1  0.26510853  0.49255205  0.10774486  1
  S  S82  1  0.23489147  0.49255205  0.60774486  1
  S  S83  1  0.76510853  0.50744795  0.39225514  1
  S  S84  1  0.71860967  0.35002444  0.73909312  1
  S  S85  1  0.28139033  0.64997556  0.26090688  1
  S  S86  1  0.21860967  0.64997556  0.76090688  1
  S  S87  1  0.78139033  0.35002444  0.23909312  1
  S  S88  1  0.65997956  0.97999968  0.88332867  1
  S  S89  1  0.34002044  0.02000032  0.11667133  1
  S  S90  1  0.15997956  0.02000032  0.61667133  1
  S  S91  1  0.84002044  0.97999968  0.38332867  1
  S  S92  1  0.46655337  0.93629585  0.29299548  1
  S  S93  1  0.53344663  0.06370415  0.70700452  1
  S  S94  1  0.96655337  0.06370415  0.20700452  1
  S  S95  1  0.03344663  0.93629585  0.79299548  1
  S  S96  1  0.34905904  0.83586018  0.88024391  1
  S  S97  1  0.65094096  0.16413982  0.11975609  1
  S  S98  1  0.84905904  0.16413982  0.61975609  1
  S  S99  1  0.15094096  0.83586018  0.38024391  1
  S  S100  1  0.69401732  0.89870385  0.78444554  1
  S  S101  1  0.30598268  0.10129615  0.21555446  1
  S  S102  1  0.19401732  0.10129615  0.71555446  1
  S  S103  1  0.80598268  0.89870385  0.28444554  1
  S  S104  1  0.68899935  0.80296595  0.61218086  1
  S  S105  1  0.31100065  0.19703405  0.38781914  1
  S  S106  1  0.18899935  0.19703405  0.88781914  1
  S  S107  1  0.81100065  0.80296595  0.11218086  1
  S  S108  1  0.92445352  0.63155286  0.62495609  1
  S  S109  1  0.07554648  0.36844714  0.37504391  1
  S  S110  1  0.42445352  0.36844714  0.87504391  1
  S  S111  1  0.57554648  0.63155286  0.12495609  1
  S  S112  1  0.44186219  0.98221329  0.76880031  1
  S  S113  1  0.55813781  0.01778671  0.23119969  1
  S  S114  1  0.94186219  0.01778671  0.73119969  1
  S  S115  1  0.05813781  0.98221329  0.26880031  1
  S  S116  1  0.70419194  0.93975333  0.59616233  1
  S  S117  1  0.29580806  0.06024667  0.40383767  1
  S  S118  1  0.20419194  0.06024667  0.90383767  1
  S  S119  1  0.79580806  0.93975333  0.09616233  1
  S  S120  1  0.68041635  0.27559024  0.93207218  1
  S  S121  1  0.31958365  0.72440976  0.06792782  1
  S  S122  1  0.18041635  0.72440976  0.56792782  1
  S  S123  1  0.81958365  0.27559024  0.43207218  1
  S  S124  1  0.55817639  0.52448026  0.77626571  1
  S  S125  1  0.44182361  0.47551974  0.22373429  1
  S  S126  1  0.05817639  0.47551974  0.72373429  1
  S  S127  1  0.94182361  0.52448026  0.27626571  1
