# generated using pymatgen
data_K2WSe4
_symmetry_space_group_name_H-M   'P 1'
_cell_length_a   7.28623800
_cell_length_b   10.01377600
_cell_length_c   12.88112000
_cell_angle_alpha   90.00000000
_cell_angle_beta   90.00000000
_cell_angle_gamma   90.00000000
_symmetry_Int_Tables_number   1
_chemical_formula_structural   K2WSe4
_chemical_formula_sum   'K8 W4 Se16'
_cell_volume   939.84200545
_cell_formula_units_Z   4
loop_
 _symmetry_equiv_pos_site_id
 _symmetry_equiv_pos_as_xyz
  1  'x, y, z'
loop_
 _atom_site_type_symbol
 _atom_site_label
 _atom_site_symmetry_multiplicity
 _atom_site_fract_x
 _atom_site_fract_y
 _atom_site_fract_z
 _atom_site_occupancy
  K  K0  1  0.75000000  0.04860200  0.15534100  1
  K  K1  1  0.25000000  0.95139800  0.84465900  1
  K  K2  1  0.75000000  0.54860200  0.34465900  1
  K  K3  1  0.25000000  0.45139800  0.65534100  1
  K  K4  1  0.75000000  0.34726600  0.88671300  1
  K  K5  1  0.25000000  0.65273400  0.11328700  1
  K  K6  1  0.75000000  0.84726600  0.61328700  1
  K  K7  1  0.25000000  0.15273400  0.38671300  1
  W  W8  1  0.75000000  0.75267500  0.93313000  1
  W  W9  1  0.25000000  0.74732500  0.43313000  1
  W  W10  1  0.75000000  0.25267500  0.56687000  1
  W  W11  1  0.25000000  0.24732500  0.06687000  1
  Se  Se12  1  0.25000000  0.27797700  0.88652400  1
  Se  Se13  1  0.25000000  0.77797700  0.61347600  1
  Se  Se14  1  0.75000000  0.22202300  0.38652400  1
  Se  Se15  1  0.75000000  0.48066100  0.61121600  1
  Se  Se16  1  0.75000000  0.98066100  0.88878400  1
  Se  Se17  1  0.25000000  0.01933900  0.11121600  1
  Se  Se18  1  0.49197400  0.14878600  0.63721400  1
  Se  Se19  1  0.25000000  0.51933900  0.38878400  1
  Se  Se20  1  0.00802600  0.64878600  0.86278600  1
  Se  Se21  1  0.50802600  0.35121400  0.13721400  1
  Se  Se22  1  0.00802600  0.14878600  0.63721400  1
  Se  Se23  1  0.99197400  0.85121400  0.36278600  1
  Se  Se24  1  0.99197400  0.35121400  0.13721400  1
  Se  Se25  1  0.49197400  0.64878600  0.86278600  1
  Se  Se26  1  0.50802600  0.85121400  0.36278600  1
  Se  Se27  1  0.75000000  0.72202300  0.11347600  1
