# generated using pymatgen
data_TlAg(PO3)2
_symmetry_space_group_name_H-M   'P 1'
_cell_length_a   6.28180312
_cell_length_b   7.62185103
_cell_length_c   13.54398400
_cell_angle_alpha   90.00000000
_cell_angle_beta   90.00000000
_cell_angle_gamma   95.21159759
_symmetry_Int_Tables_number   1
_chemical_formula_structural   TlAg(PO3)2
_chemical_formula_sum   'Tl4 Ag4 P8 O24'
_cell_volume   645.79120981
_cell_formula_units_Z   4
loop_
 _symmetry_equiv_pos_site_id
 _symmetry_equiv_pos_as_xyz
  1  'x, y, z'
loop_
 _atom_site_type_symbol
 _atom_site_label
 _atom_site_symmetry_multiplicity
 _atom_site_fract_x
 _atom_site_fract_y
 _atom_site_fract_z
 _atom_site_occupancy
  Tl  Tl0  1  0.29931800  0.73201600  0.66873400  1
  Tl  Tl1  1  0.70068200  0.26798400  0.33126600  1
  Tl  Tl2  1  0.70068200  0.76798400  0.16873400  1
  Tl  Tl3  1  0.29931800  0.23201600  0.83126600  1
  Ag  Ag4  1  0.81519300  0.69581600  0.47202000  1
  Ag  Ag5  1  0.18480700  0.30418400  0.52798000  1
  Ag  Ag6  1  0.18480700  0.80418400  0.97202000  1
  Ag  Ag7  1  0.81519300  0.19581600  0.02798000  1
  P  P8  1  0.68909800  0.84807300  0.86672800  1
  P  P9  1  0.31090200  0.15192700  0.13327200  1
  P  P10  1  0.31090200  0.65192700  0.36672800  1
  P  P11  1  0.68909800  0.34807300  0.63327200  1
  P  P12  1  0.84608800  0.99441800  0.67343600  1
  P  P13  1  0.15391200  0.00558200  0.32656400  1
  P  P14  1  0.15391200  0.50558200  0.17343600  1
  P  P15  1  0.84608800  0.49441800  0.82656400  1
  O  O16  1  0.93221000  0.93184100  0.35390000  1
  O  O17  1  0.06779000  0.06815900  0.64610000  1
  O  O18  1  0.06779000  0.56815900  0.85390000  1
  O  O19  1  0.93221000  0.43184100  0.14610000  1
  O  O20  1  0.46620500  0.90149100  0.84995500  1
  O  O21  1  0.53379500  0.09850900  0.15004500  1
  O  O22  1  0.53379500  0.59850900  0.34995500  1
  O  O23  1  0.46620500  0.40149100  0.65004500  1
  O  O24  1  0.73784000  0.83491500  0.62240900  1
  O  O25  1  0.26216000  0.16508500  0.37759100  1
  O  O26  1  0.26216000  0.66508500  0.12240900  1
  O  O27  1  0.73784000  0.33491500  0.87759100  1
  O  O28  1  0.85710300  0.95357900  0.79164100  1
  O  O29  1  0.14289700  0.04642100  0.20835900  1
  O  O30  1  0.14289700  0.54642100  0.29164100  1
  O  O31  1  0.85710300  0.45357900  0.70835900  1
  O  O32  1  0.79037200  0.86723600  0.96730600  1
  O  O33  1  0.20962800  0.13276400  0.03269400  1
  O  O34  1  0.20962800  0.63276400  0.46730600  1
  O  O35  1  0.79037200  0.36723600  0.53269400  1
  O  O36  1  0.67951200  0.64583500  0.82863100  1
  O  O37  1  0.32048800  0.35416500  0.17136900  1
  O  O38  1  0.32048800  0.85416500  0.32863100  1
  O  O39  1  0.67951200  0.14583500  0.67136900  1
