# generated using pymatgen
data_MnCoN2
_symmetry_space_group_name_H-M   'P 1'
_cell_length_a   5.20241831
_cell_length_b   5.20241831
_cell_length_c   5.20241756
_cell_angle_alpha   33.76228058
_cell_angle_beta   33.76228058
_cell_angle_gamma   33.76228432
_symmetry_Int_Tables_number   1
_chemical_formula_structural   MnCoN2
_chemical_formula_sum   'Mn1 Co1 N2'
_cell_volume   38.74913381
_cell_formula_units_Z   1
loop_
 _symmetry_equiv_pos_site_id
 _symmetry_equiv_pos_as_xyz
  1  'x, y, z'
loop_
 _atom_site_type_symbol
 _atom_site_label
 _atom_site_symmetry_multiplicity
 _atom_site_fract_x
 _atom_site_fract_y
 _atom_site_fract_z
 _atom_site_occupancy
  Mn  Mn0  1  0.81411100  0.81411100  0.81411100  1
  Co  Co1  1  0.30894400  0.30894400  0.30894400  1
  N  N2  1  0.93403800  0.93403800  0.93403800  1
  N  N3  1  0.43840300  0.43840300  0.43840300  1
