# generated using pymatgen
data_Nd2Ge3Pd
_symmetry_space_group_name_H-M   'P 1'
_cell_length_a   4.19507900
_cell_length_b   4.34809900
_cell_length_c   7.38142300
_cell_angle_alpha   90.00000000
_cell_angle_beta   90.00000000
_cell_angle_gamma   90.00000000
_symmetry_Int_Tables_number   1
_chemical_formula_structural   Nd2Ge3Pd
_chemical_formula_sum   'Nd2 Ge3 Pd1'
_cell_volume   134.64172318
_cell_formula_units_Z   1
loop_
 _symmetry_equiv_pos_site_id
 _symmetry_equiv_pos_as_xyz
  1  'x, y, z'
loop_
 _atom_site_type_symbol
 _atom_site_label
 _atom_site_symmetry_multiplicity
 _atom_site_fract_x
 _atom_site_fract_y
 _atom_site_fract_z
 _atom_site_occupancy
  Nd  Nd0  1  0.00000000  0.50000000  0.99693800  1
  Nd  Nd1  1  0.00000000  0.00000000  0.50123200  1
  Ge  Ge2  1  0.50000000  0.00000000  0.83549900  1
  Ge  Ge3  1  0.50000000  0.00000000  0.17323300  1
  Ge  Ge4  1  0.50000000  0.50000000  0.66223100  1
  Pd  Pd5  1  0.50000000  0.50000000  0.33086700  1
