# generated using pymatgen
data_Y3Pd
_symmetry_space_group_name_H-M   'P 1'
_cell_length_a   6.52796900
_cell_length_b   7.08852100
_cell_length_c   9.73090500
_cell_angle_alpha   90.00000000
_cell_angle_beta   90.00000000
_cell_angle_gamma   90.00000000
_symmetry_Int_Tables_number   1
_chemical_formula_structural   Y3Pd
_chemical_formula_sum   'Y12 Pd4'
_cell_volume   450.28444684
_cell_formula_units_Z   4
loop_
 _symmetry_equiv_pos_site_id
 _symmetry_equiv_pos_as_xyz
  1  'x, y, z'
loop_
 _atom_site_type_symbol
 _atom_site_label
 _atom_site_symmetry_multiplicity
 _atom_site_fract_x
 _atom_site_fract_y
 _atom_site_fract_z
 _atom_site_occupancy
  Y  Y0  1  0.63667600  0.02556900  0.25000000  1
  Y  Y1  1  0.36332400  0.97443100  0.75000000  1
  Y  Y2  1  0.13667600  0.47443100  0.75000000  1
  Y  Y3  1  0.86332400  0.52556900  0.25000000  1
  Y  Y4  1  0.17257800  0.18135100  0.05933900  1
  Y  Y5  1  0.82742200  0.81864900  0.94066100  1
  Y  Y6  1  0.67257800  0.31864900  0.94066100  1
  Y  Y7  1  0.82742200  0.81864900  0.55933900  1
  Y  Y8  1  0.32742200  0.68135100  0.05933900  1
  Y  Y9  1  0.17257800  0.18135100  0.44066100  1
  Y  Y10  1  0.32742200  0.68135100  0.44066100  1
  Y  Y11  1  0.67257800  0.31864900  0.55933900  1
  Pd  Pd12  1  0.43661500  0.38855400  0.25000000  1
  Pd  Pd13  1  0.56338500  0.61144600  0.75000000  1
  Pd  Pd14  1  0.93661500  0.11144600  0.75000000  1
  Pd  Pd15  1  0.06338500  0.88855400  0.25000000  1
