# generated using pymatgen
data_TmVO4
_symmetry_space_group_name_H-M   'P 1'
_cell_length_a   5.93993234
_cell_length_b   5.93993234
_cell_length_c   5.93993234
_cell_angle_alpha   106.34208590
_cell_angle_beta   106.34208590
_cell_angle_gamma   115.92897886
_symmetry_Int_Tables_number   1
_chemical_formula_structural   TmVO4
_chemical_formula_sum   'Tm2 V2 O8'
_cell_volume   159.77874446
_cell_formula_units_Z   2
loop_
 _symmetry_equiv_pos_site_id
 _symmetry_equiv_pos_as_xyz
  1  'x, y, z'
loop_
 _atom_site_type_symbol
 _atom_site_label
 _atom_site_symmetry_multiplicity
 _atom_site_fract_x
 _atom_site_fract_y
 _atom_site_fract_z
 _atom_site_occupancy
  Tm  Tm0  1  0.00000000  0.00000000  0.00000000  1
  Tm  Tm1  1  0.25000000  0.75000000  0.50000000  1
  V  V2  1  0.75000000  0.25000000  0.50000000  1
  V  V3  1  0.50000000  0.50000000  0.00000000  1
  O  O4  1  0.32218900  0.50889100  0.18670300  1
  O  O5  1  0.38548600  0.07218900  0.31329700  1
  O  O6  1  0.75889100  0.07218900  0.68670300  1
  O  O7  1  0.32218900  0.13548600  0.81329700  1
  O  O8  1  0.86451400  0.67781100  0.18670300  1
  O  O9  1  0.92781100  0.24110900  0.31329700  1
  O  O10  1  0.92781100  0.61451400  0.68670300  1
  O  O11  1  0.49110900  0.67781100  0.81329700  1
