# generated using pymatgen
data_PrTl(PSe3)2
_symmetry_space_group_name_H-M   'P 1'
_cell_length_a   7.83290400
_cell_length_b   12.04215500
_cell_length_c   12.53643400
_cell_angle_alpha   70.55859086
_cell_angle_beta   90.00000000
_cell_angle_gamma   90.00000000
_symmetry_Int_Tables_number   1
_chemical_formula_structural   PrTl(PSe3)2
_chemical_formula_sum   'Pr4 Tl4 P8 Se24'
_cell_volume   1115.07633666
_cell_formula_units_Z   4
loop_
 _symmetry_equiv_pos_site_id
 _symmetry_equiv_pos_as_xyz
  1  'x, y, z'
loop_
 _atom_site_type_symbol
 _atom_site_label
 _atom_site_symmetry_multiplicity
 _atom_site_fract_x
 _atom_site_fract_y
 _atom_site_fract_z
 _atom_site_occupancy
  Pr  Pr0  1  0.89701500  0.40511300  0.35007300  1
  Pr  Pr1  1  0.39701500  0.09488700  0.64992700  1
  Pr  Pr2  1  0.10298500  0.59488700  0.64992700  1
  Pr  Pr3  1  0.60298500  0.90511300  0.35007300  1
  Tl  Tl4  1  0.08775600  0.12515600  0.12670900  1
  Tl  Tl5  1  0.58775600  0.37484400  0.87329100  1
  Tl  Tl6  1  0.91224400  0.87484400  0.87329100  1
  Tl  Tl7  1  0.41224400  0.62515600  0.12670900  1
  P  P8  1  0.90349700  0.25491000  0.67798000  1
  P  P9  1  0.40349700  0.24509000  0.32202000  1
  P  P10  1  0.09650300  0.74509000  0.32202000  1
  P  P11  1  0.59650300  0.75491000  0.67798000  1
  P  P12  1  0.61889000  0.23109200  0.20830000  1
  P  P13  1  0.11889000  0.26890800  0.79170000  1
  P  P14  1  0.38111000  0.76890800  0.79170000  1
  P  P15  1  0.88111000  0.73109200  0.20830000  1
  Se  Se16  1  0.71536900  0.41288500  0.12828500  1
  Se  Se17  1  0.21536900  0.08711500  0.87171500  1
  Se  Se18  1  0.28463100  0.58711500  0.87171500  1
  Se  Se19  1  0.78463100  0.91288500  0.12828500  1
  Se  Se20  1  0.81440200  0.13104500  0.32845100  1
  Se  Se21  1  0.31440200  0.36895500  0.67154900  1
  Se  Se22  1  0.18559800  0.86895500  0.67154900  1
  Se  Se23  1  0.68559800  0.63104500  0.32845100  1
  Se  Se24  1  0.52649700  0.31418700  0.44781500  1
  Se  Se25  1  0.02649700  0.18581300  0.55218500  1
  Se  Se26  1  0.47350300  0.68581300  0.55218500  1
  Se  Se27  1  0.97350300  0.81418700  0.44781500  1
  Se  Se28  1  0.20988500  0.36064000  0.21148000  1
  Se  Se29  1  0.70988500  0.13936000  0.78852000  1
  Se  Se30  1  0.79011500  0.63936000  0.78852000  1
  Se  Se31  1  0.29011500  0.86064000  0.21148000  1
  Se  Se32  1  0.80731600  0.43661900  0.59128400  1
  Se  Se33  1  0.30731600  0.06338100  0.40871600  1
  Se  Se34  1  0.19268400  0.56338100  0.40871600  1
  Se  Se35  1  0.69268400  0.93661900  0.59128400  1
  Se  Se36  1  0.51802300  0.12842900  0.10757100  1
  Se  Se37  1  0.01802300  0.37157100  0.89242900  1
  Se  Se38  1  0.48197700  0.87157100  0.89242900  1
  Se  Se39  1  0.98197700  0.62842900  0.10757100  1
