# generated using pymatgen
data_Dy4MgCo
_symmetry_space_group_name_H-M   'P 1'
_cell_length_a   9.55227581
_cell_length_b   9.55227581
_cell_length_c   9.55227581
_cell_angle_alpha   60.00000000
_cell_angle_beta   60.00000000
_cell_angle_gamma   60.00000000
_symmetry_Int_Tables_number   1
_chemical_formula_structural   Dy4MgCo
_chemical_formula_sum   'Dy16 Mg4 Co4'
_cell_volume   616.31900929
_cell_formula_units_Z   4
loop_
 _symmetry_equiv_pos_site_id
 _symmetry_equiv_pos_as_xyz
  1  'x, y, z'
loop_
 _atom_site_type_symbol
 _atom_site_label
 _atom_site_symmetry_multiplicity
 _atom_site_fract_x
 _atom_site_fract_y
 _atom_site_fract_z
 _atom_site_occupancy
  Dy  Dy0  1  0.81406900  0.18593100  0.18593100  1
  Dy  Dy1  1  0.18593100  0.81406900  0.81406900  1
  Dy  Dy2  1  0.18593100  0.81406900  0.18593100  1
  Dy  Dy3  1  0.81406900  0.18593100  0.81406900  1
  Dy  Dy4  1  0.18593100  0.18593100  0.81406900  1
  Dy  Dy5  1  0.81406900  0.81406900  0.18593100  1
  Dy  Dy6  1  0.93647500  0.56352500  0.56352500  1
  Dy  Dy7  1  0.56352500  0.93647500  0.93647500  1
  Dy  Dy8  1  0.56352500  0.93647500  0.56352500  1
  Dy  Dy9  1  0.93647500  0.56352500  0.93647500  1
  Dy  Dy10  1  0.56352500  0.56352500  0.93647500  1
  Dy  Dy11  1  0.93647500  0.93647500  0.56352500  1
  Dy  Dy12  1  0.34462300  0.34462300  0.34462300  1
  Dy  Dy13  1  0.34462300  0.34462300  0.96613000  1
  Dy  Dy14  1  0.34462300  0.96613000  0.34462300  1
  Dy  Dy15  1  0.96613000  0.34462300  0.34462300  1
  Mg  Mg16  1  0.57875800  0.57875800  0.57875800  1
  Mg  Mg17  1  0.57875800  0.57875800  0.26372600  1
  Mg  Mg18  1  0.57875800  0.26372600  0.57875800  1
  Mg  Mg19  1  0.26372600  0.57875800  0.57875800  1
  Co  Co20  1  0.14084100  0.14084100  0.14084100  1
  Co  Co21  1  0.14084100  0.14084100  0.57747600  1
  Co  Co22  1  0.14084100  0.57747600  0.14084100  1
  Co  Co23  1  0.57747600  0.14084100  0.14084100  1
