# generated using pymatgen
data_BaS4O13
_symmetry_space_group_name_H-M   'P 1'
_cell_length_a   7.68541447
_cell_length_b   7.68541447
_cell_length_c   9.81984021
_cell_angle_alpha   84.68989561
_cell_angle_beta   84.68989561
_cell_angle_gamma   103.37561685
_symmetry_Int_Tables_number   1
_chemical_formula_structural   BaS4O13
_chemical_formula_sum   'Ba2 S8 O26'
_cell_volume   557.95858929
_cell_formula_units_Z   2
loop_
 _symmetry_equiv_pos_site_id
 _symmetry_equiv_pos_as_xyz
  1  'x, y, z'
loop_
 _atom_site_type_symbol
 _atom_site_label
 _atom_site_symmetry_multiplicity
 _atom_site_fract_x
 _atom_site_fract_y
 _atom_site_fract_z
 _atom_site_occupancy
  Ba  Ba0  1  0.80444800  0.19555200  0.25000000  1
  Ba  Ba1  1  0.19555200  0.80444800  0.75000000  1
  S  S2  1  0.23021900  0.57415500  0.38134200  1
  S  S3  1  0.42584500  0.76978100  0.11865800  1
  S  S4  1  0.76978100  0.42584500  0.61865800  1
  S  S5  1  0.57415500  0.23021900  0.88134200  1
  S  S6  1  0.28768900  0.19690200  0.42188800  1
  S  S7  1  0.80309800  0.71231100  0.07811200  1
  S  S8  1  0.71231100  0.80309800  0.57811200  1
  S  S9  1  0.19690200  0.28768900  0.92188800  1
  O  O10  1  0.06160800  0.50978000  0.32920600  1
  O  O11  1  0.49022000  0.93839200  0.17079400  1
  O  O12  1  0.93839200  0.49022000  0.67079400  1
  O  O13  1  0.50978000  0.06160800  0.82920600  1
  O  O14  1  0.25428200  0.73076000  0.45330100  1
  O  O15  1  0.26924000  0.74571800  0.04669900  1
  O  O16  1  0.74571800  0.26924000  0.54669900  1
  O  O17  1  0.73076000  0.25428200  0.95330100  1
  O  O18  1  0.38985300  0.61014700  0.25000000  1
  O  O19  1  0.61014700  0.38985300  0.75000000  1
  O  O20  1  0.29244200  0.42842400  0.46755200  1
  O  O21  1  0.57157600  0.70755800  0.03244800  1
  O  O22  1  0.70755800  0.57157600  0.53244800  1
  O  O23  1  0.42842400  0.29244200  0.96755200  1
  O  O24  1  0.44842600  0.23322800  0.32542300  1
  O  O25  1  0.76677200  0.55157400  0.17457700  1
  O  O26  1  0.55157400  0.76677200  0.67457700  1
  O  O27  1  0.23322800  0.44842600  0.82542300  1
  O  O28  1  0.29891800  0.11791300  0.55886600  1
  O  O29  1  0.88208700  0.70108200  0.94113400  1
  O  O30  1  0.70108200  0.88208700  0.44113400  1
  O  O31  1  0.11791300  0.29891800  0.05886600  1
  O  O32  1  0.11715800  0.14581900  0.36799100  1
  O  O33  1  0.85418100  0.88284200  0.13200900  1
  O  O34  1  0.88284200  0.85418100  0.63200900  1
  O  O35  1  0.14581900  0.11715800  0.86799100  1
