# generated using pymatgen
data_TmGa2
_symmetry_space_group_name_H-M   'P 1'
_cell_length_a   5.73869249
_cell_length_b   5.73869249
_cell_length_c   5.73869249
_cell_angle_alpha   136.56698621
_cell_angle_beta   106.45096939
_cell_angle_gamma   89.46293667
_symmetry_Int_Tables_number   1
_chemical_formula_structural   TmGa2
_chemical_formula_sum   'Tm2 Ga4'
_cell_volume   118.96358115
_cell_formula_units_Z   2
loop_
 _symmetry_equiv_pos_site_id
 _symmetry_equiv_pos_as_xyz
  1  'x, y, z'
loop_
 _atom_site_type_symbol
 _atom_site_label
 _atom_site_symmetry_multiplicity
 _atom_site_fract_x
 _atom_site_fract_y
 _atom_site_fract_z
 _atom_site_occupancy
  Tm  Tm0  1  0.19369800  0.44369800  0.75000000  1
  Tm  Tm1  1  0.80630200  0.55630200  0.25000000  1
  Ga  Ga2  1  0.38905400  0.83890800  0.55014600  1
  Ga  Ga3  1  0.61094600  0.16109200  0.44985400  1
  Ga  Ga4  1  0.21123800  0.16109200  0.05014600  1
  Ga  Ga5  1  0.78876200  0.83890800  0.94985400  1
