# generated using pymatgen
data_CeTiGe3
_symmetry_space_group_name_H-M   'P 1'
_cell_length_a   5.81545700
_cell_length_b   6.28806832
_cell_length_c   6.28806832
_cell_angle_alpha   120.00000338
_cell_angle_beta   90.00000000
_cell_angle_gamma   90.00000000
_symmetry_Int_Tables_number   1
_chemical_formula_structural   CeTiGe3
_chemical_formula_sum   'Ce2 Ti2 Ge6'
_cell_volume   199.13562860
_cell_formula_units_Z   2
loop_
 _symmetry_equiv_pos_site_id
 _symmetry_equiv_pos_as_xyz
  1  'x, y, z'
loop_
 _atom_site_type_symbol
 _atom_site_label
 _atom_site_symmetry_multiplicity
 _atom_site_fract_x
 _atom_site_fract_y
 _atom_site_fract_z
 _atom_site_occupancy
  Ce  Ce0  1  0.25000000  0.66666700  0.33333300  1
  Ce  Ce1  1  0.75000000  0.33333300  0.66666700  1
  Ti  Ti2  1  0.00000000  0.00000000  0.00000000  1
  Ti  Ti3  1  0.50000000  0.00000000  0.00000000  1
  Ge  Ge4  1  0.75000000  0.80225400  0.19774600  1
  Ge  Ge5  1  0.25000000  0.19774600  0.80225400  1
  Ge  Ge6  1  0.75000000  0.39549200  0.19774600  1
  Ge  Ge7  1  0.25000000  0.60450800  0.80225400  1
  Ge  Ge8  1  0.75000000  0.80225400  0.60450800  1
  Ge  Ge9  1  0.25000000  0.19774600  0.39549200  1
