# generated using pymatgen
data_Tm12Al7Si
_symmetry_space_group_name_H-M   'P 1'
_cell_length_a   11.06716324
_cell_length_b   11.06716324
_cell_length_c   11.06716324
_cell_angle_alpha   117.49690346
_cell_angle_beta   117.49690346
_cell_angle_gamma   94.39308258
_symmetry_Int_Tables_number   1
_chemical_formula_structural   Tm12Al7Si
_chemical_formula_sum   'Tm24 Al14 Si2'
_cell_volume   991.61487509
_cell_formula_units_Z   2
loop_
 _symmetry_equiv_pos_site_id
 _symmetry_equiv_pos_as_xyz
  1  'x, y, z'
loop_
 _atom_site_type_symbol
 _atom_site_label
 _atom_site_symmetry_multiplicity
 _atom_site_fract_x
 _atom_site_fract_y
 _atom_site_fract_z
 _atom_site_occupancy
  Tm  Tm0  1  0.14675200  0.64675200  0.50000000  1
  Tm  Tm1  1  0.85324800  0.35324800  0.50000000  1
  Tm  Tm2  1  0.64675200  0.14675200  0.50000000  1
  Tm  Tm3  1  0.35324800  0.85324800  0.50000000  1
  Tm  Tm4  1  0.83791700  0.70085300  0.26536000  1
  Tm  Tm5  1  0.16208300  0.29914700  0.73464000  1
  Tm  Tm6  1  0.43549300  0.57255700  0.73464000  1
  Tm  Tm7  1  0.70085300  0.43549300  0.86293700  1
  Tm  Tm8  1  0.06450700  0.79914700  0.13706300  1
  Tm  Tm9  1  0.56450700  0.42744300  0.26536000  1
  Tm  Tm10  1  0.29914700  0.56450700  0.13706300  1
  Tm  Tm11  1  0.93549300  0.20085300  0.86293700  1
  Tm  Tm12  1  0.57255700  0.83791700  0.13706300  1
  Tm  Tm13  1  0.66208300  0.92744300  0.86293700  1
  Tm  Tm14  1  0.42744300  0.16208300  0.86293700  1
  Tm  Tm15  1  0.33791700  0.07255700  0.13706300  1
  Tm  Tm16  1  0.92744300  0.06450700  0.26536000  1
  Tm  Tm17  1  0.07255700  0.93549300  0.73464000  1
  Tm  Tm18  1  0.79914700  0.66208300  0.73464000  1
  Tm  Tm19  1  0.20085300  0.33791700  0.26536000  1
  Tm  Tm20  1  0.17058900  0.67058900  0.84117800  1
  Tm  Tm21  1  0.82941100  0.32941100  0.15882200  1
  Tm  Tm22  1  0.67058900  0.82941100  0.50000000  1
  Tm  Tm23  1  0.32941100  0.17058900  0.50000000  1
  Al  Al24  1  0.61856900  0.11856900  0.73713800  1
  Al  Al25  1  0.38143100  0.88143100  0.26286200  1
  Al  Al26  1  0.11856900  0.38143100  0.50000000  1
  Al  Al27  1  0.88143100  0.61856900  0.50000000  1
  Al  Al28  1  0.50000000  0.50000000  0.00000000  1
  Al  Al29  1  0.00000000  0.00000000  0.00000000  1
  Al  Al30  1  0.38094900  0.88094900  0.85548600  1
  Al  Al31  1  0.61905100  0.11905100  0.14451400  1
  Al  Al32  1  0.02546200  0.52546200  0.14451400  1
  Al  Al33  1  0.88094900  0.02546200  0.50000000  1
  Al  Al34  1  0.47453800  0.61905100  0.50000000  1
  Al  Al35  1  0.97453800  0.47453800  0.85548600  1
  Al  Al36  1  0.11905100  0.97453800  0.50000000  1
  Al  Al37  1  0.52546200  0.38094900  0.50000000  1
  Si  Si38  1  0.75000000  0.75000000  0.00000000  1
  Si  Si39  1  0.25000000  0.25000000  0.00000000  1
