# generated using pymatgen
data_Ca43Al16Pb13
_symmetry_space_group_name_H-M   'P 1'
_cell_length_a   20.13131902
_cell_length_b   20.13131902
_cell_length_c   20.13131874
_cell_angle_alpha   33.55813129
_cell_angle_beta   33.55813129
_cell_angle_gamma   33.55812887
_symmetry_Int_Tables_number   1
_chemical_formula_structural   Ca43Al16Pb13
_chemical_formula_sum   'Ca43 Al16 Pb13'
_cell_volume   2220.59391655
_cell_formula_units_Z   1
loop_
 _symmetry_equiv_pos_site_id
 _symmetry_equiv_pos_as_xyz
  1  'x, y, z'
loop_
 _atom_site_type_symbol
 _atom_site_label
 _atom_site_symmetry_multiplicity
 _atom_site_fract_x
 _atom_site_fract_y
 _atom_site_fract_z
 _atom_site_occupancy
  Ca  Ca0  1  0.16543800  0.83456200  0.50000000  1
  Ca  Ca1  1  0.68238700  0.31761300  0.00000000  1
  Ca  Ca2  1  0.33177200  0.66747600  0.33177200  1
  Ca  Ca3  1  0.84202100  0.15857900  0.84202100  1
  Ca  Ca4  1  0.50000000  0.83456200  0.16543800  1
  Ca  Ca5  1  0.00000000  0.31761300  0.68238700  1
  Ca  Ca6  1  0.33177200  0.33177200  0.66747600  1
  Ca  Ca7  1  0.84202100  0.84202100  0.15857900  1
  Ca  Ca8  1  0.16543800  0.50000000  0.83456200  1
  Ca  Ca9  1  0.68238700  0.00000000  0.31761300  1
  Ca  Ca10  1  0.50000000  0.16543800  0.83456200  1
  Ca  Ca11  1  0.00000000  0.68238700  0.31761300  1
  Ca  Ca12  1  0.66822800  0.66822800  0.33252400  1
  Ca  Ca13  1  0.15797900  0.15797900  0.84142100  1
  Ca  Ca14  1  0.66822800  0.33252400  0.66822800  1
  Ca  Ca15  1  0.15797900  0.84142100  0.15797900  1
  Ca  Ca16  1  0.33252400  0.66822800  0.66822800  1
  Ca  Ca17  1  0.84142100  0.15797900  0.15797900  1
  Ca  Ca18  1  0.83456200  0.16543800  0.50000000  1
  Ca  Ca19  1  0.31761300  0.68238700  0.00000000  1
  Ca  Ca20  1  0.83456200  0.50000000  0.16543800  1
  Ca  Ca21  1  0.31761300  0.00000000  0.68238700  1
  Ca  Ca22  1  0.66747600  0.33177200  0.33177200  1
  Ca  Ca23  1  0.15857900  0.84202100  0.84202100  1
  Ca  Ca24  1  0.05553400  0.57560000  0.05553400  1
  Ca  Ca25  1  0.55567400  0.07217700  0.55567400  1
  Ca  Ca26  1  0.05553400  0.05553400  0.57560000  1
  Ca  Ca27  1  0.55567400  0.55567400  0.07217700  1
  Ca  Ca28  1  0.81491000  0.81491000  0.81491000  1
  Ca  Ca29  1  0.31458400  0.31458400  0.31458400  1
  Ca  Ca30  1  0.57560000  0.05553400  0.05553400  1
  Ca  Ca31  1  0.07217700  0.55567400  0.55567400  1
  Ca  Ca32  1  0.94446600  0.42440000  0.94446600  1
  Ca  Ca33  1  0.44432600  0.92782300  0.44432600  1
  Ca  Ca34  1  0.94446600  0.94446600  0.42440000  1
  Ca  Ca35  1  0.44432600  0.44432600  0.92782300  1
  Ca  Ca36  1  0.18509000  0.18509000  0.18509000  1
  Ca  Ca37  1  0.68541600  0.68541600  0.68541600  1
  Ca  Ca38  1  0.42440000  0.94446600  0.94446600  1
  Ca  Ca39  1  0.92782300  0.44432600  0.44432600  1
  Ca  Ca40  1  0.25081600  0.25081600  0.25081600  1
  Ca  Ca41  1  0.74918400  0.74918400  0.74918400  1
  Ca  Ca42  1  0.50000000  0.50000000  0.50000000  1
  Al  Al43  1  0.78781100  0.01990900  0.78781100  1
  Al  Al44  1  0.28741300  0.52100500  0.28741300  1
  Al  Al45  1  0.78781100  0.78781100  0.01990900  1
  Al  Al46  1  0.28741300  0.28741300  0.52100500  1
  Al  Al47  1  0.90429900  0.90429900  0.90429900  1
  Al  Al48  1  0.40390000  0.40390000  0.40390000  1
  Al  Al49  1  0.01990900  0.78781100  0.78781100  1
  Al  Al50  1  0.52100500  0.28741300  0.28741300  1
  Al  Al51  1  0.21218900  0.98009100  0.21218900  1
  Al  Al52  1  0.71258700  0.47899500  0.71258700  1
  Al  Al53  1  0.21218900  0.21218900  0.98009100  1
  Al  Al54  1  0.71258700  0.71258700  0.47899500  1
  Al  Al55  1  0.09570100  0.09570100  0.09570100  1
  Al  Al56  1  0.59610000  0.59610000  0.59610000  1
  Al  Al57  1  0.98009100  0.21218900  0.21218900  1
  Al  Al58  1  0.47899500  0.71258700  0.71258700  1
  Pb  Pb59  1  0.35936100  0.35936100  0.92117600  1
  Pb  Pb60  1  0.85627100  0.85627100  0.43314800  1
  Pb  Pb61  1  0.64063900  0.07882400  0.64063900  1
  Pb  Pb62  1  0.14372900  0.56685200  0.14372900  1
  Pb  Pb63  1  0.92117600  0.35936100  0.35936100  1
  Pb  Pb64  1  0.43314800  0.85627100  0.85627100  1
  Pb  Pb65  1  0.64063900  0.64063900  0.07882400  1
  Pb  Pb66  1  0.14372900  0.14372900  0.56685200  1
  Pb  Pb67  1  0.35936100  0.92117600  0.35936100  1
  Pb  Pb68  1  0.85627100  0.43314800  0.85627100  1
  Pb  Pb69  1  0.07882400  0.64063900  0.64063900  1
  Pb  Pb70  1  0.56685200  0.14372900  0.14372900  1
  Pb  Pb71  1  0.00000000  0.00000000  0.00000000  1
