# generated using pymatgen
data_Yb4Ta25O68
_symmetry_space_group_name_H-M   'P 1'
_cell_length_a   6.28814446
_cell_length_b   6.28814579
_cell_length_c   72.46744153
_cell_angle_alpha   90.00000000
_cell_angle_beta   90.00000000
_cell_angle_gamma   120.00000142
_symmetry_Int_Tables_number   1
_chemical_formula_structural   Yb4Ta25O68
_chemical_formula_sum   'Yb8 Ta50 O136'
_cell_volume   2481.52506867
_cell_formula_units_Z   2
loop_
 _symmetry_equiv_pos_site_id
 _symmetry_equiv_pos_as_xyz
  1  'x, y, z'
loop_
 _atom_site_type_symbol
 _atom_site_label
 _atom_site_symmetry_multiplicity
 _atom_site_fract_x
 _atom_site_fract_y
 _atom_site_fract_z
 _atom_site_occupancy
  Yb  Yb0  1  0.66667475  0.33332280  0.04285303  1
  Yb  Yb1  1  0.66667475  0.33332280  0.45714697  1
  Yb  Yb2  1  0.33335195  0.66667720  0.54285303  1
  Yb  Yb3  1  0.33335195  0.66667720  0.95714697  1
  Yb  Yb4  1  0.66667067  0.33333349  0.18115264  1
  Yb  Yb5  1  0.66667067  0.33333349  0.31884736  1
  Yb  Yb6  1  0.33333718  0.66666651  0.68115264  1
  Yb  Yb7  1  0.33333718  0.66666651  0.81884736  1
  Ta  Ta8  1  0.35761349  1.00000000  0.00000000  1
  Ta  Ta9  1  0.64239204  0.64238633  0.00000053  1
  Ta  Ta10  1  0.00000571  0.35761367  0.99999947  1
  Ta  Ta11  1  0.35761349  1.00000000  0.50000000  1
  Ta  Ta12  1  0.64239204  0.64238633  0.49999947  1
  Ta  Ta13  1  0.00000571  0.35761367  0.50000053  1
  Ta  Ta14  1  0.33333464  0.66666670  0.04261658  1
  Ta  Ta15  1  0.33333464  0.66666670  0.45738342  1
  Ta  Ta16  1  0.66666793  0.33333330  0.54261658  1
  Ta  Ta17  1  0.66666793  0.33333330  0.95738342  1
  Ta  Ta18  1  0.35941612  0.35882083  0.08535574  1
  Ta  Ta19  1  0.99940524  0.64058956  0.08535599  1
  Ta  Ta20  1  0.64118186  0.00059851  0.08535602  1
  Ta  Ta21  1  0.35941612  0.35882083  0.41464426  1
  Ta  Ta22  1  0.99940524  0.64058956  0.41464401  1
  Ta  Ta23  1  0.64118186  0.00059851  0.41464398  1
  Ta  Ta24  1  0.00059529  0.64117917  0.58535574  1
  Ta  Ta25  1  0.35881568  0.35941044  0.58535599  1
  Ta  Ta26  1  0.64058335  0.99940149  0.58535602  1
  Ta  Ta27  1  0.00059529  0.64117917  0.91464426  1
  Ta  Ta28  1  0.35881568  0.35941044  0.91464401  1
  Ta  Ta29  1  0.64058335  0.99940149  0.91464398  1
  Ta  Ta30  1  0.35936149  0.35819045  0.13855127  1
  Ta  Ta31  1  0.99882500  0.64064093  0.13855048  1
  Ta  Ta32  1  0.64180912  0.00117333  0.13855093  1
  Ta  Ta33  1  0.35936149  0.35819045  0.36144873  1
  Ta  Ta34  1  0.99882500  0.64064093  0.36144952  1
  Ta  Ta35  1  0.64180912  0.00117333  0.36144907  1
  Ta  Ta36  1  0.00117104  0.64180955  0.63855127  1
  Ta  Ta37  1  0.35818408  0.35935907  0.63855048  1
  Ta  Ta38  1  0.64063579  0.99882667  0.63855093  1
  Ta  Ta39  1  0.00117104  0.64180955  0.86144873  1
  Ta  Ta40  1  0.35818408  0.35935907  0.86144952  1
  Ta  Ta41  1  0.64063579  0.99882667  0.86144907  1
  Ta  Ta42  1  0.33332673  0.66666751  0.18094919  1
  Ta  Ta43  1  0.33332673  0.66666751  0.31905081  1
  Ta  Ta44  1  0.66665922  0.33333249  0.68094919  1
  Ta  Ta45  1  0.66665922  0.33333249  0.81905081  1
  Ta  Ta46  1  0.35872965  0.00061831  0.22348071  1
  Ta  Ta47  1  0.64189182  0.64127303  0.22347907  1
  Ta  Ta48  1  0.99938201  0.35810890  0.22348049  1
  Ta  Ta49  1  0.35872965  0.00061831  0.27651929  1
  Ta  Ta50  1  0.64189182  0.64127303  0.27652093  1
  Ta  Ta51  1  0.99938201  0.35810890  0.27651951  1
  Ta  Ta52  1  0.35811134  0.99938169  0.72348071  1
  Ta  Ta53  1  0.00061879  0.35872697  0.72347907  1
  Ta  Ta54  1  0.64127311  0.64189110  0.72348049  1
  Ta  Ta55  1  0.35811134  0.99938169  0.77651929  1
  Ta  Ta56  1  0.00061879  0.35872697  0.77652093  1
  Ta  Ta57  1  0.64127311  0.64189110  0.77651951  1
  O  O58  1  0.24389711  0.24389009  0.00000006  1
  O  O59  1  0.00000702  0.75610991  0.99999994  1
  O  O60  1  0.75613610  1.00000000  0.00000000  1
  O  O61  1  0.24389711  0.24389009  0.49999994  1
  O  O62  1  0.00000702  0.75610991  0.50000006  1
  O  O63  1  0.75613610  1.00000000  0.50000000  1
  O  O64  1  0.66667460  0.33333152  0.00558595  1
  O  O65  1  0.66667460  0.33333152  0.49441405  1
  O  O66  1  0.33334308  0.66666848  0.50558595  1
  O  O67  1  0.33334308  0.66666848  0.99441405  1
  O  O68  1  0.05139227  0.43580403  0.02663343  1
  O  O69  1  0.38440940  0.94860766  0.02663354  1
  O  O70  1  0.56419944  0.61558727  0.02663350  1
  O  O71  1  0.05139227  0.43580403  0.47336657  1
  O  O72  1  0.38440940  0.94860766  0.47336646  1
  O  O73  1  0.56419944  0.61558727  0.47336650  1
  O  O74  1  0.61558824  0.56419597  0.52663343  1
  O  O75  1  0.43580174  0.05139234  0.52663354  1
  O  O76  1  0.94861217  0.38441273  0.52663350  1
  O  O77  1  0.61558824  0.56419597  0.97336657  1
  O  O78  1  0.43580174  0.05139234  0.97336646  1
  O  O79  1  0.94861217  0.38441273  0.97336650  1
  O  O80  1  0.38011612  0.43324941  0.05856455  1
  O  O81  1  0.05313475  0.61988668  0.05856461  1
  O  O82  1  0.56674911  0.94686130  0.05856463  1
  O  O83  1  0.38011612  0.43324941  0.44143545  1
  O  O84  1  0.05313475  0.61988668  0.44143539  1
  O  O85  1  0.56674911  0.94686130  0.44143537  1
  O  O86  1  0.94686671  0.56675059  0.55856455  1
  O  O87  1  0.43324806  0.38011332  0.55856461  1
  O  O88  1  0.61988781  0.05313870  0.55856463  1
  O  O89  1  0.94686671  0.56675059  0.94143545  1
  O  O90  1  0.43324806  0.38011332  0.94143539  1
  O  O91  1  0.61988781  0.05313870  0.94143537  1
  O  O92  1  0.66666766  0.33333295  0.07948373  1
  O  O93  1  0.66666766  0.33333295  0.42051627  1
  O  O94  1  0.33333472  0.66666705  0.57948373  1
  O  O95  1  0.33333472  0.66666705  0.92051627  1
  O  O96  1  0.99924584  0.24513928  0.08511165  1
  O  O97  1  0.24589943  0.00075289  0.08511167  1
  O  O98  1  0.75485038  0.75409775  0.08511163  1
  O  O99  1  0.99924584  0.24513928  0.41488835  1
  O  O100  1  0.24589943  0.00075289  0.41488833  1
  O  O101  1  0.75485038  0.75409775  0.41488837  1
  O  O102  1  0.75410656  0.75486072  0.58511165  1
  O  O103  1  0.24514654  0.99924711  0.58511167  1
  O  O104  1  0.00075263  0.24590225  0.58511163  1
  O  O105  1  0.75410656  0.75486072  0.91488835  1
  O  O106  1  0.24514654  0.99924711  0.91488833  1
  O  O107  1  0.00075263  0.24590225  0.91488837  1
  O  O108  1  0.33333227  0.66666602  0.08973531  1
  O  O109  1  0.33333227  0.66666602  0.41026469  1
  O  O110  1  0.66666625  0.33333398  0.58973531  1
  O  O111  1  0.66666625  0.33333398  0.91026469  1
  O  O112  1  0.41679693  0.37766568  0.11195874  1
  O  O113  1  0.96085717  0.58320077  0.11195854  1
  O  O114  1  0.62233910  0.03913691  0.11195920  1
  O  O115  1  0.41679693  0.37766568  0.38804126  1
  O  O116  1  0.96085717  0.58320077  0.38804146  1
  O  O117  1  0.62233910  0.03913691  0.38804080  1
  O  O118  1  0.03913126  0.62233432  0.61195874  1
  O  O119  1  0.37765640  0.41679923  0.61195854  1
  O  O120  1  0.58320219  0.96086309  0.61195920  1
  O  O121  1  0.03913126  0.62233432  0.88804126  1
  O  O122  1  0.37765640  0.41679923  0.88804146  1
  O  O123  1  0.58320219  0.96086309  0.88804080  1
  O  O124  1  0.33333134  0.66666436  0.13468427  1
  O  O125  1  0.33333134  0.66666436  0.36531573  1
  O  O126  1  0.66666698  0.33333564  0.63468427  1
  O  O127  1  0.66666698  0.33333564  0.86531573  1
  O  O128  1  0.24573778  0.00074322  0.13871302  1
  O  O129  1  0.75500531  0.75426328  0.13871324  1
  O  O130  1  0.99925532  0.24498667  0.13871320  1
  O  O131  1  0.24573778  0.00074322  0.36128698  1
  O  O132  1  0.75500531  0.75426328  0.36128676  1
  O  O133  1  0.99925532  0.24498667  0.36128680  1
  O  O134  1  0.24499456  0.99925678  0.63871302  1
  O  O135  1  0.00074203  0.24573672  0.63871324  1
  O  O136  1  0.75426865  0.75501333  0.63871320  1
  O  O137  1  0.24499456  0.99925678  0.86128698  1
  O  O138  1  0.00074203  0.24573672  0.86128676  1
  O  O139  1  0.75426865  0.75501333  0.86128680  1
  O  O140  1  0.66666565  0.33333274  0.14445907  1
  O  O141  1  0.66666565  0.33333274  0.35554093  1
  O  O142  1  0.33333291  0.66666726  0.64445907  1
  O  O143  1  0.33333291  0.66666726  0.85554093  1
  O  O144  1  0.37819784  0.42962486  0.16535920  1
  O  O145  1  0.05142431  0.62180517  0.16535932  1
  O  O146  1  0.57037976  0.94858096  0.16535947  1
  O  O147  1  0.37819784  0.42962486  0.33464080  1
  O  O148  1  0.05142431  0.62180517  0.33464068  1
  O  O149  1  0.57037976  0.94858096  0.33464053  1
  O  O150  1  0.94857299  0.57037514  0.66535920  1
  O  O151  1  0.42961915  0.37819483  0.66535932  1
  O  O152  1  0.62179880  0.05141904  0.66535947  1
  O  O153  1  0.94857299  0.57037514  0.83464080  1
  O  O154  1  0.42961915  0.37819483  0.83464068  1
  O  O155  1  0.62179880  0.05141904  0.83464053  1
  O  O156  1  0.05254735  0.43144924  0.19675650  1
  O  O157  1  0.37889050  0.94744068  0.19675654  1
  O  O158  1  0.56856404  0.62109801  0.19675504  1
  O  O159  1  0.05254735  0.43144924  0.30324350  1
  O  O160  1  0.37889050  0.94744068  0.30324346  1
  O  O161  1  0.56856404  0.62109801  0.30324496  1
  O  O162  1  0.62109811  0.56855076  0.69675650  1
  O  O163  1  0.43144982  0.05255932  0.69675654  1
  O  O164  1  0.94746603  0.37890199  0.69675504  1
  O  O165  1  0.62109811  0.56855076  0.80324350  1
  O  O166  1  0.43144982  0.05255932  0.80324346  1
  O  O167  1  0.94746603  0.37890199  0.80324496  1
  O  O168  1  0.66667053  0.33333491  0.21776433  1
  O  O169  1  0.66667053  0.33333491  0.28223567  1
  O  O170  1  0.33333562  0.66666509  0.71776433  1
  O  O171  1  0.33333562  0.66666509  0.78223567  1
  O  O172  1  0.24526847  0.24440319  0.22330916  1
  O  O173  1  0.99913940  0.75473879  0.22331070  1
  O  O174  1  0.75560312  0.00086649  0.22330888  1
  O  O175  1  0.24526847  0.24440319  0.27669084  1
  O  O176  1  0.99913940  0.75473879  0.27668930  1
  O  O177  1  0.75560312  0.00086649  0.27669112  1
  O  O178  1  0.00086528  0.75559681  0.72330916  1
  O  O179  1  0.24440061  0.24526121  0.72331070  1
  O  O180  1  0.75473664  0.99913351  0.72330888  1
  O  O181  1  0.00086528  0.75559681  0.77669084  1
  O  O182  1  0.24440061  0.24526121  0.77668930  1
  O  O183  1  0.75473664  0.99913351  0.77669112  1
  O  O184  1  0.33334124  0.66666893  0.22764497  1
  O  O185  1  0.33334124  0.66666893  0.27235503  1
  O  O186  1  0.66667232  0.33333107  0.72764497  1
  O  O187  1  0.66667232  0.33333107  0.77235503  1
  O  O188  1  0.41751557  0.03782282  0.25000000  1
  O  O189  1  0.62030170  0.58251128  0.25000000  1
  O  O190  1  0.96218342  0.37970042  0.25000000  1
  O  O191  1  0.37969275  0.96217718  0.75000000  1
  O  O192  1  0.03779042  0.41748872  0.75000000  1
  O  O193  1  0.58248300  0.62029958  0.75000000  1
