# generated using pymatgen
data_TiTl2F6
_symmetry_space_group_name_H-M   'P 1'
_cell_length_a   6.03942347
_cell_length_b   6.03942347
_cell_length_c   4.95172400
_cell_angle_alpha   90.00000000
_cell_angle_beta   90.00000000
_cell_angle_gamma   119.99999423
_symmetry_Int_Tables_number   1
_chemical_formula_structural   TiTl2F6
_chemical_formula_sum   'Ti1 Tl2 F6'
_cell_volume   156.41487505
_cell_formula_units_Z   1
loop_
 _symmetry_equiv_pos_site_id
 _symmetry_equiv_pos_as_xyz
  1  'x, y, z'
loop_
 _atom_site_type_symbol
 _atom_site_label
 _atom_site_symmetry_multiplicity
 _atom_site_fract_x
 _atom_site_fract_y
 _atom_site_fract_z
 _atom_site_occupancy
  Ti  Ti0  1  0.00000000  0.00000000  0.00000000  1
  Tl  Tl1  1  0.66666700  0.33333300  0.31091900  1
  Tl  Tl2  1  0.33333300  0.66666700  0.68908100  1
  F  F3  1  0.84980000  0.15020000  0.78447500  1
  F  F4  1  0.84980000  0.69960100  0.78447500  1
  F  F5  1  0.30039900  0.15020000  0.78447500  1
  F  F6  1  0.15020000  0.84980000  0.21552500  1
  F  F7  1  0.15020000  0.30039900  0.21552500  1
  F  F8  1  0.69960100  0.84980000  0.21552500  1
