# generated using pymatgen
data_Li2Pr5Sn7
_symmetry_space_group_name_H-M   'P 1'
_cell_length_a   6.29966700
_cell_length_b   13.96365000
_cell_length_c   17.60430700
_cell_angle_alpha   90.00000000
_cell_angle_beta   90.00000000
_cell_angle_gamma   90.00000000
_symmetry_Int_Tables_number   1
_chemical_formula_structural   Li2Pr5Sn7
_chemical_formula_sum   'Li8 Pr20 Sn28'
_cell_volume   1548.58654489
_cell_formula_units_Z   4
loop_
 _symmetry_equiv_pos_site_id
 _symmetry_equiv_pos_as_xyz
  1  'x, y, z'
loop_
 _atom_site_type_symbol
 _atom_site_label
 _atom_site_symmetry_multiplicity
 _atom_site_fract_x
 _atom_site_fract_y
 _atom_site_fract_z
 _atom_site_occupancy
  Li  Li0  1  0.41661700  0.23163000  0.01990800  1
  Li  Li1  1  0.08338300  0.76837000  0.51990800  1
  Li  Li2  1  0.58338300  0.73163000  0.48009200  1
  Li  Li3  1  0.91661700  0.26837000  0.98009200  1
  Li  Li4  1  0.12216300  0.76832700  0.22957700  1
  Li  Li5  1  0.37783700  0.23167300  0.72957700  1
  Li  Li6  1  0.87783700  0.26832700  0.27042300  1
  Li  Li7  1  0.62216300  0.73167300  0.77042300  1
  Pr  Pr8  1  0.36079500  0.18105000  0.54205600  1
  Pr  Pr9  1  0.13920500  0.81895000  0.04205600  1
  Pr  Pr10  1  0.63920500  0.68105000  0.95794400  1
  Pr  Pr11  1  0.86079500  0.31895000  0.45794400  1
  Pr  Pr12  1  0.63605400  0.00226100  0.01709300  1
  Pr  Pr13  1  0.86394600  0.99773900  0.51709300  1
  Pr  Pr14  1  0.36394600  0.50226100  0.48290700  1
  Pr  Pr15  1  0.13605400  0.49773900  0.98290700  1
  Pr  Pr16  1  0.14165800  0.49649700  0.26303500  1
  Pr  Pr17  1  0.35834200  0.50350300  0.76303500  1
  Pr  Pr18  1  0.85834200  0.99649700  0.23696500  1
  Pr  Pr19  1  0.64165800  0.00350300  0.73696500  1
  Pr  Pr20  1  0.64792200  0.42513000  0.12264700  1
  Pr  Pr21  1  0.85207800  0.57487000  0.62264700  1
  Pr  Pr22  1  0.35207800  0.92513000  0.37735300  1
  Pr  Pr23  1  0.14792200  0.07487000  0.87735300  1
  Pr  Pr24  1  0.36292900  0.17676100  0.21609000  1
  Pr  Pr25  1  0.13707100  0.82323900  0.71609000  1
  Pr  Pr26  1  0.63707100  0.67676100  0.28391000  1
  Pr  Pr27  1  0.86292900  0.32323900  0.78391000  1
  Sn  Sn28  1  0.13668400  0.06188300  0.06638100  1
  Sn  Sn29  1  0.36331600  0.93811700  0.56638100  1
  Sn  Sn30  1  0.86331600  0.56188300  0.43361900  1
  Sn  Sn31  1  0.63668400  0.43811700  0.93361900  1
  Sn  Sn32  1  0.09722900  0.12165200  0.37880900  1
  Sn  Sn33  1  0.40277100  0.87834800  0.87880900  1
  Sn  Sn34  1  0.90277100  0.62165200  0.12119100  1
  Sn  Sn35  1  0.59722900  0.37834800  0.62119100  1
  Sn  Sn36  1  0.15010300  0.05621700  0.68804900  1
  Sn  Sn37  1  0.34989700  0.94378300  0.18804900  1
  Sn  Sn38  1  0.84989700  0.55621700  0.81195100  1
  Sn  Sn39  1  0.65010300  0.44378300  0.31195100  1
  Sn  Sn40  1  0.19580500  0.68973800  0.37264400  1
  Sn  Sn41  1  0.30419500  0.31026200  0.87264400  1
  Sn  Sn42  1  0.80419500  0.18973800  0.12735600  1
  Sn  Sn43  1  0.69580500  0.81026200  0.62735600  1
  Sn  Sn44  1  0.13313700  0.34722100  0.12112100  1
  Sn  Sn45  1  0.36686300  0.65277900  0.62112100  1
  Sn  Sn46  1  0.86686300  0.84722100  0.37887900  1
  Sn  Sn47  1  0.63313700  0.15277900  0.87887900  1
  Sn  Sn48  1  0.32959500  0.31159900  0.37718800  1
  Sn  Sn49  1  0.17040500  0.68840100  0.87718800  1
  Sn  Sn50  1  0.67040500  0.81159900  0.12281200  1
  Sn  Sn51  1  0.82959500  0.18840100  0.62281200  1
  Sn  Sn52  1  0.61336500  0.12714900  0.37904000  1
  Sn  Sn53  1  0.88663500  0.87285100  0.87904000  1
  Sn  Sn54  1  0.38663500  0.62714900  0.12096000  1
  Sn  Sn55  1  0.11336500  0.37285100  0.62096000  1
