# generated using pymatgen
data_Sr3OsN3
_symmetry_space_group_name_H-M   'P 1'
_cell_length_a   7.82224758
_cell_length_b   7.82224758
_cell_length_c   5.34422500
_cell_angle_alpha   90.00000000
_cell_angle_beta   90.00000000
_cell_angle_gamma   119.99999646
_symmetry_Int_Tables_number   1
_chemical_formula_structural   Sr3OsN3
_chemical_formula_sum   'Sr6 Os2 N6'
_cell_volume   283.19038040
_cell_formula_units_Z   2
loop_
 _symmetry_equiv_pos_site_id
 _symmetry_equiv_pos_as_xyz
  1  'x, y, z'
loop_
 _atom_site_type_symbol
 _atom_site_label
 _atom_site_symmetry_multiplicity
 _atom_site_fract_x
 _atom_site_fract_y
 _atom_site_fract_z
 _atom_site_occupancy
  Sr  Sr0  1  0.35936700  0.26031200  0.75000000  1
  Sr  Sr1  1  0.90094500  0.64063300  0.75000000  1
  Sr  Sr2  1  0.73968800  0.09905500  0.75000000  1
  Sr  Sr3  1  0.64063300  0.73968800  0.25000000  1
  Sr  Sr4  1  0.09905500  0.35936700  0.25000000  1
  Sr  Sr5  1  0.26031200  0.90094500  0.25000000  1
  Os  Os6  1  0.66666700  0.33333300  0.25000000  1
  Os  Os7  1  0.33333300  0.66666700  0.75000000  1
  N  N8  1  0.41463900  0.30439000  0.25000000  1
  N  N9  1  0.88975200  0.58536100  0.25000000  1
  N  N10  1  0.69561000  0.11024800  0.25000000  1
  N  N11  1  0.58536100  0.69561000  0.75000000  1
  N  N12  1  0.11024800  0.41463900  0.75000000  1
  N  N13  1  0.30439000  0.88975200  0.75000000  1
