# generated using pymatgen
data_Li2Mn3CoO8
_symmetry_space_group_name_H-M   'P 1'
_cell_length_a   6.00550714
_cell_length_b   6.00539346
_cell_length_c   9.92633429
_cell_angle_alpha   106.42704790
_cell_angle_beta   90.09629419
_cell_angle_gamma   121.98940004
_symmetry_Int_Tables_number   1
_chemical_formula_structural   Li2Mn3CoO8
_chemical_formula_sum   'Li4 Mn6 Co2 O16'
_cell_volume   286.14572496
_cell_formula_units_Z   2
loop_
 _symmetry_equiv_pos_site_id
 _symmetry_equiv_pos_as_xyz
  1  'x, y, z'
loop_
 _atom_site_type_symbol
 _atom_site_label
 _atom_site_symmetry_multiplicity
 _atom_site_fract_x
 _atom_site_fract_y
 _atom_site_fract_z
 _atom_site_occupancy
  Li  Li0  1  0.06685200  0.11526900  0.18210800  1
  Li  Li1  1  0.56703900  0.11535100  0.68233500  1
  Li  Li2  1  0.43314500  0.88475100  0.31790100  1
  Li  Li3  1  0.93299400  0.88463900  0.81769300  1
  Mn  Mn4  1  0.49999100  0.50012400  0.00018700  1
  Mn  Mn5  1  0.50007400  0.00023500  0.00013100  1
  Mn  Mn6  1  0.99987300  0.50005600  0.00012800  1
  Mn  Mn7  1  0.99998700  0.49991400  0.49982600  1
  Mn  Mn8  1  0.99989100  0.99970600  0.49984800  1
  Mn  Mn9  1  0.50016400  0.49995500  0.49984500  1
  Co  Co10  1  0.25000300  0.49999000  0.75000100  1
  Co  Co11  1  0.74999900  0.49999700  0.24999900  1
  O  O12  1  0.14540100  0.24183400  0.38720100  1
  O  O13  1  0.64536500  0.24202500  0.88739800  1
  O  O14  1  0.35457600  0.75817300  0.11279100  1
  O  O15  1  0.85462700  0.75797400  0.61260700  1
  O  O16  1  0.91166300  0.25487600  0.61443200  1
  O  O17  1  0.41161800  0.25498600  0.11456900  1
  O  O18  1  0.35371500  0.26865200  0.62236400  1
  O  O19  1  0.85374600  0.26872300  0.12246600  1
  O  O20  1  0.35962200  0.70281300  0.61443900  1
  O  O21  1  0.85955300  0.70295200  0.11456700  1
  O  O22  1  0.14040300  0.29721000  0.88557400  1
  O  O23  1  0.64044200  0.29703800  0.38543100  1
  O  O24  1  0.14628400  0.73133500  0.87762700  1
  O  O25  1  0.64624200  0.73127800  0.37752700  1
  O  O26  1  0.58832800  0.74511000  0.88557800  1
  O  O27  1  0.08840200  0.74503400  0.38542700  1
