# generated using pymatgen
data_Sn15Ru3O14
_symmetry_space_group_name_H-M   'P 1'
_cell_length_a   7.20978700
_cell_length_b   7.26278018
_cell_length_c   13.15106352
_cell_angle_alpha   74.00660889
_cell_angle_beta   74.09076793
_cell_angle_gamma   60.24108009
_symmetry_Int_Tables_number   1
_chemical_formula_structural   Sn15Ru3O14
_chemical_formula_sum   'Sn15 Ru3 O14'
_cell_volume   566.83790237
_cell_formula_units_Z   1
loop_
 _symmetry_equiv_pos_site_id
 _symmetry_equiv_pos_as_xyz
  1  'x, y, z'
loop_
 _atom_site_type_symbol
 _atom_site_label
 _atom_site_symmetry_multiplicity
 _atom_site_fract_x
 _atom_site_fract_y
 _atom_site_fract_z
 _atom_site_occupancy
  Sn  Sn0  1  0.90167600  0.01904600  0.17760200  1
  Sn  Sn1  1  0.48766200  0.60481700  0.41986000  1
  Sn  Sn2  1  0.48933900  0.08150000  0.42584100  1
  Sn  Sn3  1  0.00332100  0.08150000  0.42584100  1
  Sn  Sn4  1  0.09531100  0.14960200  0.65977600  1
  Sn  Sn5  1  0.44290900  0.98896400  0.12521900  1
  Sn  Sn6  1  0.15154600  0.77772000  0.91918700  1
  Sn  Sn7  1  0.42948500  0.49972600  0.16165900  1
  Sn  Sn8  1  0.90913000  0.49972600  0.16165900  1
  Sn  Sn9  1  0.68022600  0.75166000  0.88788800  1
  Sn  Sn10  1  0.67271100  0.27019400  0.91170600  1
  Sn  Sn11  1  0.14538900  0.27019400  0.91170600  1
  Sn  Sn12  1  0.57786800  0.67394800  0.65324400  1
  Sn  Sn13  1  0.09494000  0.67394800  0.65324400  1
  Sn  Sn14  1  0.01534600  0.58866000  0.38064800  1
  Ru  Ru15  1  0.69787200  0.29877700  0.30547800  1
  Ru  Ru16  1  0.88436100  0.46242400  0.76885500  1
  Ru  Ru17  1  0.28899800  0.38752800  0.03447600  1
  O  O18  1  0.12315800  0.71512500  0.46570900  1
  O  O19  1  0.69600800  0.71512500  0.46570900  1
  O  O20  1  0.95891000  0.07355500  0.00862600  1
  O  O21  1  0.12201700  0.28130400  0.47466100  1
  O  O22  1  0.62481200  0.69296500  0.05741000  1
  O  O23  1  0.42353500  0.56468200  0.58824900  1
  O  O24  1  0.34311200  0.94305700  0.37071800  1
  O  O25  1  0.42502800  0.00393400  0.59333400  1
  O  O26  1  0.97770300  0.00393400  0.59333400  1
  O  O27  1  0.35425200  0.94474200  0.88323500  1
  O  O28  1  0.81777100  0.94474200  0.88323500  1
  O  O29  1  0.74426100  0.83725800  0.18222400  1
  O  O30  1  0.23625600  0.83725800  0.18222400  1
  O  O31  1  0.22545600  0.80087300  0.74821400  1
