# generated using pymatgen
data_Ho2Si4Mo3
_symmetry_space_group_name_H-M   'P 1'
_cell_length_a   6.93224900
_cell_length_b   6.74959200
_cell_length_c   6.87071470
_cell_angle_alpha   71.02795507
_cell_angle_beta   90.00000000
_cell_angle_gamma   90.00000000
_symmetry_Int_Tables_number   1
_chemical_formula_structural   Ho2Si4Mo3
_chemical_formula_sum   'Ho4 Si8 Mo6'
_cell_volume   304.01608333
_cell_formula_units_Z   2
loop_
 _symmetry_equiv_pos_site_id
 _symmetry_equiv_pos_as_xyz
  1  'x, y, z'
loop_
 _atom_site_type_symbol
 _atom_site_label
 _atom_site_symmetry_multiplicity
 _atom_site_fract_x
 _atom_site_fract_y
 _atom_site_fract_z
 _atom_site_occupancy
  Ho  Ho0  1  0.66937100  0.43888500  0.19078300  1
  Ho  Ho1  1  0.16937100  0.06111500  0.80921700  1
  Ho  Ho2  1  0.33062900  0.56111500  0.80921700  1
  Ho  Ho3  1  0.83062900  0.93888500  0.19078300  1
  Si  Si4  1  0.45603700  0.13197000  0.09026000  1
  Si  Si5  1  0.95603700  0.36803000  0.90974000  1
  Si  Si6  1  0.54396300  0.86803000  0.90974000  1
  Si  Si7  1  0.04396300  0.63197000  0.09026000  1
  Si  Si8  1  0.86826300  0.12878500  0.50432400  1
  Si  Si9  1  0.36826300  0.37121500  0.49567600  1
  Si  Si10  1  0.13173700  0.87121500  0.49567600  1
  Si  Si11  1  0.63173700  0.62878500  0.50432400  1
  Mo  Mo12  1  0.50000000  0.00000000  0.50000000  1
  Mo  Mo13  1  0.00000000  0.50000000  0.50000000  1
  Mo  Mo14  1  0.16271200  0.25055500  0.24854500  1
  Mo  Mo15  1  0.66271200  0.24944500  0.75145500  1
  Mo  Mo16  1  0.83728800  0.74944500  0.75145500  1
  Mo  Mo17  1  0.33728800  0.75055500  0.24854500  1
