# generated using pymatgen
data_Rb2CN2
_symmetry_space_group_name_H-M   'P 1'
_cell_length_a   4.32598466
_cell_length_b   4.32598466
_cell_length_c   6.10457222
_cell_angle_alpha   76.34068970
_cell_angle_beta   76.34068970
_cell_angle_gamma   89.34095874
_symmetry_Int_Tables_number   1
_chemical_formula_structural   Rb2CN2
_chemical_formula_sum   'Rb2 C1 N2'
_cell_volume   107.75244549
_cell_formula_units_Z   1
loop_
 _symmetry_equiv_pos_site_id
 _symmetry_equiv_pos_as_xyz
  1  'x, y, z'
loop_
 _atom_site_type_symbol
 _atom_site_label
 _atom_site_symmetry_multiplicity
 _atom_site_fract_x
 _atom_site_fract_y
 _atom_site_fract_z
 _atom_site_occupancy
  Rb  Rb0  1  0.17780300  0.17780300  0.71104000  1
  Rb  Rb1  1  0.82219700  0.82219700  0.28896000  1
  C  C2  1  0.50000000  0.50000000  0.00000000  1
  N  N3  1  0.65038600  0.65038600  0.80361600  1
  N  N4  1  0.34961400  0.34961400  0.19638400  1
