# generated using pymatgen
data_RbNd(MoO4)2
_symmetry_space_group_name_H-M   'P 1'
_cell_length_a   5.26549300
_cell_length_b   8.43524600
_cell_length_c   18.99362100
_cell_angle_alpha   90.00000000
_cell_angle_beta   90.00000000
_cell_angle_gamma   90.00000000
_symmetry_Int_Tables_number   1
_chemical_formula_structural   RbNd(MoO4)2
_chemical_formula_sum   'Rb4 Nd4 Mo8 O32'
_cell_volume   843.61551863
_cell_formula_units_Z   4
loop_
 _symmetry_equiv_pos_site_id
 _symmetry_equiv_pos_as_xyz
  1  'x, y, z'
loop_
 _atom_site_type_symbol
 _atom_site_label
 _atom_site_symmetry_multiplicity
 _atom_site_fract_x
 _atom_site_fract_y
 _atom_site_fract_z
 _atom_site_occupancy
  Rb  Rb0  1  0.50000000  0.25000000  0.73129000  1
  Rb  Rb1  1  0.00000000  0.75000000  0.76871000  1
  Rb  Rb2  1  0.50000000  0.75000000  0.26871000  1
  Rb  Rb3  1  0.00000000  0.25000000  0.23129000  1
  Nd  Nd4  1  0.00000000  0.25000000  0.99275900  1
  Nd  Nd5  1  0.50000000  0.75000000  0.50724100  1
  Nd  Nd6  1  0.00000000  0.75000000  0.00724100  1
  Nd  Nd7  1  0.50000000  0.25000000  0.49275900  1
  Mo  Mo8  1  0.52385400  0.98113400  0.89897600  1
  Mo  Mo9  1  0.97614600  0.48113400  0.60102400  1
  Mo  Mo10  1  0.02385400  0.01886600  0.60102400  1
  Mo  Mo11  1  0.47614600  0.51886600  0.89897600  1
  Mo  Mo12  1  0.47614600  0.01886600  0.10102400  1
  Mo  Mo13  1  0.02385400  0.51886600  0.39897600  1
  Mo  Mo14  1  0.97614600  0.98113400  0.39897600  1
  Mo  Mo15  1  0.52385400  0.48113400  0.10102400  1
  O  O16  1  0.72761700  0.15197000  0.89998500  1
  O  O17  1  0.77238300  0.65197000  0.60001500  1
  O  O18  1  0.22761700  0.84803000  0.60001500  1
  O  O19  1  0.27238300  0.34803000  0.89998500  1
  O  O20  1  0.27238300  0.84803000  0.10001500  1
  O  O21  1  0.22761700  0.34803000  0.39998500  1
  O  O22  1  0.77238300  0.15197000  0.39998500  1
  O  O23  1  0.72761700  0.65197000  0.10001500  1
  O  O24  1  0.73645900  0.81226300  0.90870900  1
  O  O25  1  0.76354100  0.31226300  0.59129100  1
  O  O26  1  0.23645900  0.18773700  0.59129100  1
  O  O27  1  0.26354100  0.68773700  0.90870900  1
  O  O28  1  0.26354100  0.18773700  0.09129100  1
  O  O29  1  0.23645900  0.68773700  0.40870900  1
  O  O30  1  0.76354100  0.81226300  0.40870900  1
  O  O31  1  0.73645900  0.31226300  0.09129100  1
  O  O32  1  0.25677600  0.00433100  0.96262600  1
  O  O33  1  0.24322400  0.50433100  0.53737400  1
  O  O34  1  0.75677600  0.99566900  0.53737400  1
  O  O35  1  0.74322400  0.49566900  0.96262600  1
  O  O36  1  0.74322400  0.99566900  0.03737400  1
  O  O37  1  0.75677600  0.49566900  0.46262600  1
  O  O38  1  0.24322400  0.00433100  0.46262600  1
  O  O39  1  0.25677600  0.50433100  0.03737400  1
  O  O40  1  0.40194400  0.97343700  0.81299300  1
  O  O41  1  0.09805600  0.47343700  0.68700700  1
  O  O42  1  0.90194400  0.02656300  0.68700700  1
  O  O43  1  0.59805600  0.52656300  0.81299300  1
  O  O44  1  0.59805600  0.02656300  0.18700700  1
  O  O45  1  0.90194400  0.52656300  0.31299300  1
  O  O46  1  0.09805600  0.97343700  0.31299300  1
  O  O47  1  0.40194400  0.47343700  0.18700700  1
