# generated using pymatgen
data_Lu6InCo2
_symmetry_space_group_name_H-M   'P 1'
_cell_length_a   8.23600898
_cell_length_b   8.23600898
_cell_length_c   8.23600898
_cell_angle_alpha   111.57893279
_cell_angle_beta   110.46332535
_cell_angle_gamma   106.41601523
_symmetry_Int_Tables_number   1
_chemical_formula_structural   Lu6InCo2
_chemical_formula_sum   'Lu12 In2 Co4'
_cell_volume   429.10551489
_cell_formula_units_Z   2
loop_
 _symmetry_equiv_pos_site_id
 _symmetry_equiv_pos_as_xyz
  1  'x, y, z'
loop_
 _atom_site_type_symbol
 _atom_site_label
 _atom_site_symmetry_multiplicity
 _atom_site_fract_x
 _atom_site_fract_y
 _atom_site_fract_z
 _atom_site_occupancy
  Lu  Lu0  1  0.44574400  0.23559900  0.21014500  1
  Lu  Lu1  1  0.55425600  0.76440100  0.78985500  1
  Lu  Lu2  1  0.02545400  0.23559900  0.78985500  1
  Lu  Lu3  1  0.97454600  0.76440100  0.21014500  1
  Lu  Lu4  1  0.18603900  0.28671500  0.47275400  1
  Lu  Lu5  1  0.81396100  0.71328500  0.52724600  1
  Lu  Lu6  1  0.18603900  0.71328500  0.89932500  1
  Lu  Lu7  1  0.81396100  0.28671500  0.10067500  1
  Lu  Lu8  1  0.31749600  0.62222800  0.30473100  1
  Lu  Lu9  1  0.68250400  0.37777200  0.69526900  1
  Lu  Lu10  1  0.31749600  0.01276500  0.69526900  1
  Lu  Lu11  1  0.68250400  0.98723500  0.30473100  1
  In  In12  1  0.50000000  0.50000000  0.00000000  1
  In  In13  1  0.00000000  0.00000000  0.00000000  1
  Co  Co14  1  0.37113700  0.00000000  0.37113700  1
  Co  Co15  1  0.62886300  0.00000000  0.62886300  1
  Co  Co16  1  0.11446400  0.61446400  0.50000000  1
  Co  Co17  1  0.88553600  0.38553600  0.50000000  1
