# generated using pymatgen
data_Tb2CdCu2
_symmetry_space_group_name_H-M   'P 1'
_cell_length_a   7.65650300
_cell_length_b   7.65650300
_cell_length_c   3.65066300
_cell_angle_alpha   90.00000000
_cell_angle_beta   90.00000000
_cell_angle_gamma   90.00000000
_symmetry_Int_Tables_number   1
_chemical_formula_structural   Tb2CdCu2
_chemical_formula_sum   'Tb4 Cd2 Cu4'
_cell_volume   214.00930580
_cell_formula_units_Z   2
loop_
 _symmetry_equiv_pos_site_id
 _symmetry_equiv_pos_as_xyz
  1  'x, y, z'
loop_
 _atom_site_type_symbol
 _atom_site_label
 _atom_site_symmetry_multiplicity
 _atom_site_fract_x
 _atom_site_fract_y
 _atom_site_fract_z
 _atom_site_occupancy
  Tb  Tb0  1  0.67690500  0.17690500  0.50000000  1
  Tb  Tb1  1  0.32309500  0.82309500  0.50000000  1
  Tb  Tb2  1  0.17690500  0.32309500  0.50000000  1
  Tb  Tb3  1  0.82309500  0.67690500  0.50000000  1
  Cd  Cd4  1  0.00000000  0.00000000  0.00000000  1
  Cd  Cd5  1  0.50000000  0.50000000  0.00000000  1
  Cu  Cu6  1  0.11682900  0.61682900  0.00000000  1
  Cu  Cu7  1  0.88317100  0.38317100  0.00000000  1
  Cu  Cu8  1  0.61682900  0.88317100  0.00000000  1
  Cu  Cu9  1  0.38317100  0.11682900  0.00000000  1
