# generated using pymatgen
data_Sm2Si5Rh3
_symmetry_space_group_name_H-M   'P 1'
_cell_length_a   8.21539270
_cell_length_b   8.21539270
_cell_length_c   8.21539270
_cell_angle_alpha   138.47249389
_cell_angle_beta   105.48567961
_cell_angle_gamma   89.10414118
_symmetry_Int_Tables_number   1
_chemical_formula_structural   Sm2Si5Rh3
_chemical_formula_sum   'Sm4 Si10 Rh6'
_cell_volume   339.21243221
_cell_formula_units_Z   2
loop_
 _symmetry_equiv_pos_site_id
 _symmetry_equiv_pos_as_xyz
  1  'x, y, z'
loop_
 _atom_site_type_symbol
 _atom_site_label
 _atom_site_symmetry_multiplicity
 _atom_site_fract_x
 _atom_site_fract_y
 _atom_site_fract_z
 _atom_site_occupancy
  Sm  Sm0  1  0.63605200  0.86898300  0.76706900  1
  Sm  Sm1  1  0.36394800  0.13101700  0.23293100  1
  Sm  Sm2  1  0.10191400  0.36898300  0.73293100  1
  Sm  Sm3  1  0.89808600  0.63101700  0.26706900  1
  Si  Si4  1  0.27567100  0.02567100  0.75000000  1
  Si  Si5  1  0.72432900  0.97432900  0.25000000  1
  Si  Si6  1  0.72432900  0.47432900  0.75000000  1
  Si  Si7  1  0.27567100  0.52567100  0.25000000  1
  Si  Si8  1  0.45280600  0.60701600  0.84579000  1
  Si  Si9  1  0.54719400  0.39298400  0.15421000  1
  Si  Si10  1  0.76122500  0.10701600  0.65421000  1
  Si  Si11  1  0.23877500  0.89298400  0.34579000  1
  Si  Si12  1  0.00000000  0.75000000  0.75000000  1
  Si  Si13  1  0.00000000  0.25000000  0.25000000  1
  Rh  Rh14  1  0.24814300  0.63870100  0.60944100  1
  Rh  Rh15  1  0.75185700  0.36129900  0.39055900  1
  Rh  Rh16  1  0.02926000  0.13870100  0.89055900  1
  Rh  Rh17  1  0.97074000  0.86129900  0.10944100  1
  Rh  Rh18  1  0.50000000  0.75000000  0.25000000  1
  Rh  Rh19  1  0.50000000  0.25000000  0.75000000  1
