# generated using pymatgen
data_Nd3Os
_symmetry_space_group_name_H-M   'P 1'
_cell_length_a   6.53942300
_cell_length_b   7.50942800
_cell_length_c   9.60915800
_cell_angle_alpha   90.00000000
_cell_angle_beta   90.00000000
_cell_angle_gamma   90.00000000
_symmetry_Int_Tables_number   1
_chemical_formula_structural   Nd3Os
_chemical_formula_sum   'Nd12 Os4'
_cell_volume   471.88005622
_cell_formula_units_Z   4
loop_
 _symmetry_equiv_pos_site_id
 _symmetry_equiv_pos_as_xyz
  1  'x, y, z'
loop_
 _atom_site_type_symbol
 _atom_site_label
 _atom_site_symmetry_multiplicity
 _atom_site_fract_x
 _atom_site_fract_y
 _atom_site_fract_z
 _atom_site_occupancy
  Nd  Nd0  1  0.32854700  0.67435400  0.06633100  1
  Nd  Nd1  1  0.17145300  0.17435400  0.43366900  1
  Nd  Nd2  1  0.67145300  0.32564600  0.56633100  1
  Nd  Nd3  1  0.82854700  0.82564600  0.93366900  1
  Nd  Nd4  1  0.67145300  0.32564600  0.93366900  1
  Nd  Nd5  1  0.82854700  0.82564600  0.56633100  1
  Nd  Nd6  1  0.32854700  0.67435400  0.43366900  1
  Nd  Nd7  1  0.17145300  0.17435400  0.06633100  1
  Nd  Nd8  1  0.86070400  0.54102300  0.25000000  1
  Nd  Nd9  1  0.63929600  0.04102300  0.25000000  1
  Nd  Nd10  1  0.13929600  0.45897700  0.75000000  1
  Nd  Nd11  1  0.36070400  0.95897700  0.75000000  1
  Os  Os12  1  0.04875600  0.88536300  0.25000000  1
  Os  Os13  1  0.45124400  0.38536300  0.25000000  1
  Os  Os14  1  0.95124400  0.11463700  0.75000000  1
  Os  Os15  1  0.54875600  0.61463700  0.75000000  1
