# generated using pymatgen
data_Na3Sr3GaP4
_symmetry_space_group_name_H-M   'P 1'
_cell_length_a   9.43028716
_cell_length_b   9.43028716
_cell_length_c   7.40744600
_cell_angle_alpha   90.00000000
_cell_angle_beta   90.00000000
_cell_angle_gamma   119.99999409
_symmetry_Int_Tables_number   1
_chemical_formula_structural   Na3Sr3GaP4
_chemical_formula_sum   'Na6 Sr6 Ga2 P8'
_cell_volume   570.49124853
_cell_formula_units_Z   2
loop_
 _symmetry_equiv_pos_site_id
 _symmetry_equiv_pos_as_xyz
  1  'x, y, z'
loop_
 _atom_site_type_symbol
 _atom_site_label
 _atom_site_symmetry_multiplicity
 _atom_site_fract_x
 _atom_site_fract_y
 _atom_site_fract_z
 _atom_site_occupancy
  Na  Na0  1  0.13478700  0.86521300  0.16982900  1
  Na  Na1  1  0.26957300  0.13478700  0.66982900  1
  Na  Na2  1  0.86521300  0.73042700  0.66982900  1
  Na  Na3  1  0.13478700  0.26957300  0.16982900  1
  Na  Na4  1  0.73042700  0.86521300  0.16982900  1
  Na  Na5  1  0.86521300  0.13478700  0.66982900  1
  Sr  Sr6  1  0.95401800  0.47700900  0.99943700  1
  Sr  Sr7  1  0.52299100  0.04598200  0.99943700  1
  Sr  Sr8  1  0.47700900  0.95401800  0.49943700  1
  Sr  Sr9  1  0.04598200  0.52299100  0.49943700  1
  Sr  Sr10  1  0.52299100  0.47700900  0.99943700  1
  Sr  Sr11  1  0.47700900  0.52299100  0.49943700  1
  Ga  Ga12  1  0.66666700  0.33333300  0.37527600  1
  Ga  Ga13  1  0.33333300  0.66666700  0.87527600  1
  P  P14  1  0.33333300  0.66666700  0.21486900  1
  P  P15  1  0.80936500  0.19063500  0.28001900  1
  P  P16  1  0.61873000  0.80936500  0.78001900  1
  P  P17  1  0.19063500  0.38127000  0.78001900  1
  P  P18  1  0.80936500  0.61873000  0.28001900  1
  P  P19  1  0.66666700  0.33333300  0.71486900  1
  P  P20  1  0.38127000  0.19063500  0.28001900  1
  P  P21  1  0.19063500  0.80936500  0.78001900  1
