# generated using pymatgen
data_HoSiOs2C
_symmetry_space_group_name_H-M   'P 1'
_cell_length_a   5.88922422
_cell_length_b   5.88922422
_cell_length_c   7.13320400
_cell_angle_alpha   90.00000000
_cell_angle_beta   90.00000000
_cell_angle_gamma   141.86373619
_symmetry_Int_Tables_number   1
_chemical_formula_structural   HoSiOs2C
_chemical_formula_sum   'Ho2 Si2 Os4 C2'
_cell_volume   152.77826434
_cell_formula_units_Z   2
loop_
 _symmetry_equiv_pos_site_id
 _symmetry_equiv_pos_as_xyz
  1  'x, y, z'
loop_
 _atom_site_type_symbol
 _atom_site_label
 _atom_site_symmetry_multiplicity
 _atom_site_fract_x
 _atom_site_fract_y
 _atom_site_fract_z
 _atom_site_occupancy
  Ho  Ho0  1  0.54674200  0.45325800  0.25000000  1
  Ho  Ho1  1  0.45325800  0.54674200  0.75000000  1
  Si  Si2  1  0.26875700  0.73124300  0.25000000  1
  Si  Si3  1  0.73124300  0.26875700  0.75000000  1
  Os  Os4  1  0.83520400  0.16479600  0.05779800  1
  Os  Os5  1  0.16479600  0.83520400  0.94220200  1
  Os  Os6  1  0.16479600  0.83520400  0.55779800  1
  Os  Os7  1  0.83520400  0.16479600  0.44220200  1
  C  C8  1  0.00000000  0.00000000  0.00000000  1
  C  C9  1  0.00000000  0.00000000  0.50000000  1
