# generated using pymatgen
data_Ni3TeO6
_symmetry_space_group_name_H-M   'P 1'
_cell_length_a   5.16619901
_cell_length_b   5.52276498
_cell_length_c   8.94866001
_cell_angle_alpha   105.67090833
_cell_angle_beta   89.99537857
_cell_angle_gamma   117.89200731
_symmetry_Int_Tables_number   1
_chemical_formula_structural   Ni3TeO6
_chemical_formula_sum   'Ni6 Te2 O12'
_cell_volume   214.86660516
_cell_formula_units_Z   2
loop_
 _symmetry_equiv_pos_site_id
 _symmetry_equiv_pos_as_xyz
  1  'x, y, z'
loop_
 _atom_site_type_symbol
 _atom_site_label
 _atom_site_symmetry_multiplicity
 _atom_site_fract_x
 _atom_site_fract_y
 _atom_site_fract_z
 _atom_site_occupancy
  Ni  Ni0  1  0.26124300  0.52270500  0.75374600  1
  Ni  Ni1  1  0.76141300  0.52265600  0.25387500  1
  Ni  Ni2  1  0.82665000  0.65334700  0.60890300  1
  Ni  Ni3  1  0.32648600  0.65295600  0.10882300  1
  Ni  Ni4  1  0.02088800  0.04186600  0.00710400  1
  Ni  Ni5  1  0.52117600  0.04209800  0.50694100  1
  Te  Te6  1  0.06238700  0.12461200  0.35412700  1
  Te  Te7  1  0.56236000  0.12460000  0.85409000  1
  O  O8  1  0.71936800  0.85000900  0.80695600  1
  O  O9  1  0.21905600  0.84986400  0.30696500  1
  O  O10  1  0.27572700  0.84984900  0.66182300  1
  O  O11  1  0.77583200  0.84989000  0.16197200  1
  O  O12  1  0.27983800  0.84987100  0.95602400  1
  O  O13  1  0.77970300  0.84993900  0.45615500  1
  O  O14  1  0.34164800  0.33420200  0.90450800  1
  O  O15  1  0.84158700  0.33408000  0.40454000  1
  O  O16  1  0.35306900  0.33410100  0.54397100  1
  O  O17  1  0.85322300  0.33419300  0.04397400  1
  O  O18  1  0.80640800  0.33417800  0.71848800  1
  O  O19  1  0.30661900  0.33434400  0.21857400  1
