# generated using pymatgen
data_CsAlH24(SO10)2
_symmetry_space_group_name_H-M   'P 1'
_cell_length_a   12.48055746
_cell_length_b   12.48055746
_cell_length_c   12.48055746
_cell_angle_alpha   90.00000000
_cell_angle_beta   90.00000000
_cell_angle_gamma   90.00000000
_symmetry_Int_Tables_number   1
_chemical_formula_structural   CsAlH24(SO10)2
_chemical_formula_sum   'Cs4 Al4 H96 S8 O80'
_cell_volume   1944.02547749
_cell_formula_units_Z   4
loop_
 _symmetry_equiv_pos_site_id
 _symmetry_equiv_pos_as_xyz
  1  'x, y, z'
loop_
 _atom_site_type_symbol
 _atom_site_label
 _atom_site_symmetry_multiplicity
 _atom_site_fract_x
 _atom_site_fract_y
 _atom_site_fract_z
 _atom_site_occupancy
  Cs  Cs0  1  -0.00000000  -0.00000000  0.50000000  1
  Cs  Cs1  1  -0.00000000  0.50000000  0.00000000  1
  Cs  Cs2  1  0.50000000  -0.00000000  0.00000000  1
  Cs  Cs3  1  0.50000000  0.50000000  0.50000000  1
  Al  Al4  1  0.50000000  0.50000000  0.00000000  1
  Al  Al5  1  0.50000000  -0.00000000  0.50000000  1
  Al  Al6  1  -0.00000000  0.50000000  0.50000000  1
  Al  Al7  1  -0.00000000  -0.00000000  0.00000000  1
  H  H8  1  0.22245551  0.50451772  0.23398028  1
  H  H9  1  0.77754449  0.00451772  0.26601972  1
  H  H10  1  0.27754449  0.49548228  0.73398028  1
  H  H11  1  0.72245551  0.99548228  0.76601972  1
  H  H12  1  0.23398028  0.22245551  0.50451772  1
  H  H13  1  0.26601972  0.77754449  0.00451772  1
  H  H14  1  0.73398028  0.27754449  0.49548228  1
  H  H15  1  0.76601972  0.72245551  0.99548228  1
  H  H16  1  0.50451772  0.23398028  0.22245551  1
  H  H17  1  0.00451772  0.26601972  0.77754449  1
  H  H18  1  0.49548228  0.73398028  0.27754449  1
  H  H19  1  0.99548228  0.76601972  0.72245551  1
  H  H20  1  0.77754449  0.49548228  0.76601972  1
  H  H21  1  0.22245551  0.99548228  0.73398028  1
  H  H22  1  0.72245551  0.50451772  0.26601972  1
  H  H23  1  0.27754449  0.00451772  0.23398028  1
  H  H24  1  0.76601972  0.77754449  0.49548228  1
  H  H25  1  0.73398028  0.22245551  0.99548228  1
  H  H26  1  0.26601972  0.72245551  0.50451772  1
  H  H27  1  0.23398028  0.27754449  0.00451772  1
  H  H28  1  0.49548228  0.76601972  0.77754449  1
  H  H29  1  0.99548228  0.73398028  0.22245551  1
  H  H30  1  0.50451772  0.26601972  0.72245551  1
  H  H31  1  0.00451772  0.23398028  0.27754449  1
  H  H32  1  0.17850243  0.62161273  0.22531712  1
  H  H33  1  0.82149757  0.12161273  0.27468288  1
  H  H34  1  0.32149757  0.37838727  0.72531712  1
  H  H35  1  0.67850243  0.87838727  0.77468288  1
  H  H36  1  0.22531712  0.17850243  0.62161273  1
  H  H37  1  0.27468288  0.82149757  0.12161273  1
  H  H38  1  0.72531712  0.32149757  0.37838727  1
  H  H39  1  0.77468288  0.67850243  0.87838727  1
  H  H40  1  0.62161273  0.22531712  0.17850243  1
  H  H41  1  0.12161273  0.27468288  0.82149757  1
  H  H42  1  0.37838727  0.72531712  0.32149757  1
  H  H43  1  0.87838727  0.77468288  0.67850243  1
  H  H44  1  0.82149757  0.37838727  0.77468288  1
  H  H45  1  0.17850243  0.87838727  0.72531712  1
  H  H46  1  0.67850243  0.62161273  0.27468288  1
  H  H47  1  0.32149757  0.12161273  0.22531712  1
  H  H48  1  0.77468288  0.82149757  0.37838727  1
  H  H49  1  0.72531712  0.17850243  0.87838727  1
  H  H50  1  0.27468288  0.67850243  0.62161273  1
  H  H51  1  0.22531712  0.32149757  0.12161273  1
  H  H52  1  0.37838727  0.77468288  0.82149757  1
  H  H53  1  0.87838727  0.72531712  0.17850243  1
  H  H54  1  0.62161273  0.27468288  0.67850243  1
  H  H55  1  0.12161273  0.22531712  0.32149757  1
  H  H56  1  0.48069438  0.70136818  0.93502045  1
  H  H57  1  0.51930562  0.20136818  0.56497955  1
  H  H58  1  0.01930562  0.29863182  0.43502045  1
  H  H59  1  0.98069438  0.79863182  0.06497955  1
  H  H60  1  0.93502045  0.48069438  0.70136818  1
  H  H61  1  0.56497955  0.51930562  0.20136818  1
  H  H62  1  0.43502045  0.01930562  0.29863182  1
  H  H63  1  0.06497955  0.98069438  0.79863182  1
  H  H64  1  0.70136818  0.93502045  0.48069438  1
  H  H65  1  0.20136818  0.56497955  0.51930562  1
  H  H66  1  0.29863182  0.43502045  0.01930562  1
  H  H67  1  0.79863182  0.06497955  0.98069438  1
  H  H68  1  0.51930562  0.29863182  0.06497955  1
  H  H69  1  0.48069438  0.79863182  0.43502045  1
  H  H70  1  0.98069438  0.70136818  0.56497955  1
  H  H71  1  0.01930562  0.20136818  0.93502045  1
  H  H72  1  0.06497955  0.51930562  0.29863182  1
  H  H73  1  0.43502045  0.48069438  0.79863182  1
  H  H74  1  0.56497955  0.98069438  0.70136818  1
  H  H75  1  0.93502045  0.01930562  0.20136818  1
  H  H76  1  0.29863182  0.06497955  0.51930562  1
  H  H77  1  0.79863182  0.43502045  0.48069438  1
  H  H78  1  0.70136818  0.56497955  0.98069438  1
  H  H79  1  0.20136818  0.93502045  0.01930562  1
  H  H80  1  0.52373906  0.69524941  0.05975901  1
  H  H81  1  0.47626094  0.19524941  0.44024099  1
  H  H82  1  0.97626094  0.30475059  0.55975901  1
  H  H83  1  0.02373906  0.80475059  0.94024099  1
  H  H84  1  0.05975901  0.52373906  0.69524941  1
  H  H85  1  0.44024099  0.47626094  0.19524941  1
  H  H86  1  0.55975901  0.97626094  0.30475059  1
  H  H87  1  0.94024099  0.02373906  0.80475059  1
  H  H88  1  0.69524941  0.05975901  0.52373906  1
  H  H89  1  0.19524941  0.44024099  0.47626094  1
  H  H90  1  0.30475059  0.55975901  0.97626094  1
  H  H91  1  0.80475059  0.94024099  0.02373906  1
  H  H92  1  0.47626094  0.30475059  0.94024099  1
  H  H93  1  0.52373906  0.80475059  0.55975901  1
  H  H94  1  0.02373906  0.69524941  0.44024099  1
  H  H95  1  0.97626094  0.19524941  0.05975901  1
  H  H96  1  0.94024099  0.47626094  0.30475059  1
  H  H97  1  0.55975901  0.52373906  0.80475059  1
  H  H98  1  0.44024099  0.02373906  0.69524941  1
  H  H99  1  0.05975901  0.97626094  0.19524941  1
  H  H100  1  0.30475059  0.94024099  0.47626094  1
  H  H101  1  0.80475059  0.55975901  0.52373906  1
  H  H102  1  0.69524941  0.44024099  0.02373906  1
  H  H103  1  0.19524941  0.05975901  0.97626094  1
  S  S104  1  0.17225550  0.82774450  0.32774450  1
  S  S105  1  0.82774450  0.32774450  0.17225550  1
  S  S106  1  0.32774450  0.17225550  0.82774450  1
  S  S107  1  0.67225550  0.67225550  0.67225550  1
  S  S108  1  0.82774450  0.17225550  0.67225550  1
  S  S109  1  0.17225550  0.67225550  0.82774450  1
  S  S110  1  0.67225550  0.82774450  0.17225550  1
  S  S111  1  0.32774450  0.32774450  0.32774450  1
  O  O112  1  0.24140481  0.75859519  0.25859519  1
  O  O113  1  0.75859519  0.25859519  0.24140481  1
  O  O114  1  0.25859519  0.24140481  0.75859519  1
  O  O115  1  0.74140481  0.74140481  0.74140481  1
  O  O116  1  0.75859519  0.24140481  0.74140481  1
  O  O117  1  0.24140481  0.74140481  0.75859519  1
  O  O118  1  0.74140481  0.75859519  0.24140481  1
  O  O119  1  0.25859519  0.25859519  0.25859519  1
  O  O120  1  0.06398732  0.77771416  0.34016537  1
  O  O121  1  0.93601268  0.27771416  0.15983463  1
  O  O122  1  0.43601268  0.22228584  0.84016537  1
  O  O123  1  0.56398732  0.72228584  0.65983463  1
  O  O124  1  0.34016537  0.06398732  0.77771416  1
  O  O125  1  0.15983463  0.93601268  0.27771416  1
  O  O126  1  0.84016537  0.43601268  0.22228584  1
  O  O127  1  0.65983463  0.56398732  0.72228584  1
  O  O128  1  0.77771416  0.34016537  0.06398732  1
  O  O129  1  0.27771416  0.15983463  0.93601268  1
  O  O130  1  0.22228584  0.84016537  0.43601268  1
  O  O131  1  0.72228584  0.65983463  0.56398732  1
  O  O132  1  0.93601268  0.22228584  0.65983463  1
  O  O133  1  0.06398732  0.72228584  0.84016537  1
  O  O134  1  0.56398732  0.77771416  0.15983463  1
  O  O135  1  0.43601268  0.27771416  0.34016537  1
  O  O136  1  0.65983463  0.93601268  0.22228584  1
  O  O137  1  0.84016537  0.06398732  0.72228584  1
  O  O138  1  0.15983463  0.56398732  0.77771416  1
  O  O139  1  0.34016537  0.43601268  0.27771416  1
  O  O140  1  0.22228584  0.65983463  0.93601268  1
  O  O141  1  0.72228584  0.84016537  0.06398732  1
  O  O142  1  0.77771416  0.15983463  0.56398732  1
  O  O143  1  0.27771416  0.34016537  0.43601268  1
  O  O144  1  0.15699903  0.54607711  0.21593164  1
  O  O145  1  0.84300097  0.04607711  0.28406836  1
  O  O146  1  0.34300097  0.45392289  0.71593164  1
  O  O147  1  0.65699903  0.95392289  0.78406836  1
  O  O148  1  0.21593164  0.15699903  0.54607711  1
  O  O149  1  0.28406836  0.84300097  0.04607711  1
  O  O150  1  0.71593164  0.34300097  0.45392289  1
  O  O151  1  0.78406836  0.65699903  0.95392289  1
  O  O152  1  0.54607711  0.21593164  0.15699903  1
  O  O153  1  0.04607711  0.28406836  0.84300097  1
  O  O154  1  0.45392289  0.71593164  0.34300097  1
  O  O155  1  0.95392289  0.78406836  0.65699903  1
  O  O156  1  0.84300097  0.45392289  0.78406836  1
  O  O157  1  0.15699903  0.95392289  0.71593164  1
  O  O158  1  0.65699903  0.54607711  0.28406836  1
  O  O159  1  0.34300097  0.04607711  0.21593164  1
  O  O160  1  0.78406836  0.84300097  0.45392289  1
  O  O161  1  0.71593164  0.15699903  0.95392289  1
  O  O162  1  0.28406836  0.65699903  0.54607711  1
  O  O163  1  0.21593164  0.34300097  0.04607711  1
  O  O164  1  0.45392289  0.78406836  0.84300097  1
  O  O165  1  0.95392289  0.71593164  0.15699903  1
  O  O166  1  0.54607711  0.28406836  0.65699903  1
  O  O167  1  0.04607711  0.21593164  0.34300097  1
  O  O168  1  0.49842343  0.65199643  0.99793666  1
  O  O169  1  0.50157657  0.15199643  0.50206334  1
  O  O170  1  0.00157657  0.34800357  0.49793666  1
  O  O171  1  0.99842343  0.84800357  0.00206334  1
  O  O172  1  0.99793666  0.49842343  0.65199643  1
  O  O173  1  0.50206334  0.50157657  0.15199643  1
  O  O174  1  0.49793666  0.00157657  0.34800357  1
  O  O175  1  0.00206334  0.99842343  0.84800357  1
  O  O176  1  0.65199643  0.99793666  0.49842343  1
  O  O177  1  0.15199643  0.50206334  0.50157657  1
  O  O178  1  0.34800357  0.49793666  0.00157657  1
  O  O179  1  0.84800357  0.00206334  0.99842343  1
  O  O180  1  0.50157657  0.34800357  0.00206334  1
  O  O181  1  0.49842343  0.84800357  0.49793666  1
  O  O182  1  0.99842343  0.65199643  0.50206334  1
  O  O183  1  0.00157657  0.15199643  0.99793666  1
  O  O184  1  0.00206334  0.50157657  0.34800357  1
  O  O185  1  0.49793666  0.49842343  0.84800357  1
  O  O186  1  0.50206334  0.99842343  0.65199643  1
  O  O187  1  0.99793666  0.00157657  0.15199643  1
  O  O188  1  0.34800357  0.00206334  0.50157657  1
  O  O189  1  0.84800357  0.49793666  0.49842343  1
  O  O190  1  0.65199643  0.50206334  0.99842343  1
  O  O191  1  0.15199643  0.99793666  0.00157657  1
