# generated using pymatgen
data_PrGa2Ni3
_symmetry_space_group_name_H-M   'P 1'
_cell_length_a   8.90907228
_cell_length_b   8.90907228
_cell_length_c   4.15054800
_cell_angle_alpha   90.00000000
_cell_angle_beta   90.00000000
_cell_angle_gamma   120.00000208
_symmetry_Int_Tables_number   1
_chemical_formula_structural   PrGa2Ni3
_chemical_formula_sum   'Pr3 Ga6 Ni9'
_cell_volume   285.29951159
_cell_formula_units_Z   3
loop_
 _symmetry_equiv_pos_site_id
 _symmetry_equiv_pos_as_xyz
  1  'x, y, z'
loop_
 _atom_site_type_symbol
 _atom_site_label
 _atom_site_symmetry_multiplicity
 _atom_site_fract_x
 _atom_site_fract_y
 _atom_site_fract_z
 _atom_site_occupancy
  Pr  Pr0  1  0.33333300  0.66666700  0.50000000  1
  Pr  Pr1  1  0.66666700  0.33333300  0.50000000  1
  Pr  Pr2  1  0.00000000  0.00000000  0.00000000  1
  Ga  Ga3  1  0.27360800  0.00000000  0.50000000  1
  Ga  Ga4  1  0.00000000  0.27360800  0.50000000  1
  Ga  Ga5  1  0.72639200  0.72639200  0.50000000  1
  Ga  Ga6  1  0.51524900  0.00000000  0.00000000  1
  Ga  Ga7  1  0.00000000  0.51524900  0.00000000  1
  Ga  Ga8  1  0.48475100  0.48475100  0.00000000  1
  Ni  Ni9  1  0.17592500  0.36927000  0.00000000  1
  Ni  Ni10  1  0.63073000  0.80665500  0.00000000  1
  Ni  Ni11  1  0.19334500  0.82407500  0.00000000  1
  Ni  Ni12  1  0.80665500  0.63073000  0.00000000  1
  Ni  Ni13  1  0.82407500  0.19334500  0.00000000  1
  Ni  Ni14  1  0.36927000  0.17592500  0.00000000  1
  Ni  Ni15  1  0.70809900  0.00000000  0.50000000  1
  Ni  Ni16  1  0.00000000  0.70809900  0.50000000  1
  Ni  Ni17  1  0.29190100  0.29190100  0.50000000  1
