# generated using pymatgen
data_Ba2(AlAg)5
_symmetry_space_group_name_H-M   'P 1'
_cell_length_a   7.09832433
_cell_length_b   7.09832433
_cell_length_c   5.57813000
_cell_angle_alpha   90.00000000
_cell_angle_beta   90.00000000
_cell_angle_gamma   103.29349848
_symmetry_Int_Tables_number   1
_chemical_formula_structural   Ba2(AlAg)5
_chemical_formula_sum   'Ba2 Al5 Ag5'
_cell_volume   273.52978734
_cell_formula_units_Z   1
loop_
 _symmetry_equiv_pos_site_id
 _symmetry_equiv_pos_as_xyz
  1  'x, y, z'
loop_
 _atom_site_type_symbol
 _atom_site_label
 _atom_site_symmetry_multiplicity
 _atom_site_fract_x
 _atom_site_fract_y
 _atom_site_fract_z
 _atom_site_occupancy
  Ba  Ba0  1  0.83249500  0.83249500  0.00000000  1
  Ba  Ba1  1  0.17555600  0.17555600  0.50000000  1
  Al  Al2  1  0.29044000  0.70090600  0.25011300  1
  Al  Al3  1  0.29044000  0.70090600  0.74988700  1
  Al  Al4  1  0.70090600  0.29044000  0.25011300  1
  Al  Al5  1  0.70090600  0.29044000  0.74988700  1
  Al  Al6  1  0.57704700  0.57704700  0.50000000  1
  Ag  Ag7  1  0.42018900  0.02405800  0.00000000  1
  Ag  Ag8  1  0.96370500  0.58237900  0.50000000  1
  Ag  Ag9  1  0.58237900  0.96370500  0.50000000  1
  Ag  Ag10  1  0.02405800  0.42018900  0.00000000  1
  Ag  Ag11  1  0.44187800  0.44187800  0.00000000  1
