# generated using pymatgen
data_Zn6Ru
_symmetry_space_group_name_H-M   'P 1'
_cell_length_a   15.62555002
_cell_length_b   15.62555002
_cell_length_c   15.62555002
_cell_angle_alpha   90.00000000
_cell_angle_beta   90.00000000
_cell_angle_gamma   90.00000000
_symmetry_Int_Tables_number   1
_chemical_formula_structural   Zn6Ru
_chemical_formula_sum   'Zn216 Ru36'
_cell_volume   3815.10012649
_cell_formula_units_Z   36
loop_
 _symmetry_equiv_pos_site_id
 _symmetry_equiv_pos_as_xyz
  1  'x, y, z'
loop_
 _atom_site_type_symbol
 _atom_site_label
 _atom_site_symmetry_multiplicity
 _atom_site_fract_x
 _atom_site_fract_y
 _atom_site_fract_z
 _atom_site_occupancy
  Zn  Zn0  1  0.11388098  0.45254265  0.47495064  1
  Zn  Zn1  1  0.38611902  0.54745735  0.97495064  1
  Zn  Zn2  1  0.88611902  0.95254265  0.02504936  1
  Zn  Zn3  1  0.61388098  0.04745735  0.52504936  1
  Zn  Zn4  1  0.45254265  0.47495064  0.11388098  1
  Zn  Zn5  1  0.54745735  0.97495064  0.38611902  1
  Zn  Zn6  1  0.95254265  0.02504936  0.88611902  1
  Zn  Zn7  1  0.04745735  0.52504936  0.61388098  1
  Zn  Zn8  1  0.47495064  0.11388098  0.45254265  1
  Zn  Zn9  1  0.97495064  0.38611902  0.54745735  1
  Zn  Zn10  1  0.02504936  0.88611902  0.95254265  1
  Zn  Zn11  1  0.52504936  0.61388098  0.04745735  1
  Zn  Zn12  1  0.63611902  0.27504936  0.29745735  1
  Zn  Zn13  1  0.36388098  0.77504936  0.20254265  1
  Zn  Zn14  1  0.86388098  0.72495064  0.79745735  1
  Zn  Zn15  1  0.13611902  0.22495064  0.70254265  1
  Zn  Zn16  1  0.29745735  0.63611902  0.27504936  1
  Zn  Zn17  1  0.20254265  0.36388098  0.77504936  1
  Zn  Zn18  1  0.79745735  0.86388098  0.72495064  1
  Zn  Zn19  1  0.70254265  0.13611902  0.22495064  1
  Zn  Zn20  1  0.27504936  0.29745735  0.63611902  1
  Zn  Zn21  1  0.77504936  0.20254265  0.36388098  1
  Zn  Zn22  1  0.72495064  0.79745735  0.86388098  1
  Zn  Zn23  1  0.22495064  0.70254265  0.13611902  1
  Zn  Zn24  1  0.14863350  0.03682342  0.68690466  1
  Zn  Zn25  1  0.35136650  0.96317658  0.18690466  1
  Zn  Zn26  1  0.85136650  0.53682342  0.81309534  1
  Zn  Zn27  1  0.64863350  0.46317658  0.31309534  1
  Zn  Zn28  1  0.03682342  0.68690466  0.14863350  1
  Zn  Zn29  1  0.96317658  0.18690466  0.35136650  1
  Zn  Zn30  1  0.53682342  0.81309534  0.85136650  1
  Zn  Zn31  1  0.46317658  0.31309534  0.64863350  1
  Zn  Zn32  1  0.68690466  0.14863350  0.03682342  1
  Zn  Zn33  1  0.18690466  0.35136650  0.96317658  1
  Zn  Zn34  1  0.81309534  0.85136650  0.53682342  1
  Zn  Zn35  1  0.31309534  0.64863350  0.46317658  1
  Zn  Zn36  1  0.60136650  0.06309534  0.71317658  1
  Zn  Zn37  1  0.39863350  0.56309534  0.78682342  1
  Zn  Zn38  1  0.89863350  0.93690466  0.21317658  1
  Zn  Zn39  1  0.10136650  0.43690466  0.28682342  1
  Zn  Zn40  1  0.71317658  0.60136650  0.06309534  1
  Zn  Zn41  1  0.78682342  0.39863350  0.56309534  1
  Zn  Zn42  1  0.21317658  0.89863350  0.93690466  1
  Zn  Zn43  1  0.28682342  0.10136650  0.43690466  1
  Zn  Zn44  1  0.06309534  0.71317658  0.60136650  1
  Zn  Zn45  1  0.56309534  0.78682342  0.39863350  1
  Zn  Zn46  1  0.93690466  0.21317658  0.89863350  1
  Zn  Zn47  1  0.43690466  0.28682342  0.10136650  1
  Zn  Zn48  1  0.21000480  0.33075909  0.35096303  1
  Zn  Zn49  1  0.28999520  0.66924091  0.85096303  1
  Zn  Zn50  1  0.78999520  0.83075909  0.14903697  1
  Zn  Zn51  1  0.71000480  0.16924091  0.64903697  1
  Zn  Zn52  1  0.33075909  0.35096303  0.21000480  1
  Zn  Zn53  1  0.66924091  0.85096303  0.28999520  1
  Zn  Zn54  1  0.83075909  0.14903697  0.78999520  1
  Zn  Zn55  1  0.16924091  0.64903697  0.71000480  1
  Zn  Zn56  1  0.35096303  0.21000480  0.33075909  1
  Zn  Zn57  1  0.85096303  0.28999520  0.66924091  1
  Zn  Zn58  1  0.14903697  0.78999520  0.83075909  1
  Zn  Zn59  1  0.64903697  0.71000480  0.16924091  1
  Zn  Zn60  1  0.53999520  0.39903697  0.41924091  1
  Zn  Zn61  1  0.46000480  0.89903697  0.08075909  1
  Zn  Zn62  1  0.96000480  0.60096303  0.91924091  1
  Zn  Zn63  1  0.03999520  0.10096303  0.58075909  1
  Zn  Zn64  1  0.41924091  0.53999520  0.39903697  1
  Zn  Zn65  1  0.08075909  0.46000480  0.89903697  1
  Zn  Zn66  1  0.91924091  0.96000480  0.60096303  1
  Zn  Zn67  1  0.58075909  0.03999520  0.10096303  1
  Zn  Zn68  1  0.39903697  0.41924091  0.53999520  1
  Zn  Zn69  1  0.89903697  0.08075909  0.46000480  1
  Zn  Zn70  1  0.60096303  0.91924091  0.96000480  1
  Zn  Zn71  1  0.10096303  0.58075909  0.03999520  1
  Zn  Zn72  1  0.28749470  0.27133848  0.47749468  1
  Zn  Zn73  1  0.21250530  0.72866152  0.97749468  1
  Zn  Zn74  1  0.71250530  0.77133848  0.02250532  1
  Zn  Zn75  1  0.78749470  0.22866152  0.52250532  1
  Zn  Zn76  1  0.27133848  0.47749468  0.28749470  1
  Zn  Zn77  1  0.72866152  0.97749468  0.21250530  1
  Zn  Zn78  1  0.77133848  0.02250532  0.71250530  1
  Zn  Zn79  1  0.22866152  0.52250532  0.78749470  1
  Zn  Zn80  1  0.47749468  0.28749470  0.27133848  1
  Zn  Zn81  1  0.97749468  0.21250530  0.72866152  1
  Zn  Zn82  1  0.02250532  0.71250530  0.77133848  1
  Zn  Zn83  1  0.52250532  0.78749470  0.22866152  1
  Zn  Zn84  1  0.46250530  0.27250532  0.47866152  1
  Zn  Zn85  1  0.53749470  0.77250532  0.02133848  1
  Zn  Zn86  1  0.03749470  0.72749468  0.97866152  1
  Zn  Zn87  1  0.96250530  0.22749468  0.52133848  1
  Zn  Zn88  1  0.47866152  0.46250530  0.27250532  1
  Zn  Zn89  1  0.02133848  0.53749470  0.77250532  1
  Zn  Zn90  1  0.97866152  0.03749470  0.72749468  1
  Zn  Zn91  1  0.52133848  0.96250530  0.22749468  1
  Zn  Zn92  1  0.27250532  0.47866152  0.46250530  1
  Zn  Zn93  1  0.77250532  0.02133848  0.53749470  1
  Zn  Zn94  1  0.72749468  0.97866152  0.03749470  1
  Zn  Zn95  1  0.22749468  0.52133848  0.96250530  1
  Zn  Zn96  1  0.28924796  0.13446383  0.72386431  1
  Zn  Zn97  1  0.21075204  0.86553617  0.22386431  1
  Zn  Zn98  1  0.71075204  0.63446383  0.77613569  1
  Zn  Zn99  1  0.78924796  0.36553617  0.27613569  1
  Zn  Zn100  1  0.13446383  0.72386431  0.28924796  1
  Zn  Zn101  1  0.86553617  0.22386431  0.21075204  1
  Zn  Zn102  1  0.63446383  0.77613569  0.71075204  1
  Zn  Zn103  1  0.36553617  0.27613569  0.78924796  1
  Zn  Zn104  1  0.72386431  0.28924796  0.13446383  1
  Zn  Zn105  1  0.22386431  0.21075204  0.86553617  1
  Zn  Zn106  1  0.77613569  0.71075204  0.63446383  1
  Zn  Zn107  1  0.27613569  0.78924796  0.36553617  1
  Zn  Zn108  1  0.46075204  0.02613569  0.61553617  1
  Zn  Zn109  1  0.53924796  0.52613569  0.88446383  1
  Zn  Zn110  1  0.03924796  0.97386431  0.11553617  1
  Zn  Zn111  1  0.96075204  0.47386431  0.38446383  1
  Zn  Zn112  1  0.61553617  0.46075204  0.02613569  1
  Zn  Zn113  1  0.88446383  0.53924796  0.52613569  1
  Zn  Zn114  1  0.11553617  0.03924796  0.97386431  1
  Zn  Zn115  1  0.38446383  0.96075204  0.47386431  1
  Zn  Zn116  1  0.02613569  0.61553617  0.46075204  1
  Zn  Zn117  1  0.52613569  0.88446383  0.53924796  1
  Zn  Zn118  1  0.97386431  0.11553617  0.03924796  1
  Zn  Zn119  1  0.47386431  0.38446383  0.96075204  1
  Zn  Zn120  1  0.14786490  0.74002329  0.46319510  1
  Zn  Zn121  1  0.35213510  0.25997671  0.96319510  1
  Zn  Zn122  1  0.85213510  0.24002329  0.03680490  1
  Zn  Zn123  1  0.64786490  0.75997671  0.53680490  1
  Zn  Zn124  1  0.74002329  0.46319510  0.14786490  1
  Zn  Zn125  1  0.25997671  0.96319510  0.35213510  1
  Zn  Zn126  1  0.24002329  0.03680490  0.85213510  1
  Zn  Zn127  1  0.75997671  0.53680490  0.64786490  1
  Zn  Zn128  1  0.46319510  0.14786490  0.74002329  1
  Zn  Zn129  1  0.96319510  0.35213510  0.25997671  1
  Zn  Zn130  1  0.03680490  0.85213510  0.24002329  1
  Zn  Zn131  1  0.53680490  0.64786490  0.75997671  1
  Zn  Zn132  1  0.60213510  0.28680490  0.00997671  1
  Zn  Zn133  1  0.39786490  0.78680490  0.49002329  1
  Zn  Zn134  1  0.89786490  0.71319510  0.50997671  1
  Zn  Zn135  1  0.10213510  0.21319510  0.99002329  1
  Zn  Zn136  1  0.00997671  0.60213510  0.28680490  1
  Zn  Zn137  1  0.49002329  0.39786490  0.78680490  1
  Zn  Zn138  1  0.50997671  0.89786490  0.71319510  1
  Zn  Zn139  1  0.99002329  0.10213510  0.21319510  1
  Zn  Zn140  1  0.28680490  0.00997671  0.60213510  1
  Zn  Zn141  1  0.78680490  0.49002329  0.39786490  1
  Zn  Zn142  1  0.71319510  0.50997671  0.89786490  1
  Zn  Zn143  1  0.21319510  0.99002329  0.10213510  1
  Zn  Zn144  1  0.13458802  0.01360458  0.47459741  1
  Zn  Zn145  1  0.36541198  0.98639542  0.97459741  1
  Zn  Zn146  1  0.86541198  0.51360458  0.02540259  1
  Zn  Zn147  1  0.63458802  0.48639542  0.52540259  1
  Zn  Zn148  1  0.01360458  0.47459741  0.13458802  1
  Zn  Zn149  1  0.98639542  0.97459741  0.36541198  1
  Zn  Zn150  1  0.51360458  0.02540259  0.86541198  1
  Zn  Zn151  1  0.48639542  0.52540259  0.63458802  1
  Zn  Zn152  1  0.47459741  0.13458802  0.01360458  1
  Zn  Zn153  1  0.97459741  0.36541198  0.98639542  1
  Zn  Zn154  1  0.02540259  0.86541198  0.51360458  1
  Zn  Zn155  1  0.52540259  0.63458802  0.48639542  1
  Zn  Zn156  1  0.61541198  0.27540259  0.73639542  1
  Zn  Zn157  1  0.38458802  0.77540259  0.76360458  1
  Zn  Zn158  1  0.88458802  0.72459741  0.23639542  1
  Zn  Zn159  1  0.11541198  0.22459741  0.26360458  1
  Zn  Zn160  1  0.73639542  0.61541198  0.27540259  1
  Zn  Zn161  1  0.76360458  0.38458802  0.77540259  1
  Zn  Zn162  1  0.23639542  0.88458802  0.72459741  1
  Zn  Zn163  1  0.26360458  0.11541198  0.22459741  1
  Zn  Zn164  1  0.27540259  0.73639542  0.61541198  1
  Zn  Zn165  1  0.77540259  0.76360458  0.38458802  1
  Zn  Zn166  1  0.72459741  0.23639542  0.88458802  1
  Zn  Zn167  1  0.22459741  0.26360458  0.11541198  1
  Zn  Zn168  1  0.81901425  0.93098575  0.37500000  1
  Zn  Zn169  1  0.68098575  0.06901425  0.87500000  1
  Zn  Zn170  1  0.18098575  0.43098575  0.12500000  1
  Zn  Zn171  1  0.31901425  0.56901425  0.62500000  1
  Zn  Zn172  1  0.93098575  0.37500000  0.81901425  1
  Zn  Zn173  1  0.06901425  0.87500000  0.68098575  1
  Zn  Zn174  1  0.43098575  0.12500000  0.18098575  1
  Zn  Zn175  1  0.56901425  0.62500000  0.31901425  1
  Zn  Zn176  1  0.37500000  0.81901425  0.93098575  1
  Zn  Zn177  1  0.87500000  0.68098575  0.06901425  1
  Zn  Zn178  1  0.12500000  0.18098575  0.43098575  1
  Zn  Zn179  1  0.62500000  0.31901425  0.56901425  1
  Zn  Zn180  1  0.70153190  0.04846810  0.37500000  1
  Zn  Zn181  1  0.79846810  0.95153190  0.87500000  1
  Zn  Zn182  1  0.29846810  0.54846810  0.12500000  1
  Zn  Zn183  1  0.20153190  0.45153190  0.62500000  1
  Zn  Zn184  1  0.04846810  0.37500000  0.70153190  1
  Zn  Zn185  1  0.95153190  0.87500000  0.79846810  1
  Zn  Zn186  1  0.54846810  0.12500000  0.29846810  1
  Zn  Zn187  1  0.45153190  0.62500000  0.20153190  1
  Zn  Zn188  1  0.37500000  0.70153190  0.04846810  1
  Zn  Zn189  1  0.87500000  0.79846810  0.95153190  1
  Zn  Zn190  1  0.12500000  0.29846810  0.54846810  1
  Zn  Zn191  1  0.62500000  0.20153190  0.45153190  1
  Zn  Zn192  1  0.97456074  0.77543926  0.37500000  1
  Zn  Zn193  1  0.52543926  0.22456074  0.87500000  1
  Zn  Zn194  1  0.02543926  0.27543926  0.12500000  1
  Zn  Zn195  1  0.47456074  0.72456074  0.62500000  1
  Zn  Zn196  1  0.77543926  0.37500000  0.97456074  1
  Zn  Zn197  1  0.22456074  0.87500000  0.52543926  1
  Zn  Zn198  1  0.27543926  0.12500000  0.02543926  1
  Zn  Zn199  1  0.72456074  0.62500000  0.47456074  1
  Zn  Zn200  1  0.37500000  0.97456074  0.77543926  1
  Zn  Zn201  1  0.87500000  0.52543926  0.22456074  1
  Zn  Zn202  1  0.12500000  0.02543926  0.27543926  1
  Zn  Zn203  1  0.62500000  0.47456074  0.72456074  1
  Zn  Zn204  1  0.16735993  0.58264007  0.37500000  1
  Zn  Zn205  1  0.33264007  0.41735993  0.87500000  1
  Zn  Zn206  1  0.83264007  0.08264007  0.12500000  1
  Zn  Zn207  1  0.66735993  0.91735993  0.62500000  1
  Zn  Zn208  1  0.58264007  0.37500000  0.16735993  1
  Zn  Zn209  1  0.41735993  0.87500000  0.33264007  1
  Zn  Zn210  1  0.08264007  0.12500000  0.83264007  1
  Zn  Zn211  1  0.91735993  0.62500000  0.66735993  1
  Zn  Zn212  1  0.37500000  0.16735993  0.58264007  1
  Zn  Zn213  1  0.87500000  0.33264007  0.41735993  1
  Zn  Zn214  1  0.12500000  0.83264007  0.08264007  1
  Zn  Zn215  1  0.62500000  0.66735993  0.91735993  1
  Ru  Ru216  1  0.20957866  0.15033100  0.57554829  1
  Ru  Ru217  1  0.29042134  0.84966900  0.07554829  1
  Ru  Ru218  1  0.79042134  0.65033100  0.92445171  1
  Ru  Ru219  1  0.70957866  0.34966900  0.42445171  1
  Ru  Ru220  1  0.15033100  0.57554829  0.20957866  1
  Ru  Ru221  1  0.84966900  0.07554829  0.29042134  1
  Ru  Ru222  1  0.65033100  0.92445171  0.79042134  1
  Ru  Ru223  1  0.34966900  0.42445171  0.70957866  1
  Ru  Ru224  1  0.57554829  0.20957866  0.15033100  1
  Ru  Ru225  1  0.07554829  0.29042134  0.84966900  1
  Ru  Ru226  1  0.92445171  0.79042134  0.65033100  1
  Ru  Ru227  1  0.42445171  0.70957866  0.34966900  1
  Ru  Ru228  1  0.54042134  0.17445171  0.59966900  1
  Ru  Ru229  1  0.45957866  0.67445171  0.90033100  1
  Ru  Ru230  1  0.95957866  0.82554829  0.09966900  1
  Ru  Ru231  1  0.04042134  0.32554829  0.40033100  1
  Ru  Ru232  1  0.59966900  0.54042134  0.17445171  1
  Ru  Ru233  1  0.90033100  0.45957866  0.67445171  1
  Ru  Ru234  1  0.09966900  0.95957866  0.82554829  1
  Ru  Ru235  1  0.40033100  0.04042134  0.32554829  1
  Ru  Ru236  1  0.17445171  0.59966900  0.54042134  1
  Ru  Ru237  1  0.67445171  0.90033100  0.45957866  1
  Ru  Ru238  1  0.82554829  0.09966900  0.95957866  1
  Ru  Ru239  1  0.32554829  0.40033100  0.04042134  1
  Ru  Ru240  1  0.12676922  0.87323078  0.37323078  1
  Ru  Ru241  1  0.37323078  0.12676922  0.87323078  1
  Ru  Ru242  1  0.87323078  0.37323078  0.12676922  1
  Ru  Ru243  1  0.62676922  0.62676922  0.62676922  1
  Ru  Ru244  1  0.62323078  0.37676922  0.87676922  1
  Ru  Ru245  1  0.37676922  0.87676922  0.62323078  1
  Ru  Ru246  1  0.87676922  0.62323078  0.37676922  1
  Ru  Ru247  1  0.12323078  0.12323078  0.12323078  1
  Ru  Ru248  1  0.87500000  0.12500000  0.62500000  1
  Ru  Ru249  1  0.62500000  0.87500000  0.12500000  1
  Ru  Ru250  1  0.12500000  0.62500000  0.87500000  1
  Ru  Ru251  1  0.37500000  0.37500000  0.37500000  1
