# generated using pymatgen
data_Na2Ti2As2O
_symmetry_space_group_name_H-M   'P 1'
_cell_length_a   8.25643746
_cell_length_b   8.25643746
_cell_length_c   8.25643746
_cell_angle_alpha   151.46368773
_cell_angle_beta   151.46368773
_cell_angle_gamma   40.79701858
_symmetry_Int_Tables_number   1
_chemical_formula_structural   Na2Ti2As2O
_chemical_formula_sum   'Na2 Ti2 As2 O1'
_cell_volume   128.17605520
_cell_formula_units_Z   1
loop_
 _symmetry_equiv_pos_site_id
 _symmetry_equiv_pos_as_xyz
  1  'x, y, z'
loop_
 _atom_site_type_symbol
 _atom_site_label
 _atom_site_symmetry_multiplicity
 _atom_site_fract_x
 _atom_site_fract_y
 _atom_site_fract_z
 _atom_site_occupancy
  Na  Na0  1  0.18196500  0.18196500  0.00000000  1
  Na  Na1  1  0.81803500  0.81803500  0.00000000  1
  Ti  Ti2  1  0.50000000  0.00000000  0.50000000  1
  Ti  Ti3  1  0.00000000  0.50000000  0.50000000  1
  As  As4  1  0.38253800  0.38253800  0.00000000  1
  As  As5  1  0.61746200  0.61746200  0.00000000  1
  O  O6  1  0.00000000  0.00000000  0.00000000  1
