# generated using pymatgen
data_DySiPt2
_symmetry_space_group_name_H-M   'P 1'
_cell_length_a   5.55503600
_cell_length_b   6.96498900
_cell_length_c   7.36034000
_cell_angle_alpha   90.00000000
_cell_angle_beta   90.00000000
_cell_angle_gamma   90.00000000
_symmetry_Int_Tables_number   1
_chemical_formula_structural   DySiPt2
_chemical_formula_sum   'Dy4 Si4 Pt8'
_cell_volume   284.77718257
_cell_formula_units_Z   4
loop_
 _symmetry_equiv_pos_site_id
 _symmetry_equiv_pos_as_xyz
  1  'x, y, z'
loop_
 _atom_site_type_symbol
 _atom_site_label
 _atom_site_symmetry_multiplicity
 _atom_site_fract_x
 _atom_site_fract_y
 _atom_site_fract_z
 _atom_site_occupancy
  Dy  Dy0  1  0.36228000  0.75000000  0.02778000  1
  Dy  Dy1  1  0.13772000  0.75000000  0.52778000  1
  Dy  Dy2  1  0.63772000  0.25000000  0.97222000  1
  Dy  Dy3  1  0.86228000  0.25000000  0.47222000  1
  Si  Si4  1  0.63877900  0.75000000  0.38032800  1
  Si  Si5  1  0.86122100  0.75000000  0.88032800  1
  Si  Si6  1  0.36122100  0.25000000  0.61967200  1
  Si  Si7  1  0.13877900  0.25000000  0.11967200  1
  Pt  Pt8  1  0.90809800  0.55058800  0.18115900  1
  Pt  Pt9  1  0.59190200  0.94941200  0.68115900  1
  Pt  Pt10  1  0.09190200  0.05058800  0.81884100  1
  Pt  Pt11  1  0.40809800  0.44941200  0.31884100  1
  Pt  Pt12  1  0.09190200  0.44941200  0.81884100  1
  Pt  Pt13  1  0.40809800  0.05058800  0.31884100  1
  Pt  Pt14  1  0.90809800  0.94941200  0.18115900  1
  Pt  Pt15  1  0.59190200  0.55058800  0.68115900  1
