# generated using pymatgen
data_U6Rh2S15
_symmetry_space_group_name_H-M   'P 1'
_cell_length_a   11.28324407
_cell_length_b   11.28324407
_cell_length_c   11.28324407
_cell_angle_alpha   109.47122063
_cell_angle_beta   109.47122063
_cell_angle_gamma   109.47122063
_symmetry_Int_Tables_number   1
_chemical_formula_structural   U6Rh2S15
_chemical_formula_sum   'U12 Rh4 S30'
_cell_volume   1105.80883806
_cell_formula_units_Z   2
loop_
 _symmetry_equiv_pos_site_id
 _symmetry_equiv_pos_as_xyz
  1  'x, y, z'
loop_
 _atom_site_type_symbol
 _atom_site_label
 _atom_site_symmetry_multiplicity
 _atom_site_fract_x
 _atom_site_fract_y
 _atom_site_fract_z
 _atom_site_occupancy
  U  U0  1  0.29508200  0.29508200  0.59016500  1
  U  U1  1  0.70491800  0.00000000  0.29508200  1
  U  U2  1  0.00000000  0.70491800  0.29508200  1
  U  U3  1  0.70491800  0.29508200  0.00000000  1
  U  U4  1  0.29508200  0.59016500  0.29508200  1
  U  U5  1  0.00000000  0.29508200  0.70491800  1
  U  U6  1  0.29508200  0.70491800  0.00000000  1
  U  U7  1  0.29508200  0.00000000  0.70491800  1
  U  U8  1  0.59016500  0.29508200  0.29508200  1
  U  U9  1  0.70491800  0.70491800  0.40983500  1
  U  U10  1  0.70491800  0.40983500  0.70491800  1
  U  U11  1  0.40983500  0.70491800  0.70491800  1
  Rh  Rh12  1  0.00000000  0.00000000  0.50000000  1
  Rh  Rh13  1  0.00000000  0.50000000  0.00000000  1
  Rh  Rh14  1  0.50000000  0.00000000  0.00000000  1
  Rh  Rh15  1  0.50000000  0.50000000  0.50000000  1
  S  S16  1  0.00000000  0.18340800  0.43852400  1
  S  S17  1  0.81659200  0.81659200  0.25511600  1
  S  S18  1  0.18340800  0.00000000  0.43852400  1
  S  S19  1  0.00000000  0.43852400  0.18340800  1
  S  S20  1  0.18340800  0.43852400  0.00000000  1
  S  S21  1  0.81659200  0.25511600  0.81659200  1
  S  S22  1  0.25511600  0.81659200  0.81659200  1
  S  S23  1  0.43852400  0.18340800  0.00000000  1
  S  S24  1  0.43852400  0.00000000  0.18340800  1
  S  S25  1  0.74488400  0.56147600  0.56147600  1
  S  S26  1  0.56147600  0.56147600  0.74488400  1
  S  S27  1  0.56147600  0.74488400  0.56147600  1
  S  S28  1  0.00000000  0.81659200  0.56147600  1
  S  S29  1  0.18340800  0.18340800  0.74488400  1
  S  S30  1  0.81659200  0.00000000  0.56147600  1
  S  S31  1  0.00000000  0.56147600  0.81659200  1
  S  S32  1  0.81659200  0.56147600  0.00000000  1
  S  S33  1  0.18340800  0.74488400  0.18340800  1
  S  S34  1  0.74488400  0.18340800  0.18340800  1
  S  S35  1  0.56147600  0.81659200  0.00000000  1
  S  S36  1  0.56147600  0.00000000  0.81659200  1
  S  S37  1  0.25511600  0.43852400  0.43852400  1
  S  S38  1  0.43852400  0.43852400  0.25511600  1
  S  S39  1  0.43852400  0.25511600  0.43852400  1
  S  S40  1  0.75000000  0.25000000  0.50000000  1
  S  S41  1  0.75000000  0.50000000  0.25000000  1
  S  S42  1  0.50000000  0.25000000  0.75000000  1
  S  S43  1  0.25000000  0.50000000  0.75000000  1
  S  S44  1  0.25000000  0.75000000  0.50000000  1
  S  S45  1  0.50000000  0.75000000  0.25000000  1
