# generated using pymatgen
data_Na3Yb(PO4)2
_symmetry_space_group_name_H-M   'P 1'
_cell_length_a   9.14029012
_cell_length_b   9.14029012
_cell_length_c   9.14028980
_cell_angle_alpha   63.00178678
_cell_angle_beta   63.00178678
_cell_angle_gamma   63.00178693
_symmetry_Int_Tables_number   1
_chemical_formula_structural   Na3Yb(PO4)2
_chemical_formula_sum   'Na9 Yb3 P6 O24'
_cell_volume   575.94753802
_cell_formula_units_Z   3
loop_
 _symmetry_equiv_pos_site_id
 _symmetry_equiv_pos_as_xyz
  1  'x, y, z'
loop_
 _atom_site_type_symbol
 _atom_site_label
 _atom_site_symmetry_multiplicity
 _atom_site_fract_x
 _atom_site_fract_y
 _atom_site_fract_z
 _atom_site_occupancy
  Na  Na0  1  0.50259800  0.50259800  0.50259800  1
  Na  Na1  1  0.99937600  0.99937600  0.99937600  1
  Na  Na2  1  0.39286400  0.74911600  0.10611300  1
  Na  Na3  1  0.74911600  0.10611300  0.39286400  1
  Na  Na4  1  0.10611300  0.39286400  0.74911600  1
  Na  Na5  1  0.26247300  0.88182600  0.61159900  1
  Na  Na6  1  0.88182600  0.61159900  0.26247300  1
  Na  Na7  1  0.61159900  0.26247300  0.88182600  1
  Na  Na8  1  0.65074600  0.65074600  0.65074600  1
  Yb  Yb9  1  0.14968800  0.14968800  0.14968800  1
  Yb  Yb10  1  0.35033200  0.35033200  0.35033200  1
  Yb  Yb11  1  0.84960900  0.84960900  0.84960900  1
  P  P12  1  0.06600800  0.74817700  0.43768300  1
  P  P13  1  0.74817700  0.43768300  0.06600800  1
  P  P14  1  0.43768300  0.06600800  0.74817700  1
  P  P15  1  0.24774700  0.56116300  0.94016400  1
  P  P16  1  0.56116300  0.94016400  0.24774700  1
  P  P17  1  0.94016400  0.24774700  0.56116300  1
  O  O18  1  0.02371100  0.80712100  0.59033200  1
  O  O19  1  0.80712100  0.59033200  0.02371100  1
  O  O20  1  0.59033200  0.02371100  0.80712100  1
  O  O21  1  0.31384000  0.52248800  0.08740300  1
  O  O22  1  0.52248800  0.08740300  0.31384000  1
  O  O23  1  0.08740300  0.31384000  0.52248800  1
  O  O24  1  0.98077400  0.18674000  0.40971900  1
  O  O25  1  0.18674000  0.40971900  0.98077400  1
  O  O26  1  0.40971900  0.98077400  0.18674000  1
  O  O27  1  0.68173800  0.46996900  0.92161600  1
  O  O28  1  0.46996900  0.92161600  0.68173800  1
  O  O29  1  0.92161600  0.68173800  0.46996900  1
  O  O30  1  0.76461300  0.39346000  0.57227200  1
  O  O31  1  0.39346000  0.57227200  0.76461300  1
  O  O32  1  0.57227200  0.76461300  0.39346000  1
  O  O33  1  0.89968900  0.26421500  0.07498300  1
  O  O34  1  0.26421500  0.07498300  0.89968900  1
  O  O35  1  0.07498300  0.89968900  0.26421500  1
  O  O36  1  0.24213400  0.60209800  0.42128200  1
  O  O37  1  0.60209800  0.42128200  0.24213400  1
  O  O38  1  0.42128200  0.24213400  0.60209800  1
  O  O39  1  0.09812000  0.73524100  0.92916400  1
  O  O40  1  0.73524100  0.92916400  0.09812000  1
  O  O41  1  0.92916400  0.09812000  0.73524100  1
