# generated using pymatgen
data_Ho8In3Co
_symmetry_space_group_name_H-M   'P 1'
_cell_length_a   10.31870417
_cell_length_b   10.31870417
_cell_length_c   6.93267800
_cell_angle_alpha   90.00000000
_cell_angle_beta   90.00000000
_cell_angle_gamma   120.00000112
_symmetry_Int_Tables_number   1
_chemical_formula_structural   Ho8In3Co
_chemical_formula_sum   'Ho16 In6 Co2'
_cell_volume   639.26654917
_cell_formula_units_Z   2
loop_
 _symmetry_equiv_pos_site_id
 _symmetry_equiv_pos_as_xyz
  1  'x, y, z'
loop_
 _atom_site_type_symbol
 _atom_site_label
 _atom_site_symmetry_multiplicity
 _atom_site_fract_x
 _atom_site_fract_y
 _atom_site_fract_z
 _atom_site_occupancy
  Ho  Ho0  1  0.53445300  0.06890600  0.50480500  1
  Ho  Ho1  1  0.93109400  0.46554700  0.50480500  1
  Ho  Ho2  1  0.53445300  0.46554700  0.50480500  1
  Ho  Ho3  1  0.46554700  0.93109400  0.00480500  1
  Ho  Ho4  1  0.06890600  0.53445300  0.00480500  1
  Ho  Ho5  1  0.46554700  0.53445300  0.00480500  1
  Ho  Ho6  1  0.17865900  0.35731700  0.71323500  1
  Ho  Ho7  1  0.64268300  0.82134100  0.71323500  1
  Ho  Ho8  1  0.17865900  0.82134100  0.71323500  1
  Ho  Ho9  1  0.82134100  0.64268300  0.21323500  1
  Ho  Ho10  1  0.35731700  0.17865900  0.21323500  1
  Ho  Ho11  1  0.82134100  0.17865900  0.21323500  1
  Ho  Ho12  1  0.66666700  0.33333300  0.89552900  1
  Ho  Ho13  1  0.33333300  0.66666700  0.39552900  1
  Ho  Ho14  1  0.00000000  0.00000000  0.49606300  1
  Ho  Ho15  1  0.00000000  0.00000000  0.99606300  1
  In  In16  1  0.83735000  0.67470000  0.74946700  1
  In  In17  1  0.32530000  0.16265000  0.74946700  1
  In  In18  1  0.83735000  0.16265000  0.74946700  1
  In  In19  1  0.16265000  0.32530000  0.24946700  1
  In  In20  1  0.67470000  0.83735000  0.24946700  1
  In  In21  1  0.16265000  0.83735000  0.24946700  1
  Co  Co22  1  0.66666700  0.33333300  0.28490800  1
  Co  Co23  1  0.33333300  0.66666700  0.78490800  1
