# generated using pymatgen
data_KTaSi2O7
_symmetry_space_group_name_H-M   'P 1'
_cell_length_a   8.89084300
_cell_length_b   8.89084300
_cell_length_c   7.99979400
_cell_angle_alpha   90.00000000
_cell_angle_beta   90.00000000
_cell_angle_gamma   90.00000000
_symmetry_Int_Tables_number   1
_chemical_formula_structural   KTaSi2O7
_chemical_formula_sum   'K4 Ta4 Si8 O28'
_cell_volume   632.36043030
_cell_formula_units_Z   4
loop_
 _symmetry_equiv_pos_site_id
 _symmetry_equiv_pos_as_xyz
  1  'x, y, z'
loop_
 _atom_site_type_symbol
 _atom_site_label
 _atom_site_symmetry_multiplicity
 _atom_site_fract_x
 _atom_site_fract_y
 _atom_site_fract_z
 _atom_site_occupancy
  K  K0  1  0.67772000  0.17772000  0.00000000  1
  K  K1  1  0.32228000  0.82228000  0.00000000  1
  K  K2  1  0.17772000  0.32228000  0.00000000  1
  K  K3  1  0.82228000  0.67772000  0.00000000  1
  Ta  Ta4  1  0.00000000  0.00000000  0.75113500  1
  Ta  Ta5  1  0.50000000  0.50000000  0.75113500  1
  Ta  Ta6  1  0.00000000  0.00000000  0.24886500  1
  Ta  Ta7  1  0.50000000  0.50000000  0.24886500  1
  Si  Si8  1  0.37657600  0.12342400  0.29989500  1
  Si  Si9  1  0.62342400  0.87657600  0.29989500  1
  Si  Si10  1  0.87657600  0.37657600  0.29989500  1
  Si  Si11  1  0.12342400  0.62342400  0.29989500  1
  Si  Si12  1  0.62342400  0.87657600  0.70010500  1
  Si  Si13  1  0.37657600  0.12342400  0.70010500  1
  Si  Si14  1  0.12342400  0.62342400  0.70010500  1
  Si  Si15  1  0.87657600  0.37657600  0.70010500  1
  O  O16  1  0.21154200  0.07633700  0.76695300  1
  O  O17  1  0.78845800  0.92366300  0.76695300  1
  O  O18  1  0.71154200  0.42366300  0.76695300  1
  O  O19  1  0.28845800  0.57633700  0.76695300  1
  O  O20  1  0.92366300  0.21154200  0.76695300  1
  O  O21  1  0.07633700  0.78845800  0.76695300  1
  O  O22  1  0.57633700  0.71154200  0.76695300  1
  O  O23  1  0.42366300  0.28845800  0.76695300  1
  O  O24  1  0.78845800  0.92366300  0.23304700  1
  O  O25  1  0.21154200  0.07633700  0.23304700  1
  O  O26  1  0.28845800  0.57633700  0.23304700  1
  O  O27  1  0.71154200  0.42366300  0.23304700  1
  O  O28  1  0.07633700  0.78845800  0.23304700  1
  O  O29  1  0.92366300  0.21154200  0.23304700  1
  O  O30  1  0.42366300  0.28845800  0.23304700  1
  O  O31  1  0.57633700  0.71154200  0.23304700  1
  O  O32  1  0.38234300  0.11765700  0.50000000  1
  O  O33  1  0.61765700  0.88234300  0.50000000  1
  O  O34  1  0.88234300  0.38234300  0.50000000  1
  O  O35  1  0.11765700  0.61765700  0.50000000  1
  O  O36  1  0.00000000  0.00000000  0.00000000  1
  O  O37  1  0.50000000  0.50000000  0.00000000  1
  O  O38  1  0.50000000  0.00000000  0.77349600  1
  O  O39  1  0.00000000  0.50000000  0.77349600  1
  O  O40  1  0.50000000  0.00000000  0.22650400  1
  O  O41  1  0.00000000  0.50000000  0.22650400  1
  O  O42  1  0.00000000  0.00000000  0.50000000  1
  O  O43  1  0.50000000  0.50000000  0.50000000  1
