# generated using pymatgen
data_CsNdZnTe3
_symmetry_space_group_name_H-M   'P 1'
_cell_length_a   8.96081945
_cell_length_b   8.96081945
_cell_length_c   12.04062500
_cell_angle_alpha   90.00000000
_cell_angle_beta   90.00000000
_cell_angle_gamma   150.73365691
_symmetry_Int_Tables_number   1
_chemical_formula_structural   CsNdZnTe3
_chemical_formula_sum   'Cs2 Nd2 Zn2 Te6'
_cell_volume   472.64814178
_cell_formula_units_Z   2
loop_
 _symmetry_equiv_pos_site_id
 _symmetry_equiv_pos_as_xyz
  1  'x, y, z'
loop_
 _atom_site_type_symbol
 _atom_site_label
 _atom_site_symmetry_multiplicity
 _atom_site_fract_x
 _atom_site_fract_y
 _atom_site_fract_z
 _atom_site_occupancy
  Cs  Cs0  1  0.25356600  0.74643400  0.75000000  1
  Cs  Cs1  1  0.74643400  0.25356600  0.25000000  1
  Nd  Nd2  1  0.00000000  0.00000000  0.00000000  1
  Nd  Nd3  1  0.00000000  0.00000000  0.50000000  1
  Zn  Zn4  1  0.53527900  0.46472100  0.75000000  1
  Zn  Zn5  1  0.46472100  0.53527900  0.25000000  1
  Te  Te6  1  0.62080600  0.37919400  0.56539800  1
  Te  Te7  1  0.37919400  0.62080600  0.43460200  1
  Te  Te8  1  0.06054500  0.93945500  0.25000000  1
  Te  Te9  1  0.93945500  0.06054500  0.75000000  1
  Te  Te10  1  0.62080600  0.37919400  0.93460200  1
  Te  Te11  1  0.37919400  0.62080600  0.06539800  1
