# generated using pymatgen
data_K2Te2Pd
_symmetry_space_group_name_H-M   'P 1'
_cell_length_a   6.88125615
_cell_length_b   6.88125615
_cell_length_c   6.88125615
_cell_angle_alpha   145.53027880
_cell_angle_beta   109.00253203
_cell_angle_gamma   81.37102555
_symmetry_Int_Tables_number   1
_chemical_formula_structural   K2Te2Pd
_chemical_formula_sum   'K2 Te2 Pd1'
_cell_volume   170.04356038
_cell_formula_units_Z   1
loop_
 _symmetry_equiv_pos_site_id
 _symmetry_equiv_pos_as_xyz
  1  'x, y, z'
loop_
 _atom_site_type_symbol
 _atom_site_label
 _atom_site_symmetry_multiplicity
 _atom_site_fract_x
 _atom_site_fract_y
 _atom_site_fract_z
 _atom_site_occupancy
  K  K0  1  0.30073600  0.80073600  0.50000000  1
  K  K1  1  0.69926400  0.19926400  0.50000000  1
  Te  Te2  1  0.78113700  0.50000000  0.28113700  1
  Te  Te3  1  0.21886300  0.50000000  0.71886300  1
  Pd  Pd4  1  0.00000000  0.00000000  0.00000000  1
