# generated using pymatgen
data_Cs2W(OF2)2
_symmetry_space_group_name_H-M   'P 1'
_cell_length_a   6.40038382
_cell_length_b   6.40038382
_cell_length_c   5.15238894
_cell_angle_alpha   88.27683684
_cell_angle_beta   88.27683684
_cell_angle_gamma   60.41446553
_symmetry_Int_Tables_number   1
_chemical_formula_structural   Cs2W(OF2)2
_chemical_formula_sum   'Cs2 W1 O2 F4'
_cell_volume   183.43700100
_cell_formula_units_Z   1
loop_
 _symmetry_equiv_pos_site_id
 _symmetry_equiv_pos_as_xyz
  1  'x, y, z'
loop_
 _atom_site_type_symbol
 _atom_site_label
 _atom_site_symmetry_multiplicity
 _atom_site_fract_x
 _atom_site_fract_y
 _atom_site_fract_z
 _atom_site_occupancy
  Cs  Cs0  1  0.33020200  0.33020200  0.31094600  1
  Cs  Cs1  1  0.66979800  0.66979800  0.68905400  1
  W  W2  1  0.00000000  0.00000000  0.00000000  1
  O  O3  1  0.13935100  0.13935100  0.79441700  1
  O  O4  1  0.86064900  0.86064900  0.20558300  1
  F  F5  1  0.70907400  0.14893400  0.78568800  1
  F  F6  1  0.14893400  0.70907400  0.78568800  1
  F  F7  1  0.29092600  0.85106600  0.21431200  1
  F  F8  1  0.85106600  0.29092600  0.21431200  1
