# generated using pymatgen
data_Cs2SrV4O12
_symmetry_space_group_name_H-M   'P 1'
_cell_length_a   8.06972800
_cell_length_b   8.06972800
_cell_length_c   5.70798400
_cell_angle_alpha   90.00000000
_cell_angle_beta   90.00000000
_cell_angle_gamma   90.00000000
_symmetry_Int_Tables_number   1
_chemical_formula_structural   Cs2SrV4O12
_chemical_formula_sum   'Cs2 Sr1 V4 O12'
_cell_volume   371.70682912
_cell_formula_units_Z   1
loop_
 _symmetry_equiv_pos_site_id
 _symmetry_equiv_pos_as_xyz
  1  'x, y, z'
loop_
 _atom_site_type_symbol
 _atom_site_label
 _atom_site_symmetry_multiplicity
 _atom_site_fract_x
 _atom_site_fract_y
 _atom_site_fract_z
 _atom_site_occupancy
  Cs  Cs0  1  0.00000000  0.50000000  0.50000000  1
  Cs  Cs1  1  0.50000000  0.00000000  0.50000000  1
  Sr  Sr2  1  0.50000000  0.50000000  0.50000000  1
  V  V3  1  0.22240200  0.22240200  0.00000000  1
  V  V4  1  0.77759800  0.22240200  0.00000000  1
  V  V5  1  0.22240200  0.77759800  0.00000000  1
  V  V6  1  0.77759800  0.77759800  0.00000000  1
  O  O7  1  0.69393000  0.69393000  0.75841500  1
  O  O8  1  0.30607000  0.30607000  0.75841500  1
  O  O9  1  0.69393000  0.30607000  0.75841500  1
  O  O10  1  0.30607000  0.69393000  0.75841500  1
  O  O11  1  0.30607000  0.69393000  0.24158500  1
  O  O12  1  0.30607000  0.30607000  0.24158500  1
  O  O13  1  0.69393000  0.69393000  0.24158500  1
  O  O14  1  0.69393000  0.30607000  0.24158500  1
  O  O15  1  0.26201200  0.00000000  0.00000000  1
  O  O16  1  0.00000000  0.26201200  0.00000000  1
  O  O17  1  0.00000000  0.73798800  0.00000000  1
  O  O18  1  0.73798800  0.00000000  0.00000000  1
