# generated using pymatgen
data_Ho3Pd4
_symmetry_space_group_name_H-M   'P 1'
_cell_length_a   7.85076438
_cell_length_b   7.85076438
_cell_length_c   7.85076435
_cell_angle_alpha   114.29143566
_cell_angle_beta   114.29143566
_cell_angle_gamma   114.29142884
_symmetry_Int_Tables_number   1
_chemical_formula_structural   Ho3Pd4
_chemical_formula_sum   'Ho6 Pd8'
_cell_volume   287.51781624
_cell_formula_units_Z   2
loop_
 _symmetry_equiv_pos_site_id
 _symmetry_equiv_pos_as_xyz
  1  'x, y, z'
loop_
 _atom_site_type_symbol
 _atom_site_label
 _atom_site_symmetry_multiplicity
 _atom_site_fract_x
 _atom_site_fract_y
 _atom_site_fract_z
 _atom_site_occupancy
  Ho  Ho0  1  0.97466100  0.59601000  0.72228900  1
  Ho  Ho1  1  0.72228900  0.97466100  0.59601000  1
  Ho  Ho2  1  0.59601000  0.72228900  0.97466100  1
  Ho  Ho3  1  0.02533900  0.40399000  0.27771100  1
  Ho  Ho4  1  0.27771100  0.02533900  0.40399000  1
  Ho  Ho5  1  0.40399000  0.27771100  0.02533900  1
  Pd  Pd6  1  0.00000000  0.00000000  0.00000000  1
  Pd  Pd7  1  0.50000000  0.50000000  0.50000000  1
  Pd  Pd8  1  0.93746500  0.77310300  0.44834200  1
  Pd  Pd9  1  0.44834200  0.93746500  0.77310300  1
  Pd  Pd10  1  0.77310300  0.44834200  0.93746500  1
  Pd  Pd11  1  0.06253500  0.22689700  0.55165800  1
  Pd  Pd12  1  0.55165800  0.06253500  0.22689700  1
  Pd  Pd13  1  0.22689700  0.55165800  0.06253500  1
