# generated using pymatgen
data_Tm2MgNi2
_symmetry_space_group_name_H-M   'P 1'
_cell_length_a   7.23625400
_cell_length_b   7.23625400
_cell_length_c   3.71117800
_cell_angle_alpha   90.00000000
_cell_angle_beta   90.00000000
_cell_angle_gamma   90.00000000
_symmetry_Int_Tables_number   1
_chemical_formula_structural   Tm2MgNi2
_chemical_formula_sum   'Tm4 Mg2 Ni4'
_cell_volume   194.32979400
_cell_formula_units_Z   2
loop_
 _symmetry_equiv_pos_site_id
 _symmetry_equiv_pos_as_xyz
  1  'x, y, z'
loop_
 _atom_site_type_symbol
 _atom_site_label
 _atom_site_symmetry_multiplicity
 _atom_site_fract_x
 _atom_site_fract_y
 _atom_site_fract_z
 _atom_site_occupancy
  Tm  Tm0  1  0.67397200  0.17397200  0.50000000  1
  Tm  Tm1  1  0.32602800  0.82602800  0.50000000  1
  Tm  Tm2  1  0.17397200  0.32602800  0.50000000  1
  Tm  Tm3  1  0.82602800  0.67397200  0.50000000  1
  Mg  Mg4  1  0.00000000  0.00000000  0.00000000  1
  Mg  Mg5  1  0.50000000  0.50000000  0.00000000  1
  Ni  Ni6  1  0.11933700  0.61933700  0.00000000  1
  Ni  Ni7  1  0.88066300  0.38066300  0.00000000  1
  Ni  Ni8  1  0.61933700  0.88066300  0.00000000  1
  Ni  Ni9  1  0.38066300  0.11933700  0.00000000  1
