# generated using pymatgen
data_Ce4CI6N
_symmetry_space_group_name_H-M   'P 1'
_cell_length_a   14.08859900
_cell_length_b   14.08859900
_cell_length_c   9.61645300
_cell_angle_alpha   90.00000000
_cell_angle_beta   90.00000000
_cell_angle_gamma   90.00000000
_symmetry_Int_Tables_number   1
_chemical_formula_structural   Ce4CI6N
_chemical_formula_sum   'Ce16 C4 I24 N4'
_cell_volume   1908.75650241
_cell_formula_units_Z   4
loop_
 _symmetry_equiv_pos_site_id
 _symmetry_equiv_pos_as_xyz
  1  'x, y, z'
loop_
 _atom_site_type_symbol
 _atom_site_label
 _atom_site_symmetry_multiplicity
 _atom_site_fract_x
 _atom_site_fract_y
 _atom_site_fract_z
 _atom_site_occupancy
  Ce  Ce0  1  0.90989600  0.09010400  0.50000000  1
  Ce  Ce1  1  0.09010400  0.90989600  0.50000000  1
  Ce  Ce2  1  0.40989600  0.40989600  0.00000000  1
  Ce  Ce3  1  0.59010400  0.59010400  0.00000000  1
  Ce  Ce4  1  0.58690100  0.41309900  0.30922900  1
  Ce  Ce5  1  0.41309900  0.58690100  0.30922900  1
  Ce  Ce6  1  0.08690100  0.08690100  0.80922900  1
  Ce  Ce7  1  0.91309900  0.91309900  0.80922900  1
  Ce  Ce8  1  0.41309900  0.58690100  0.69077100  1
  Ce  Ce9  1  0.58690100  0.41309900  0.69077100  1
  Ce  Ce10  1  0.91309900  0.91309900  0.19077100  1
  Ce  Ce11  1  0.08690100  0.08690100  0.19077100  1
  Ce  Ce12  1  0.34750200  0.34750200  0.50000000  1
  Ce  Ce13  1  0.65249800  0.65249800  0.50000000  1
  Ce  Ce14  1  0.84750200  0.15249800  0.00000000  1
  Ce  Ce15  1  0.15249800  0.84750200  0.00000000  1
  C  C16  1  0.46417400  0.46417400  0.50000000  1
  C  C17  1  0.53582600  0.53582600  0.50000000  1
  C  C18  1  0.96417400  0.03582600  0.00000000  1
  C  C19  1  0.03582600  0.96417400  0.00000000  1
  I  I20  1  0.71949200  0.28050800  0.50000000  1
  I  I21  1  0.28050800  0.71949200  0.50000000  1
  I  I22  1  0.21949200  0.21949200  0.00000000  1
  I  I23  1  0.78050800  0.78050800  0.00000000  1
  I  I24  1  0.17093300  0.17093300  0.50000000  1
  I  I25  1  0.82906700  0.82906700  0.50000000  1
  I  I26  1  0.67093300  0.32906700  0.00000000  1
  I  I27  1  0.32906700  0.67093300  0.00000000  1
  I  I28  1  0.73596700  0.04934800  0.24834200  1
  I  I29  1  0.26403300  0.95065200  0.24834200  1
  I  I30  1  0.23596700  0.45065200  0.74834200  1
  I  I31  1  0.76403300  0.54934800  0.74834200  1
  I  I32  1  0.26403300  0.95065200  0.75165800  1
  I  I33  1  0.73596700  0.04934800  0.75165800  1
  I  I34  1  0.76403300  0.54934800  0.25165800  1
  I  I35  1  0.23596700  0.45065200  0.25165800  1
  I  I36  1  0.04934800  0.73596700  0.24834200  1
  I  I37  1  0.95065200  0.26403300  0.24834200  1
  I  I38  1  0.45065200  0.23596700  0.74834200  1
  I  I39  1  0.54934800  0.76403300  0.74834200  1
  I  I40  1  0.95065200  0.26403300  0.75165800  1
  I  I41  1  0.04934800  0.73596700  0.75165800  1
  I  I42  1  0.54934800  0.76403300  0.25165800  1
  I  I43  1  0.45065200  0.23596700  0.25165800  1
  N  N44  1  0.50000000  0.50000000  0.15158600  1
  N  N45  1  0.00000000  0.00000000  0.65158600  1
  N  N46  1  0.50000000  0.50000000  0.84841400  1
  N  N47  1  0.00000000  0.00000000  0.34841400  1
