# generated using pymatgen
data_CsGdCdTe3
_symmetry_space_group_name_H-M   'P 1'
_cell_length_a   8.83970524
_cell_length_b   8.83970524
_cell_length_c   11.97362600
_cell_angle_alpha   90.00000000
_cell_angle_beta   90.00000000
_cell_angle_gamma   149.71678645
_symmetry_Int_Tables_number   1
_chemical_formula_structural   CsGdCdTe3
_chemical_formula_sum   'Cs2 Gd2 Cd2 Te6'
_cell_volume   471.81135514
_cell_formula_units_Z   2
loop_
 _symmetry_equiv_pos_site_id
 _symmetry_equiv_pos_as_xyz
  1  'x, y, z'
loop_
 _atom_site_type_symbol
 _atom_site_label
 _atom_site_symmetry_multiplicity
 _atom_site_fract_x
 _atom_site_fract_y
 _atom_site_fract_z
 _atom_site_occupancy
  Cs  Cs0  1  0.25212700  0.74787300  0.25000000  1
  Cs  Cs1  1  0.74787300  0.25212700  0.75000000  1
  Gd  Gd2  1  0.00000000  0.00000000  0.00000000  1
  Gd  Gd3  1  0.00000000  0.00000000  0.50000000  1
  Cd  Cd4  1  0.54030300  0.45969700  0.25000000  1
  Cd  Cd5  1  0.45969700  0.54030300  0.75000000  1
  Te  Te6  1  0.62279700  0.37720300  0.04686800  1
  Te  Te7  1  0.37720300  0.62279700  0.95313200  1
  Te  Te8  1  0.62279700  0.37720300  0.45313200  1
  Te  Te9  1  0.37720300  0.62279700  0.54686800  1
  Te  Te10  1  0.93656800  0.06343200  0.25000000  1
  Te  Te11  1  0.06343200  0.93656800  0.75000000  1
