# generated using pymatgen
data_BaYb2Si3O10
_symmetry_space_group_name_H-M   'P 1'
_cell_length_a   12.21456000
_cell_length_b   5.55063300
_cell_length_c   7.02073854
_cell_angle_alpha   73.99245077
_cell_angle_beta   90.00000000
_cell_angle_gamma   90.00000000
_symmetry_Int_Tables_number   1
_chemical_formula_structural   BaYb2Si3O10
_chemical_formula_sum   'Ba2 Yb4 Si6 O20'
_cell_volume   457.53925953
_cell_formula_units_Z   2
loop_
 _symmetry_equiv_pos_site_id
 _symmetry_equiv_pos_as_xyz
  1  'x, y, z'
loop_
 _atom_site_type_symbol
 _atom_site_label
 _atom_site_symmetry_multiplicity
 _atom_site_fract_x
 _atom_site_fract_y
 _atom_site_fract_z
 _atom_site_occupancy
  Ba  Ba0  1  0.25000000  0.25093600  0.99833500  1
  Ba  Ba1  1  0.75000000  0.74906400  0.00166500  1
  Yb  Yb2  1  0.10350300  0.85406500  0.67371900  1
  Yb  Yb3  1  0.60350300  0.14593500  0.32628100  1
  Yb  Yb4  1  0.89649700  0.14593500  0.32628100  1
  Yb  Yb5  1  0.39649700  0.85406500  0.67371900  1
  Si  Si6  1  0.25000000  0.41422000  0.48874700  1
  Si  Si7  1  0.75000000  0.58578000  0.51125300  1
  Si  Si8  1  0.06471500  0.69304200  0.21758200  1
  Si  Si9  1  0.56471500  0.30695800  0.78241800  1
  Si  Si10  1  0.93528500  0.30695800  0.78241800  1
  Si  Si11  1  0.43528500  0.69304200  0.21758200  1
  O  O12  1  0.25000000  0.61685300  0.61667300  1
  O  O13  1  0.75000000  0.38314700  0.38332700  1
  O  O14  1  0.25000000  0.13017200  0.63324600  1
  O  O15  1  0.75000000  0.86982800  0.36675400  1
  O  O16  1  0.14291500  0.44959500  0.33656500  1
  O  O17  1  0.64291500  0.55040500  0.66343500  1
  O  O18  1  0.85708500  0.55040500  0.66343500  1
  O  O19  1  0.35708500  0.44959500  0.33656500  1
  O  O20  1  0.94625600  0.57420100  0.18062700  1
  O  O21  1  0.44625600  0.42579900  0.81937300  1
  O  O22  1  0.05374400  0.42579900  0.81937300  1
  O  O23  1  0.55374400  0.57420100  0.18062700  1
  O  O24  1  0.12373400  0.82245500  0.00612200  1
  O  O25  1  0.62373400  0.17754500  0.99387800  1
  O  O26  1  0.87626600  0.17754500  0.99387800  1
  O  O27  1  0.37626600  0.82245500  0.00612200  1
  O  O28  1  0.04936000  0.88583000  0.35161800  1
  O  O29  1  0.54936000  0.11417000  0.64838200  1
  O  O30  1  0.95064000  0.11417000  0.64838200  1
  O  O31  1  0.45064000  0.88583000  0.35161800  1
