# generated using pymatgen
data_Ti2AlSi3
_symmetry_space_group_name_H-M   'P 1'
_cell_length_a   3.63888100
_cell_length_b   3.60109400
_cell_length_c   7.00359117
_cell_angle_alpha   90.00000000
_cell_angle_beta   74.94259258
_cell_angle_gamma   90.00000000
_symmetry_Int_Tables_number   1
_chemical_formula_structural   Ti2AlSi3
_chemical_formula_sum   'Ti2 Al1 Si3'
_cell_volume   88.62373451
_cell_formula_units_Z   1
loop_
 _symmetry_equiv_pos_site_id
 _symmetry_equiv_pos_as_xyz
  1  'x, y, z'
loop_
 _atom_site_type_symbol
 _atom_site_label
 _atom_site_symmetry_multiplicity
 _atom_site_fract_x
 _atom_site_fract_y
 _atom_site_fract_z
 _atom_site_occupancy
  Ti  Ti0  1  0.09688900  0.75000000  0.80622100  1
  Ti  Ti1  1  0.90354800  0.25000000  0.19290300  1
  Al  Al2  1  0.75060200  0.75000000  0.49879600  1
  Si  Si3  1  0.24942900  0.25000000  0.50114100  1
  Si  Si4  1  0.43783500  0.75000000  0.12433000  1
  Si  Si5  1  0.56169600  0.25000000  0.87660800  1
