# generated using pymatgen
data_K2(TaS2)3
_symmetry_space_group_name_H-M   'P 1'
_cell_length_a   16.23747051
_cell_length_b   16.23747051
_cell_length_c   16.23746984
_cell_angle_alpha   20.89539750
_cell_angle_beta   20.89539750
_cell_angle_gamma   20.89539820
_symmetry_Int_Tables_number   1
_chemical_formula_structural   K2(TaS2)3
_chemical_formula_sum   'K4 Ta6 S12'
_cell_volume   476.85592068
_cell_formula_units_Z   2
loop_
 _symmetry_equiv_pos_site_id
 _symmetry_equiv_pos_as_xyz
  1  'x, y, z'
loop_
 _atom_site_type_symbol
 _atom_site_label
 _atom_site_symmetry_multiplicity
 _atom_site_fract_x
 _atom_site_fract_y
 _atom_site_fract_z
 _atom_site_occupancy
  K  K0  1  0.91647000  0.91647000  0.91647000  1
  K  K1  1  0.58312300  0.58312300  0.58312300  1
  K  K2  1  0.41687700  0.41687700  0.41687700  1
  K  K3  1  0.08353000  0.08353000  0.08353000  1
  Ta  Ta4  1  0.00000000  0.00000000  0.00000000  1
  Ta  Ta5  1  0.33333600  0.33333600  0.33333600  1
  Ta  Ta6  1  0.66666400  0.66666400  0.66666400  1
  Ta  Ta7  1  0.83283900  0.16716100  0.50000000  1
  Ta  Ta8  1  0.50000000  0.83283900  0.16716100  1
  Ta  Ta9  1  0.16716100  0.50000000  0.83283900  1
  S  S10  1  0.86788700  0.53104100  0.19836000  1
  S  S11  1  0.19836000  0.86788700  0.53104100  1
  S  S12  1  0.53104100  0.19836000  0.86788700  1
  S  S13  1  0.80164000  0.46895900  0.13211300  1
  S  S14  1  0.13211300  0.80164000  0.46895900  1
  S  S15  1  0.46895900  0.13211300  0.80164000  1
  S  S16  1  0.97004100  0.63270300  0.30046000  1
  S  S17  1  0.30046000  0.97004100  0.63270300  1
  S  S18  1  0.63270300  0.30046000  0.97004100  1
  S  S19  1  0.69954000  0.36729700  0.02995900  1
  S  S20  1  0.02995900  0.69954000  0.36729700  1
  S  S21  1  0.36729700  0.02995900  0.69954000  1
