# generated using pymatgen
data_ZrF4
_symmetry_space_group_name_H-M   'P 1'
_cell_length_a   5.70632500
_cell_length_b   5.65933000
_cell_length_c   8.09868783
_cell_angle_alpha   74.08859907
_cell_angle_beta   90.00000000
_cell_angle_gamma   90.00000000
_symmetry_Int_Tables_number   1
_chemical_formula_structural   ZrF4
_chemical_formula_sum   'Zr4 F16'
_cell_volume   251.51843701
_cell_formula_units_Z   4
loop_
 _symmetry_equiv_pos_site_id
 _symmetry_equiv_pos_as_xyz
  1  'x, y, z'
loop_
 _atom_site_type_symbol
 _atom_site_label
 _atom_site_symmetry_multiplicity
 _atom_site_fract_x
 _atom_site_fract_y
 _atom_site_fract_z
 _atom_site_occupancy
  Zr  Zr0  1  0.66744300  0.21152700  0.33014100  1
  Zr  Zr1  1  0.16744300  0.78847300  0.16985900  1
  Zr  Zr2  1  0.33255700  0.78847300  0.66985900  1
  Zr  Zr3  1  0.83255700  0.21152700  0.83014100  1
  F  F4  1  0.65627000  0.85892600  0.52097300  1
  F  F5  1  0.15627000  0.14107400  0.97902700  1
  F  F6  1  0.34373000  0.14107400  0.47902700  1
  F  F7  1  0.84373000  0.85892600  0.02097300  1
  F  F8  1  0.45953200  0.99588300  0.20798500  1
  F  F9  1  0.95953200  0.00411700  0.29201500  1
  F  F10  1  0.54046800  0.00411700  0.79201500  1
  F  F11  1  0.04046800  0.99588300  0.70798500  1
  F  F12  1  0.45930100  0.51691400  0.23431600  1
  F  F13  1  0.95930100  0.48308600  0.26568400  1
  F  F14  1  0.54069900  0.48308600  0.76568400  1
  F  F15  1  0.04069900  0.51691400  0.73431600  1
  F  F16  1  0.75823700  0.31439600  0.54737300  1
  F  F17  1  0.25823700  0.68560400  0.95262700  1
  F  F18  1  0.24176300  0.68560400  0.45262700  1
  F  F19  1  0.74176300  0.31439600  0.04737300  1
