# generated using pymatgen
data_KTlCl2
_symmetry_space_group_name_H-M   'P 1'
_cell_length_a   9.14610000
_cell_length_b   9.14610000
_cell_length_c   9.13979284
_cell_angle_alpha   120.02282294
_cell_angle_beta   120.02282294
_cell_angle_gamma   90.00000000
_symmetry_Int_Tables_number   1
_chemical_formula_structural   KTlCl2
_chemical_formula_sum   'K4 Tl4 Cl8'
_cell_volume   540.24820636
_cell_formula_units_Z   4
loop_
 _symmetry_equiv_pos_site_id
 _symmetry_equiv_pos_as_xyz
  1  'x, y, z'
loop_
 _atom_site_type_symbol
 _atom_site_label
 _atom_site_symmetry_multiplicity
 _atom_site_fract_x
 _atom_site_fract_y
 _atom_site_fract_z
 _atom_site_occupancy
  K  K0  1  0.62500000  0.87500000  0.25000000  1
  K  K1  1  0.62500000  0.37500000  0.25000000  1
  K  K2  1  0.62500000  0.37500000  0.75000000  1
  K  K3  1  0.12500000  0.37500000  0.75000000  1
  Tl  Tl4  1  0.12500000  0.37500000  0.25000000  1
  Tl  Tl5  1  0.12500000  0.87500000  0.25000000  1
  Tl  Tl6  1  0.12500000  0.87500000  0.75000000  1
  Tl  Tl7  1  0.62500000  0.87500000  0.75000000  1
  Cl  Cl8  1  0.38188400  0.12759500  0.25501700  1
  Cl  Cl9  1  0.87313300  0.12742200  0.25501700  1
  Cl  Cl10  1  0.37742200  0.13188400  0.75501700  1
  Cl  Cl11  1  0.86811600  0.62240500  0.24498300  1
  Cl  Cl12  1  0.37759500  0.62313300  0.75501700  1
  Cl  Cl13  1  0.37686700  0.62257800  0.24498300  1
  Cl  Cl14  1  0.87257800  0.61811600  0.74498300  1
  Cl  Cl15  1  0.87240500  0.12686700  0.74498300  1
