# generated using pymatgen
data_Li7La3(SnO6)2
_symmetry_space_group_name_H-M   'P 1'
_cell_length_a   11.30599355
_cell_length_b   11.30599355
_cell_length_c   11.30599355
_cell_angle_alpha   108.14150783
_cell_angle_beta   108.14150783
_cell_angle_gamma   112.16468886
_symmetry_Int_Tables_number   1
_chemical_formula_structural   Li7La3(SnO6)2
_chemical_formula_sum   'Li28 La12 Sn8 O48'
_cell_volume   1110.65756915
_cell_formula_units_Z   4
loop_
 _symmetry_equiv_pos_site_id
 _symmetry_equiv_pos_as_xyz
  1  'x, y, z'
loop_
 _atom_site_type_symbol
 _atom_site_label
 _atom_site_symmetry_multiplicity
 _atom_site_fract_x
 _atom_site_fract_y
 _atom_site_fract_z
 _atom_site_occupancy
  Li  Li0  1  0.50000000  0.50000000  0.00000000  1
  Li  Li1  1  0.00000000  0.00000000  0.00000000  1
  Li  Li2  1  0.25000000  0.75000000  0.50000000  1
  Li  Li3  1  0.75000000  0.25000000  0.50000000  1
  Li  Li4  1  0.39820100  0.97982100  0.74385700  1
  Li  Li5  1  0.73596400  0.47982100  0.58162000  1
  Li  Li6  1  0.72982100  0.64820100  0.24385700  1
  Li  Li7  1  0.90434400  0.14820100  0.91838000  1
  Li  Li8  1  0.85179900  0.77017900  0.75614300  1
  Li  Li9  1  0.51403600  0.27017900  0.91838000  1
  Li  Li10  1  0.52017900  0.10179900  0.25614300  1
  Li  Li11  1  0.34565600  0.60179900  0.58162000  1
  Li  Li12  1  0.89820100  0.15434400  0.41838000  1
  Li  Li13  1  0.23596400  0.65434400  0.25614300  1
  Li  Li14  1  0.22982100  0.98596400  0.08162000  1
  Li  Li15  1  0.40434400  0.48596400  0.75614300  1
  Li  Li16  1  0.35179900  0.59565600  0.08162000  1
  Li  Li17  1  0.01403600  0.09565600  0.24385700  1
  Li  Li18  1  0.02017900  0.76403600  0.41838000  1
  Li  Li19  1  0.84565600  0.26403600  0.74385700  1
  Li  Li20  1  0.92840300  0.92840300  0.35680600  1
  Li  Li21  1  0.07159700  0.42840300  0.00000000  1
  Li  Li22  1  0.67840300  0.17840300  0.85680600  1
  Li  Li23  1  0.82159700  0.67840300  0.50000000  1
  Li  Li24  1  0.32159700  0.82159700  0.14319400  1
  Li  Li25  1  0.17840300  0.32159700  0.50000000  1
  Li  Li26  1  0.57159700  0.57159700  0.64319400  1
  Li  Li27  1  0.42840300  0.07159700  0.00000000  1
  La  La28  1  0.37500000  0.75211900  0.87711900  1
  La  La29  1  0.37500000  0.25211900  0.37711900  1
  La  La30  1  0.50211900  0.62500000  0.37711900  1
  La  La31  1  0.74788100  0.12500000  0.12288100  1
  La  La32  1  0.87500000  0.99788100  0.62288100  1
  La  La33  1  0.87500000  0.49788100  0.12288100  1
  La  La34  1  0.00211900  0.62500000  0.87711900  1
  La  La35  1  0.24788100  0.12500000  0.62288100  1
  La  La36  1  0.75000000  0.75000000  0.00000000  1
  La  La37  1  0.25000000  0.25000000  0.00000000  1
  La  La38  1  0.50000000  0.00000000  0.50000000  1
  La  La39  1  0.00000000  0.50000000  0.50000000  1
  Sn  Sn40  1  0.62500000  0.87500000  0.75000000  1
  Sn  Sn41  1  0.62500000  0.37500000  0.25000000  1
  Sn  Sn42  1  0.62500000  0.87500000  0.25000000  1
  Sn  Sn43  1  0.12500000  0.37500000  0.25000000  1
  Sn  Sn44  1  0.12500000  0.37500000  0.75000000  1
  Sn  Sn45  1  0.12500000  0.87500000  0.25000000  1
  Sn  Sn46  1  0.12500000  0.87500000  0.75000000  1
  Sn  Sn47  1  0.62500000  0.37500000  0.75000000  1
  O  O48  1  0.52562400  0.95203400  0.12632900  1
  O  O49  1  0.32570400  0.45203400  0.42640900  1
  O  O50  1  0.70203400  0.77562400  0.62632900  1
  O  O51  1  0.64929500  0.27562400  0.07359100  1
  O  O52  1  0.72437600  0.79796600  0.37367100  1
  O  O53  1  0.92429600  0.29796600  0.07359100  1
  O  O54  1  0.54796600  0.97437600  0.87367100  1
  O  O55  1  0.60070500  0.47437600  0.42640900  1
  O  O56  1  0.02562400  0.89929500  0.57359100  1
  O  O57  1  0.82570400  0.39929500  0.87367100  1
  O  O58  1  0.20203400  0.57570400  0.92640900  1
  O  O59  1  0.14929500  0.07570400  0.37367100  1
  O  O60  1  0.22437600  0.85070500  0.92640900  1
  O  O61  1  0.42429600  0.35070500  0.62632900  1
  O  O62  1  0.04796600  0.17429600  0.57359100  1
  O  O63  1  0.10070500  0.67429600  0.12632900  1
  O  O64  1  0.81252100  0.97391200  0.22868100  1
  O  O65  1  0.24523200  0.47391200  0.16139200  1
  O  O66  1  0.72391200  0.06252100  0.72868100  1
  O  O67  1  0.83384000  0.56252100  0.33860800  1
  O  O68  1  0.43747900  0.77608800  0.27131900  1
  O  O69  1  0.00476800  0.27608800  0.33860800  1
  O  O70  1  0.52608800  0.68747900  0.77131900  1
  O  O71  1  0.41616000  0.18747900  0.16139200  1
  O  O72  1  0.31252100  0.08384000  0.83860800  1
  O  O73  1  0.74523200  0.58384000  0.77131900  1
  O  O74  1  0.22391200  0.49523200  0.66139200  1
  O  O75  1  0.33384000  0.99523200  0.27131900  1
  O  O76  1  0.93747900  0.66616000  0.66139200  1
  O  O77  1  0.50476800  0.16616000  0.72868100  1
  O  O78  1  0.02608800  0.25476800  0.83860800  1
  O  O79  1  0.91616000  0.75476800  0.22868100  1
  O  O80  1  0.53715400  0.69411500  0.05162300  1
  O  O81  1  0.14249200  0.19411500  0.15696000  1
  O  O82  1  0.44411500  0.78715400  0.55162300  1
  O  O83  1  0.73553100  0.28715400  0.34304000  1
  O  O84  1  0.71284600  0.05588500  0.44837700  1
  O  O85  1  0.10750800  0.55588500  0.34304000  1
  O  O86  1  0.80588500  0.96284600  0.94837700  1
  O  O87  1  0.51446900  0.46284600  0.15696000  1
  O  O88  1  0.03715400  0.98553100  0.84304000  1
  O  O89  1  0.64249200  0.48553100  0.94837700  1
  O  O90  1  0.94411500  0.39249200  0.65696000  1
  O  O91  1  0.23553100  0.89249200  0.44837700  1
  O  O92  1  0.21284600  0.76446900  0.65696000  1
  O  O93  1  0.60750800  0.26446900  0.55162300  1
  O  O94  1  0.30588500  0.35750800  0.84304000  1
  O  O95  1  0.01446900  0.85750800  0.05162300  1
