# generated using pymatgen
data_Dy2C
_symmetry_space_group_name_H-M   'P 1'
_cell_length_a   6.49340870
_cell_length_b   6.49340870
_cell_length_c   6.49340835
_cell_angle_alpha   32.12275833
_cell_angle_beta   32.12275833
_cell_angle_gamma   32.12276405
_symmetry_Int_Tables_number   1
_chemical_formula_structural   Dy2C
_chemical_formula_sum   'Dy2 C1'
_cell_volume   68.79347763
_cell_formula_units_Z   1
loop_
 _symmetry_equiv_pos_site_id
 _symmetry_equiv_pos_as_xyz
  1  'x, y, z'
loop_
 _atom_site_type_symbol
 _atom_site_label
 _atom_site_symmetry_multiplicity
 _atom_site_fract_x
 _atom_site_fract_y
 _atom_site_fract_z
 _atom_site_occupancy
  Dy  Dy0  1  0.26027000  0.26027000  0.26027000  1
  Dy  Dy1  1  0.73973000  0.73973000  0.73973000  1
  C  C2  1  0.00000000  0.00000000  0.00000000  1
