# generated using pymatgen
data_Pr2(MoO4)3
_symmetry_space_group_name_H-M   'P 1'
_cell_length_a   7.66621200
_cell_length_b   7.66621200
_cell_length_c   11.04382300
_cell_angle_alpha   90.00000000
_cell_angle_beta   90.00000000
_cell_angle_gamma   90.00000000
_symmetry_Int_Tables_number   1
_chemical_formula_structural   Pr2(MoO4)3
_chemical_formula_sum   'Pr4 Mo6 O24'
_cell_volume   649.05438377
_cell_formula_units_Z   2
loop_
 _symmetry_equiv_pos_site_id
 _symmetry_equiv_pos_as_xyz
  1  'x, y, z'
loop_
 _atom_site_type_symbol
 _atom_site_label
 _atom_site_symmetry_multiplicity
 _atom_site_fract_x
 _atom_site_fract_y
 _atom_site_fract_z
 _atom_site_occupancy
  Pr  Pr0  1  0.18849400  0.68849400  0.73839000  1
  Pr  Pr1  1  0.81150600  0.31150600  0.73839000  1
  Pr  Pr2  1  0.68849400  0.81150600  0.26161000  1
  Pr  Pr3  1  0.31150600  0.18849400  0.26161000  1
  Mo  Mo4  1  0.20808300  0.70808300  0.35687800  1
  Mo  Mo5  1  0.79191700  0.29191700  0.35687800  1
  Mo  Mo6  1  0.70808300  0.79191700  0.64312200  1
  Mo  Mo7  1  0.29191700  0.20808300  0.64312200  1
  Mo  Mo8  1  0.00000000  0.00000000  0.00000000  1
  Mo  Mo9  1  0.50000000  0.50000000  0.00000000  1
  O  O10  1  0.99946800  0.22623200  0.29942700  1
  O  O11  1  0.00053200  0.77376800  0.29942700  1
  O  O12  1  0.22623200  0.00053200  0.70057300  1
  O  O13  1  0.50053200  0.72623200  0.70057300  1
  O  O14  1  0.77376800  0.99946800  0.70057300  1
  O  O15  1  0.49946800  0.27376800  0.70057300  1
  O  O16  1  0.27376800  0.50053200  0.29942700  1
  O  O17  1  0.72623200  0.49946800  0.29942700  1
  O  O18  1  0.18600100  0.04020300  0.09462800  1
  O  O19  1  0.81399900  0.95979700  0.09462800  1
  O  O20  1  0.04020300  0.81399900  0.90537200  1
  O  O21  1  0.31399900  0.54020300  0.90537200  1
  O  O22  1  0.95979700  0.18600100  0.90537200  1
  O  O23  1  0.68600100  0.45979700  0.90537200  1
  O  O24  1  0.45979700  0.31399900  0.09462800  1
  O  O25  1  0.54020300  0.68600100  0.09462800  1
  O  O26  1  0.62922300  0.12922300  0.31163000  1
  O  O27  1  0.37077700  0.87077700  0.31163000  1
  O  O28  1  0.12922300  0.37077700  0.68837000  1
  O  O29  1  0.87077700  0.62922300  0.68837000  1
  O  O30  1  0.19549300  0.69549300  0.51771100  1
  O  O31  1  0.80450700  0.30450700  0.51771100  1
  O  O32  1  0.69549300  0.80450700  0.48228900  1
  O  O33  1  0.30450700  0.19549300  0.48228900  1
