# generated using pymatgen
data_Na2Y2B2TeO10
_symmetry_space_group_name_H-M   'P 1'
_cell_length_a   10.07531900
_cell_length_b   6.38790200
_cell_length_c   6.81485718
_cell_angle_alpha   75.76800329
_cell_angle_beta   90.00000000
_cell_angle_gamma   90.00000000
_symmetry_Int_Tables_number   1
_chemical_formula_structural   Na2Y2B2TeO10
_chemical_formula_sum   'Na4 Y4 B4 Te2 O20'
_cell_volume   425.14365236
_cell_formula_units_Z   2
loop_
 _symmetry_equiv_pos_site_id
 _symmetry_equiv_pos_as_xyz
  1  'x, y, z'
loop_
 _atom_site_type_symbol
 _atom_site_label
 _atom_site_symmetry_multiplicity
 _atom_site_fract_x
 _atom_site_fract_y
 _atom_site_fract_z
 _atom_site_occupancy
  Na  Na0  1  0.61082000  0.41574200  0.16608500  1
  Na  Na1  1  0.11082000  0.58425800  0.33391500  1
  Na  Na2  1  0.38918000  0.58425800  0.83391500  1
  Na  Na3  1  0.88918000  0.41574200  0.66608500  1
  Y  Y4  1  0.83393900  0.87306800  0.02379400  1
  Y  Y5  1  0.33393900  0.12693200  0.47620600  1
  Y  Y6  1  0.16606100  0.12693200  0.97620600  1
  Y  Y7  1  0.66606100  0.87306800  0.52379400  1
  B  B8  1  0.39967100  0.66356400  0.37190000  1
  B  B9  1  0.89967100  0.33643600  0.12810000  1
  B  B10  1  0.60032900  0.33643600  0.62810000  1
  B  B11  1  0.10032900  0.66356400  0.87190000  1
  Te  Te12  1  0.50000000  0.00000000  0.00000000  1
  Te  Te13  1  0.00000000  0.00000000  0.50000000  1
  O  O14  1  0.82705800  0.51834700  0.05679500  1
  O  O15  1  0.32705800  0.48165300  0.44320500  1
  O  O16  1  0.17294200  0.48165300  0.94320500  1
  O  O17  1  0.67294200  0.51834700  0.55679500  1
  O  O18  1  0.65006800  0.00499700  0.17704200  1
  O  O19  1  0.15006800  0.99500300  0.32295800  1
  O  O20  1  0.34993200  0.99500300  0.82295800  1
  O  O21  1  0.84993200  0.00499700  0.67704200  1
  O  O22  1  0.43830900  0.70992000  0.16429900  1
  O  O23  1  0.93830900  0.29008000  0.33570100  1
  O  O24  1  0.56169100  0.29008000  0.83570100  1
  O  O25  1  0.06169100  0.70992000  0.66429900  1
  O  O26  1  0.93756700  0.20031500  0.00889600  1
  O  O27  1  0.43756700  0.79968500  0.49110400  1
  O  O28  1  0.06243300  0.79968500  0.99110400  1
  O  O29  1  0.56243300  0.20031500  0.50889600  1
  O  O30  1  0.38489600  0.16254600  0.13453600  1
  O  O31  1  0.88489600  0.83745400  0.36546400  1
  O  O32  1  0.61510400  0.83745400  0.86546400  1
  O  O33  1  0.11510400  0.16254600  0.63453600  1
