# generated using pymatgen
data_NaMg4(AsO4)3
_symmetry_space_group_name_H-M   'P 1'
_cell_length_a   10.90760956
_cell_length_b   10.90760956
_cell_length_c   10.90760956
_cell_angle_alpha   143.08880523
_cell_angle_beta   143.08880523
_cell_angle_gamma   53.19205269
_symmetry_Int_Tables_number   1
_chemical_formula_structural   NaMg4(AsO4)3
_chemical_formula_sum   'Na2 Mg8 As6 O24'
_cell_volume   465.17330100
_cell_formula_units_Z   2
loop_
 _symmetry_equiv_pos_site_id
 _symmetry_equiv_pos_as_xyz
  1  'x, y, z'
loop_
 _atom_site_type_symbol
 _atom_site_label
 _atom_site_symmetry_multiplicity
 _atom_site_fract_x
 _atom_site_fract_y
 _atom_site_fract_z
 _atom_site_occupancy
  Na  Na0  1  0.25000000  0.75000000  0.50000000  1
  Na  Na1  1  0.50000000  0.50000000  0.00000000  1
  Mg  Mg2  1  0.37500000  0.88191000  0.00691000  1
  Mg  Mg3  1  0.11809000  0.12500000  0.49309000  1
  Mg  Mg4  1  0.63191000  0.62500000  0.50691000  1
  Mg  Mg5  1  0.87500000  0.36809000  0.99309000  1
  Mg  Mg6  1  0.77003300  0.77003300  0.00000000  1
  Mg  Mg7  1  0.22996700  0.22996700  0.00000000  1
  Mg  Mg8  1  0.97996700  0.47996700  0.50000000  1
  Mg  Mg9  1  0.52003300  0.02003300  0.50000000  1
  As  As10  1  0.37500000  0.46883800  0.59383800  1
  As  As11  1  0.53116200  0.12500000  0.90616200  1
  As  As12  1  0.21883800  0.62500000  0.09383800  1
  As  As13  1  0.87500000  0.78116200  0.40616200  1
  As  As14  1  0.75000000  0.25000000  0.50000000  1
  As  As15  1  0.00000000  0.00000000  0.00000000  1
  O  O16  1  0.73463100  0.50174900  0.64836600  1
  O  O17  1  0.85338300  0.08626400  0.35163400  1
  O  O18  1  0.25174900  0.98463100  0.14836600  1
  O  O19  1  0.91373600  0.26536900  0.76711800  1
  O  O20  1  0.49825100  0.14661700  0.23288200  1
  O  O21  1  0.01536900  0.16373600  0.26711800  1
  O  O22  1  0.89661700  0.74825100  0.73288200  1
  O  O23  1  0.83626400  0.10338300  0.85163400  1
  O  O24  1  0.07119500  0.80317300  0.17740200  1
  O  O25  1  0.62577200  0.89379300  0.82259800  1
  O  O26  1  0.55317300  0.32119500  0.67740200  1
  O  O27  1  0.10620700  0.92880500  0.73197900  1
  O  O28  1  0.19682700  0.37422800  0.26802100  1
  O  O29  1  0.67880500  0.35620700  0.23197900  1
  O  O30  1  0.12422800  0.44682700  0.76802100  1
  O  O31  1  0.64379300  0.87577200  0.32259800  1
  O  O32  1  0.85633600  0.55146600  0.28853100  1
  O  O33  1  0.44853400  0.73706500  0.30487000  1
  O  O34  1  0.43219500  0.14366400  0.69513000  1
  O  O35  1  0.48706500  0.69853400  0.80487000  1
  O  O36  1  0.89366400  0.68219500  0.19513000  1
  O  O37  1  0.26293500  0.56780500  0.71146900  1
  O  O38  1  0.30146600  0.10633600  0.78853100  1
  O  O39  1  0.31780500  0.51293500  0.21146900  1
