# generated using pymatgen
data_LaVO3
_symmetry_space_group_name_H-M   'P 1'
_cell_length_a   5.67741363
_cell_length_b   7.94167489
_cell_length_c   5.59090362
_cell_angle_alpha   90.05340868
_cell_angle_beta   90.11474443
_cell_angle_gamma   90.00267443
_symmetry_Int_Tables_number   1
_chemical_formula_structural   LaVO3
_chemical_formula_sum   'La4 V4 O12'
_cell_volume   252.08301564
_cell_formula_units_Z   4
loop_
 _symmetry_equiv_pos_site_id
 _symmetry_equiv_pos_as_xyz
  1  'x, y, z'
loop_
 _atom_site_type_symbol
 _atom_site_label
 _atom_site_symmetry_multiplicity
 _atom_site_fract_x
 _atom_site_fract_y
 _atom_site_fract_z
 _atom_site_occupancy
  La  La0  1  0.95617400  0.74984300  0.01127500  1
  La  La1  1  0.54373200  0.24986400  0.51126400  1
  La  La2  1  0.45626700  0.75013500  0.48874800  1
  La  La3  1  0.04383400  0.25015600  0.98872300  1
  V  V4  1  0.50000800  0.50003800  0.99996100  1
  V  V5  1  0.49999200  0.99997500  0.99994800  1
  V  V6  1  0.99995700  0.50002800  0.50004800  1
  V  V7  1  0.00001800  0.99995500  0.50001200  1
  O  O8  1  0.48160500  0.24989900  0.08740100  1
  O  O9  1  0.01887300  0.74984700  0.58718500  1
  O  O10  1  0.98112900  0.25015500  0.41282000  1
  O  O11  1  0.51839600  0.75010100  0.91260100  1
  O  O12  1  0.21395500  0.95470400  0.20756100  1
  O  O13  1  0.28578300  0.04530700  0.70768100  1
  O  O14  1  0.71383000  0.54547200  0.29201000  1
  O  O15  1  0.78595900  0.45456300  0.79224200  1
  O  O16  1  0.78605200  0.04529400  0.79244100  1
  O  O17  1  0.71422000  0.95468800  0.29232400  1
  O  O18  1  0.28617200  0.45453500  0.70799400  1
  O  O19  1  0.21404400  0.54544200  0.20776100  1
