# generated using pymatgen
data_TmB7Mo3
_symmetry_space_group_name_H-M   'P 1'
_cell_length_a   3.10328100
_cell_length_b   11.04587700
_cell_length_c   12.83925000
_cell_angle_alpha   90.00000000
_cell_angle_beta   90.00000000
_cell_angle_gamma   90.00000000
_symmetry_Int_Tables_number   1
_chemical_formula_structural   TmB7Mo3
_chemical_formula_sum   'Tm4 B28 Mo12'
_cell_volume   440.10972041
_cell_formula_units_Z   4
loop_
 _symmetry_equiv_pos_site_id
 _symmetry_equiv_pos_as_xyz
  1  'x, y, z'
loop_
 _atom_site_type_symbol
 _atom_site_label
 _atom_site_symmetry_multiplicity
 _atom_site_fract_x
 _atom_site_fract_y
 _atom_site_fract_z
 _atom_site_occupancy
  Tm  Tm0  1  0.75000000  0.55248500  0.30778500  1
  Tm  Tm1  1  0.25000000  0.44751500  0.69221500  1
  Tm  Tm2  1  0.25000000  0.94751500  0.80778500  1
  Tm  Tm3  1  0.75000000  0.05248500  0.19221500  1
  B  B4  1  0.75000000  0.74915600  0.17386900  1
  B  B5  1  0.25000000  0.25084400  0.82613100  1
  B  B6  1  0.25000000  0.75084400  0.67386900  1
  B  B7  1  0.75000000  0.24915600  0.32613100  1
  B  B8  1  0.75000000  0.93242600  0.38371300  1
  B  B9  1  0.25000000  0.06757400  0.61628700  1
  B  B10  1  0.25000000  0.56757400  0.88371300  1
  B  B11  1  0.75000000  0.43242600  0.11628700  1
  B  B12  1  0.75000000  0.98908600  0.63905100  1
  B  B13  1  0.25000000  0.01091400  0.36094900  1
  B  B14  1  0.25000000  0.51091400  0.13905100  1
  B  B15  1  0.75000000  0.48908600  0.86094900  1
  B  B16  1  0.75000000  0.76880300  0.41774500  1
  B  B17  1  0.25000000  0.23119700  0.58225500  1
  B  B18  1  0.25000000  0.73119700  0.91774500  1
  B  B19  1  0.75000000  0.26880300  0.08225500  1
  B  B20  1  0.75000000  0.96274100  0.98124600  1
  B  B21  1  0.25000000  0.03725900  0.01875400  1
  B  B22  1  0.25000000  0.53725900  0.48124600  1
  B  B23  1  0.75000000  0.46274100  0.51875400  1
  B  B24  1  0.75000000  0.81437300  0.93273800  1
  B  B25  1  0.25000000  0.18562700  0.06726200  1
  B  B26  1  0.25000000  0.68562700  0.43273800  1
  B  B27  1  0.75000000  0.31437300  0.56726200  1
  B  B28  1  0.75000000  0.83479800  0.66820900  1
  B  B29  1  0.25000000  0.16520200  0.33179100  1
  B  B30  1  0.25000000  0.66520200  0.16820900  1
  B  B31  1  0.75000000  0.33479800  0.83179100  1
  Mo  Mo32  1  0.75000000  0.11805900  0.47307500  1
  Mo  Mo33  1  0.25000000  0.88194100  0.52692500  1
  Mo  Mo34  1  0.25000000  0.38194100  0.97307500  1
  Mo  Mo35  1  0.75000000  0.61805900  0.02692500  1
  Mo  Mo36  1  0.75000000  0.65890900  0.56467400  1
  Mo  Mo37  1  0.25000000  0.34109100  0.43532600  1
  Mo  Mo38  1  0.25000000  0.84109100  0.06467400  1
  Mo  Mo39  1  0.75000000  0.15890900  0.93532600  1
  Mo  Mo40  1  0.75000000  0.68448800  0.79805500  1
  Mo  Mo41  1  0.25000000  0.31551200  0.20194500  1
  Mo  Mo42  1  0.25000000  0.81551200  0.29805500  1
  Mo  Mo43  1  0.75000000  0.18448800  0.70194500  1
