# generated using pymatgen
data_La12(ReC3)5
_symmetry_space_group_name_H-M   'P 1'
_cell_length_a   11.22490398
_cell_length_b   11.22490398
_cell_length_c   5.46479600
_cell_angle_alpha   90.00000000
_cell_angle_beta   90.00000000
_cell_angle_gamma   119.99999990
_symmetry_Int_Tables_number   1
_chemical_formula_structural   La12(ReC3)5
_chemical_formula_sum   'La12 Re5 C15'
_cell_volume   596.30692945
_cell_formula_units_Z   1
loop_
 _symmetry_equiv_pos_site_id
 _symmetry_equiv_pos_as_xyz
  1  'x, y, z'
loop_
 _atom_site_type_symbol
 _atom_site_label
 _atom_site_symmetry_multiplicity
 _atom_site_fract_x
 _atom_site_fract_y
 _atom_site_fract_z
 _atom_site_occupancy
  La  La0  1  0.79472500  0.00000000  0.50000000  1
  La  La1  1  0.00000000  0.79472500  0.50000000  1
  La  La2  1  0.20527500  0.20527500  0.50000000  1
  La  La3  1  0.27066500  0.45736100  0.00000000  1
  La  La4  1  0.54263900  0.81330500  0.00000000  1
  La  La5  1  0.45736100  0.27066500  0.00000000  1
  La  La6  1  0.18669500  0.72933500  0.00000000  1
  La  La7  1  0.81330500  0.54263900  0.00000000  1
  La  La8  1  0.72933500  0.18669500  0.00000000  1
  La  La9  1  0.42001200  0.00000000  0.50000000  1
  La  La10  1  0.00000000  0.42001200  0.50000000  1
  La  La11  1  0.57998800  0.57998800  0.50000000  1
  Re  Re12  1  0.15273600  0.00000000  0.00000000  1
  Re  Re13  1  0.00000000  0.15273600  0.00000000  1
  Re  Re14  1  0.84726400  0.84726400  0.00000000  1
  Re  Re15  1  0.33333300  0.66666700  0.50000000  1
  Re  Re16  1  0.66666700  0.33333300  0.50000000  1
  C  C17  1  0.32530300  0.00000000  0.00000000  1
  C  C18  1  0.00000000  0.32530300  0.00000000  1
  C  C19  1  0.67469700  0.67469700  0.00000000  1
  C  C20  1  0.79734100  0.00000000  0.00000000  1
  C  C21  1  0.00000000  0.79734100  0.00000000  1
  C  C22  1  0.20265900  0.20265900  0.00000000  1
  C  C23  1  0.44649800  0.00000000  0.00000000  1
  C  C24  1  0.00000000  0.44649800  0.00000000  1
  C  C25  1  0.55350200  0.55350200  0.00000000  1
  C  C26  1  0.28886700  0.47840700  0.50000000  1
  C  C27  1  0.52159300  0.81046000  0.50000000  1
  C  C28  1  0.47840700  0.28886700  0.50000000  1
  C  C29  1  0.18954000  0.71113300  0.50000000  1
  C  C30  1  0.81046000  0.52159300  0.50000000  1
  C  C31  1  0.71113300  0.18954000  0.50000000  1
