# generated using pymatgen
data_Na(MoSe)3
_symmetry_space_group_name_H-M   'P 1'
_cell_length_a   8.82391651
_cell_length_b   8.82391651
_cell_length_c   4.52587200
_cell_angle_alpha   90.00000000
_cell_angle_beta   90.00000000
_cell_angle_gamma   120.00000379
_symmetry_Int_Tables_number   1
_chemical_formula_structural   Na(MoSe)3
_chemical_formula_sum   'Na2 Mo6 Se6'
_cell_volume   305.17971442
_cell_formula_units_Z   2
loop_
 _symmetry_equiv_pos_site_id
 _symmetry_equiv_pos_as_xyz
  1  'x, y, z'
loop_
 _atom_site_type_symbol
 _atom_site_label
 _atom_site_symmetry_multiplicity
 _atom_site_fract_x
 _atom_site_fract_y
 _atom_site_fract_z
 _atom_site_occupancy
  Na  Na0  1  0.33333300  0.66666700  0.25000000  1
  Na  Na1  1  0.66666700  0.33333300  0.75000000  1
  Mo  Mo2  1  0.14813700  0.19109000  0.25000000  1
  Mo  Mo3  1  0.85186300  0.80891000  0.75000000  1
  Mo  Mo4  1  0.80891000  0.95704700  0.25000000  1
  Mo  Mo5  1  0.04295300  0.85186300  0.25000000  1
  Mo  Mo6  1  0.95704700  0.14813700  0.75000000  1
  Mo  Mo7  1  0.19109000  0.04295300  0.75000000  1
  Se  Se8  1  0.91518300  0.29509500  0.25000000  1
  Se  Se9  1  0.08481700  0.70490500  0.75000000  1
  Se  Se10  1  0.70490500  0.62008800  0.25000000  1
  Se  Se11  1  0.37991200  0.08481700  0.25000000  1
  Se  Se12  1  0.62008800  0.91518300  0.75000000  1
  Se  Se13  1  0.29509500  0.37991200  0.75000000  1
