# generated using pymatgen
data_Pr(ZnAs)3
_symmetry_space_group_name_H-M   'P 1'
_cell_length_a   4.21506841
_cell_length_b   4.21518729
_cell_length_c   20.65888200
_cell_angle_alpha   90.00000000
_cell_angle_beta   90.00000000
_cell_angle_gamma   119.94949688
_symmetry_Int_Tables_number   1
_chemical_formula_structural   Pr(ZnAs)3
_chemical_formula_sum   'Pr2 Zn6 As6'
_cell_volume   318.03853101
_cell_formula_units_Z   2
loop_
 _symmetry_equiv_pos_site_id
 _symmetry_equiv_pos_as_xyz
  1  'x, y, z'
loop_
 _atom_site_type_symbol
 _atom_site_label
 _atom_site_symmetry_multiplicity
 _atom_site_fract_x
 _atom_site_fract_y
 _atom_site_fract_z
 _atom_site_occupancy
  Pr  Pr0  1  0.99812500  0.00055000  0.50002100  1
  Pr  Pr1  1  0.99812500  0.00055000  0.99997900  1
  Zn  Zn2  1  0.66637500  0.33465100  0.12824000  1
  Zn  Zn3  1  0.33377200  0.66790300  0.87169800  1
  Zn  Zn4  1  0.33377200  0.66790300  0.62830200  1
  Zn  Zn5  1  0.66637500  0.33465100  0.37176000  1
  Zn  Zn6  1  0.63260200  0.35825500  0.75000000  1
  Zn  Zn7  1  0.27558700  0.63429600  0.25000000  1
  As  As8  1  0.66645300  0.33427900  0.58695400  1
  As  As9  1  0.33297300  0.66798800  0.41308500  1
  As  As10  1  0.33297300  0.66798800  0.08691500  1
  As  As11  1  0.66645300  0.33427900  0.91304600  1
  As  As12  1  0.29720300  0.69548700  0.75000000  1
  As  As13  1  0.60210900  0.29731800  0.25000000  1
