# generated using pymatgen
data_UNbN2
_symmetry_space_group_name_H-M   'P 1'
_cell_length_a   3.24081800
_cell_length_b   5.67171100
_cell_length_c   11.06197900
_cell_angle_alpha   90.00000000
_cell_angle_beta   90.00000000
_cell_angle_gamma   90.00000000
_symmetry_Int_Tables_number   1
_chemical_formula_structural   UNbN2
_chemical_formula_sum   'U4 Nb4 N8'
_cell_volume   203.33004905
_cell_formula_units_Z   4
loop_
 _symmetry_equiv_pos_site_id
 _symmetry_equiv_pos_as_xyz
  1  'x, y, z'
loop_
 _atom_site_type_symbol
 _atom_site_label
 _atom_site_symmetry_multiplicity
 _atom_site_fract_x
 _atom_site_fract_y
 _atom_site_fract_z
 _atom_site_occupancy
  U  U0  1  0.25000000  0.57742700  0.85591900  1
  U  U1  1  0.75000000  0.42257300  0.14408100  1
  U  U2  1  0.75000000  0.92257300  0.35591900  1
  U  U3  1  0.25000000  0.07742700  0.64408100  1
  Nb  Nb4  1  0.25000000  0.92406200  0.10013500  1
  Nb  Nb5  1  0.75000000  0.07593800  0.89986500  1
  Nb  Nb6  1  0.75000000  0.57593800  0.60013500  1
  Nb  Nb7  1  0.25000000  0.42406200  0.39986500  1
  N  N8  1  0.25000000  0.66104700  0.24444100  1
  N  N9  1  0.75000000  0.33895300  0.75555900  1
  N  N10  1  0.75000000  0.83895300  0.74444100  1
  N  N11  1  0.25000000  0.16104700  0.25555900  1
  N  N12  1  0.25000000  0.76774600  0.50299200  1
  N  N13  1  0.75000000  0.23225400  0.49700800  1
  N  N14  1  0.75000000  0.73225400  0.00299200  1
  N  N15  1  0.25000000  0.26774600  0.99700800  1
