# generated using pymatgen
data_RbHf2Br9
_symmetry_space_group_name_H-M   'P 1'
_cell_length_a   7.03374000
_cell_length_b   10.31846100
_cell_length_c   13.37373842
_cell_angle_alpha   66.13533050
_cell_angle_beta   90.00000000
_cell_angle_gamma   90.00000000
_symmetry_Int_Tables_number   1
_chemical_formula_structural   RbHf2Br9
_chemical_formula_sum   'Rb2 Hf4 Br18'
_cell_volume   887.64535371
_cell_formula_units_Z   2
loop_
 _symmetry_equiv_pos_site_id
 _symmetry_equiv_pos_as_xyz
  1  'x, y, z'
loop_
 _atom_site_type_symbol
 _atom_site_label
 _atom_site_symmetry_multiplicity
 _atom_site_fract_x
 _atom_site_fract_y
 _atom_site_fract_z
 _atom_site_occupancy
  Rb  Rb0  1  0.59048000  0.50000000  0.75000000  1
  Rb  Rb1  1  0.40952000  0.50000000  0.25000000  1
  Hf  Hf2  1  0.25904000  0.82370800  0.86669600  1
  Hf  Hf3  1  0.74096000  0.17629200  0.13330400  1
  Hf  Hf4  1  0.25904000  0.17629200  0.63330400  1
  Hf  Hf5  1  0.74096000  0.82370800  0.36669600  1
  Br  Br6  1  0.10851500  0.78962000  0.04500900  1
  Br  Br7  1  0.89148500  0.21038000  0.95499100  1
  Br  Br8  1  0.10851500  0.21038000  0.45499100  1
  Br  Br9  1  0.89148500  0.78962000  0.54500900  1
  Br  Br10  1  0.11277200  0.61426700  0.84327500  1
  Br  Br11  1  0.88722800  0.38573300  0.15672500  1
  Br  Br12  1  0.11277200  0.38573300  0.65672500  1
  Br  Br13  1  0.88722800  0.61426700  0.34327500  1
  Br  Br14  1  0.97260900  0.00000000  0.75000000  1
  Br  Br15  1  0.02739100  0.00000000  0.25000000  1
  Br  Br16  1  0.40667900  0.08194400  0.84266400  1
  Br  Br17  1  0.59332100  0.91805600  0.15733600  1
  Br  Br18  1  0.40667900  0.91805600  0.65733600  1
  Br  Br19  1  0.59332100  0.08194400  0.34266400  1
  Br  Br20  1  0.57402500  0.70522100  0.94141100  1
  Br  Br21  1  0.42597500  0.29477900  0.05858900  1
  Br  Br22  1  0.57402500  0.29477900  0.55858900  1
  Br  Br23  1  0.42597500  0.70522100  0.44141100  1
