# generated using pymatgen
data_Cs4K3U3Si4O20F
_symmetry_space_group_name_H-M   'P 1'
_cell_length_a   11.91006763
_cell_length_b   11.91006763
_cell_length_c   14.48775900
_cell_angle_alpha   90.00000000
_cell_angle_beta   90.00000000
_cell_angle_gamma   141.30387152
_symmetry_Int_Tables_number   1
_chemical_formula_structural   Cs4K3U3Si4O20F
_chemical_formula_sum   'Cs8 K6 U6 Si8 O40 F2'
_cell_volume   1284.81806870
_cell_formula_units_Z   2
loop_
 _symmetry_equiv_pos_site_id
 _symmetry_equiv_pos_as_xyz
  1  'x, y, z'
loop_
 _atom_site_type_symbol
 _atom_site_label
 _atom_site_symmetry_multiplicity
 _atom_site_fract_x
 _atom_site_fract_y
 _atom_site_fract_z
 _atom_site_occupancy
  Cs  Cs0  1  0.70919000  0.78529300  0.66891000  1
  Cs  Cs1  1  0.21470700  0.29081000  0.66891000  1
  Cs  Cs2  1  0.29081000  0.21470700  0.16891000  1
  Cs  Cs3  1  0.78529300  0.70919000  0.16891000  1
  Cs  Cs4  1  0.53208700  0.95852500  0.78315800  1
  Cs  Cs5  1  0.04147500  0.46791300  0.78315800  1
  Cs  Cs6  1  0.46791300  0.04147500  0.28315800  1
  Cs  Cs7  1  0.95852500  0.53208700  0.28315800  1
  K  K8  1  0.38050100  0.61949900  0.23149500  1
  K  K9  1  0.61949900  0.38050100  0.73149500  1
  K  K10  1  0.83246500  0.16753500  0.52035400  1
  K  K11  1  0.16753500  0.83246500  0.02035400  1
  K  K12  1  0.08625900  0.91374000  0.43791800  1
  K  K13  1  0.91374100  0.08625900  0.93791800  1
  U  U14  1  0.12599000  0.87401000  0.71959100  1
  U  U15  1  0.87401000  0.12599000  0.21959100  1
  U  U16  1  0.32564900  0.67435100  0.49519900  1
  U  U17  1  0.67435100  0.32564900  0.99519900  1
  U  U18  1  0.42617200  0.57382800  0.94729000  1
  U  U19  1  0.57382800  0.42617200  0.44729000  1
  Si  Si20  1  0.50161200  0.89838700  0.05414300  1
  Si  Si21  1  0.10161300  0.49838800  0.05414300  1
  Si  Si22  1  0.49838800  0.10161300  0.55414300  1
  Si  Si23  1  0.89838700  0.50161200  0.55414300  1
  Si  Si24  1  0.74457200  0.85409900  0.40755100  1
  Si  Si25  1  0.14590100  0.25542800  0.40755100  1
  Si  Si26  1  0.25542800  0.14590100  0.90755100  1
  Si  Si27  1  0.85409900  0.74457200  0.90755100  1
  O  O28  1  0.46930500  0.95052500  0.51695600  1
  O  O29  1  0.04947500  0.53069500  0.51695600  1
  O  O30  1  0.53069500  0.04947500  0.01695600  1
  O  O31  1  0.95052500  0.46930500  0.01695600  1
  O  O32  1  0.38370500  0.03347500  0.64891400  1
  O  O33  1  0.96652500  0.61629500  0.64891400  1
  O  O34  1  0.61629500  0.96652500  0.14891400  1
  O  O35  1  0.03347500  0.38370500  0.14891400  1
  O  O36  1  0.54620100  0.84046100  0.97343900  1
  O  O37  1  0.15953900  0.45379900  0.97343900  1
  O  O38  1  0.45379900  0.15953900  0.47343900  1
  O  O39  1  0.84046100  0.54620100  0.47343900  1
  O  O40  1  0.71627400  0.28372600  0.58448300  1
  O  O41  1  0.28372600  0.71627400  0.08448300  1
  O  O42  1  0.70303300  0.72562200  0.91969100  1
  O  O43  1  0.27437800  0.29696700  0.91969100  1
  O  O44  1  0.29696700  0.27437800  0.41969100  1
  O  O45  1  0.72562200  0.70303300  0.41969100  1
  O  O46  1  0.95006800  0.04993200  0.44715100  1
  O  O47  1  0.04993200  0.95006800  0.94715100  1
  O  O48  1  0.26750200  0.12285800  0.79769300  1
  O  O49  1  0.87714200  0.73249800  0.79769300  1
  O  O50  1  0.73249800  0.87714200  0.29769300  1
  O  O51  1  0.12285800  0.26750200  0.29769300  1
  O  O52  1  0.59800700  0.80709400  0.47116200  1
  O  O53  1  0.19290600  0.40199300  0.47116200  1
  O  O54  1  0.40199300  0.19290600  0.97116200  1
  O  O55  1  0.80709400  0.59800700  0.97116200  1
  O  O56  1  0.18247400  0.81752600  0.81475000  1
  O  O57  1  0.81752600  0.18247400  0.31475000  1
  O  O58  1  0.06818200  0.93181800  0.62632700  1
  O  O59  1  0.93181800  0.06818200  0.12632700  1
  O  O60  1  0.30514800  0.69485200  0.37005700  1
  O  O61  1  0.69485200  0.30514800  0.87005700  1
  O  O62  1  0.34472200  0.65527800  0.62068900  1
  O  O63  1  0.65527800  0.34472200  0.12068900  1
  O  O64  1  0.40559000  0.59441000  0.82237400  1
  O  O65  1  0.59441000  0.40559000  0.32237400  1
  O  O66  1  0.44623800  0.55376200  0.07304900  1
  O  O67  1  0.55376200  0.44623800  0.57304900  1
  F  F68  1  0.87529400  0.12470600  0.72885700  1
  F  F69  1  0.12470600  0.87529400  0.22885700  1
