# generated using pymatgen
data_Eu2Cu6P5
_symmetry_space_group_name_H-M   'P 1'
_cell_length_a   12.70685853
_cell_length_b   12.70685853
_cell_length_c   12.70685853
_cell_angle_alpha   161.63926039
_cell_angle_beta   161.63926039
_cell_angle_gamma   26.07960003
_symmetry_Int_Tables_number   1
_chemical_formula_structural   Eu2Cu6P5
_chemical_formula_sum   'Eu2 Cu6 P5'
_cell_volume   203.50923259
_cell_formula_units_Z   1
loop_
 _symmetry_equiv_pos_site_id
 _symmetry_equiv_pos_as_xyz
  1  'x, y, z'
loop_
 _atom_site_type_symbol
 _atom_site_label
 _atom_site_symmetry_multiplicity
 _atom_site_fract_x
 _atom_site_fract_y
 _atom_site_fract_z
 _atom_site_occupancy
  Eu  Eu0  1  0.64887600  0.64887600  0.00000000  1
  Eu  Eu1  1  0.35112400  0.35112400  0.00000000  1
  Cu  Cu2  1  0.44749800  0.94749800  0.50000000  1
  Cu  Cu3  1  0.94749800  0.44749800  0.50000000  1
  Cu  Cu4  1  0.55250200  0.05250200  0.50000000  1
  Cu  Cu5  1  0.05250200  0.55250200  0.50000000  1
  Cu  Cu6  1  0.75000000  0.25000000  0.50000000  1
  Cu  Cu7  1  0.25000000  0.75000000  0.50000000  1
  P  P8  1  0.50000000  0.50000000  0.00000000  1
  P  P9  1  0.89487800  0.89487800  0.00000000  1
  P  P10  1  0.10512200  0.10512200  0.00000000  1
  P  P11  1  0.80225900  0.80225900  0.00000000  1
  P  P12  1  0.19774100  0.19774100  0.00000000  1
