# generated using pymatgen
data_BaNaEu(SiO3)3
_symmetry_space_group_name_H-M   'P 1'
_cell_length_a   5.73980300
_cell_length_b   11.67480500
_cell_length_c   12.71041900
_cell_angle_alpha   90.00000000
_cell_angle_beta   90.00000000
_cell_angle_gamma   90.00000000
_symmetry_Int_Tables_number   1
_chemical_formula_structural   BaNaEu(SiO3)3
_chemical_formula_sum   'Ba4 Na4 Eu4 Si12 O36'
_cell_volume   851.73891415
_cell_formula_units_Z   4
loop_
 _symmetry_equiv_pos_site_id
 _symmetry_equiv_pos_as_xyz
  1  'x, y, z'
loop_
 _atom_site_type_symbol
 _atom_site_label
 _atom_site_symmetry_multiplicity
 _atom_site_fract_x
 _atom_site_fract_y
 _atom_site_fract_z
 _atom_site_occupancy
  Ba  Ba0  1  0.10298300  0.61729800  0.41890000  1
  Ba  Ba1  1  0.39701700  0.38270200  0.91890000  1
  Ba  Ba2  1  0.60298300  0.88270200  0.58110000  1
  Ba  Ba3  1  0.89701700  0.11729800  0.08110000  1
  Na  Na4  1  0.06995300  0.28540100  0.39395600  1
  Na  Na5  1  0.43004700  0.71459900  0.89395600  1
  Na  Na6  1  0.56995300  0.21459900  0.60604400  1
  Na  Na7  1  0.93004700  0.78540100  0.10604400  1
  Eu  Eu8  1  0.11173100  0.96963400  0.36226100  1
  Eu  Eu9  1  0.38826900  0.03036600  0.86226100  1
  Eu  Eu10  1  0.61173100  0.53036600  0.63773900  1
  Eu  Eu11  1  0.88826900  0.46963400  0.13773900  1
  Si  Si12  1  0.59906200  0.80381600  0.31297900  1
  Si  Si13  1  0.90093800  0.19618400  0.81297900  1
  Si  Si14  1  0.09906200  0.69618400  0.68702100  1
  Si  Si15  1  0.40093800  0.30381600  0.18702100  1
  Si  Si16  1  0.59661800  0.15253100  0.35728700  1
  Si  Si17  1  0.90338200  0.84746900  0.85728700  1
  Si  Si18  1  0.09661800  0.34746900  0.64271300  1
  Si  Si19  1  0.40338200  0.65253100  0.14271300  1
  Si  Si20  1  0.10427300  0.08777200  0.62374200  1
  Si  Si21  1  0.39572700  0.91222800  0.12374200  1
  Si  Si22  1  0.60427300  0.41222800  0.37625800  1
  Si  Si23  1  0.89572700  0.58777200  0.87625800  1
  O  O24  1  0.37182500  0.81401400  0.38869000  1
  O  O25  1  0.12817500  0.18598600  0.88869000  1
  O  O26  1  0.87182500  0.68598600  0.61131000  1
  O  O27  1  0.62817500  0.31401400  0.11131000  1
  O  O28  1  0.84159900  0.81419100  0.37654900  1
  O  O29  1  0.65840100  0.18580900  0.87654800  1
  O  O30  1  0.34159900  0.68580900  0.62345200  1
  O  O31  1  0.15840100  0.31419100  0.12345100  1
  O  O32  1  0.86018600  0.12373300  0.31828400  1
  O  O33  1  0.63981400  0.87626700  0.81828400  1
  O  O34  1  0.36018600  0.37626700  0.68171600  1
  O  O35  1  0.13981400  0.62373300  0.18171600  1
  O  O36  1  0.61094000  0.27771600  0.42569500  1
  O  O37  1  0.88906000  0.72228400  0.92569500  1
  O  O38  1  0.11094000  0.22228400  0.57430500  1
  O  O39  1  0.38906000  0.77771600  0.07430500  1
  O  O40  1  0.35448800  0.05959400  0.67754100  1
  O  O41  1  0.14551200  0.94040600  0.17754100  1
  O  O42  1  0.85448800  0.44040600  0.32245900  1
  O  O43  1  0.64551200  0.55959400  0.82245900  1
  O  O44  1  0.90044800  0.09661400  0.71777800  1
  O  O45  1  0.59955200  0.90338600  0.21777800  1
  O  O46  1  0.40044800  0.40338600  0.28222200  1
  O  O47  1  0.09955200  0.59661400  0.78222200  1
  O  O48  1  0.41812000  0.18117900  0.25548200  1
  O  O49  1  0.08188000  0.81882100  0.75548200  1
  O  O50  1  0.91812000  0.31882100  0.74451800  1
  O  O51  1  0.58188000  0.68117900  0.24451800  1
  O  O52  1  0.46414600  0.06008100  0.43006300  1
  O  O53  1  0.03585400  0.93991900  0.93006300  1
  O  O54  1  0.96414600  0.43991900  0.56993700  1
  O  O55  1  0.53585400  0.56008100  0.06993700  1
  O  O56  1  0.01189600  0.99744100  0.53741800  1
  O  O57  1  0.48810400  0.00255900  0.03741800  1
  O  O58  1  0.51189600  0.50255900  0.46258200  1
  O  O59  1  0.98810400  0.49744100  0.96258200  1
