# generated using pymatgen
data_Zn(ReO4)2
_symmetry_space_group_name_H-M   'P 1'
_cell_length_a   5.81148642
_cell_length_b   5.81148642
_cell_length_c   6.72350600
_cell_angle_alpha   90.00000000
_cell_angle_beta   90.00000000
_cell_angle_gamma   120.00000483
_symmetry_Int_Tables_number   1
_chemical_formula_structural   Zn(ReO4)2
_chemical_formula_sum   'Zn1 Re2 O8'
_cell_volume   196.65312974
_cell_formula_units_Z   1
loop_
 _symmetry_equiv_pos_site_id
 _symmetry_equiv_pos_as_xyz
  1  'x, y, z'
loop_
 _atom_site_type_symbol
 _atom_site_label
 _atom_site_symmetry_multiplicity
 _atom_site_fract_x
 _atom_site_fract_y
 _atom_site_fract_z
 _atom_site_occupancy
  Zn  Zn0  1  0.00000000  0.00000000  0.00000000  1
  Re  Re1  1  0.33333300  0.66666700  0.26649600  1
  Re  Re2  1  0.66666700  0.33333300  0.73350400  1
  O  O3  1  0.66666700  0.33333300  0.47572800  1
  O  O4  1  0.33333300  0.66666700  0.52427200  1
  O  O5  1  0.81573100  0.15336400  0.82014700  1
  O  O6  1  0.15336400  0.33763400  0.17985300  1
  O  O7  1  0.66236600  0.81573100  0.17985300  1
  O  O8  1  0.18426900  0.84663600  0.17985300  1
  O  O9  1  0.84663600  0.66236600  0.82014700  1
  O  O10  1  0.33763400  0.18426900  0.82014700  1
