# generated using pymatgen
data_Cr4CdAgSe8
_symmetry_space_group_name_H-M   'P 1'
_cell_length_a   7.65316943
_cell_length_b   7.65316943
_cell_length_c   7.65316943
_cell_angle_alpha   60.00000000
_cell_angle_beta   60.00000000
_cell_angle_gamma   60.00000000
_symmetry_Int_Tables_number   1
_chemical_formula_structural   Cr4CdAgSe8
_chemical_formula_sum   'Cr4 Cd1 Ag1 Se8'
_cell_volume   316.96330457
_cell_formula_units_Z   1
loop_
 _symmetry_equiv_pos_site_id
 _symmetry_equiv_pos_as_xyz
  1  'x, y, z'
loop_
 _atom_site_type_symbol
 _atom_site_label
 _atom_site_symmetry_multiplicity
 _atom_site_fract_x
 _atom_site_fract_y
 _atom_site_fract_z
 _atom_site_occupancy
  Cr  Cr0  1  0.62974700  0.12341800  0.12341800  1
  Cr  Cr1  1  0.12341800  0.62974700  0.12341800  1
  Cr  Cr2  1  0.12341800  0.12341800  0.62974700  1
  Cr  Cr3  1  0.12341800  0.12341800  0.12341800  1
  Cd  Cd4  1  0.50000000  0.50000000  0.50000000  1
  Ag  Ag5  1  0.75000000  0.75000000  0.75000000  1
  Se  Se6  1  0.33177800  0.88940700  0.88940700  1
  Se  Se7  1  0.88940700  0.33177800  0.88940700  1
  Se  Se8  1  0.88940700  0.88940700  0.33177800  1
  Se  Se9  1  0.88940700  0.88940700  0.88940700  1
  Se  Se10  1  0.92212900  0.35929000  0.35929000  1
  Se  Se11  1  0.35929000  0.92212900  0.35929000  1
  Se  Se12  1  0.35929000  0.35929000  0.92212900  1
  Se  Se13  1  0.35929000  0.35929000  0.35929000  1
