# generated using pymatgen
data_Ce(Co2B)6
_symmetry_space_group_name_H-M   'P 1'
_cell_length_a   5.98043487
_cell_length_b   5.98043487
_cell_length_c   5.98043482
_cell_angle_alpha   104.12181256
_cell_angle_beta   104.12181256
_cell_angle_gamma   104.12180430
_symmetry_Int_Tables_number   1
_chemical_formula_structural   Ce(Co2B)6
_chemical_formula_sum   'Ce1 Co12 B6'
_cell_volume   190.39763452
_cell_formula_units_Z   1
loop_
 _symmetry_equiv_pos_site_id
 _symmetry_equiv_pos_as_xyz
  1  'x, y, z'
loop_
 _atom_site_type_symbol
 _atom_site_label
 _atom_site_symmetry_multiplicity
 _atom_site_fract_x
 _atom_site_fract_y
 _atom_site_fract_z
 _atom_site_occupancy
  Ce  Ce0  1  0.00000000  0.00000000  0.00000000  1
  Co  Co1  1  0.13410300  0.86589700  0.50000000  1
  Co  Co2  1  0.50000000  0.13410300  0.86589700  1
  Co  Co3  1  0.86589700  0.50000000  0.13410300  1
  Co  Co4  1  0.50000000  0.86589700  0.13410300  1
  Co  Co5  1  0.13410300  0.50000000  0.86589700  1
  Co  Co6  1  0.86589700  0.13410300  0.50000000  1
  Co  Co7  1  0.54414700  0.81369600  0.54414700  1
  Co  Co8  1  0.54414700  0.54414700  0.81369600  1
  Co  Co9  1  0.81369600  0.54414700  0.54414700  1
  Co  Co10  1  0.45585300  0.18630400  0.45585300  1
  Co  Co11  1  0.45585300  0.45585300  0.18630400  1
  Co  Co12  1  0.18630400  0.45585300  0.45585300  1
  B  B13  1  0.76963800  0.33035300  0.76963800  1
  B  B14  1  0.76963800  0.76963800  0.33035300  1
  B  B15  1  0.33035300  0.76963800  0.76963800  1
  B  B16  1  0.23036200  0.66964700  0.23036200  1
  B  B17  1  0.23036200  0.23036200  0.66964700  1
  B  B18  1  0.66964700  0.23036200  0.23036200  1
