# generated using pymatgen
data_Sm15(Ni4P3)7
_symmetry_space_group_name_H-M   'P 1'
_cell_length_a   3.91785447
_cell_length_b   24.30734490
_cell_length_c   24.30734490
_cell_angle_alpha   119.99999970
_cell_angle_beta   90.00000000
_cell_angle_gamma   90.00000000
_symmetry_Int_Tables_number   1
_chemical_formula_structural   Sm15(Ni4P3)7
_chemical_formula_sum   'Sm30 Ni56 P42'
_cell_volume   2004.72118362
_cell_formula_units_Z   2
loop_
 _symmetry_equiv_pos_site_id
 _symmetry_equiv_pos_as_xyz
  1  'x, y, z'
loop_
 _atom_site_type_symbol
 _atom_site_label
 _atom_site_symmetry_multiplicity
 _atom_site_fract_x
 _atom_site_fract_y
 _atom_site_fract_z
 _atom_site_occupancy
  Sm  Sm0  1  0.75000000  0.61434550  0.75741451  1
  Sm  Sm1  1  0.25000000  0.38565450  0.24258549  1
  Sm  Sm2  1  0.75000000  0.14306901  0.38565450  1
  Sm  Sm3  1  0.25000000  0.85693099  0.61434550  1
  Sm  Sm4  1  0.75000000  0.24258549  0.85693099  1
  Sm  Sm5  1  0.25000000  0.75741451  0.14306901  1
  Sm  Sm6  1  0.75000000  0.46769262  0.58490928  1
  Sm  Sm7  1  0.25000000  0.53230738  0.41509072  1
  Sm  Sm8  1  0.75000000  0.11721666  0.53230738  1
  Sm  Sm9  1  0.25000000  0.88278334  0.46769262  1
  Sm  Sm10  1  0.75000000  0.41509072  0.88278334  1
  Sm  Sm11  1  0.25000000  0.58490928  0.11721666  1
  Sm  Sm12  1  0.75000000  0.58723634  0.90807972  1
  Sm  Sm13  1  0.25000000  0.41276366  0.09192028  1
  Sm  Sm14  1  0.75000000  0.32084338  0.41276366  1
  Sm  Sm15  1  0.25000000  0.67915662  0.58723634  1
  Sm  Sm16  1  0.75000000  0.09192028  0.67915662  1
  Sm  Sm17  1  0.25000000  0.90807972  0.32084338  1
  Sm  Sm18  1  0.75000000  0.44076988  0.73386622  1
  Sm  Sm19  1  0.25000000  0.55923012  0.26613378  1
  Sm  Sm20  1  0.75000000  0.29309634  0.55923012  1
  Sm  Sm21  1  0.25000000  0.70690366  0.44076988  1
  Sm  Sm22  1  0.75000000  0.26613378  0.70690366  1
  Sm  Sm23  1  0.25000000  0.73386622  0.29309634  1
  Sm  Sm24  1  0.75000000  0.75838605  0.93070787  1
  Sm  Sm25  1  0.25000000  0.24161395  0.06929213  1
  Sm  Sm26  1  0.75000000  0.17232182  0.24161395  1
  Sm  Sm27  1  0.25000000  0.82767818  0.75838605  1
  Sm  Sm28  1  0.75000000  0.06929213  0.82767818  1
  Sm  Sm29  1  0.25000000  0.93070787  0.17232182  1
  Ni  Ni30  1  0.75000000  0.61062101  0.62939770  1
  Ni  Ni31  1  0.25000000  0.38937899  0.37060230  1
  Ni  Ni32  1  0.75000000  0.01877669  0.38937899  1
  Ni  Ni33  1  0.25000000  0.98122331  0.61062101  1
  Ni  Ni34  1  0.75000000  0.37060230  0.98122331  1
  Ni  Ni35  1  0.25000000  0.62939770  0.01877669  1
  Ni  Ni36  1  0.75000000  0.69220829  0.18507634  1
  Ni  Ni37  1  0.25000000  0.30779171  0.81492366  1
  Ni  Ni38  1  0.75000000  0.49286805  0.30779171  1
  Ni  Ni39  1  0.25000000  0.50713195  0.69220829  1
  Ni  Ni40  1  0.75000000  0.81492366  0.50713195  1
  Ni  Ni41  1  0.25000000  0.18507634  0.49286805  1
  Ni  Ni42  1  0.75000000  0.99401623  0.53722825  1
  Ni  Ni43  1  0.25000000  0.00598377  0.46277175  1
  Ni  Ni44  1  0.75000000  0.54321202  0.00598377  1
  Ni  Ni45  1  0.25000000  0.45678798  0.99401623  1
  Ni  Ni46  1  0.75000000  0.46277175  0.45678798  1
  Ni  Ni47  1  0.25000000  0.53722825  0.54321202  1
  Ni  Ni48  1  0.75000000  0.66666700  0.33333300  1
  Ni  Ni49  1  0.25000000  0.33333300  0.66666700  1
  Ni  Ni50  1  0.75000000  0.90014521  0.96549448  1
  Ni  Ni51  1  0.25000000  0.09985479  0.03450552  1
  Ni  Ni52  1  0.75000000  0.06534927  0.09985479  1
  Ni  Ni53  1  0.25000000  0.93465073  0.90014521  1
  Ni  Ni54  1  0.75000000  0.03450552  0.93465073  1
  Ni  Ni55  1  0.25000000  0.96549448  0.06534927  1
  Ni  Ni56  1  0.75000000  0.71563697  0.03128964  1
  Ni  Ni57  1  0.25000000  0.28436303  0.96871036  1
  Ni  Ni58  1  0.75000000  0.31565267  0.28436303  1
  Ni  Ni59  1  0.25000000  0.68434733  0.71563697  1
  Ni  Ni60  1  0.75000000  0.96871036  0.68434733  1
  Ni  Ni61  1  0.25000000  0.03128964  0.31565267  1
  Ni  Ni62  1  0.75000000  0.88796446  0.06085732  1
  Ni  Ni63  1  0.25000000  0.11203554  0.93914268  1
  Ni  Ni64  1  0.75000000  0.17289286  0.11203554  1
  Ni  Ni65  1  0.25000000  0.82710714  0.88796446  1
  Ni  Ni66  1  0.75000000  0.93914268  0.82710714  1
  Ni  Ni67  1  0.25000000  0.06085732  0.17289286  1
  Ni  Ni68  1  0.75000000  0.84044830  0.35996039  1
  Ni  Ni69  1  0.25000000  0.15955170  0.64003961  1
  Ni  Ni70  1  0.75000000  0.51951208  0.15955170  1
  Ni  Ni71  1  0.25000000  0.48048792  0.84044830  1
  Ni  Ni72  1  0.75000000  0.64003961  0.48048792  1
  Ni  Ni73  1  0.25000000  0.35996039  0.51951208  1
  Ni  Ni74  1  0.75000000  0.75974952  0.80229769  1
  Ni  Ni75  1  0.25000000  0.24025048  0.19770231  1
  Ni  Ni76  1  0.75000000  0.04254816  0.24025048  1
  Ni  Ni77  1  0.25000000  0.95745184  0.75974952  1
  Ni  Ni78  1  0.75000000  0.19770231  0.95745184  1
  Ni  Ni79  1  0.25000000  0.80229769  0.04254816  1
  Ni  Ni80  1  0.75000000  0.86535861  0.21118119  1
  Ni  Ni81  1  0.25000000  0.13464139  0.78881881  1
  Ni  Ni82  1  0.75000000  0.34582258  0.13464139  1
  Ni  Ni83  1  0.25000000  0.65417742  0.86535861  1
  Ni  Ni84  1  0.75000000  0.78881881  0.65417742  1
  Ni  Ni85  1  0.25000000  0.21118119  0.34582258  1
  P  P86  1  0.75000000  0.99494838  0.13052640  1
  P  P87  1  0.25000000  0.00505162  0.86947360  1
  P  P88  1  0.75000000  0.13557802  0.00505162  1
  P  P89  1  0.25000000  0.86442198  0.99494838  1
  P  P90  1  0.75000000  0.86947360  0.86442198  1
  P  P91  1  0.25000000  0.13052640  0.13557802  1
  P  P92  1  0.75000000  0.82348710  0.10441138  1
  P  P93  1  0.25000000  0.17651290  0.89558862  1
  P  P94  1  0.75000000  0.28092428  0.17651290  1
  P  P95  1  0.25000000  0.71907572  0.82348710  1
  P  P96  1  0.75000000  0.89558862  0.71907572  1
  P  P97  1  0.25000000  0.10441138  0.28092428  1
  P  P98  1  0.75000000  0.79958470  0.25244757  1
  P  P99  1  0.25000000  0.20041530  0.74755243  1
  P  P100  1  0.75000000  0.45286287  0.20041530  1
  P  P101  1  0.25000000  0.54713713  0.79958470  1
  P  P102  1  0.75000000  0.74755243  0.54713713  1
  P  P103  1  0.25000000  0.25244757  0.45286287  1
  P  P104  1  0.75000000  0.94657072  0.42609698  1
  P  P105  1  0.25000000  0.05342928  0.57390302  1
  P  P106  1  0.75000000  0.47952626  0.05342928  1
  P  P107  1  0.25000000  0.52047374  0.94657072  1
  P  P108  1  0.75000000  0.57390302  0.52047374  1
  P  P109  1  0.25000000  0.42609698  0.47952626  1
  P  P110  1  0.75000000  0.65202773  0.07867346  1
  P  P111  1  0.25000000  0.34797227  0.92132654  1
  P  P112  1  0.75000000  0.42664573  0.34797227  1
  P  P113  1  0.25000000  0.57335427  0.65202773  1
  P  P114  1  0.75000000  0.92132654  0.57335427  1
  P  P115  1  0.25000000  0.07867346  0.42664573  1
  P  P116  1  0.75000000  0.77353277  0.40012681  1
  P  P117  1  0.25000000  0.22646723  0.59987319  1
  P  P118  1  0.75000000  0.62659404  0.22646723  1
  P  P119  1  0.25000000  0.37340596  0.77353277  1
  P  P120  1  0.75000000  0.59987319  0.37340596  1
  P  P121  1  0.25000000  0.40012681  0.62659404  1
  P  P122  1  0.75000000  0.97117199  0.27859235  1
  P  P123  1  0.25000000  0.02882801  0.72140765  1
  P  P124  1  0.75000000  0.30742035  0.02882801  1
  P  P125  1  0.25000000  0.69257965  0.97117199  1
  P  P126  1  0.75000000  0.72140765  0.69257965  1
  P  P127  1  0.25000000  0.27859235  0.30742035  1
