# generated using pymatgen
data_Tm2TeO2
_symmetry_space_group_name_H-M   'P 1'
_cell_length_a   3.85275327
_cell_length_b   3.85275327
_cell_length_c   14.24656900
_cell_angle_alpha   90.00000000
_cell_angle_beta   90.00000000
_cell_angle_gamma   119.99998753
_symmetry_Int_Tables_number   1
_chemical_formula_structural   Tm2TeO2
_chemical_formula_sum   'Tm4 Te2 O4'
_cell_volume   183.14006686
_cell_formula_units_Z   2
loop_
 _symmetry_equiv_pos_site_id
 _symmetry_equiv_pos_as_xyz
  1  'x, y, z'
loop_
 _atom_site_type_symbol
 _atom_site_label
 _atom_site_symmetry_multiplicity
 _atom_site_fract_x
 _atom_site_fract_y
 _atom_site_fract_z
 _atom_site_occupancy
  Tm  Tm0  1  0.33333300  0.66666700  0.90294300  1
  Tm  Tm1  1  0.33333300  0.66666700  0.59705700  1
  Tm  Tm2  1  0.66666700  0.33333300  0.40294300  1
  Tm  Tm3  1  0.66666700  0.33333300  0.09705700  1
  Te  Te4  1  0.00000000  0.00000000  0.25000000  1
  Te  Te5  1  0.00000000  0.00000000  0.75000000  1
  O  O6  1  0.33333300  0.66666700  0.06023200  1
  O  O7  1  0.33333300  0.66666700  0.43976800  1
  O  O8  1  0.66666700  0.33333300  0.93976800  1
  O  O9  1  0.66666700  0.33333300  0.56023200  1
