# generated using pymatgen
data_YbSnF7
_symmetry_space_group_name_H-M   'P 1'
_cell_length_a   6.00134000
_cell_length_b   9.20230300
_cell_length_c   11.97015478
_cell_angle_alpha   60.17770332
_cell_angle_beta   90.00000000
_cell_angle_gamma   90.00000000
_symmetry_Int_Tables_number   1
_chemical_formula_structural   YbSnF7
_chemical_formula_sum   'Yb4 Sn4 F28'
_cell_volume   573.52195670
_cell_formula_units_Z   4
loop_
 _symmetry_equiv_pos_site_id
 _symmetry_equiv_pos_as_xyz
  1  'x, y, z'
loop_
 _atom_site_type_symbol
 _atom_site_label
 _atom_site_symmetry_multiplicity
 _atom_site_fract_x
 _atom_site_fract_y
 _atom_site_fract_z
 _atom_site_occupancy
  Yb  Yb0  1  0.24794900  0.79575100  0.25529100  1
  Yb  Yb1  1  0.75205100  0.20424900  0.74470900  1
  Yb  Yb2  1  0.74794900  0.20424900  0.24470900  1
  Yb  Yb3  1  0.25205100  0.79575100  0.75529100  1
  Sn  Sn4  1  0.74614800  0.73623900  0.04093300  1
  Sn  Sn5  1  0.25385200  0.26376100  0.95906700  1
  Sn  Sn6  1  0.24614800  0.26376100  0.45906700  1
  Sn  Sn7  1  0.75385200  0.73623900  0.54093300  1
  F  F8  1  0.98024500  0.74601100  0.40976600  1
  F  F9  1  0.01975500  0.25398900  0.59023400  1
  F  F10  1  0.48024500  0.25398900  0.09023400  1
  F  F11  1  0.51975500  0.74601100  0.90976600  1
  F  F12  1  0.49547700  0.71663900  0.15589300  1
  F  F13  1  0.50452300  0.28336100  0.84410700  1
  F  F14  1  0.99547700  0.28336100  0.34410700  1
  F  F15  1  0.00452300  0.71663900  0.65589300  1
  F  F16  1  0.96906400  0.72561400  0.16759000  1
  F  F17  1  0.03093600  0.27438600  0.83241000  1
  F  F18  1  0.46906400  0.27438600  0.33241000  1
  F  F19  1  0.53093600  0.72561400  0.66759000  1
  F  F20  1  0.76014800  0.49039500  0.11371000  1
  F  F21  1  0.23985200  0.50960500  0.88629000  1
  F  F22  1  0.26014800  0.50960500  0.38629000  1
  F  F23  1  0.73985200  0.49039500  0.61371000  1
  F  F24  1  0.00643100  0.24933800  0.08369600  1
  F  F25  1  0.99356900  0.75066200  0.91630400  1
  F  F26  1  0.50643100  0.75066200  0.41630400  1
  F  F27  1  0.49356900  0.24933800  0.58369600  1
  F  F28  1  0.75351200  0.98398600  0.45193900  1
  F  F29  1  0.24648800  0.01601400  0.54806100  1
  F  F30  1  0.25351200  0.01601400  0.04806100  1
  F  F31  1  0.74648800  0.98398600  0.95193900  1
  F  F32  1  0.50751300  0.99529400  0.24891200  1
  F  F33  1  0.49248700  0.00470600  0.75108800  1
  F  F34  1  0.00751300  0.00470600  0.25108800  1
  F  F35  1  0.99248700  0.99529400  0.74891200  1
