# generated using pymatgen
data_LiHoS2
_symmetry_space_group_name_H-M   'P 1'
_cell_length_a   6.57458099
_cell_length_b   6.57458099
_cell_length_c   6.57458104
_cell_angle_alpha   34.42457015
_cell_angle_beta   34.42457015
_cell_angle_gamma   34.42456786
_symmetry_Int_Tables_number   1
_chemical_formula_structural   LiHoS2
_chemical_formula_sum   'Li1 Ho1 S2'
_cell_volume   81.01468465
_cell_formula_units_Z   1
loop_
 _symmetry_equiv_pos_site_id
 _symmetry_equiv_pos_as_xyz
  1  'x, y, z'
loop_
 _atom_site_type_symbol
 _atom_site_label
 _atom_site_symmetry_multiplicity
 _atom_site_fract_x
 _atom_site_fract_y
 _atom_site_fract_z
 _atom_site_occupancy
  Li  Li0  1  0.50000000  0.50000000  0.50000000  1
  Ho  Ho1  1  0.00000000  0.00000000  0.00000000  1
  S  S2  1  0.74975800  0.74975800  0.74975800  1
  S  S3  1  0.25024200  0.25024200  0.25024200  1
