# generated using pymatgen
data_NaB5PbO9
_symmetry_space_group_name_H-M   'P 1'
_cell_length_a   13.18039100
_cell_length_b   6.59844800
_cell_length_c   8.69382078
_cell_angle_alpha   75.01383223
_cell_angle_beta   90.00000000
_cell_angle_gamma   90.00000000
_symmetry_Int_Tables_number   1
_chemical_formula_structural   NaB5PbO9
_chemical_formula_sum   'Na4 B20 Pb4 O36'
_cell_volume   730.38632582
_cell_formula_units_Z   4
loop_
 _symmetry_equiv_pos_site_id
 _symmetry_equiv_pos_as_xyz
  1  'x, y, z'
loop_
 _atom_site_type_symbol
 _atom_site_label
 _atom_site_symmetry_multiplicity
 _atom_site_fract_x
 _atom_site_fract_y
 _atom_site_fract_z
 _atom_site_occupancy
  Na  Na0  1  0.41152400  0.46574100  0.86812700  1
  Na  Na1  1  0.91152400  0.53425900  0.63187300  1
  Na  Na2  1  0.58847600  0.53425900  0.13187300  1
  Na  Na3  1  0.08847600  0.46574100  0.36812700  1
  B  B4  1  0.25358300  0.41697700  0.62070500  1
  B  B5  1  0.75358300  0.58302300  0.87929500  1
  B  B6  1  0.74641700  0.58302300  0.37929500  1
  B  B7  1  0.24641700  0.41697700  0.12070500  1
  B  B8  1  0.06254700  0.91336400  0.36759900  1
  B  B9  1  0.56254700  0.08663600  0.13240100  1
  B  B10  1  0.93745300  0.08663600  0.63240100  1
  B  B11  1  0.43745300  0.91336400  0.86759900  1
  B  B12  1  0.38857000  0.16323100  0.22928400  1
  B  B13  1  0.88857000  0.83676900  0.27071600  1
  B  B14  1  0.61143000  0.83676900  0.77071600  1
  B  B15  1  0.11143000  0.16323100  0.72928400  1
  B  B16  1  0.65108900  0.54752800  0.64313800  1
  B  B17  1  0.15108900  0.45247200  0.85686200  1
  B  B18  1  0.34891100  0.45247200  0.35686200  1
  B  B19  1  0.84891100  0.54752800  0.14313800  1
  B  B20  1  0.55124200  0.20837800  0.75055200  1
  B  B21  1  0.05124200  0.79162200  0.74944800  1
  B  B22  1  0.44875800  0.79162200  0.24944800  1
  B  B23  1  0.94875800  0.20837800  0.25055200  1
  Pb  Pb24  1  0.28874200  0.90983900  0.55778200  1
  Pb  Pb25  1  0.78874200  0.09016100  0.94221800  1
  Pb  Pb26  1  0.71125800  0.09016100  0.44221800  1
  Pb  Pb27  1  0.21125800  0.90983900  0.05778200  1
  O  O28  1  0.24281500  0.50803200  0.74665200  1
  O  O29  1  0.74281500  0.49196800  0.75334800  1
  O  O30  1  0.75718500  0.49196800  0.25334800  1
  O  O31  1  0.25718500  0.50803200  0.24665200  1
  O  O32  1  0.15252000  0.83713500  0.42776900  1
  O  O33  1  0.65252000  0.16286500  0.07223100  1
  O  O34  1  0.84748000  0.16286500  0.57223100  1
  O  O35  1  0.34748000  0.83713500  0.92776900  1
  O  O36  1  0.37265400  0.23118200  0.37355300  1
  O  O37  1  0.87265400  0.76881800  0.12644700  1
  O  O38  1  0.62734600  0.76881800  0.62644700  1
  O  O39  1  0.12734600  0.23118200  0.87355300  1
  O  O40  1  0.56328300  0.41802300  0.71703900  1
  O  O41  1  0.06328300  0.58197700  0.78296100  1
  O  O42  1  0.43671700  0.58197700  0.28296100  1
  O  O43  1  0.93671700  0.41802300  0.21703900  1
  O  O44  1  0.19192800  0.25243500  0.60605800  1
  O  O45  1  0.69192800  0.74756500  0.89394200  1
  O  O46  1  0.80807200  0.74756500  0.39394200  1
  O  O47  1  0.30807200  0.25243500  0.10605800  1
  O  O48  1  0.62507600  0.07033500  0.72658200  1
  O  O49  1  0.12507600  0.92966500  0.77341800  1
  O  O50  1  0.37492400  0.92966500  0.27341800  1
  O  O51  1  0.87492400  0.07033500  0.22658200  1
  O  O52  1  0.48775000  0.22499400  0.15328700  1
  O  O53  1  0.98775000  0.77500600  0.34671300  1
  O  O54  1  0.51225000  0.77500600  0.84671300  1
  O  O55  1  0.01225000  0.22499400  0.65328700  1
  O  O56  1  0.45759300  0.13060700  0.81726500  1
  O  O57  1  0.95759300  0.86939300  0.68273500  1
  O  O58  1  0.54240700  0.86939300  0.18273500  1
  O  O59  1  0.04240700  0.13060700  0.31726500  1
  O  O60  1  0.32618400  0.50033100  0.50984700  1
  O  O61  1  0.82618400  0.49966900  0.99015300  1
  O  O62  1  0.67381600  0.49966900  0.49015300  1
  O  O63  1  0.17381600  0.50033100  0.00984700  1
