# generated using pymatgen
data_Er2Al3Si2
_symmetry_space_group_name_H-M   'P 1'
_cell_length_a   5.45216541
_cell_length_b   5.45216541
_cell_length_c   6.60111968
_cell_angle_alpha   79.82301783
_cell_angle_beta   79.82301783
_cell_angle_gamma   43.14699713
_symmetry_Int_Tables_number   1
_chemical_formula_structural   Er2Al3Si2
_chemical_formula_sum   'Er2 Al3 Si2'
_cell_volume   131.74884235
_cell_formula_units_Z   1
loop_
 _symmetry_equiv_pos_site_id
 _symmetry_equiv_pos_as_xyz
  1  'x, y, z'
loop_
 _atom_site_type_symbol
 _atom_site_label
 _atom_site_symmetry_multiplicity
 _atom_site_fract_x
 _atom_site_fract_y
 _atom_site_fract_z
 _atom_site_occupancy
  Er  Er0  1  0.61942300  0.61942300  0.67725100  1
  Er  Er1  1  0.38057700  0.38057700  0.32274900  1
  Al  Al2  1  0.30523200  0.30523200  0.86669800  1
  Al  Al3  1  0.00000000  0.00000000  0.00000000  1
  Al  Al4  1  0.69476800  0.69476800  0.13330200  1
  Si  Si5  1  0.09351400  0.09351400  0.36042700  1
  Si  Si6  1  0.90648600  0.90648600  0.63957300  1
