# generated using pymatgen
data_NaV3(PbO3)4
_symmetry_space_group_name_H-M   'P 1'
_cell_length_a   10.28833657
_cell_length_b   10.28833657
_cell_length_c   7.41286500
_cell_angle_alpha   90.00000000
_cell_angle_beta   90.00000000
_cell_angle_gamma   120.00000368
_symmetry_Int_Tables_number   1
_chemical_formula_structural   NaV3(PbO3)4
_chemical_formula_sum   'Na2 V6 Pb8 O24'
_cell_volume   679.52749408
_cell_formula_units_Z   2
loop_
 _symmetry_equiv_pos_site_id
 _symmetry_equiv_pos_as_xyz
  1  'x, y, z'
loop_
 _atom_site_type_symbol
 _atom_site_label
 _atom_site_symmetry_multiplicity
 _atom_site_fract_x
 _atom_site_fract_y
 _atom_site_fract_z
 _atom_site_occupancy
  Na  Na0  1  0.33333300  0.66666700  0.00910300  1
  Na  Na1  1  0.66666700  0.33333300  0.50910300  1
  V  V2  1  0.60363900  0.62329500  0.75125300  1
  V  V3  1  0.01965600  0.39636100  0.75125300  1
  V  V4  1  0.37670500  0.98034400  0.75125300  1
  V  V5  1  0.39636100  0.37670500  0.25125300  1
  V  V6  1  0.98034400  0.60363900  0.25125300  1
  V  V7  1  0.62329500  0.01965600  0.25125300  1
  Pb  Pb8  1  0.00511900  0.74706600  0.74935200  1
  Pb  Pb9  1  0.74194700  0.99488100  0.74935200  1
  Pb  Pb10  1  0.25293400  0.25805300  0.74935200  1
  Pb  Pb11  1  0.99488100  0.25293400  0.24935200  1
  Pb  Pb12  1  0.25805300  0.00511900  0.24935200  1
  Pb  Pb13  1  0.74706600  0.74194700  0.24935200  1
  Pb  Pb14  1  0.66666700  0.33333300  0.97891900  1
  Pb  Pb15  1  0.33333300  0.66666700  0.47891900  1
  O  O16  1  0.25847700  0.91493900  0.56468000  1
  O  O17  1  0.65646200  0.74152300  0.56468000  1
  O  O18  1  0.08506100  0.34353800  0.56468000  1
  O  O19  1  0.74152300  0.08506100  0.06468000  1
  O  O20  1  0.34353800  0.25847700  0.06468000  1
  O  O21  1  0.91493900  0.65646200  0.06468000  1
  O  O22  1  0.74369900  0.08291100  0.43520400  1
  O  O23  1  0.33921200  0.25630100  0.43520400  1
  O  O24  1  0.91708900  0.66078800  0.43520400  1
  O  O25  1  0.25630100  0.91708900  0.93520400  1
  O  O26  1  0.66078800  0.74369900  0.93520400  1
  O  O27  1  0.08291100  0.33921200  0.93520400  1
  O  O28  1  0.10409700  0.59424400  0.75136300  1
  O  O29  1  0.49014700  0.89590300  0.75136300  1
  O  O30  1  0.40575600  0.50985300  0.75136300  1
  O  O31  1  0.89590300  0.40575600  0.25136300  1
  O  O32  1  0.50985300  0.10409700  0.25136300  1
  O  O33  1  0.59424400  0.49014700  0.25136300  1
  O  O34  1  0.69260400  0.51669300  0.75208000  1
  O  O35  1  0.82408900  0.30739600  0.75208000  1
  O  O36  1  0.48330700  0.17591100  0.75208000  1
  O  O37  1  0.30739600  0.48330700  0.25208000  1
  O  O38  1  0.17591100  0.69260400  0.25208000  1
  O  O39  1  0.51669300  0.82408900  0.25208000  1
