# generated using pymatgen
data_BaAl4
_symmetry_space_group_name_H-M   'P 1'
_cell_length_a   6.53415488
_cell_length_b   6.53415488
_cell_length_c   6.53415488
_cell_angle_alpha   139.00120330
_cell_angle_beta   139.00120330
_cell_angle_gamma   59.37301716
_symmetry_Int_Tables_number   1
_chemical_formula_structural   BaAl4
_chemical_formula_sum   'Ba1 Al4'
_cell_volume   118.89082903
_cell_formula_units_Z   1
loop_
 _symmetry_equiv_pos_site_id
 _symmetry_equiv_pos_as_xyz
  1  'x, y, z'
loop_
 _atom_site_type_symbol
 _atom_site_label
 _atom_site_symmetry_multiplicity
 _atom_site_fract_x
 _atom_site_fract_y
 _atom_site_fract_z
 _atom_site_occupancy
  Ba  Ba0  1  0.00000000  0.00000000  0.00000000  1
  Al  Al1  1  0.25000000  0.75000000  0.50000000  1
  Al  Al2  1  0.75000000  0.25000000  0.50000000  1
  Al  Al3  1  0.38107200  0.38107200  0.00000000  1
  Al  Al4  1  0.61892800  0.61892800  0.00000000  1
