# generated using pymatgen
data_Y3In5
_symmetry_space_group_name_H-M   'P 1'
_cell_length_a   6.40393893
_cell_length_b   6.40393893
_cell_length_c   10.43418700
_cell_angle_alpha   90.00000000
_cell_angle_beta   90.00000000
_cell_angle_gamma   101.44067829
_symmetry_Int_Tables_number   1
_chemical_formula_structural   Y3In5
_chemical_formula_sum   'Y6 In10'
_cell_volume   419.40820863
_cell_formula_units_Z   2
loop_
 _symmetry_equiv_pos_site_id
 _symmetry_equiv_pos_as_xyz
  1  'x, y, z'
loop_
 _atom_site_type_symbol
 _atom_site_label
 _atom_site_symmetry_multiplicity
 _atom_site_fract_x
 _atom_site_fract_y
 _atom_site_fract_z
 _atom_site_occupancy
  Y  Y0  1  0.62379000  0.62379000  0.25000000  1
  Y  Y1  1  0.37621000  0.37621000  0.75000000  1
  Y  Y2  1  0.20314400  0.79685600  0.50000000  1
  Y  Y3  1  0.20314400  0.79685600  0.00000000  1
  Y  Y4  1  0.79685600  0.20314400  0.50000000  1
  Y  Y5  1  0.79685600  0.20314400  0.00000000  1
  In  In6  1  0.00756700  0.00756700  0.25000000  1
  In  In7  1  0.99243300  0.99243300  0.75000000  1
  In  In8  1  0.30795900  0.30795900  0.04467700  1
  In  In9  1  0.69204100  0.69204100  0.95532300  1
  In  In10  1  0.30795900  0.30795900  0.45532300  1
  In  In11  1  0.69204100  0.69204100  0.54467700  1
  In  In12  1  0.51109500  0.07784400  0.25000000  1
  In  In13  1  0.92215600  0.48890500  0.75000000  1
  In  In14  1  0.48890500  0.92215600  0.75000000  1
  In  In15  1  0.07784400  0.51109500  0.25000000  1
