# generated using pymatgen
data_KNaLi2(SO4)2
_symmetry_space_group_name_H-M   'P 1'
_cell_length_a   4.99856800
_cell_length_b   7.88121100
_cell_length_c   19.33226700
_cell_angle_alpha   90.00000000
_cell_angle_beta   90.00000000
_cell_angle_gamma   90.00000000
_symmetry_Int_Tables_number   1
_chemical_formula_structural   KNaLi2(SO4)2
_chemical_formula_sum   'K4 Na4 Li8 S8 O32'
_cell_volume   761.59019476
_cell_formula_units_Z   4
loop_
 _symmetry_equiv_pos_site_id
 _symmetry_equiv_pos_as_xyz
  1  'x, y, z'
loop_
 _atom_site_type_symbol
 _atom_site_label
 _atom_site_symmetry_multiplicity
 _atom_site_fract_x
 _atom_site_fract_y
 _atom_site_fract_z
 _atom_site_occupancy
  K  K0  1  0.49760200  0.94340200  0.57272700  1
  K  K1  1  0.99760200  0.55659800  0.42727300  1
  K  K2  1  0.50239800  0.44340200  0.92727300  1
  K  K3  1  0.00239800  0.05659800  0.07272700  1
  Na  Na4  1  0.01522300  0.24928200  0.27618200  1
  Na  Na5  1  0.98477700  0.74928200  0.22381800  1
  Na  Na6  1  0.48477700  0.75071800  0.77618200  1
  Na  Na7  1  0.51522300  0.25071800  0.72381800  1
  Li  Li8  1  0.00476000  0.74371500  0.91116700  1
  Li  Li9  1  0.50476000  0.75628500  0.08883300  1
  Li  Li10  1  0.99524000  0.24371500  0.58883300  1
  Li  Li11  1  0.49524000  0.25628500  0.41116700  1
  Li  Li12  1  0.03565700  0.09932800  0.85940600  1
  Li  Li13  1  0.53565700  0.40067200  0.14059400  1
  Li  Li14  1  0.96434300  0.59932800  0.64059400  1
  Li  Li15  1  0.46434300  0.90067200  0.35940600  1
  S  S16  1  0.96724300  0.46788100  0.79319400  1
  S  S17  1  0.53275700  0.53211900  0.29319400  1
  S  S18  1  0.46724300  0.03211900  0.20680600  1
  S  S19  1  0.03275700  0.96788100  0.70680600  1
  S  S20  1  0.00792100  0.54818400  0.05928700  1
  S  S21  1  0.50792100  0.95181600  0.94071300  1
  S  S22  1  0.99207900  0.04818400  0.44071300  1
  S  S23  1  0.49207900  0.45181600  0.55928700  1
  O  O24  1  0.19964600  0.46160700  0.57700600  1
  O  O25  1  0.69964600  0.03839300  0.42299400  1
  O  O26  1  0.80035400  0.96160700  0.92299400  1
  O  O27  1  0.30035400  0.53839300  0.07700600  1
  O  O28  1  0.51840600  0.43367100  0.48285800  1
  O  O29  1  0.01840600  0.06632900  0.51714200  1
  O  O30  1  0.48159400  0.93367100  0.01714200  1
  O  O31  1  0.98159400  0.56632900  0.98285800  1
  O  O32  1  0.63089800  0.60910900  0.58185700  1
  O  O33  1  0.13089800  0.89089100  0.41814300  1
  O  O34  1  0.36910200  0.10910900  0.91814300  1
  O  O35  1  0.86910200  0.39089100  0.08185700  1
  O  O36  1  0.61033500  0.30101900  0.59468900  1
  O  O37  1  0.11033500  0.19898100  0.40531100  1
  O  O38  1  0.38966500  0.80101900  0.90531100  1
  O  O39  1  0.88966500  0.69898100  0.09468900  1
  O  O40  1  0.63173900  0.38084200  0.33234700  1
  O  O41  1  0.13173900  0.11915800  0.66765300  1
  O  O42  1  0.36826100  0.88084200  0.16765300  1
  O  O43  1  0.86826100  0.61915800  0.83234700  1
  O  O44  1  0.87135200  0.31068200  0.82875000  1
  O  O45  1  0.37135200  0.18931800  0.17125000  1
  O  O46  1  0.12864800  0.81068200  0.67125000  1
  O  O47  1  0.62864800  0.68931800  0.32875000  1
  O  O48  1  0.26509800  0.47012000  0.79024000  1
  O  O49  1  0.76509800  0.02988000  0.20976000  1
  O  O50  1  0.73490200  0.97012000  0.70976000  1
  O  O51  1  0.23490200  0.52988000  0.29024000  1
  O  O52  1  0.84975500  0.47282400  0.72237300  1
  O  O53  1  0.34975500  0.02717600  0.27762700  1
  O  O54  1  0.15024500  0.97282400  0.77762700  1
  O  O55  1  0.65024500  0.52717600  0.22237300  1
