# generated using pymatgen
data_Ga3Fe4Co8Si
_symmetry_space_group_name_H-M   'P 1'
_cell_length_a   13.36400835
_cell_length_b   13.36400835
_cell_length_c   13.36400905
_cell_angle_alpha   17.35456304
_cell_angle_beta   17.35456304
_cell_angle_gamma   17.35456579
_symmetry_Int_Tables_number   1
_chemical_formula_structural   Ga3Fe4Co8Si
_chemical_formula_sum   'Ga3 Fe4 Co8 Si1'
_cell_volume   185.31387579
_cell_formula_units_Z   1
loop_
 _symmetry_equiv_pos_site_id
 _symmetry_equiv_pos_as_xyz
  1  'x, y, z'
loop_
 _atom_site_type_symbol
 _atom_site_label
 _atom_site_symmetry_multiplicity
 _atom_site_fract_x
 _atom_site_fract_y
 _atom_site_fract_z
 _atom_site_occupancy
  Ga  Ga0  1  0.75067800  0.75067800  0.75067800  1
  Ga  Ga1  1  0.00000000  0.00000000  0.00000000  1
  Ga  Ga2  1  0.24932200  0.24932200  0.24932200  1
  Fe  Fe3  1  0.62470600  0.62470600  0.62470600  1
  Fe  Fe4  1  0.37529400  0.37529400  0.37529400  1
  Fe  Fe5  1  0.87510800  0.87510800  0.87510800  1
  Fe  Fe6  1  0.12489200  0.12489200  0.12489200  1
  Co  Co7  1  0.93715300  0.93715300  0.93715300  1
  Co  Co8  1  0.68772200  0.68772200  0.68772200  1
  Co  Co9  1  0.18595800  0.18595800  0.18595800  1
  Co  Co10  1  0.43967100  0.43967100  0.43967100  1
  Co  Co11  1  0.56032900  0.56032900  0.56032900  1
  Co  Co12  1  0.31227800  0.31227800  0.31227800  1
  Co  Co13  1  0.81404200  0.81404200  0.81404200  1
  Co  Co14  1  0.06284700  0.06284700  0.06284700  1
  Si  Si15  1  0.50000000  0.50000000  0.50000000  1
