# generated using pymatgen
data_Sm2Cr2C3
_symmetry_space_group_name_H-M   'P 1'
_cell_length_a   5.47979908
_cell_length_b   5.47979908
_cell_length_c   5.70787364
_cell_angle_alpha   75.56842509
_cell_angle_beta   75.56842509
_cell_angle_gamma   36.88740845
_symmetry_Int_Tables_number   1
_chemical_formula_structural   Sm2Cr2C3
_chemical_formula_sum   'Sm2 Cr2 C3'
_cell_volume   99.26628523
_cell_formula_units_Z   1
loop_
 _symmetry_equiv_pos_site_id
 _symmetry_equiv_pos_as_xyz
  1  'x, y, z'
loop_
 _atom_site_type_symbol
 _atom_site_label
 _atom_site_symmetry_multiplicity
 _atom_site_fract_x
 _atom_site_fract_y
 _atom_site_fract_z
 _atom_site_occupancy
  Sm  Sm0  1  0.39751200  0.39751200  0.81852800  1
  Sm  Sm1  1  0.60248800  0.60248800  0.18147200  1
  Cr  Cr2  1  0.15878900  0.15878900  0.60305100  1
  Cr  Cr3  1  0.84121100  0.84121100  0.39694900  1
  C  C4  1  0.29151600  0.29151600  0.28139200  1
  C  C5  1  0.70848400  0.70848400  0.71860800  1
  C  C6  1  0.00000000  0.00000000  0.50000000  1
