# generated using pymatgen
data_YbCu
_symmetry_space_group_name_H-M   'P 1'
_cell_length_a   4.27558100
_cell_length_b   5.59677200
_cell_length_c   7.25495700
_cell_angle_alpha   90.00000000
_cell_angle_beta   90.00000000
_cell_angle_gamma   90.00000000
_symmetry_Int_Tables_number   1
_chemical_formula_structural   YbCu
_chemical_formula_sum   'Yb4 Cu4'
_cell_volume   173.60714547
_cell_formula_units_Z   4
loop_
 _symmetry_equiv_pos_site_id
 _symmetry_equiv_pos_as_xyz
  1  'x, y, z'
loop_
 _atom_site_type_symbol
 _atom_site_label
 _atom_site_symmetry_multiplicity
 _atom_site_fract_x
 _atom_site_fract_y
 _atom_site_fract_z
 _atom_site_occupancy
  Yb  Yb0  1  0.25000000  0.13147900  0.18058800  1
  Yb  Yb1  1  0.75000000  0.86852100  0.81941200  1
  Yb  Yb2  1  0.75000000  0.63147900  0.31941200  1
  Yb  Yb3  1  0.25000000  0.36852100  0.68058800  1
  Cu  Cu4  1  0.25000000  0.61486000  0.03297200  1
  Cu  Cu5  1  0.75000000  0.38514000  0.96702800  1
  Cu  Cu6  1  0.75000000  0.11486000  0.46702800  1
  Cu  Cu7  1  0.25000000  0.88514000  0.53297200  1
