# generated using pymatgen
data_Ba3GaS4Cl
_symmetry_space_group_name_H-M   'P 1'
_cell_length_a   8.54563200
_cell_length_b   9.66571600
_cell_length_c   12.42017800
_cell_angle_alpha   90.00000000
_cell_angle_beta   90.00000000
_cell_angle_gamma   90.00000000
_symmetry_Int_Tables_number   1
_chemical_formula_structural   Ba3GaS4Cl
_chemical_formula_sum   'Ba12 Ga4 S16 Cl4'
_cell_volume   1025.90237999
_cell_formula_units_Z   4
loop_
 _symmetry_equiv_pos_site_id
 _symmetry_equiv_pos_as_xyz
  1  'x, y, z'
loop_
 _atom_site_type_symbol
 _atom_site_label
 _atom_site_symmetry_multiplicity
 _atom_site_fract_x
 _atom_site_fract_y
 _atom_site_fract_z
 _atom_site_occupancy
  Ba  Ba0  1  0.41367300  0.75000000  0.48091100  1
  Ba  Ba1  1  0.08632700  0.75000000  0.98091100  1
  Ba  Ba2  1  0.58632700  0.25000000  0.51908900  1
  Ba  Ba3  1  0.91367300  0.25000000  0.01908900  1
  Ba  Ba4  1  0.08452700  0.48007600  0.66774600  1
  Ba  Ba5  1  0.41547300  0.01992400  0.16774600  1
  Ba  Ba6  1  0.91547300  0.98007600  0.33225400  1
  Ba  Ba7  1  0.58452700  0.51992400  0.83225400  1
  Ba  Ba8  1  0.91547300  0.51992400  0.33225400  1
  Ba  Ba9  1  0.58452700  0.98007600  0.83225400  1
  Ba  Ba10  1  0.08452700  0.01992400  0.66774600  1
  Ba  Ba11  1  0.41547300  0.48007600  0.16774600  1
  Ga  Ga12  1  0.81085400  0.75000000  0.60616100  1
  Ga  Ga13  1  0.68914600  0.75000000  0.10616100  1
  Ga  Ga14  1  0.18914600  0.25000000  0.39383900  1
  Ga  Ga15  1  0.31085400  0.25000000  0.89383900  1
  S  S16  1  0.31322600  0.45129600  0.42692600  1
  S  S17  1  0.18677400  0.04870400  0.92692600  1
  S  S18  1  0.68677400  0.95129600  0.57307400  1
  S  S19  1  0.81322600  0.54870400  0.07307400  1
  S  S20  1  0.68677400  0.54870400  0.57307400  1
  S  S21  1  0.81322600  0.95129600  0.07307400  1
  S  S22  1  0.31322600  0.04870400  0.42692600  1
  S  S23  1  0.18677400  0.45129600  0.92692600  1
  S  S24  1  0.63708400  0.75000000  0.28704000  1
  S  S25  1  0.86291600  0.75000000  0.78704000  1
  S  S26  1  0.36291600  0.25000000  0.71296000  1
  S  S27  1  0.13708400  0.25000000  0.21296000  1
  S  S28  1  0.03627200  0.75000000  0.50656400  1
  S  S29  1  0.46372800  0.75000000  0.00656400  1
  S  S30  1  0.96372800  0.25000000  0.49343600  1
  S  S31  1  0.53627200  0.25000000  0.99343600  1
  Cl  Cl32  1  0.33279900  0.75000000  0.73033100  1
  Cl  Cl33  1  0.16720100  0.75000000  0.23033100  1
  Cl  Cl34  1  0.66720100  0.25000000  0.26966900  1
  Cl  Cl35  1  0.83279900  0.25000000  0.76966900  1
