# generated using pymatgen
data_Pr2Zn5Sn
_symmetry_space_group_name_H-M   'P 1'
_cell_length_a   8.62684045
_cell_length_b   8.62684045
_cell_length_c   9.10606000
_cell_angle_alpha   90.00000000
_cell_angle_beta   90.00000000
_cell_angle_gamma   149.63298182
_symmetry_Int_Tables_number   1
_chemical_formula_structural   Pr2Zn5Sn
_chemical_formula_sum   'Pr4 Zn10 Sn2'
_cell_volume   342.59982998
_cell_formula_units_Z   2
loop_
 _symmetry_equiv_pos_site_id
 _symmetry_equiv_pos_as_xyz
  1  'x, y, z'
loop_
 _atom_site_type_symbol
 _atom_site_label
 _atom_site_symmetry_multiplicity
 _atom_site_fract_x
 _atom_site_fract_y
 _atom_site_fract_z
 _atom_site_occupancy
  Pr  Pr0  1  0.20557500  0.79442500  0.25000000  1
  Pr  Pr1  1  0.79442500  0.20557500  0.75000000  1
  Pr  Pr2  1  0.00000000  0.00000000  0.50000000  1
  Pr  Pr3  1  0.00000000  0.00000000  0.00000000  1
  Zn  Zn4  1  0.81440600  0.18559400  0.39199000  1
  Zn  Zn5  1  0.18559400  0.81440600  0.60801000  1
  Zn  Zn6  1  0.81440600  0.18559400  0.10801000  1
  Zn  Zn7  1  0.18559400  0.81440600  0.89199000  1
  Zn  Zn8  1  0.65639000  0.34361000  0.48415900  1
  Zn  Zn9  1  0.34361000  0.65639000  0.51584100  1
  Zn  Zn10  1  0.65639000  0.34361000  0.01584100  1
  Zn  Zn11  1  0.34361000  0.65639000  0.98415900  1
  Zn  Zn12  1  0.39555300  0.60444700  0.25000000  1
  Zn  Zn13  1  0.60444700  0.39555300  0.75000000  1
  Sn  Sn14  1  0.55493300  0.44506700  0.25000000  1
  Sn  Sn15  1  0.44506700  0.55493300  0.75000000  1
