# generated using pymatgen
data_Tb3Al5O12
_symmetry_space_group_name_H-M   'P 1'
_cell_length_a   10.51600618
_cell_length_b   10.51600618
_cell_length_c   10.51600618
_cell_angle_alpha   109.47122063
_cell_angle_beta   109.47122063
_cell_angle_gamma   109.47122063
_symmetry_Int_Tables_number   1
_chemical_formula_structural   Tb3Al5O12
_chemical_formula_sum   'Tb12 Al20 O48'
_cell_volume   895.22171364
_cell_formula_units_Z   4
loop_
 _symmetry_equiv_pos_site_id
 _symmetry_equiv_pos_as_xyz
  1  'x, y, z'
loop_
 _atom_site_type_symbol
 _atom_site_label
 _atom_site_symmetry_multiplicity
 _atom_site_fract_x
 _atom_site_fract_y
 _atom_site_fract_z
 _atom_site_occupancy
  Tb  Tb0  1  0.87500000  0.62500000  0.25000000  1
  Tb  Tb1  1  0.62500000  0.25000000  0.87500000  1
  Tb  Tb2  1  0.87500000  0.75000000  0.62500000  1
  Tb  Tb3  1  0.75000000  0.62500000  0.87500000  1
  Tb  Tb4  1  0.25000000  0.87500000  0.62500000  1
  Tb  Tb5  1  0.62500000  0.87500000  0.75000000  1
  Tb  Tb6  1  0.12500000  0.37500000  0.75000000  1
  Tb  Tb7  1  0.37500000  0.75000000  0.12500000  1
  Tb  Tb8  1  0.12500000  0.25000000  0.37500000  1
  Tb  Tb9  1  0.25000000  0.37500000  0.12500000  1
  Tb  Tb10  1  0.75000000  0.12500000  0.37500000  1
  Tb  Tb11  1  0.37500000  0.12500000  0.25000000  1
  Al  Al12  1  0.12500000  0.87500000  0.25000000  1
  Al  Al13  1  0.87500000  0.12500000  0.75000000  1
  Al  Al14  1  0.25000000  0.62500000  0.37500000  1
  Al  Al15  1  0.37500000  0.25000000  0.62500000  1
  Al  Al16  1  0.75000000  0.87500000  0.12500000  1
  Al  Al17  1  0.12500000  0.75000000  0.87500000  1
  Al  Al18  1  0.37500000  0.62500000  0.75000000  1
  Al  Al19  1  0.62500000  0.75000000  0.37500000  1
  Al  Al20  1  0.87500000  0.25000000  0.12500000  1
  Al  Al21  1  0.25000000  0.12500000  0.87500000  1
  Al  Al22  1  0.75000000  0.37500000  0.62500000  1
  Al  Al23  1  0.62500000  0.37500000  0.25000000  1
  Al  Al24  1  0.50000000  0.50000000  0.50000000  1
  Al  Al25  1  0.50000000  0.00000000  0.50000000  1
  Al  Al26  1  0.00000000  0.50000000  0.50000000  1
  Al  Al27  1  0.50000000  0.50000000  0.00000000  1
  Al  Al28  1  0.00000000  0.00000000  0.50000000  1
  Al  Al29  1  0.00000000  0.50000000  0.00000000  1
  Al  Al30  1  0.50000000  0.00000000  0.00000000  1
  Al  Al31  1  0.00000000  0.00000000  0.00000000  1
  O  O32  1  0.67958800  0.09878000  0.98059500  1
  O  O33  1  0.80100800  0.41919200  0.82041200  1
  O  O34  1  0.08080800  0.88181500  0.40122000  1
  O  O35  1  0.61818500  0.69899200  0.51940500  1
  O  O36  1  0.40122000  0.82041200  0.51940500  1
  O  O37  1  0.69899200  0.51940500  0.61818500  1
  O  O38  1  0.69899200  0.67958800  0.08080800  1
  O  O39  1  0.51940500  0.61818500  0.69899200  1
  O  O40  1  0.09878000  0.61818500  0.41919200  1
  O  O41  1  0.88181500  0.98059500  0.80100800  1
  O  O42  1  0.98059500  0.80100800  0.88181500  1
  O  O43  1  0.51940500  0.40122000  0.82041200  1
  O  O44  1  0.67958800  0.08080800  0.69899200  1
  O  O45  1  0.41919200  0.09878000  0.61818500  1
  O  O46  1  0.82041200  0.51940500  0.40122000  1
  O  O47  1  0.08080800  0.69899200  0.67958800  1
  O  O48  1  0.61818500  0.41919200  0.09878000  1
  O  O49  1  0.82041200  0.80100800  0.41919200  1
  O  O50  1  0.88181500  0.40122000  0.08080800  1
  O  O51  1  0.90122000  0.38181500  0.58080800  1
  O  O52  1  0.40122000  0.08080800  0.88181500  1
  O  O53  1  0.98059500  0.67958800  0.09878000  1
  O  O54  1  0.41919200  0.82041200  0.80100800  1
  O  O55  1  0.80100800  0.88181500  0.98059500  1
  O  O56  1  0.32041200  0.90122000  0.01940500  1
  O  O57  1  0.19899200  0.58080800  0.17958800  1
  O  O58  1  0.91919200  0.11818500  0.59878000  1
  O  O59  1  0.38181500  0.30100800  0.48059500  1
  O  O60  1  0.59878000  0.17958800  0.48059500  1
  O  O61  1  0.30100800  0.48059500  0.38181500  1
  O  O62  1  0.30100800  0.32041200  0.91919200  1
  O  O63  1  0.48059500  0.38181500  0.30100800  1
  O  O64  1  0.19899200  0.11818500  0.01940500  1
  O  O65  1  0.58080800  0.17958800  0.19899200  1
  O  O66  1  0.01940500  0.32041200  0.90122000  1
  O  O67  1  0.90122000  0.01940500  0.32041200  1
  O  O68  1  0.59878000  0.91919200  0.11818500  1
  O  O69  1  0.11818500  0.59878000  0.91919200  1
  O  O70  1  0.17958800  0.19899200  0.58080800  1
  O  O71  1  0.38181500  0.58080800  0.90122000  1
  O  O72  1  0.91919200  0.30100800  0.32041200  1
  O  O73  1  0.17958800  0.48059500  0.59878000  1
  O  O74  1  0.58080800  0.90122000  0.38181500  1
  O  O75  1  0.32041200  0.91919200  0.30100800  1
  O  O76  1  0.48059500  0.59878000  0.17958800  1
  O  O77  1  0.01940500  0.19899200  0.11818500  1
  O  O78  1  0.11818500  0.01940500  0.19899200  1
  O  O79  1  0.09878000  0.98059500  0.67958800  1
