# generated using pymatgen
data_K2Hf2O5
_symmetry_space_group_name_H-M   'P 1'
_cell_length_a   5.86274300
_cell_length_b   8.81616300
_cell_length_c   10.75291900
_cell_angle_alpha   90.00000000
_cell_angle_beta   90.00000000
_cell_angle_gamma   90.00000000
_symmetry_Int_Tables_number   1
_chemical_formula_structural   K2Hf2O5
_chemical_formula_sum   'K8 Hf8 O20'
_cell_volume   555.78502664
_cell_formula_units_Z   4
loop_
 _symmetry_equiv_pos_site_id
 _symmetry_equiv_pos_as_xyz
  1  'x, y, z'
loop_
 _atom_site_type_symbol
 _atom_site_label
 _atom_site_symmetry_multiplicity
 _atom_site_fract_x
 _atom_site_fract_y
 _atom_site_fract_z
 _atom_site_occupancy
  K  K0  1  0.43345000  0.07590800  0.66650100  1
  K  K1  1  0.06655000  0.07590800  0.33349900  1
  K  K2  1  0.43345000  0.42409200  0.83349900  1
  K  K3  1  0.06655000  0.42409200  0.16650100  1
  K  K4  1  0.56655000  0.92409200  0.33349900  1
  K  K5  1  0.93345000  0.92409200  0.66650100  1
  K  K6  1  0.56655000  0.57590800  0.16650100  1
  K  K7  1  0.93345000  0.57590800  0.83349900  1
  Hf  Hf8  1  0.96778800  0.15911700  0.92401900  1
  Hf  Hf9  1  0.53221200  0.15911700  0.07598100  1
  Hf  Hf10  1  0.96778800  0.34088300  0.57598100  1
  Hf  Hf11  1  0.53221200  0.34088300  0.42401900  1
  Hf  Hf12  1  0.03221200  0.84088300  0.07598100  1
  Hf  Hf13  1  0.46778800  0.84088300  0.92401900  1
  Hf  Hf14  1  0.03221200  0.65911700  0.42401900  1
  Hf  Hf15  1  0.46778800  0.65911700  0.57598100  1
  O  O16  1  0.12748400  0.54959800  0.60584800  1
  O  O17  1  0.37251600  0.54959800  0.39415200  1
  O  O18  1  0.12748400  0.95040200  0.89415200  1
  O  O19  1  0.37251600  0.95040200  0.10584800  1
  O  O20  1  0.87251600  0.45040200  0.39415200  1
  O  O21  1  0.62748400  0.45040200  0.60584800  1
  O  O22  1  0.87251600  0.04959800  0.10584800  1
  O  O23  1  0.62748400  0.04959800  0.89415200  1
  O  O24  1  0.25000000  0.25274300  0.00000000  1
  O  O25  1  0.25000000  0.24725700  0.50000000  1
  O  O26  1  0.75000000  0.74725700  0.00000000  1
  O  O27  1  0.75000000  0.75274300  0.50000000  1
  O  O28  1  0.25000000  0.67900800  0.00000000  1
  O  O29  1  0.25000000  0.82099200  0.50000000  1
  O  O30  1  0.75000000  0.32099200  0.00000000  1
  O  O31  1  0.75000000  0.17900800  0.50000000  1
  O  O32  1  0.00392600  0.25000000  0.75000000  1
  O  O33  1  0.49607400  0.25000000  0.25000000  1
  O  O34  1  0.99607400  0.75000000  0.25000000  1
  O  O35  1  0.50392600  0.75000000  0.75000000  1
