# generated using pymatgen
data_Ba(Ni2B)6
_symmetry_space_group_name_H-M   'P 1'
_cell_length_a   6.11471723
_cell_length_b   6.11471723
_cell_length_c   6.11471688
_cell_angle_alpha   104.60375661
_cell_angle_beta   104.60375661
_cell_angle_gamma   104.60376422
_symmetry_Int_Tables_number   1
_chemical_formula_structural   Ba(Ni2B)6
_chemical_formula_sum   'Ba1 Ni12 B6'
_cell_volume   201.55983998
_cell_formula_units_Z   1
loop_
 _symmetry_equiv_pos_site_id
 _symmetry_equiv_pos_as_xyz
  1  'x, y, z'
loop_
 _atom_site_type_symbol
 _atom_site_label
 _atom_site_symmetry_multiplicity
 _atom_site_fract_x
 _atom_site_fract_y
 _atom_site_fract_z
 _atom_site_occupancy
  Ba  Ba0  1  0.00000000  0.00000000  0.00000000  1
  Ni  Ni1  1  0.13233300  0.50000000  0.86766700  1
  Ni  Ni2  1  0.18771500  0.46514800  0.46514800  1
  Ni  Ni3  1  0.50000000  0.86766700  0.13233300  1
  Ni  Ni4  1  0.46514800  0.18771500  0.46514800  1
  Ni  Ni5  1  0.53485200  0.81228500  0.53485200  1
  Ni  Ni6  1  0.81228500  0.53485200  0.53485200  1
  Ni  Ni7  1  0.53485200  0.53485200  0.81228500  1
  Ni  Ni8  1  0.50000000  0.13233300  0.86766700  1
  Ni  Ni9  1  0.86766700  0.50000000  0.13233300  1
  Ni  Ni10  1  0.13233300  0.86766700  0.50000000  1
  Ni  Ni11  1  0.46514800  0.46514800  0.18771500  1
  Ni  Ni12  1  0.86766700  0.13233300  0.50000000  1
  B  B13  1  0.76829100  0.76829100  0.35037000  1
  B  B14  1  0.23170900  0.64963000  0.23170900  1
  B  B15  1  0.23170900  0.23170900  0.64963000  1
  B  B16  1  0.64963000  0.23170900  0.23170900  1
  B  B17  1  0.35037000  0.76829100  0.76829100  1
  B  B18  1  0.76829100  0.35037000  0.76829100  1
