# generated using pymatgen
data_HoZnRh
_symmetry_space_group_name_H-M   'P 1'
_cell_length_a   4.03625300
_cell_length_b   6.91874300
_cell_length_c   8.12414200
_cell_angle_alpha   90.00000000
_cell_angle_beta   90.00000000
_cell_angle_gamma   90.00000000
_symmetry_Int_Tables_number   1
_chemical_formula_structural   HoZnRh
_chemical_formula_sum   'Ho4 Zn4 Rh4'
_cell_volume   226.87314183
_cell_formula_units_Z   4
loop_
 _symmetry_equiv_pos_site_id
 _symmetry_equiv_pos_as_xyz
  1  'x, y, z'
loop_
 _atom_site_type_symbol
 _atom_site_label
 _atom_site_symmetry_multiplicity
 _atom_site_fract_x
 _atom_site_fract_y
 _atom_site_fract_z
 _atom_site_occupancy
  Ho  Ho0  1  0.25000000  0.53924300  0.18351500  1
  Ho  Ho1  1  0.75000000  0.46075700  0.81648500  1
  Ho  Ho2  1  0.25000000  0.03924300  0.31648500  1
  Ho  Ho3  1  0.75000000  0.96075700  0.68351500  1
  Zn  Zn4  1  0.25000000  0.13663600  0.93657900  1
  Zn  Zn5  1  0.75000000  0.86336400  0.06342100  1
  Zn  Zn6  1  0.25000000  0.63663600  0.56342100  1
  Zn  Zn7  1  0.75000000  0.36336400  0.43657900  1
  Rh  Rh8  1  0.75000000  0.74577400  0.37606400  1
  Rh  Rh9  1  0.25000000  0.25422600  0.62393600  1
  Rh  Rh10  1  0.75000000  0.24577400  0.12393600  1
  Rh  Rh11  1  0.25000000  0.75422600  0.87606400  1
