# generated using pymatgen
data_Np2SO10
_symmetry_space_group_name_H-M   'P 1'
_cell_length_a   10.69430000
_cell_length_b   5.98677300
_cell_length_c   12.63871665
_cell_angle_alpha   90.00000000
_cell_angle_beta   96.18967960
_cell_angle_gamma   90.00000000
_symmetry_Int_Tables_number   1
_chemical_formula_structural   Np2SO10
_chemical_formula_sum   'Np8 S4 O40'
_cell_volume   804.46834662
_cell_formula_units_Z   4
loop_
 _symmetry_equiv_pos_site_id
 _symmetry_equiv_pos_as_xyz
  1  'x, y, z'
loop_
 _atom_site_type_symbol
 _atom_site_label
 _atom_site_symmetry_multiplicity
 _atom_site_fract_x
 _atom_site_fract_y
 _atom_site_fract_z
 _atom_site_occupancy
  Np  Np0  1  0.38702200  0.78883500  0.17011100  1
  Np  Np1  1  0.61297800  0.28883500  0.32988900  1
  Np  Np2  1  0.61297800  0.21116500  0.82988900  1
  Np  Np3  1  0.38702200  0.71116500  0.67011100  1
  Np  Np4  1  0.09900900  0.31104800  0.17033800  1
  Np  Np5  1  0.90099100  0.81104800  0.32966200  1
  Np  Np6  1  0.90099100  0.68895200  0.82966200  1
  Np  Np7  1  0.09900900  0.18895200  0.67033800  1
  S  S8  1  0.23298100  0.60553800  0.39496400  1
  S  S9  1  0.76701900  0.10553800  0.10503600  1
  S  S10  1  0.76701900  0.39446200  0.60503600  1
  S  S11  1  0.23298100  0.89446200  0.89496400  1
  O  O12  1  0.10853900  0.69450300  0.41222600  1
  O  O13  1  0.89146100  0.19450300  0.08777400  1
  O  O14  1  0.89146100  0.30549700  0.58777400  1
  O  O15  1  0.10853900  0.80549700  0.91222600  1
  O  O16  1  0.30947900  0.56190500  0.49636400  1
  O  O17  1  0.69052100  0.06190500  0.00363600  1
  O  O18  1  0.69052100  0.43809500  0.50363600  1
  O  O19  1  0.30947900  0.93809500  0.99636400  1
  O  O20  1  0.30229600  0.77026800  0.33206000  1
  O  O21  1  0.69770400  0.27026800  0.16794000  1
  O  O22  1  0.69770400  0.22973200  0.66794000  1
  O  O23  1  0.30229600  0.72973200  0.83206000  1
  O  O24  1  0.21741000  0.39041000  0.33315100  1
  O  O25  1  0.78259000  0.89041000  0.16684900  1
  O  O26  1  0.78259000  0.60959000  0.66684900  1
  O  O27  1  0.21741000  0.10959000  0.83315100  1
  O  O28  1  0.50841700  0.69295600  0.08796900  1
  O  O29  1  0.49158300  0.19295600  0.41203100  1
  O  O30  1  0.49158300  0.30704400  0.91203100  1
  O  O31  1  0.50841700  0.80704400  0.58796900  1
  O  O32  1  0.10574200  0.33793200  0.02618300  1
  O  O33  1  0.89425800  0.83793200  0.47381700  1
  O  O34  1  0.89425800  0.66206800  0.97381700  1
  O  O35  1  0.10574200  0.16206800  0.52618300  1
  O  O36  1  0.28586900  0.54396500  0.14297800  1
  O  O37  1  0.71413100  0.04396500  0.35702200  1
  O  O38  1  0.71413100  0.45603500  0.85702200  1
  O  O39  1  0.28586900  0.95603500  0.64297800  1
  O  O40  1  0.47268600  0.04876800  0.20932400  1
  O  O41  1  0.52731400  0.54876800  0.29067600  1
  O  O42  1  0.52731400  0.95123200  0.79067600  1
  O  O43  1  0.47268600  0.45123200  0.70932400  1
  O  O44  1  0.01639700  0.56970800  0.20167500  1
  O  O45  1  0.98360300  0.06970800  0.29832500  1
  O  O46  1  0.98360300  0.43029200  0.79832500  1
  O  O47  1  0.01639700  0.93029200  0.70167500  1
  O  O48  1  0.18864400  0.04846300  0.17164600  1
  O  O49  1  0.81135600  0.54846300  0.32835400  1
  O  O50  1  0.81135600  0.95153700  0.82835400  1
  O  O51  1  0.18864400  0.45153700  0.67164600  1
