# generated using pymatgen
data_Zn2PN3
_symmetry_space_group_name_H-M   'P 1'
_cell_length_a   5.45936598
_cell_length_b   5.45936598
_cell_length_c   4.97771900
_cell_angle_alpha   90.00000000
_cell_angle_beta   90.00000000
_cell_angle_gamma   119.40381540
_symmetry_Int_Tables_number   1
_chemical_formula_structural   Zn2PN3
_chemical_formula_sum   'Zn4 P2 N6'
_cell_volume   129.24782653
_cell_formula_units_Z   2
loop_
 _symmetry_equiv_pos_site_id
 _symmetry_equiv_pos_as_xyz
  1  'x, y, z'
loop_
 _atom_site_type_symbol
 _atom_site_label
 _atom_site_symmetry_multiplicity
 _atom_site_fract_x
 _atom_site_fract_y
 _atom_site_fract_z
 _atom_site_occupancy
  Zn  Zn0  1  0.49555500  0.82439200  0.46829800  1
  Zn  Zn1  1  0.82439200  0.49555500  0.46829800  1
  Zn  Zn2  1  0.50444500  0.17560800  0.96829800  1
  Zn  Zn3  1  0.17560800  0.50444500  0.96829800  1
  P  P4  1  0.84023800  0.84023800  0.95661600  1
  P  P5  1  0.15976200  0.15976200  0.45661600  1
  N  N6  1  0.55198100  0.83997600  0.87438700  1
  N  N7  1  0.83997600  0.55198100  0.87438700  1
  N  N8  1  0.44801900  0.16002400  0.37438700  1
  N  N9  1  0.16002400  0.44801900  0.37438700  1
  N  N10  1  0.88250300  0.88250300  0.30239400  1
  N  N11  1  0.11749700  0.11749700  0.80239400  1
