# generated using pymatgen
data_Li4ZnIn2F12
_symmetry_space_group_name_H-M   'P 1'
_cell_length_a   4.87250400
_cell_length_b   5.08586600
_cell_length_c   18.05927300
_cell_angle_alpha   90.00000000
_cell_angle_beta   90.00000000
_cell_angle_gamma   90.00000000
_symmetry_Int_Tables_number   1
_chemical_formula_structural   Li4ZnIn2F12
_chemical_formula_sum   'Li8 Zn2 In4 F24'
_cell_volume   447.52508214
_cell_formula_units_Z   2
loop_
 _symmetry_equiv_pos_site_id
 _symmetry_equiv_pos_as_xyz
  1  'x, y, z'
loop_
 _atom_site_type_symbol
 _atom_site_label
 _atom_site_symmetry_multiplicity
 _atom_site_fract_x
 _atom_site_fract_y
 _atom_site_fract_z
 _atom_site_occupancy
  Li  Li0  1  0.00000000  0.00000000  0.70388300  1
  Li  Li1  1  0.50000000  0.50000000  0.79211900  1
  Li  Li2  1  0.00000000  0.50000000  0.29211900  1
  Li  Li3  1  0.50000000  0.00000000  0.20388300  1
  Li  Li4  1  0.00000000  0.00000000  0.22526400  1
  Li  Li5  1  0.50000000  0.00000000  0.72526400  1
  Li  Li6  1  0.00000000  0.00000000  0.54854100  1
  Li  Li7  1  0.50000000  0.00000000  0.04854100  1
  Zn  Zn8  1  0.50000000  0.50000000  0.95703200  1
  Zn  Zn9  1  0.00000000  0.50000000  0.45703200  1
  In  In10  1  0.00000000  0.00000000  0.87902000  1
  In  In11  1  0.50000000  0.50000000  0.61803100  1
  In  In12  1  0.00000000  0.50000000  0.11803100  1
  In  In13  1  0.50000000  0.00000000  0.37902000  1
  F  F14  1  0.70469500  0.69072500  0.70746700  1
  F  F15  1  0.76725100  0.15984200  0.79056300  1
  F  F16  1  0.23274900  0.84015800  0.79056300  1
  F  F17  1  0.29530500  0.30927500  0.70746700  1
  F  F18  1  0.26725100  0.84015800  0.29056300  1
  F  F19  1  0.20469500  0.30927500  0.20746700  1
  F  F20  1  0.79530500  0.69072500  0.20746700  1
  F  F21  1  0.73274900  0.15984200  0.29056300  1
  F  F22  1  0.76373900  0.67190700  0.53847900  1
  F  F23  1  0.74012000  0.16730000  0.96078200  1
  F  F24  1  0.25988000  0.83270000  0.96078200  1
  F  F25  1  0.23626100  0.32809300  0.53847900  1
  F  F26  1  0.24012000  0.83270000  0.46078200  1
  F  F27  1  0.26373900  0.32809300  0.03847900  1
  F  F28  1  0.73626100  0.67190700  0.03847900  1
  F  F29  1  0.75988000  0.16730000  0.46078200  1
  F  F30  1  0.76837200  0.66718500  0.37496400  1
  F  F31  1  0.74298800  0.16513600  0.12824900  1
  F  F32  1  0.25701200  0.83486400  0.12824900  1
  F  F33  1  0.23162800  0.33281500  0.37496400  1
  F  F34  1  0.24298800  0.83486400  0.62824900  1
  F  F35  1  0.26837200  0.33281500  0.87496400  1
  F  F36  1  0.73162800  0.66718500  0.87496400  1
  F  F37  1  0.75701200  0.16513600  0.62824900  1
