# generated using pymatgen
data_Rb3FeS3
_symmetry_space_group_name_H-M   'P 1'
_cell_length_a   10.25299238
_cell_length_b   10.25299238
_cell_length_c   12.92789000
_cell_angle_alpha   90.00000000
_cell_angle_beta   90.00000000
_cell_angle_gamma   140.15841875
_symmetry_Int_Tables_number   1
_chemical_formula_structural   Rb3FeS3
_chemical_formula_sum   'Rb12 Fe4 S12'
_cell_volume   870.68555142
_cell_formula_units_Z   4
loop_
 _symmetry_equiv_pos_site_id
 _symmetry_equiv_pos_as_xyz
  1  'x, y, z'
loop_
 _atom_site_type_symbol
 _atom_site_label
 _atom_site_symmetry_multiplicity
 _atom_site_fract_x
 _atom_site_fract_y
 _atom_site_fract_z
 _atom_site_occupancy
  Rb  Rb0  1  0.86448500  0.86448500  0.32185600  1
  Rb  Rb1  1  0.13551500  0.13551500  0.67814400  1
  Rb  Rb2  1  0.63551500  0.63551500  0.82185600  1
  Rb  Rb3  1  0.36448500  0.36448500  0.17814400  1
  Rb  Rb4  1  0.83230500  0.47825700  0.12705500  1
  Rb  Rb5  1  0.52174300  0.16769500  0.87294500  1
  Rb  Rb6  1  0.02174300  0.66769500  0.62705500  1
  Rb  Rb7  1  0.33230500  0.97825700  0.37294500  1
  Rb  Rb8  1  0.16769500  0.52174300  0.87294500  1
  Rb  Rb9  1  0.47825700  0.83230500  0.12705500  1
  Rb  Rb10  1  0.97825700  0.33230500  0.37294500  1
  Rb  Rb11  1  0.66769500  0.02174300  0.62705500  1
  Fe  Fe12  1  0.08137700  0.91862300  0.00000000  1
  Fe  Fe13  1  0.58137700  0.41862300  0.50000000  1
  Fe  Fe14  1  0.91862300  0.08137700  0.00000000  1
  Fe  Fe15  1  0.41862300  0.58137700  0.50000000  1
  S  S16  1  0.99746100  0.29229500  0.11904500  1
  S  S17  1  0.70770500  0.00253900  0.88095500  1
  S  S18  1  0.20770500  0.50253900  0.61904500  1
  S  S19  1  0.49746100  0.79229500  0.38095500  1
  S  S20  1  0.00253900  0.70770500  0.88095500  1
  S  S21  1  0.29229500  0.99746100  0.11904500  1
  S  S22  1  0.79229500  0.49746100  0.38095500  1
  S  S23  1  0.50253900  0.20770500  0.61904500  1
  S  S24  1  0.78854500  0.78854500  0.06932500  1
  S  S25  1  0.21145500  0.21145500  0.93067500  1
  S  S26  1  0.71145500  0.71145500  0.56932500  1
  S  S27  1  0.28854500  0.28854500  0.43067500  1
