# generated using pymatgen
data_In4As5(BrO4)3
_symmetry_space_group_name_H-M   'P 1'
_cell_length_a   8.16807700
_cell_length_b   10.74958613
_cell_length_c   12.17432103
_cell_angle_alpha   70.80393479
_cell_angle_beta   79.59755983
_cell_angle_gamma   80.34682493
_symmetry_Int_Tables_number   1
_chemical_formula_structural   In4As5(BrO4)3
_chemical_formula_sum   'In8 As10 Br6 O24'
_cell_volume   986.14644082
_cell_formula_units_Z   2
loop_
 _symmetry_equiv_pos_site_id
 _symmetry_equiv_pos_as_xyz
  1  'x, y, z'
loop_
 _atom_site_type_symbol
 _atom_site_label
 _atom_site_symmetry_multiplicity
 _atom_site_fract_x
 _atom_site_fract_y
 _atom_site_fract_z
 _atom_site_occupancy
  In  In0  1  0.00000000  0.50000000  0.00000000  1
  In  In1  1  0.00000000  0.00000000  0.00000000  1
  In  In2  1  0.74043300  0.78916400  0.98670400  1
  In  In3  1  0.25956700  0.21083600  0.01329600  1
  In  In4  1  0.34793700  0.70946800  0.98753400  1
  In  In5  1  0.65206300  0.29053200  0.01246600  1
  In  In6  1  0.84601900  0.80042200  0.47830300  1
  In  In7  1  0.15398100  0.19957800  0.52169700  1
  As  As8  1  0.97289600  0.32025200  0.80353600  1
  As  As9  1  0.02710400  0.67974800  0.19646400  1
  As  As10  1  0.74549900  0.62219200  0.77044100  1
  As  As11  1  0.25450100  0.37780800  0.22955900  1
  As  As12  1  0.37454800  0.52178100  0.81743300  1
  As  As13  1  0.62545200  0.47821900  0.18256700  1
  As  As14  1  0.07484000  0.91083700  0.74506300  1
  As  As15  1  0.92516000  0.08916300  0.25493700  1
  As  As16  1  0.60234900  0.99254600  0.18326700  1
  As  As17  1  0.39765100  0.00745400  0.81673300  1
  Br  Br18  1  0.90063200  0.35617400  0.44521400  1
  Br  Br19  1  0.09936800  0.64382600  0.55478600  1
  Br  Br20  1  0.73514700  0.97034500  0.58958500  1
  Br  Br21  1  0.26485300  0.02965500  0.41041500  1
  Br  Br22  1  0.61027200  0.67631200  0.47273100  1
  Br  Br23  1  0.38972800  0.32368800  0.52726900  1
  O  O24  1  0.83954600  0.65584500  0.87756900  1
  O  O25  1  0.16045400  0.34415500  0.12243100  1
  O  O26  1  0.75935300  0.91726600  0.08986700  1
  O  O27  1  0.24064700  0.08273400  0.91013300  1
  O  O28  1  0.22305900  0.59377300  0.91647300  1
  O  O29  1  0.77694100  0.40622700  0.08352700  1
  O  O30  1  0.86308200  0.19511200  0.91771600  1
  O  O31  1  0.13691800  0.80488800  0.08228400  1
  O  O32  1  0.52762300  0.61450700  0.84960500  1
  O  O33  1  0.47237700  0.38549300  0.15039500  1
  O  O34  1  0.43930500  0.35963000  0.91467400  1
  O  O35  1  0.56069500  0.64037000  0.08532600  1
  O  O36  1  0.78371600  0.43818500  0.82574700  1
  O  O37  1  0.21628400  0.56181500  0.17425300  1
  O  O38  1  0.90629300  0.63517700  0.10493300  1
  O  O39  1  0.09370700  0.36482300  0.89506700  1
  O  O40  1  0.50263600  0.87832800  0.92966600  1
  O  O41  1  0.49736400  0.12167200  0.07033400  1
  O  O42  1  0.93240200  0.91277900  0.87824000  1
  O  O43  1  0.06759800  0.08722100  0.12176000  1
  O  O44  1  0.91384000  0.91599900  0.30659400  1
  O  O45  1  0.08616000  0.08400100  0.69340600  1
  O  O46  1  0.27241300  0.87654300  0.82108500  1
  O  O47  1  0.72758700  0.12345700  0.17891500  1
