# generated using pymatgen
data_CsYb(WO4)2
_symmetry_space_group_name_H-M   'P 1'
_cell_length_a   5.34440900
_cell_length_b   7.44729500
_cell_length_c   9.44974777
_cell_angle_alpha   84.51387075
_cell_angle_beta   90.00000000
_cell_angle_gamma   90.00000000
_symmetry_Int_Tables_number   1
_chemical_formula_structural   CsYb(WO4)2
_chemical_formula_sum   'Cs2 Yb2 W4 O16'
_cell_volume   374.39026657
_cell_formula_units_Z   2
loop_
 _symmetry_equiv_pos_site_id
 _symmetry_equiv_pos_as_xyz
  1  'x, y, z'
loop_
 _atom_site_type_symbol
 _atom_site_label
 _atom_site_symmetry_multiplicity
 _atom_site_fract_x
 _atom_site_fract_y
 _atom_site_fract_z
 _atom_site_occupancy
  Cs  Cs0  1  0.40684000  0.75000000  0.50000000  1
  Cs  Cs1  1  0.59316000  0.25000000  0.50000000  1
  Yb  Yb2  1  0.47094500  0.75000000  0.00000000  1
  Yb  Yb3  1  0.52905500  0.25000000  0.00000000  1
  W  W4  1  0.97806400  0.51137900  0.18113400  1
  W  W5  1  0.02193600  0.48862100  0.81886600  1
  W  W6  1  0.97806400  0.98862100  0.81886600  1
  W  W7  1  0.02193600  0.01137900  0.18113400  1
  O  O8  1  0.86589200  0.25607100  0.16710700  1
  O  O9  1  0.13410800  0.74392900  0.83289300  1
  O  O10  1  0.86589200  0.24392900  0.83289300  1
  O  O11  1  0.13410800  0.75607100  0.16710700  1
  O  O12  1  0.89001500  0.94927600  0.35337700  1
  O  O13  1  0.10998500  0.05072400  0.64662300  1
  O  O14  1  0.89001500  0.55072400  0.64662300  1
  O  O15  1  0.10998500  0.44927600  0.35337700  1
  O  O16  1  0.77105200  0.97068300  0.03457300  1
  O  O17  1  0.22894800  0.02931700  0.96542700  1
  O  O18  1  0.77105200  0.52931700  0.96542700  1
  O  O19  1  0.22894800  0.47068300  0.03457300  1
  O  O20  1  0.66648600  0.60141900  0.21701500  1
  O  O21  1  0.33351400  0.39858100  0.78298500  1
  O  O22  1  0.66648600  0.89858100  0.78298500  1
  O  O23  1  0.33351400  0.10141900  0.21701500  1
