# generated using pymatgen
data_K2Zr6BeCl15
_symmetry_space_group_name_H-M   'P 1'
_cell_length_a   10.12414442
_cell_length_b   10.12414442
_cell_length_c   14.38136200
_cell_angle_alpha   90.00000000
_cell_angle_beta   90.00000000
_cell_angle_gamma   110.16018647
_symmetry_Int_Tables_number   1
_chemical_formula_structural   K2Zr6BeCl15
_chemical_formula_sum   'K4 Zr12 Be2 Cl30'
_cell_volume   1383.75321988
_cell_formula_units_Z   2
loop_
 _symmetry_equiv_pos_site_id
 _symmetry_equiv_pos_as_xyz
  1  'x, y, z'
loop_
 _atom_site_type_symbol
 _atom_site_label
 _atom_site_symmetry_multiplicity
 _atom_site_fract_x
 _atom_site_fract_y
 _atom_site_fract_z
 _atom_site_occupancy
  K  K0  1  0.00000000  0.00000000  0.25000000  1
  K  K1  1  0.00000000  0.00000000  0.75000000  1
  K  K2  1  0.50000000  0.00000000  0.00000000  1
  K  K3  1  0.00000000  0.50000000  0.50000000  1
  Zr  Zr4  1  0.00526300  0.26792400  0.00000000  1
  Zr  Zr5  1  0.99473700  0.73207600  0.00000000  1
  Zr  Zr6  1  0.73207600  0.99473700  0.50000000  1
  Zr  Zr7  1  0.26792400  0.00526300  0.50000000  1
  Zr  Zr8  1  0.82233700  0.44048600  0.11847700  1
  Zr  Zr9  1  0.17766300  0.55951400  0.88152300  1
  Zr  Zr10  1  0.17766300  0.55951400  0.11847700  1
  Zr  Zr11  1  0.55951400  0.17766300  0.38152300  1
  Zr  Zr12  1  0.82233700  0.44048600  0.88152300  1
  Zr  Zr13  1  0.44048600  0.82233700  0.61847700  1
  Zr  Zr14  1  0.44048600  0.82233700  0.38152300  1
  Zr  Zr15  1  0.55951400  0.17766300  0.61847700  1
  Be  Be16  1  0.00000000  0.50000000  0.00000000  1
  Be  Be17  1  0.50000000  0.00000000  0.50000000  1
  Cl  Cl18  1  0.62675600  0.37324400  0.25000000  1
  Cl  Cl19  1  0.37324400  0.62675600  0.75000000  1
  Cl  Cl20  1  0.37324400  0.62675600  0.25000000  1
  Cl  Cl21  1  0.62675600  0.37324400  0.75000000  1
  Cl  Cl22  1  0.00000000  0.50000000  0.25370500  1
  Cl  Cl23  1  0.00000000  0.50000000  0.74629500  1
  Cl  Cl24  1  0.50000000  0.00000000  0.24629500  1
  Cl  Cl25  1  0.50000000  0.00000000  0.75370500  1
  Cl  Cl26  1  0.19272800  0.30946100  0.12830900  1
  Cl  Cl27  1  0.80727200  0.69053900  0.87169100  1
  Cl  Cl28  1  0.80727200  0.69053900  0.12830900  1
  Cl  Cl29  1  0.69053900  0.80727200  0.37169100  1
  Cl  Cl30  1  0.19272800  0.30946100  0.87169100  1
  Cl  Cl31  1  0.30946100  0.19272800  0.62830900  1
  Cl  Cl32  1  0.30946100  0.19272800  0.37169100  1
  Cl  Cl33  1  0.69053900  0.80727200  0.62830900  1
  Cl  Cl34  1  0.38328200  0.63743600  0.00000000  1
  Cl  Cl35  1  0.61671800  0.36256400  0.00000000  1
  Cl  Cl36  1  0.36256400  0.61671800  0.50000000  1
  Cl  Cl37  1  0.63743600  0.38328200  0.50000000  1
  Cl  Cl38  1  0.82218800  0.19054700  0.37581100  1
  Cl  Cl39  1  0.17781200  0.80945300  0.62418900  1
  Cl  Cl40  1  0.17781200  0.80945300  0.37581100  1
  Cl  Cl41  1  0.80945300  0.17781200  0.12418900  1
  Cl  Cl42  1  0.82218800  0.19054700  0.62418900  1
  Cl  Cl43  1  0.19054700  0.82218800  0.87581100  1
  Cl  Cl44  1  0.19054700  0.82218800  0.12418900  1
  Cl  Cl45  1  0.80945300  0.17781200  0.87581100  1
  Cl  Cl46  1  0.00000000  0.00000000  0.00000000  1
  Cl  Cl47  1  0.00000000  0.00000000  0.50000000  1
