# generated using pymatgen
data_Ca5As3HO13
_symmetry_space_group_name_H-M   'P 1'
_cell_length_a   9.92235569
_cell_length_b   9.92235569
_cell_length_c   7.00853100
_cell_angle_alpha   90.00000000
_cell_angle_beta   90.00000000
_cell_angle_gamma   119.99999791
_symmetry_Int_Tables_number   1
_chemical_formula_structural   Ca5As3HO13
_chemical_formula_sum   'Ca10 As6 H2 O26'
_cell_volume   597.56784724
_cell_formula_units_Z   2
loop_
 _symmetry_equiv_pos_site_id
 _symmetry_equiv_pos_as_xyz
  1  'x, y, z'
loop_
 _atom_site_type_symbol
 _atom_site_label
 _atom_site_symmetry_multiplicity
 _atom_site_fract_x
 _atom_site_fract_y
 _atom_site_fract_z
 _atom_site_occupancy
  Ca  Ca0  1  0.33333300  0.66666700  0.49873000  1
  Ca  Ca1  1  0.66666700  0.33333300  0.99873000  1
  Ca  Ca2  1  0.66666700  0.33333300  0.50196500  1
  Ca  Ca3  1  0.33333300  0.66666700  0.00196500  1
  Ca  Ca4  1  0.75812800  0.74981400  0.25087000  1
  Ca  Ca5  1  0.99168600  0.24187200  0.25087000  1
  Ca  Ca6  1  0.25018600  0.00831400  0.25087000  1
  Ca  Ca7  1  0.24187200  0.25018600  0.75087000  1
  Ca  Ca8  1  0.00831400  0.75812800  0.75087000  1
  Ca  Ca9  1  0.74981400  0.99168600  0.75087000  1
  As  As10  1  0.97291900  0.60179000  0.25141700  1
  As  As11  1  0.62887000  0.02708100  0.25141700  1
  As  As12  1  0.39821000  0.37113000  0.25141700  1
  As  As13  1  0.02708100  0.39821000  0.75141700  1
  As  As14  1  0.37113000  0.97291900  0.75141700  1
  As  As15  1  0.60179000  0.62887000  0.75141700  1
  H  H16  1  0.00000000  0.00000000  0.42528100  1
  H  H17  1  0.00000000  0.00000000  0.92528100  1
  O  O18  1  0.86853300  0.40014700  0.24926700  1
  O  O19  1  0.53161400  0.13146700  0.24926700  1
  O  O20  1  0.59985300  0.46838600  0.24926700  1
  O  O21  1  0.13146700  0.59985300  0.74926700  1
  O  O22  1  0.46838600  0.86853300  0.74926700  1
  O  O23  1  0.40014700  0.53161400  0.74926700  1
  O  O24  1  0.16963900  0.67406000  0.25122300  1
  O  O25  1  0.50442100  0.83036100  0.25122300  1
  O  O26  1  0.32594000  0.49557900  0.25122300  1
  O  O27  1  0.83036100  0.32594000  0.75122300  1
  O  O28  1  0.49557900  0.16963900  0.75122300  1
  O  O29  1  0.67406000  0.50442100  0.75122300  1
  O  O30  1  0.90827400  0.65869700  0.44629000  1
  O  O31  1  0.75042300  0.09172600  0.44629000  1
  O  O32  1  0.34130300  0.24957700  0.44629000  1
  O  O33  1  0.09172600  0.34130300  0.94629000  1
  O  O34  1  0.24957700  0.90827400  0.94629000  1
  O  O35  1  0.65869700  0.75042300  0.94629000  1
  O  O36  1  0.08949000  0.33636500  0.55870100  1
  O  O37  1  0.24687500  0.91051000  0.55870100  1
  O  O38  1  0.66363500  0.75312500  0.55870100  1
  O  O39  1  0.91051000  0.66363500  0.05870100  1
  O  O40  1  0.75312500  0.08949000  0.05870100  1
  O  O41  1  0.33636500  0.24687500  0.05870100  1
  O  O42  1  0.00000000  0.00000000  0.28582700  1
  O  O43  1  0.00000000  0.00000000  0.78582700  1
