# generated using pymatgen
data_Ta9VO25
_symmetry_space_group_name_H-M   'P 1'
_cell_length_a   3.86145645
_cell_length_b   11.41886649
_cell_length_c   11.41886661
_cell_angle_alpha   88.36175853
_cell_angle_beta   80.26553802
_cell_angle_gamma   80.26553608
_symmetry_Int_Tables_number   1
_chemical_formula_structural   Ta9VO25
_chemical_formula_sum   'Ta9 V1 O25'
_cell_volume   489.10290352
_cell_formula_units_Z   1
loop_
 _symmetry_equiv_pos_site_id
 _symmetry_equiv_pos_as_xyz
  1  'x, y, z'
loop_
 _atom_site_type_symbol
 _atom_site_label
 _atom_site_symmetry_multiplicity
 _atom_site_fract_x
 _atom_site_fract_y
 _atom_site_fract_z
 _atom_site_occupancy
  Ta  Ta0  1  0.78184900  0.11757800  0.32256000  1
  Ta  Ta1  1  0.87770900  0.79649300  0.44158100  1
  Ta  Ta2  1  0.11578500  0.20350700  0.55841800  1
  Ta  Ta3  1  0.68071000  0.44158200  0.20350700  1
  Ta  Ta4  1  0.32579900  0.55841800  0.79649300  1
  Ta  Ta5  1  0.89559200  0.32255900  0.88242100  1
  Ta  Ta6  1  0.10057100  0.67744100  0.11757900  1
  Ta  Ta7  1  0.22198900  0.88242200  0.67744000  1
  Ta  Ta8  1  0.00000000  0.00000000  0.00000000  1
  V  V9  1  0.25000000  0.50000000  0.50000000  1
  O  O10  1  0.93875600  0.63035200  0.51302300  1
  O  O11  1  0.54822100  0.51302300  0.36964800  1
  O  O12  1  0.43089300  0.48697700  0.63035200  1
  O  O13  1  0.08213300  0.36964800  0.48697700  1
  O  O14  1  0.50000000  0.00000000  0.00000000  1
  O  O15  1  0.25047600  0.13985100  0.36483500  1
  O  O16  1  0.38469000  0.36483600  0.86014900  1
  O  O17  1  0.60967400  0.63516400  0.13985100  1
  O  O18  1  0.75516100  0.86014900  0.63516400  1
  O  O19  1  0.83075200  0.96072700  0.39180700  1
  O  O20  1  0.98274600  0.73460900  0.28966100  1
  O  O21  1  0.72759200  0.28966200  0.26539100  1
  O  O22  1  0.28264500  0.71033800  0.73460900  1
  O  O23  1  0.00701800  0.26539100  0.71033800  1
  O  O24  1  0.94786600  0.16746500  0.93655700  1
  O  O25  1  0.11557800  0.93655700  0.83253500  1
  O  O26  1  0.88466900  0.06344300  0.16746500  1
  O  O27  1  0.77744000  0.39180700  0.03927300  1
  O  O28  1  0.35429500  0.80745100  0.48887900  1
  O  O29  1  0.15682600  0.48887900  0.19254900  1
  O  O30  1  0.83825400  0.51112100  0.80745000  1
  O  O31  1  0.65062500  0.19254900  0.51112100  1
  O  O32  1  0.18328600  0.03927300  0.60819300  1
  O  O33  1  0.20852000  0.60819300  0.96072700  1
  O  O34  1  0.05188700  0.83253500  0.06344300  1
