# generated using pymatgen
data_ErCoSi
_symmetry_space_group_name_H-M   'P 1'
_cell_length_a   4.17325700
_cell_length_b   6.85781900
_cell_length_c   6.85296100
_cell_angle_alpha   90.00000000
_cell_angle_beta   90.00000000
_cell_angle_gamma   90.00000000
_symmetry_Int_Tables_number   1
_chemical_formula_structural   ErCoSi
_chemical_formula_sum   'Er4 Co4 Si4'
_cell_volume   196.12791402
_cell_formula_units_Z   4
loop_
 _symmetry_equiv_pos_site_id
 _symmetry_equiv_pos_as_xyz
  1  'x, y, z'
loop_
 _atom_site_type_symbol
 _atom_site_label
 _atom_site_symmetry_multiplicity
 _atom_site_fract_x
 _atom_site_fract_y
 _atom_site_fract_z
 _atom_site_occupancy
  Er  Er0  1  0.75000000  0.51960900  0.81241100  1
  Er  Er1  1  0.75000000  0.01960900  0.68758900  1
  Er  Er2  1  0.25000000  0.48039100  0.18758900  1
  Er  Er3  1  0.25000000  0.98039100  0.31241100  1
  Co  Co4  1  0.75000000  0.35589600  0.43734700  1
  Co  Co5  1  0.75000000  0.85589600  0.06265300  1
  Co  Co6  1  0.25000000  0.64410400  0.56265300  1
  Co  Co7  1  0.25000000  0.14410400  0.93734700  1
  Si  Si8  1  0.75000000  0.19494200  0.11026300  1
  Si  Si9  1  0.75000000  0.69494200  0.38973700  1
  Si  Si10  1  0.25000000  0.80505800  0.88973700  1
  Si  Si11  1  0.25000000  0.30505800  0.61026300  1
