# generated using pymatgen
data_CsLa(NbBr3)6
_symmetry_space_group_name_H-M   'P 1'
_cell_length_a   10.03327026
_cell_length_b   10.03327026
_cell_length_c   18.74645700
_cell_angle_alpha   90.00000000
_cell_angle_beta   90.00000000
_cell_angle_gamma   120.00000170
_symmetry_Int_Tables_number   1
_chemical_formula_structural   CsLa(NbBr3)6
_chemical_formula_sum   'Cs2 La2 Nb12 Br36'
_cell_volume   1634.31153324
_cell_formula_units_Z   2
loop_
 _symmetry_equiv_pos_site_id
 _symmetry_equiv_pos_as_xyz
  1  'x, y, z'
loop_
 _atom_site_type_symbol
 _atom_site_label
 _atom_site_symmetry_multiplicity
 _atom_site_fract_x
 _atom_site_fract_y
 _atom_site_fract_z
 _atom_site_occupancy
  Cs  Cs0  1  0.33333300  0.66666700  0.75000000  1
  Cs  Cs1  1  0.66666700  0.33333300  0.25000000  1
  La  La2  1  0.66666700  0.33333300  0.75000000  1
  La  La3  1  0.33333300  0.66666700  0.25000000  1
  Nb  Nb4  1  0.85111800  0.03727400  0.56433300  1
  Nb  Nb5  1  0.14888200  0.96272600  0.43566700  1
  Nb  Nb6  1  0.96272600  0.81384400  0.56433300  1
  Nb  Nb7  1  0.85111800  0.81384400  0.93566700  1
  Nb  Nb8  1  0.03727400  0.18615600  0.43566700  1
  Nb  Nb9  1  0.14888200  0.18615600  0.06433300  1
  Nb  Nb10  1  0.18615600  0.14888200  0.56433300  1
  Nb  Nb11  1  0.96272600  0.14888200  0.93566700  1
  Nb  Nb12  1  0.81384400  0.85111800  0.43566700  1
  Nb  Nb13  1  0.03727400  0.85111800  0.06433300  1
  Nb  Nb14  1  0.18615600  0.03727400  0.93566700  1
  Nb  Nb15  1  0.81384400  0.96272600  0.06433300  1
  Br  Br16  1  0.63739700  0.07784500  0.65799300  1
  Br  Br17  1  0.36260300  0.92215500  0.34200700  1
  Br  Br18  1  0.92215500  0.55955200  0.65799300  1
  Br  Br19  1  0.63739700  0.55955200  0.84200700  1
  Br  Br20  1  0.07784500  0.44044800  0.34200700  1
  Br  Br21  1  0.36260300  0.44044800  0.15799300  1
  Br  Br22  1  0.44044800  0.36260300  0.65799300  1
  Br  Br23  1  0.92215500  0.36260300  0.84200700  1
  Br  Br24  1  0.55955200  0.63739700  0.34200700  1
  Br  Br25  1  0.07784500  0.63739700  0.15799300  1
  Br  Br26  1  0.44044800  0.07784500  0.84200700  1
  Br  Br27  1  0.55955200  0.92215500  0.15799300  1
  Br  Br28  1  0.04505200  0.22908700  0.65790600  1
  Br  Br29  1  0.95494800  0.77091300  0.34209400  1
  Br  Br30  1  0.77091300  0.81596400  0.65790600  1
  Br  Br31  1  0.04505200  0.81596400  0.84209400  1
  Br  Br32  1  0.22908700  0.18403600  0.34209400  1
  Br  Br33  1  0.95494800  0.18403600  0.15790600  1
  Br  Br34  1  0.18403600  0.95494800  0.65790600  1
  Br  Br35  1  0.77091300  0.95494800  0.84209400  1
  Br  Br36  1  0.81596400  0.04505200  0.34209400  1
  Br  Br37  1  0.22908700  0.04505200  0.15790600  1
  Br  Br38  1  0.18403600  0.22908700  0.84209400  1
  Br  Br39  1  0.81596400  0.77091300  0.15790600  1
  Br  Br40  1  0.27304900  0.41161000  0.50053800  1
  Br  Br41  1  0.72695100  0.58839000  0.49946200  1
  Br  Br42  1  0.58839000  0.86143900  0.50053800  1
  Br  Br43  1  0.27304900  0.86143900  0.99946200  1
  Br  Br44  1  0.41161000  0.13856100  0.49946200  1
  Br  Br45  1  0.72695100  0.13856100  0.00053800  1
  Br  Br46  1  0.13856100  0.72695100  0.50053800  1
  Br  Br47  1  0.58839000  0.72695100  0.99946200  1
  Br  Br48  1  0.86143900  0.27304900  0.49946200  1
  Br  Br49  1  0.41161000  0.27304900  0.00053800  1
  Br  Br50  1  0.13856100  0.41161000  0.99946200  1
  Br  Br51  1  0.86143900  0.58839000  0.00053800  1
