# generated using pymatgen
data_RbPr2Cl7
_symmetry_space_group_name_H-M   'P 1'
_cell_length_a   9.85716500
_cell_length_b   14.93585500
_cell_length_c   16.88585600
_cell_angle_alpha   90.00000000
_cell_angle_beta   90.00000000
_cell_angle_gamma   90.00000000
_symmetry_Int_Tables_number   1
_chemical_formula_structural   RbPr2Cl7
_chemical_formula_sum   'Rb8 Pr16 Cl56'
_cell_volume   2486.02330981
_cell_formula_units_Z   8
loop_
 _symmetry_equiv_pos_site_id
 _symmetry_equiv_pos_as_xyz
  1  'x, y, z'
loop_
 _atom_site_type_symbol
 _atom_site_label
 _atom_site_symmetry_multiplicity
 _atom_site_fract_x
 _atom_site_fract_y
 _atom_site_fract_z
 _atom_site_occupancy
  Rb  Rb0  1  0.25000000  0.91470800  0.59552400  1
  Rb  Rb1  1  0.75000000  0.08529200  0.40447600  1
  Rb  Rb2  1  0.75000000  0.58529200  0.09552400  1
  Rb  Rb3  1  0.25000000  0.41470800  0.90447600  1
  Rb  Rb4  1  0.25000000  0.56612000  0.56730300  1
  Rb  Rb5  1  0.75000000  0.43388000  0.43269700  1
  Rb  Rb6  1  0.75000000  0.93388000  0.06730300  1
  Rb  Rb7  1  0.25000000  0.06612000  0.93269700  1
  Pr  Pr8  1  0.02689200  0.74421200  0.83872100  1
  Pr  Pr9  1  0.97310800  0.25578800  0.16127900  1
  Pr  Pr10  1  0.97310800  0.75578800  0.33872100  1
  Pr  Pr11  1  0.52689200  0.25578800  0.16127900  1
  Pr  Pr12  1  0.02689200  0.24421200  0.66127900  1
  Pr  Pr13  1  0.47310800  0.74421200  0.83872100  1
  Pr  Pr14  1  0.47310800  0.24421200  0.66127900  1
  Pr  Pr15  1  0.52689200  0.75578800  0.33872100  1
  Pr  Pr16  1  0.25000000  0.70977800  0.06038200  1
  Pr  Pr17  1  0.75000000  0.29022200  0.93961800  1
  Pr  Pr18  1  0.75000000  0.79022200  0.56038200  1
  Pr  Pr19  1  0.25000000  0.20977800  0.43961800  1
  Pr  Pr20  1  0.25000000  0.51094200  0.25541500  1
  Pr  Pr21  1  0.75000000  0.48905800  0.74458500  1
  Pr  Pr22  1  0.75000000  0.98905800  0.75541500  1
  Pr  Pr23  1  0.25000000  0.01094200  0.24458500  1
  Cl  Cl24  1  0.57599000  0.91559200  0.88084400  1
  Cl  Cl25  1  0.42401000  0.08440800  0.11915600  1
  Cl  Cl26  1  0.42401000  0.58440800  0.38084400  1
  Cl  Cl27  1  0.07599000  0.08440800  0.11915600  1
  Cl  Cl28  1  0.57599000  0.41559200  0.61915600  1
  Cl  Cl29  1  0.92401000  0.91559200  0.88084400  1
  Cl  Cl30  1  0.92401000  0.41559200  0.61915600  1
  Cl  Cl31  1  0.07599000  0.58440800  0.38084400  1
  Cl  Cl32  1  0.02241600  0.78105500  0.50466700  1
  Cl  Cl33  1  0.97758400  0.21894500  0.49533300  1
  Cl  Cl34  1  0.97758400  0.71894500  0.00466700  1
  Cl  Cl35  1  0.52241600  0.21894500  0.49533300  1
  Cl  Cl36  1  0.02241600  0.28105500  0.99533300  1
  Cl  Cl37  1  0.47758400  0.78105500  0.50466700  1
  Cl  Cl38  1  0.47758400  0.28105500  0.99533300  1
  Cl  Cl39  1  0.52241600  0.71894500  0.00466700  1
  Cl  Cl40  1  0.25000000  0.80968200  0.34092700  1
  Cl  Cl41  1  0.75000000  0.19031800  0.65907300  1
  Cl  Cl42  1  0.75000000  0.69031800  0.84092700  1
  Cl  Cl43  1  0.25000000  0.30968200  0.15907300  1
  Cl  Cl44  1  0.25000000  0.75600900  0.73007700  1
  Cl  Cl45  1  0.75000000  0.24399100  0.26992300  1
  Cl  Cl46  1  0.75000000  0.74399100  0.23007700  1
  Cl  Cl47  1  0.25000000  0.25600900  0.76992300  1
  Cl  Cl48  1  0.57620600  0.83194400  0.69718500  1
  Cl  Cl49  1  0.42379400  0.16805600  0.30281500  1
  Cl  Cl50  1  0.42379400  0.66805600  0.19718500  1
  Cl  Cl51  1  0.07620600  0.16805600  0.30281500  1
  Cl  Cl52  1  0.57620600  0.33194400  0.80281500  1
  Cl  Cl53  1  0.92379400  0.83194400  0.69718500  1
  Cl  Cl54  1  0.92379400  0.33194400  0.80281500  1
  Cl  Cl55  1  0.07620600  0.66805600  0.19718500  1
  Cl  Cl56  1  0.01169300  0.57107700  0.76665800  1
  Cl  Cl57  1  0.98830700  0.42892300  0.23334200  1
  Cl  Cl58  1  0.98830700  0.92892300  0.26665800  1
  Cl  Cl59  1  0.51169300  0.42892300  0.23334200  1
  Cl  Cl60  1  0.01169300  0.07107700  0.73334200  1
  Cl  Cl61  1  0.48830700  0.57107700  0.76665800  1
  Cl  Cl62  1  0.48830700  0.07107700  0.73334200  1
  Cl  Cl63  1  0.51169300  0.92892300  0.26665800  1
  Cl  Cl64  1  0.25000000  0.52263800  0.08409200  1
  Cl  Cl65  1  0.75000000  0.47736200  0.91590800  1
  Cl  Cl66  1  0.75000000  0.97736200  0.58409200  1
  Cl  Cl67  1  0.25000000  0.02263800  0.41590800  1
  Cl  Cl68  1  0.25000000  0.87897600  0.12318500  1
  Cl  Cl69  1  0.75000000  0.12102400  0.87681500  1
  Cl  Cl70  1  0.75000000  0.62102400  0.62318500  1
  Cl  Cl71  1  0.25000000  0.37897600  0.37681500  1
  Cl  Cl72  1  0.25000000  0.84186200  0.92019900  1
  Cl  Cl73  1  0.75000000  0.15813800  0.07980100  1
  Cl  Cl74  1  0.75000000  0.65813800  0.42019900  1
  Cl  Cl75  1  0.25000000  0.34186200  0.57980100  1
  Cl  Cl76  1  0.25000000  0.62918800  0.90328600  1
  Cl  Cl77  1  0.75000000  0.37081200  0.09671400  1
  Cl  Cl78  1  0.75000000  0.87081200  0.40328600  1
  Cl  Cl79  1  0.25000000  0.12918800  0.59671400  1
