# generated using pymatgen
data_CsDySiS4
_symmetry_space_group_name_H-M   'P 1'
_cell_length_a   6.40610900
_cell_length_b   6.74577200
_cell_length_c   18.04430700
_cell_angle_alpha   90.00000000
_cell_angle_beta   90.00000000
_cell_angle_gamma   90.00000000
_symmetry_Int_Tables_number   1
_chemical_formula_structural   CsDySiS4
_chemical_formula_sum   'Cs4 Dy4 Si4 S16'
_cell_volume   779.76940236
_cell_formula_units_Z   4
loop_
 _symmetry_equiv_pos_site_id
 _symmetry_equiv_pos_as_xyz
  1  'x, y, z'
loop_
 _atom_site_type_symbol
 _atom_site_label
 _atom_site_symmetry_multiplicity
 _atom_site_fract_x
 _atom_site_fract_y
 _atom_site_fract_z
 _atom_site_occupancy
  Cs  Cs0  1  0.50157100  0.49352000  0.96692600  1
  Cs  Cs1  1  0.99842900  0.50648000  0.46692600  1
  Cs  Cs2  1  0.00157100  0.00648000  0.03307400  1
  Cs  Cs3  1  0.49842900  0.99352000  0.53307400  1
  Dy  Dy4  1  0.29188200  0.47949600  0.22864300  1
  Dy  Dy5  1  0.20811800  0.52050400  0.72864300  1
  Dy  Dy6  1  0.79188200  0.02050400  0.77135700  1
  Dy  Dy7  1  0.70811800  0.97949600  0.27135700  1
  Si  Si8  1  0.79088300  0.51733700  0.16967000  1
  Si  Si9  1  0.70911700  0.48266300  0.66967000  1
  Si  Si10  1  0.29088300  0.98266300  0.83033000  1
  Si  Si11  1  0.20911700  0.01733700  0.33033000  1
  S  S12  1  0.05333800  0.51106400  0.09887400  1
  S  S13  1  0.44666200  0.48893600  0.59887400  1
  S  S14  1  0.55333800  0.98893600  0.90112600  1
  S  S15  1  0.94666200  0.01106400  0.40112600  1
  S  S16  1  0.60491500  0.42298600  0.77936300  1
  S  S17  1  0.89508500  0.57701400  0.27936300  1
  S  S18  1  0.10491500  0.07701400  0.22063700  1
  S  S19  1  0.39508500  0.92298600  0.72063700  1
  S  S20  1  0.56825300  0.74730200  0.14895700  1
  S  S21  1  0.93174700  0.25269800  0.64895700  1
  S  S22  1  0.06825300  0.75269800  0.85104300  1
  S  S23  1  0.43174700  0.24730200  0.35104300  1
  S  S24  1  0.60463500  0.25430400  0.15866000  1
  S  S25  1  0.89536500  0.74569600  0.65866000  1
  S  S26  1  0.10463500  0.24569600  0.84134000  1
  S  S27  1  0.39536500  0.75430400  0.34134000  1
