# generated using pymatgen
data_BaFe3(PO4)3
_symmetry_space_group_name_H-M   'P 1'
_cell_length_a   9.29547476
_cell_length_b   9.29547476
_cell_length_c   9.29547476
_cell_angle_alpha   137.60260569
_cell_angle_beta   109.81559150
_cell_angle_gamma   85.55627231
_symmetry_Int_Tables_number   1
_chemical_formula_structural   BaFe3(PO4)3
_chemical_formula_sum   'Ba2 Fe6 P6 O24'
_cell_volume   490.21264687
_cell_formula_units_Z   2
loop_
 _symmetry_equiv_pos_site_id
 _symmetry_equiv_pos_as_xyz
  1  'x, y, z'
loop_
 _atom_site_type_symbol
 _atom_site_label
 _atom_site_symmetry_multiplicity
 _atom_site_fract_x
 _atom_site_fract_y
 _atom_site_fract_z
 _atom_site_occupancy
  Ba  Ba0  1  0.75000000  0.14066300  0.39066300  1
  Ba  Ba1  1  0.25000000  0.85933700  0.60933700  1
  Fe  Fe2  1  0.00000000  0.00000000  0.00000000  1
  Fe  Fe3  1  0.50000000  0.50000000  0.00000000  1
  Fe  Fe4  1  0.61795000  0.61795000  0.50000000  1
  Fe  Fe5  1  0.88205000  0.38205000  0.00000000  1
  Fe  Fe6  1  0.11795000  0.61795000  0.00000000  1
  Fe  Fe7  1  0.38205000  0.38205000  0.50000000  1
  P  P8  1  0.82203200  0.82203200  0.50000000  1
  P  P9  1  0.67796800  0.17796800  0.00000000  1
  P  P10  1  0.32203200  0.82203200  0.00000000  1
  P  P11  1  0.17796800  0.17796800  0.50000000  1
  P  P12  1  0.75000000  0.64576100  0.89576100  1
  P  P13  1  0.25000000  0.35423900  0.10423900  1
  O  O14  1  0.63278100  0.50776700  0.64054900  1
  O  O15  1  0.13278100  0.49223300  0.12501400  1
  O  O16  1  0.36721900  0.49223300  0.35945100  1
  O  O17  1  0.86721900  0.50776700  0.87498600  1
  O  O18  1  0.15640600  0.13038500  0.97397800  1
  O  O19  1  0.84359400  0.86961500  0.02602200  1
  O  O20  1  0.65640600  0.68242800  0.02602200  1
  O  O21  1  0.34359400  0.31757200  0.97397800  1
  O  O22  1  0.86136500  0.79304200  0.65621800  1
  O  O23  1  0.86317600  0.20695800  0.06832300  1
  O  O24  1  0.36136500  0.70514700  0.06832300  1
  O  O25  1  0.36317600  0.29485300  0.65621800  1
  O  O26  1  0.13863500  0.20695800  0.34378200  1
  O  O27  1  0.13682400  0.79304200  0.93167700  1
  O  O28  1  0.63863500  0.29485300  0.93167700  1
  O  O29  1  0.63682400  0.70514700  0.34378200  1
  O  O30  1  0.85038600  0.06698100  0.64873600  1
  O  O31  1  0.58175600  0.93301900  0.78340600  1
  O  O32  1  0.35038600  0.70165000  0.78340600  1
  O  O33  1  0.08175600  0.29835000  0.64873600  1
  O  O34  1  0.14961400  0.93301900  0.35126400  1
  O  O35  1  0.41824400  0.06698100  0.21659400  1
  O  O36  1  0.64961400  0.29835000  0.21659400  1
  O  O37  1  0.91824400  0.70165000  0.35126400  1
