# generated using pymatgen
data_CsSi2BO6
_symmetry_space_group_name_H-M   'P 1'
_cell_length_a   11.38970566
_cell_length_b   11.38970566
_cell_length_c   11.38970566
_cell_angle_alpha   109.25511422
_cell_angle_beta   109.25511422
_cell_angle_gamma   109.90430343
_symmetry_Int_Tables_number   1
_chemical_formula_structural   CsSi2BO6
_chemical_formula_sum   'Cs8 Si16 B8 O48'
_cell_volume   1137.35747327
_cell_formula_units_Z   8
loop_
 _symmetry_equiv_pos_site_id
 _symmetry_equiv_pos_as_xyz
  1  'x, y, z'
loop_
 _atom_site_type_symbol
 _atom_site_label
 _atom_site_symmetry_multiplicity
 _atom_site_fract_x
 _atom_site_fract_y
 _atom_site_fract_z
 _atom_site_occupancy
  Cs  Cs0  1  0.37347300  0.37347300  0.24694500  1
  Cs  Cs1  1  0.62652700  0.87347300  0.00000000  1
  Cs  Cs2  1  0.12347300  0.62347300  0.74694500  1
  Cs  Cs3  1  0.37652700  0.12347300  0.50000000  1
  Cs  Cs4  1  0.87652700  0.37652700  0.25305500  1
  Cs  Cs5  1  0.62347300  0.87652700  0.50000000  1
  Cs  Cs6  1  0.12652700  0.12652700  0.75305500  1
  Cs  Cs7  1  0.87347300  0.62652700  0.00000000  1
  Si  Si8  1  0.90511100  0.13018500  0.95740800  1
  Si  Si9  1  0.67277700  0.63018500  0.22507400  1
  Si  Si10  1  0.88018500  0.15511100  0.45740800  1
  Si  Si11  1  0.19770300  0.65511100  0.27492600  1
  Si  Si12  1  0.34488900  0.61981500  0.54259200  1
  Si  Si13  1  0.57722300  0.11981500  0.27492600  1
  Si  Si14  1  0.36981500  0.59488900  0.04259200  1
  Si  Si15  1  0.05229700  0.09488900  0.22507400  1
  Si  Si16  1  0.40511100  0.44770300  0.77492600  1
  Si  Si17  1  0.17277700  0.94770200  0.04259200  1
  Si  Si18  1  0.38018500  0.92277700  0.72507400  1
  Si  Si19  1  0.69770200  0.42277700  0.54259200  1
  Si  Si20  1  0.84488900  0.30229700  0.72507400  1
  Si  Si21  1  0.07722300  0.80229700  0.45740800  1
  Si  Si22  1  0.86981500  0.82722300  0.77492600  1
  Si  Si23  1  0.55229700  0.32722300  0.95740800  1
  B  B24  1  0.58561100  0.58561100  0.67122300  1
  B  B25  1  0.41438900  0.08561100  0.00000000  1
  B  B26  1  0.33561100  0.83561100  0.17122300  1
  B  B27  1  0.16438900  0.33561100  0.50000000  1
  B  B28  1  0.66438900  0.16438900  0.82877700  1
  B  B29  1  0.83561100  0.66438900  0.50000000  1
  B  B30  1  0.91438900  0.91438900  0.32877700  1
  B  B31  1  0.08561100  0.41438900  0.00000000  1
  O  O32  1  0.23466700  0.46667300  0.02485600  1
  O  O33  1  0.94181700  0.96667300  0.23200600  1
  O  O34  1  0.21667300  0.48466700  0.52485600  1
  O  O35  1  0.45981100  0.98466700  0.26799400  1
  O  O36  1  0.01533300  0.28332700  0.47514400  1
  O  O37  1  0.30818300  0.78332700  0.26799400  1
  O  O38  1  0.03332700  0.26533300  0.97514400  1
  O  O39  1  0.79018900  0.76533300  0.23200600  1
  O  O40  1  0.73466700  0.70981100  0.76799400  1
  O  O41  1  0.44181700  0.20981100  0.97514400  1
  O  O42  1  0.71667300  0.19181700  0.73200600  1
  O  O43  1  0.95981100  0.69181700  0.47514400  1
  O  O44  1  0.51533300  0.04018900  0.73200600  1
  O  O45  1  0.80818300  0.54018900  0.52485600  1
  O  O46  1  0.53332700  0.55818300  0.76799400  1
  O  O47  1  0.29018900  0.05818300  0.02485600  1
  O  O48  1  0.95250500  0.12186100  0.10636800  1
  O  O49  1  0.51549300  0.62186100  0.16935600  1
  O  O50  1  0.87186100  0.20250500  0.60636800  1
  O  O51  1  0.09613700  0.70250500  0.33064400  1
  O  O52  1  0.29749500  0.62813900  0.39363200  1
  O  O53  1  0.73450700  0.12813900  0.33064400  1
  O  O54  1  0.37813900  0.54749500  0.89363200  1
  O  O55  1  0.15386300  0.04749500  0.16935600  1
  O  O56  1  0.45250500  0.34613700  0.83064400  1
  O  O57  1  0.01549300  0.84613700  0.89363200  1
  O  O58  1  0.37186100  0.76549300  0.66935600  1
  O  O59  1  0.59613700  0.26549300  0.39363200  1
  O  O60  1  0.79749500  0.40386300  0.66935600  1
  O  O61  1  0.23450700  0.90386300  0.60636800  1
  O  O62  1  0.87813900  0.98450700  0.83064400  1
  O  O63  1  0.65386300  0.48450700  0.10636800  1
  O  O64  1  0.08287800  0.50496100  0.12547300  1
  O  O65  1  0.87948800  0.00496100  0.42208200  1
  O  O66  1  0.25496100  0.33287800  0.62547300  1
  O  O67  1  0.20740500  0.83287800  0.07791800  1
  O  O68  1  0.16712200  0.24503900  0.37452700  1
  O  O69  1  0.37051200  0.74503900  0.07791800  1
  O  O70  1  0.99503900  0.41712200  0.87452700  1
  O  O71  1  0.04259500  0.91712200  0.42208200  1
  O  O72  1  0.58287800  0.45740500  0.57791800  1
  O  O73  1  0.37948800  0.95740500  0.87452700  1
  O  O74  1  0.75496100  0.12948800  0.92208200  1
  O  O75  1  0.70740500  0.62948800  0.37452700  1
  O  O76  1  0.66712200  0.29259500  0.92208200  1
  O  O77  1  0.87051200  0.79259500  0.62547300  1
  O  O78  1  0.49503900  0.62051200  0.57791800  1
  O  O79  1  0.54259500  0.12051200  0.12547300  1
