# generated using pymatgen
data_Sc2InNi2
_symmetry_space_group_name_H-M   'P 1'
_cell_length_a   7.14297800
_cell_length_b   7.14297800
_cell_length_c   3.37771200
_cell_angle_alpha   90.00000000
_cell_angle_beta   90.00000000
_cell_angle_gamma   90.00000000
_symmetry_Int_Tables_number   1
_chemical_formula_structural   Sc2InNi2
_chemical_formula_sum   'Sc4 In2 Ni4'
_cell_volume   172.33807667
_cell_formula_units_Z   2
loop_
 _symmetry_equiv_pos_site_id
 _symmetry_equiv_pos_as_xyz
  1  'x, y, z'
loop_
 _atom_site_type_symbol
 _atom_site_label
 _atom_site_symmetry_multiplicity
 _atom_site_fract_x
 _atom_site_fract_y
 _atom_site_fract_z
 _atom_site_occupancy
  Sc  Sc0  1  0.67157200  0.17157200  0.50000000  1
  Sc  Sc1  1  0.17157200  0.32842800  0.50000000  1
  Sc  Sc2  1  0.82842800  0.67157200  0.50000000  1
  Sc  Sc3  1  0.32842800  0.82842800  0.50000000  1
  In  In4  1  0.00000000  0.00000000  0.00000000  1
  In  In5  1  0.50000000  0.50000000  0.00000000  1
  Ni  Ni6  1  0.87728300  0.37728300  0.00000000  1
  Ni  Ni7  1  0.37728300  0.12271700  0.00000000  1
  Ni  Ni8  1  0.62271700  0.87728300  0.00000000  1
  Ni  Ni9  1  0.12271700  0.62271700  0.00000000  1
