# generated using pymatgen
data_Rb3P6N11
_symmetry_space_group_name_H-M   'P 1'
_cell_length_a   10.61422700
_cell_length_b   10.61422700
_cell_length_c   10.61422700
_cell_angle_alpha   90.00000000
_cell_angle_beta   90.00000000
_cell_angle_gamma   90.00000000
_symmetry_Int_Tables_number   1
_chemical_formula_structural   Rb3P6N11
_chemical_formula_sum   'Rb12 P24 N44'
_cell_volume   1195.81807660
_cell_formula_units_Z   4
loop_
 _symmetry_equiv_pos_site_id
 _symmetry_equiv_pos_as_xyz
  1  'x, y, z'
loop_
 _atom_site_type_symbol
 _atom_site_label
 _atom_site_symmetry_multiplicity
 _atom_site_fract_x
 _atom_site_fract_y
 _atom_site_fract_z
 _atom_site_occupancy
  Rb  Rb0  1  0.98917500  0.98917500  0.98917500  1
  Rb  Rb1  1  0.23917500  0.26082500  0.73917500  1
  Rb  Rb2  1  0.26082500  0.73917500  0.23917500  1
  Rb  Rb3  1  0.73917500  0.23917500  0.26082500  1
  Rb  Rb4  1  0.48917500  0.51082500  0.01082500  1
  Rb  Rb5  1  0.51082500  0.01082500  0.48917500  1
  Rb  Rb6  1  0.01082500  0.48917500  0.51082500  1
  Rb  Rb7  1  0.76082500  0.76082500  0.76082500  1
  Rb  Rb8  1  0.87500000  0.12500000  0.62500000  1
  Rb  Rb9  1  0.12500000  0.62500000  0.87500000  1
  Rb  Rb10  1  0.62500000  0.87500000  0.12500000  1
  Rb  Rb11  1  0.37500000  0.37500000  0.37500000  1
  P  P12  1  0.67962800  0.45299400  0.54197400  1
  P  P13  1  0.17962800  0.04700600  0.45802600  1
  P  P14  1  0.45299400  0.54197400  0.67962800  1
  P  P15  1  0.54700600  0.04197400  0.82037200  1
  P  P16  1  0.54197400  0.67962800  0.45299400  1
  P  P17  1  0.95802600  0.32037200  0.95299400  1
  P  P18  1  0.42962800  0.79197400  0.79700600  1
  P  P19  1  0.92962800  0.70802600  0.20299400  1
  P  P20  1  0.57037200  0.29197400  0.70299400  1
  P  P21  1  0.70802600  0.20299400  0.92962800  1
  P  P22  1  0.70299400  0.57037200  0.29197400  1
  P  P23  1  0.20299400  0.92962800  0.70802600  1
  P  P24  1  0.79197400  0.79700600  0.42962800  1
  P  P25  1  0.79700600  0.42962800  0.79197400  1
  P  P26  1  0.29197400  0.70299400  0.57037200  1
  P  P27  1  0.20802600  0.29700600  0.07037200  1
  P  P28  1  0.29700600  0.07037200  0.20802600  1
  P  P29  1  0.45802600  0.17962800  0.04700600  1
  P  P30  1  0.04197400  0.82037200  0.54700600  1
  P  P31  1  0.95299400  0.95802600  0.32037200  1
  P  P32  1  0.04700600  0.45802600  0.17962800  1
  P  P33  1  0.82037200  0.54700600  0.04197400  1
  P  P34  1  0.32037200  0.95299400  0.95802600  1
  P  P35  1  0.07037200  0.20802600  0.29700600  1
  N  N36  1  0.55180900  0.55180900  0.55180900  1
  N  N37  1  0.80180900  0.69819100  0.30180900  1
  N  N38  1  0.69819100  0.30180900  0.80180900  1
  N  N39  1  0.30180900  0.80180900  0.69819100  1
  N  N40  1  0.05180900  0.94819100  0.44819100  1
  N  N41  1  0.94819100  0.44819100  0.05180900  1
  N  N42  1  0.44819100  0.05180900  0.94819100  1
  N  N43  1  0.19819100  0.19819100  0.19819100  1
  N  N44  1  0.62500000  0.30942500  0.55942500  1
  N  N45  1  0.69057500  0.05942500  0.87500000  1
  N  N46  1  0.55942500  0.62500000  0.30942500  1
  N  N47  1  0.94057500  0.37500000  0.80942500  1
  N  N48  1  0.30942500  0.55942500  0.62500000  1
  N  N49  1  0.44057500  0.12500000  0.19057500  1
  N  N50  1  0.05942500  0.87500000  0.69057500  1
  N  N51  1  0.80942500  0.94057500  0.37500000  1
  N  N52  1  0.19057500  0.44057500  0.12500000  1
  N  N53  1  0.87500000  0.69057500  0.05942500  1
  N  N54  1  0.37500000  0.80942500  0.94057500  1
  N  N55  1  0.27702800  0.01093200  0.34521200  1
  N  N56  1  0.12500000  0.19057500  0.44057500  1
  N  N57  1  0.23906800  0.02702800  0.59521200  1
  N  N58  1  0.47297200  0.40478800  0.73906800  1
  N  N59  1  0.52702800  0.90478800  0.76093200  1
  N  N60  1  0.40478800  0.73906800  0.47297200  1
  N  N61  1  0.09521200  0.26093200  0.97297200  1
  N  N62  1  0.48906800  0.65478800  0.77702800  1
  N  N63  1  0.98906800  0.84521200  0.22297200  1
  N  N64  1  0.51093200  0.15478800  0.72297200  1
  N  N65  1  0.84521200  0.22297200  0.98906800  1
  N  N66  1  0.72297200  0.51093200  0.15478800  1
  N  N67  1  0.22297200  0.98906800  0.84521200  1
  N  N68  1  0.65478800  0.77702800  0.48906800  1
  N  N69  1  0.77702800  0.48906800  0.65478800  1
  N  N70  1  0.15478800  0.72297200  0.51093200  1
  N  N71  1  0.34521200  0.27702800  0.01093200  1
  N  N72  1  0.01093200  0.34521200  0.27702800  1
  N  N73  1  0.26093200  0.97297200  0.09521200  1
  N  N74  1  0.76093200  0.52702800  0.90478800  1
  N  N75  1  0.02702800  0.59521200  0.23906800  1
  N  N76  1  0.97297200  0.09521200  0.26093200  1
  N  N77  1  0.90478800  0.76093200  0.52702800  1
  N  N78  1  0.59521200  0.23906800  0.02702800  1
  N  N79  1  0.73906800  0.47297200  0.40478800  1
