# generated using pymatgen
data_SrTcO3
_symmetry_space_group_name_H-M   'P 1'
_cell_length_a   5.62177400
_cell_length_b   5.65695400
_cell_length_c   7.95643200
_cell_angle_alpha   90.00000000
_cell_angle_beta   90.00000000
_cell_angle_gamma   90.00000000
_symmetry_Int_Tables_number   1
_chemical_formula_structural   SrTcO3
_chemical_formula_sum   'Sr4 Tc4 O12'
_cell_volume   253.03138070
_cell_formula_units_Z   4
loop_
 _symmetry_equiv_pos_site_id
 _symmetry_equiv_pos_as_xyz
  1  'x, y, z'
loop_
 _atom_site_type_symbol
 _atom_site_label
 _atom_site_symmetry_multiplicity
 _atom_site_fract_x
 _atom_site_fract_y
 _atom_site_fract_z
 _atom_site_occupancy
  Sr  Sr0  1  0.49551400  0.00233700  0.75000000  1
  Sr  Sr1  1  0.99551400  0.49766300  0.75000000  1
  Sr  Sr2  1  0.50448600  0.99766300  0.25000000  1
  Sr  Sr3  1  0.00448600  0.50233700  0.25000000  1
  Tc  Tc4  1  0.50000000  0.50000000  0.50000000  1
  Tc  Tc5  1  0.00000000  0.00000000  0.00000000  1
  Tc  Tc6  1  0.50000000  0.50000000  0.00000000  1
  Tc  Tc7  1  0.00000000  0.00000000  0.50000000  1
  O  O8  1  0.00230600  0.95267000  0.75000000  1
  O  O9  1  0.50230600  0.54733000  0.75000000  1
  O  O10  1  0.99769400  0.04733000  0.25000000  1
  O  O11  1  0.49769400  0.45267000  0.25000000  1
  O  O12  1  0.74058000  0.23958900  0.52498700  1
  O  O13  1  0.24058000  0.26041100  0.97501300  1
  O  O14  1  0.25942000  0.76041100  0.02498700  1
  O  O15  1  0.75942000  0.73958900  0.47501300  1
  O  O16  1  0.25942000  0.76041100  0.47501300  1
  O  O17  1  0.75942000  0.73958900  0.02498700  1
  O  O18  1  0.74058000  0.23958900  0.97501300  1
  O  O19  1  0.24058000  0.26041100  0.52498700  1
