# generated using pymatgen
data_AsOsS
_symmetry_space_group_name_H-M   'P 1'
_cell_length_a   5.94472100
_cell_length_b   5.99667400
_cell_length_c   6.03384394
_cell_angle_alpha   68.85062330
_cell_angle_beta   90.00000000
_cell_angle_gamma   90.00000000
_symmetry_Int_Tables_number   1
_chemical_formula_structural   AsOsS
_chemical_formula_sum   'As4 Os4 S4'
_cell_volume   200.60945625
_cell_formula_units_Z   4
loop_
 _symmetry_equiv_pos_site_id
 _symmetry_equiv_pos_as_xyz
  1  'x, y, z'
loop_
 _atom_site_type_symbol
 _atom_site_label
 _atom_site_symmetry_multiplicity
 _atom_site_fract_x
 _atom_site_fract_y
 _atom_site_fract_z
 _atom_site_occupancy
  As  As0  1  0.87234000  0.64856000  0.62552500  1
  As  As1  1  0.12766000  0.35144000  0.37447500  1
  As  As2  1  0.37234000  0.35144000  0.87447500  1
  As  As3  1  0.62766000  0.64856000  0.12552500  1
  Os  Os4  1  0.49411900  0.78364800  0.70380400  1
  Os  Os5  1  0.50588100  0.21635200  0.29619600  1
  Os  Os6  1  0.99411900  0.21635200  0.79619600  1
  Os  Os7  1  0.00588100  0.78364800  0.20380400  1
  S  S8  1  0.12843600  0.84398800  0.81479400  1
  S  S9  1  0.87156400  0.15601200  0.18520600  1
  S  S10  1  0.62843600  0.15601200  0.68520600  1
  S  S11  1  0.37156400  0.84398800  0.31479400  1
