# generated using pymatgen
data_NbMoW
_symmetry_space_group_name_H-M   'P 1'
_cell_length_a   7.18535731
_cell_length_b   6.99611610
_cell_length_c   2.80181141
_cell_angle_alpha   82.42727357
_cell_angle_beta   74.83380538
_cell_angle_gamma   22.73892106
_symmetry_Int_Tables_number   1
_chemical_formula_structural   NbMoW
_chemical_formula_sum   'Nb1 Mo1 W1'
_cell_volume   50.23104020
_cell_formula_units_Z   1
loop_
 _symmetry_equiv_pos_site_id
 _symmetry_equiv_pos_as_xyz
  1  'x, y, z'
loop_
 _atom_site_type_symbol
 _atom_site_label
 _atom_site_symmetry_multiplicity
 _atom_site_fract_x
 _atom_site_fract_y
 _atom_site_fract_z
 _atom_site_occupancy
  Nb  Nb0  1  0.33386300  0.33386300  0.66613700  1
  Mo  Mo1  1  0.00269300  0.00269300  0.99730700  1
  W  W2  1  0.66344300  0.66344300  0.33655700  1
