# generated using pymatgen
data_Na5AlO4
_symmetry_space_group_name_H-M   'P 1'
_cell_length_a   5.96427800
_cell_length_b   10.28152200
_cell_length_c   18.04662200
_cell_angle_alpha   90.00000000
_cell_angle_beta   90.00000000
_cell_angle_gamma   90.00000000
_symmetry_Int_Tables_number   1
_chemical_formula_structural   Na5AlO4
_chemical_formula_sum   'Na40 Al8 O32'
_cell_volume   1106.65234603
_cell_formula_units_Z   8
loop_
 _symmetry_equiv_pos_site_id
 _symmetry_equiv_pos_as_xyz
  1  'x, y, z'
loop_
 _atom_site_type_symbol
 _atom_site_label
 _atom_site_symmetry_multiplicity
 _atom_site_fract_x
 _atom_site_fract_y
 _atom_site_fract_z
 _atom_site_occupancy
  Na  Na0  1  0.10579000  0.32624900  0.17289800  1
  Na  Na1  1  0.60579000  0.67375100  0.32710200  1
  Na  Na2  1  0.39421000  0.82624900  0.82710200  1
  Na  Na3  1  0.89421000  0.17375100  0.67289800  1
  Na  Na4  1  0.89421000  0.67375100  0.82710200  1
  Na  Na5  1  0.39421000  0.32624900  0.67289800  1
  Na  Na6  1  0.60579000  0.17375100  0.17289800  1
  Na  Na7  1  0.10579000  0.82624900  0.32710200  1
  Na  Na8  1  0.10034300  0.57975600  0.25091700  1
  Na  Na9  1  0.60034300  0.42024400  0.24908300  1
  Na  Na10  1  0.39965700  0.07975600  0.74908300  1
  Na  Na11  1  0.89965700  0.92024400  0.75091700  1
  Na  Na12  1  0.89965700  0.42024400  0.74908300  1
  Na  Na13  1  0.39965700  0.57975600  0.75091700  1
  Na  Na14  1  0.60034300  0.92024400  0.25091700  1
  Na  Na15  1  0.10034300  0.07975600  0.24908300  1
  Na  Na16  1  0.08652600  0.16241400  0.49766000  1
  Na  Na17  1  0.58652600  0.83758600  0.00234000  1
  Na  Na18  1  0.41347400  0.66241400  0.50234000  1
  Na  Na19  1  0.91347400  0.33758600  0.99766000  1
  Na  Na20  1  0.91347400  0.83758600  0.50234000  1
  Na  Na21  1  0.41347400  0.16241400  0.99766000  1
  Na  Na22  1  0.58652600  0.33758600  0.49766000  1
  Na  Na23  1  0.08652600  0.66241400  0.00234000  1
  Na  Na24  1  0.91663400  0.30218300  0.36066500  1
  Na  Na25  1  0.41111000  0.44061100  0.06425800  1
  Na  Na26  1  0.58889000  0.05938900  0.56425800  1
  Na  Na27  1  0.08889000  0.94061100  0.93574200  1
  Na  Na28  1  0.08889000  0.44061100  0.56425800  1
  Na  Na29  1  0.58889000  0.55938900  0.93574200  1
  Na  Na30  1  0.41111000  0.94061100  0.43574200  1
  Na  Na31  1  0.91111000  0.05938900  0.06425800  1
  Na  Na32  1  0.91663400  0.80218300  0.13933500  1
  Na  Na33  1  0.41663400  0.19781700  0.36066500  1
  Na  Na34  1  0.58336600  0.30218300  0.86066500  1
  Na  Na35  1  0.08336600  0.69781700  0.63933500  1
  Na  Na36  1  0.08336600  0.19781700  0.86066500  1
  Na  Na37  1  0.58336600  0.80218300  0.63933500  1
  Na  Na38  1  0.41663400  0.69781700  0.13933500  1
  Na  Na39  1  0.91111000  0.55938900  0.43574200  1
  Al  Al40  1  0.32261600  0.46063300  0.37598400  1
  Al  Al41  1  0.82261600  0.53936700  0.12401600  1
  Al  Al42  1  0.17738400  0.96063300  0.62401600  1
  Al  Al43  1  0.67738400  0.03936700  0.87598400  1
  Al  Al44  1  0.67738400  0.53936700  0.62401600  1
  Al  Al45  1  0.17738400  0.46063300  0.87598400  1
  Al  Al46  1  0.82261600  0.03936700  0.37598400  1
  Al  Al47  1  0.32261600  0.96063300  0.12401600  1
  O  O48  1  0.62205800  0.45412000  0.38009100  1
  O  O49  1  0.12205800  0.54588000  0.11990900  1
  O  O50  1  0.87794200  0.95412000  0.61990900  1
  O  O51  1  0.37794200  0.04588000  0.88009100  1
  O  O52  1  0.37794200  0.54588000  0.61990900  1
  O  O53  1  0.87794200  0.45412000  0.88009100  1
  O  O54  1  0.12205800  0.04588000  0.38009100  1
  O  O55  1  0.62205800  0.95412000  0.11990900  1
  O  O56  1  0.23515900  0.37827300  0.29173800  1
  O  O57  1  0.73515900  0.62172700  0.20826200  1
  O  O58  1  0.26484100  0.87827300  0.70826200  1
  O  O59  1  0.23561500  0.12910700  0.12619600  1
  O  O60  1  0.76484100  0.62172700  0.70826200  1
  O  O61  1  0.26484100  0.37827300  0.79173800  1
  O  O62  1  0.73515900  0.12172700  0.29173800  1
  O  O63  1  0.23515900  0.87827300  0.20826200  1
  O  O64  1  0.19808100  0.37335800  0.45141000  1
  O  O65  1  0.69808100  0.62664200  0.04859000  1
  O  O66  1  0.30191900  0.87335800  0.54859000  1
  O  O67  1  0.80191900  0.12664200  0.95141000  1
  O  O68  1  0.80191900  0.62664200  0.54859000  1
  O  O69  1  0.30191900  0.37335800  0.95141000  1
  O  O70  1  0.69808100  0.12664200  0.45141000  1
  O  O71  1  0.19808100  0.87335800  0.04859000  1
  O  O72  1  0.23561500  0.62910700  0.37380400  1
  O  O73  1  0.73561500  0.37089300  0.12619600  1
  O  O74  1  0.26438500  0.12910700  0.62619600  1
  O  O75  1  0.76438500  0.87089300  0.87380400  1
  O  O76  1  0.76438500  0.37089300  0.62619600  1
  O  O77  1  0.26438500  0.62910700  0.87380400  1
  O  O78  1  0.73561500  0.87089300  0.37380400  1
  O  O79  1  0.76484100  0.12172700  0.79173800  1
