# generated using pymatgen
data_MgSiAs2
_symmetry_space_group_name_H-M   'P 1'
_cell_length_a   6.88161921
_cell_length_b   6.88161921
_cell_length_c   6.88161921
_cell_angle_alpha   128.76038289
_cell_angle_beta   128.76038289
_cell_angle_gamma   75.39643448
_symmetry_Int_Tables_number   1
_chemical_formula_structural   MgSiAs2
_chemical_formula_sum   'Mg2 Si2 As4'
_cell_volume   192.84478936
_cell_formula_units_Z   2
loop_
 _symmetry_equiv_pos_site_id
 _symmetry_equiv_pos_as_xyz
  1  'x, y, z'
loop_
 _atom_site_type_symbol
 _atom_site_label
 _atom_site_symmetry_multiplicity
 _atom_site_fract_x
 _atom_site_fract_y
 _atom_site_fract_z
 _atom_site_occupancy
  Mg  Mg0  1  0.25000000  0.75000000  0.50000000  1
  Mg  Mg1  1  0.50000000  0.50000000  0.00000000  1
  Si  Si2  1  0.75000000  0.25000000  0.50000000  1
  Si  Si3  1  0.00000000  0.00000000  0.00000000  1
  As  As4  1  0.37500000  0.91117600  0.03617600  1
  As  As5  1  0.66117600  0.62500000  0.53617600  1
  As  As6  1  0.08882400  0.12500000  0.46382400  1
  As  As7  1  0.87500000  0.33882400  0.96382400  1
