# generated using pymatgen
data_Be3Tl2Ni2F12
_symmetry_space_group_name_H-M   'P 1'
_cell_length_a   10.11122000
_cell_length_b   10.11122000
_cell_length_c   10.11122000
_cell_angle_alpha   90.00000000
_cell_angle_beta   90.00000000
_cell_angle_gamma   90.00000000
_symmetry_Int_Tables_number   1
_chemical_formula_structural   Be3Tl2Ni2F12
_chemical_formula_sum   'Be12 Tl8 Ni8 F48'
_cell_volume   1033.73847243
_cell_formula_units_Z   4
loop_
 _symmetry_equiv_pos_site_id
 _symmetry_equiv_pos_as_xyz
  1  'x, y, z'
loop_
 _atom_site_type_symbol
 _atom_site_label
 _atom_site_symmetry_multiplicity
 _atom_site_fract_x
 _atom_site_fract_y
 _atom_site_fract_z
 _atom_site_occupancy
  Be  Be0  1  0.02045600  0.21327400  0.37572100  1
  Be  Be1  1  0.47954400  0.78672600  0.87572100  1
  Be  Be2  1  0.97954400  0.71327400  0.12427900  1
  Be  Be3  1  0.37572100  0.02045600  0.21327400  1
  Be  Be4  1  0.52045600  0.28672600  0.62427900  1
  Be  Be5  1  0.87572100  0.47954400  0.78672600  1
  Be  Be6  1  0.12427900  0.97954400  0.71327400  1
  Be  Be7  1  0.62427900  0.52045600  0.28672600  1
  Be  Be8  1  0.21327400  0.37572100  0.02045600  1
  Be  Be9  1  0.71327400  0.12427900  0.97954400  1
  Be  Be10  1  0.28672600  0.62427900  0.52045600  1
  Be  Be11  1  0.78672600  0.87572100  0.47954400  1
  Tl  Tl12  1  0.04877800  0.04877800  0.04877800  1
  Tl  Tl13  1  0.45122200  0.95122200  0.54877800  1
  Tl  Tl14  1  0.95122200  0.54877800  0.45122200  1
  Tl  Tl15  1  0.54877800  0.45122200  0.95122200  1
  Tl  Tl16  1  0.81668900  0.81668900  0.81668900  1
  Tl  Tl17  1  0.68331100  0.18331100  0.31668900  1
  Tl  Tl18  1  0.18331100  0.31668900  0.68331100  1
  Tl  Tl19  1  0.31668900  0.68331100  0.18331100  1
  Ni  Ni20  1  0.33578100  0.33578100  0.33578100  1
  Ni  Ni21  1  0.16421900  0.66421900  0.83578100  1
  Ni  Ni22  1  0.66421900  0.83578100  0.16421900  1
  Ni  Ni23  1  0.83578100  0.16421900  0.66421900  1
  Ni  Ni24  1  0.60025600  0.60025600  0.60025600  1
  Ni  Ni25  1  0.89974400  0.39974400  0.10025600  1
  Ni  Ni26  1  0.39974400  0.10025600  0.89974400  1
  Ni  Ni27  1  0.10025600  0.89974400  0.39974400  1
  F  F28  1  0.01258500  0.06607600  0.32894500  1
  F  F29  1  0.48741500  0.93392400  0.82894500  1
  F  F30  1  0.98741500  0.56607600  0.17105500  1
  F  F31  1  0.32894500  0.01258500  0.06607600  1
  F  F32  1  0.51258500  0.43392400  0.67105500  1
  F  F33  1  0.82894500  0.48741500  0.93392400  1
  F  F34  1  0.17105500  0.98741500  0.56607600  1
  F  F35  1  0.67105500  0.51258500  0.43392400  1
  F  F36  1  0.06607600  0.32894500  0.01258500  1
  F  F37  1  0.56607600  0.17105500  0.98741500  1
  F  F38  1  0.43392400  0.67105500  0.51258500  1
  F  F39  1  0.93392400  0.82894500  0.48741500  1
  F  F40  1  0.26695500  0.49591600  0.43590900  1
  F  F41  1  0.23304500  0.50408400  0.93590900  1
  F  F42  1  0.73304500  0.99591600  0.06409100  1
  F  F43  1  0.43590900  0.26695500  0.49591600  1
  F  F44  1  0.76695500  0.00408400  0.56409100  1
  F  F45  1  0.93590900  0.23304500  0.50408400  1
  F  F46  1  0.06409100  0.73304500  0.99591600  1
  F  F47  1  0.56409100  0.76695500  0.00408400  1
  F  F48  1  0.49591600  0.43590900  0.26695500  1
  F  F49  1  0.99591600  0.06409100  0.73304500  1
  F  F50  1  0.00408400  0.56409100  0.76695500  1
  F  F51  1  0.50408400  0.93590900  0.23304500  1
  F  F52  1  0.04595300  0.80572200  0.23064400  1
  F  F53  1  0.45404700  0.19427800  0.73064400  1
  F  F54  1  0.95404700  0.30572200  0.26935600  1
  F  F55  1  0.23064400  0.04595300  0.80572200  1
  F  F56  1  0.54595300  0.69427800  0.76935600  1
  F  F57  1  0.73064400  0.45404700  0.19427800  1
  F  F58  1  0.26935600  0.95404700  0.30572200  1
  F  F59  1  0.76935600  0.54595300  0.69427800  1
  F  F60  1  0.80572200  0.23064400  0.04595300  1
  F  F61  1  0.30572200  0.26935600  0.95404700  1
  F  F62  1  0.69427800  0.76935600  0.54595300  1
  F  F63  1  0.19427800  0.73064400  0.45404700  1
  F  F64  1  0.16575000  0.25441600  0.40247400  1
  F  F65  1  0.33425000  0.74558400  0.90247400  1
  F  F66  1  0.83425000  0.75441600  0.09752600  1
  F  F67  1  0.40247400  0.16575000  0.25441600  1
  F  F68  1  0.66575000  0.24558400  0.59752600  1
  F  F69  1  0.90247400  0.33425000  0.74558400  1
  F  F70  1  0.09752600  0.83425000  0.75441600  1
  F  F71  1  0.59752600  0.66575000  0.24558400  1
  F  F72  1  0.25441600  0.40247400  0.16575000  1
  F  F73  1  0.75441600  0.09752600  0.83425000  1
  F  F74  1  0.24558400  0.59752600  0.66575000  1
  F  F75  1  0.74558400  0.90247400  0.33425000  1
