# generated using pymatgen
data_SrCo2(AsO4)2
_symmetry_space_group_name_H-M   'P 1'
_cell_length_a   5.72025565
_cell_length_b   7.22701916
_cell_length_c   9.59328591
_cell_angle_alpha   111.54679080
_cell_angle_beta   101.29766500
_cell_angle_gamma   98.86879864
_symmetry_Int_Tables_number   1
_chemical_formula_structural   SrCo2(AsO4)2
_chemical_formula_sum   'Sr2 Co4 As4 O16'
_cell_volume   350.43547138
_cell_formula_units_Z   2
loop_
 _symmetry_equiv_pos_site_id
 _symmetry_equiv_pos_as_xyz
  1  'x, y, z'
loop_
 _atom_site_type_symbol
 _atom_site_label
 _atom_site_symmetry_multiplicity
 _atom_site_fract_x
 _atom_site_fract_y
 _atom_site_fract_z
 _atom_site_occupancy
  Sr  Sr0  1  0.25495800  0.20386000  0.45152500  1
  Sr  Sr1  1  0.74530200  0.79643900  0.54872300  1
  Co  Co2  1  0.13112100  0.85741300  0.06097200  1
  Co  Co3  1  0.52216200  0.62185100  0.84870700  1
  Co  Co4  1  0.86858800  0.14280800  0.93945400  1
  Co  Co5  1  0.47812200  0.37862200  0.15169600  1
  As  As6  1  0.34499500  0.01779700  0.79867400  1
  As  As7  1  0.65459700  0.98214600  0.20144900  1
  As  As8  1  0.90003600  0.42293200  0.74109700  1
  As  As9  1  0.10020500  0.57686200  0.25861000  1
  O  O10  1  0.87186700  0.59819500  0.91679700  1
  O  O11  1  0.12825600  0.40210000  0.08266700  1
  O  O12  1  0.52455500  0.25889400  0.93413200  1
  O  O13  1  0.47615900  0.74046400  0.06630700  1
  O  O14  1  0.10458400  0.93846100  0.86604900  1
  O  O15  1  0.89492900  0.06213400  0.13425300  1
  O  O16  1  0.56695600  0.87410500  0.80052900  1
  O  O17  1  0.43210400  0.12533300  0.19893200  1
  O  O18  1  0.84237000  0.18069100  0.73666300  1
  O  O19  1  0.15690400  0.81932500  0.26323700  1
  O  O20  1  0.18187000  0.47454000  0.70484700  1
  O  O21  1  0.81887900  0.52501300  0.29534300  1
  O  O22  1  0.23301700  0.98434400  0.61182400  1
  O  O23  1  0.76627300  0.01592300  0.38840100  1
  O  O24  1  0.66842800  0.45700700  0.61517300  1
  O  O25  1  0.33276200  0.54274300  0.38394200  1
