# generated using pymatgen
data_CsAu(IO3)4
_symmetry_space_group_name_H-M   'P 1'
_cell_length_a   7.98190200
_cell_length_b   8.11574640
_cell_length_c   11.22072196
_cell_angle_alpha   75.43623053
_cell_angle_beta   71.30599570
_cell_angle_gamma   84.53575795
_symmetry_Int_Tables_number   1
_chemical_formula_structural   CsAu(IO3)4
_chemical_formula_sum   'Cs2 Au2 I8 O24'
_cell_volume   666.31324422
_cell_formula_units_Z   2
loop_
 _symmetry_equiv_pos_site_id
 _symmetry_equiv_pos_as_xyz
  1  'x, y, z'
loop_
 _atom_site_type_symbol
 _atom_site_label
 _atom_site_symmetry_multiplicity
 _atom_site_fract_x
 _atom_site_fract_y
 _atom_site_fract_z
 _atom_site_occupancy
  Cs  Cs0  1  0.05612800  0.17796200  0.14437800  1
  Cs  Cs1  1  0.94387200  0.82203800  0.85562200  1
  Au  Au2  1  0.57176800  0.04678900  0.21286500  1
  Au  Au3  1  0.42823200  0.95321100  0.78713500  1
  I  I4  1  0.28276600  0.29058500  0.41267500  1
  I  I5  1  0.71723400  0.70941500  0.58732500  1
  I  I6  1  0.66000500  0.33373000  0.90418800  1
  I  I7  1  0.33999500  0.66627000  0.09581200  1
  I  I8  1  0.23958700  0.79245500  0.46907400  1
  I  I9  1  0.76041300  0.20754500  0.53092600  1
  I  I10  1  0.75998700  0.65416500  0.24933500  1
  I  I11  1  0.24001300  0.34583500  0.75066500  1
  O  O12  1  0.36617500  0.21088200  0.25418000  1
  O  O13  1  0.63382500  0.78911800  0.74582000  1
  O  O14  1  0.34556600  0.51368300  0.33774100  1
  O  O15  1  0.65443400  0.48631700  0.66225900  1
  O  O16  1  0.05975300  0.31309900  0.39834000  1
  O  O17  1  0.94024700  0.68690100  0.60166000  1
  O  O18  1  0.70351700  0.14836200  0.83626900  1
  O  O19  1  0.29648300  0.85163800  0.16373100  1
  O  O20  1  0.42067800  0.35254800  0.95019100  1
  O  O21  1  0.57932200  0.64745200  0.04980900  1
  O  O22  1  0.70119500  0.23747800  0.06763300  1
  O  O23  1  0.29880500  0.76252200  0.93236700  1
  O  O24  1  0.48624100  0.85346700  0.37239100  1
  O  O25  1  0.51375900  0.14653300  0.62760900  1
  O  O26  1  0.18268800  0.98249900  0.53162800  1
  O  O27  1  0.81731200  0.01750100  0.46837200  1
  O  O28  1  0.31363900  0.65675900  0.59860900  1
  O  O29  1  0.68636100  0.34324100  0.40139100  1
  O  O30  1  0.77857400  0.88947500  0.15364200  1
  O  O31  1  0.22142600  0.11052500  0.84635800  1
  O  O32  1  0.86235000  0.67820900  0.36850100  1
  O  O33  1  0.13765000  0.32179100  0.63149900  1
  O  O34  1  0.95256900  0.59051100  0.13200300  1
  O  O35  1  0.04743100  0.40948900  0.86799700  1
