# generated using pymatgen
data_TlSbWO6
_symmetry_space_group_name_H-M   'P 1'
_cell_length_a   7.38258940
_cell_length_b   7.38258940
_cell_length_c   7.38258940
_cell_angle_alpha   120.62971298
_cell_angle_beta   119.68163962
_cell_angle_gamma   89.73254177
_symmetry_Int_Tables_number   1
_chemical_formula_structural   TlSbWO6
_chemical_formula_sum   'Tl2 Sb2 W2 O12'
_cell_volume   283.82165189
_cell_formula_units_Z   2
loop_
 _symmetry_equiv_pos_site_id
 _symmetry_equiv_pos_as_xyz
  1  'x, y, z'
loop_
 _atom_site_type_symbol
 _atom_site_label
 _atom_site_symmetry_multiplicity
 _atom_site_fract_x
 _atom_site_fract_y
 _atom_site_fract_z
 _atom_site_occupancy
  Tl  Tl0  1  0.70871000  0.90215100  0.30655900  1
  Tl  Tl1  1  0.40440800  0.09784900  0.80655900  1
  Sb  Sb2  1  0.00095300  0.00000000  0.00095300  1
  Sb  Sb3  1  0.00095300  0.50000000  0.50095300  1
  W  W4  1  0.50149400  0.49813800  0.50335600  1
  W  W5  1  0.00521800  0.50186200  0.00335600  1
  O  O6  1  0.69236800  0.44190700  0.75046100  1
  O  O7  1  0.07244100  0.82512600  0.74731500  1
  O  O8  1  0.06347300  0.43276800  0.75239600  1
  O  O9  1  0.68022000  0.81193200  0.74596700  1
  O  O10  1  0.06347300  0.81107800  0.13070600  1
  O  O11  1  0.68022000  0.43425300  0.36828800  1
  O  O12  1  0.30855400  0.55809300  0.25046100  1
  O  O13  1  0.92218900  0.17487400  0.24731500  1
  O  O14  1  0.93403500  0.56574700  0.24596700  1
  O  O15  1  0.31962800  0.18892200  0.25239600  1
  O  O16  1  0.93403500  0.18806800  0.86828800  1
  O  O17  1  0.31962800  0.56723200  0.63070600  1
