# generated using pymatgen
data_Rb3HoV2O8
_symmetry_space_group_name_H-M   'P 1'
_cell_length_a   6.07384606
_cell_length_b   6.07384606
_cell_length_c   7.87208500
_cell_angle_alpha   90.00000000
_cell_angle_beta   90.00000000
_cell_angle_gamma   120.00000062
_symmetry_Int_Tables_number   1
_chemical_formula_structural   Rb3HoV2O8
_chemical_formula_sum   'Rb3 Ho1 V2 O8'
_cell_volume   251.50577671
_cell_formula_units_Z   1
loop_
 _symmetry_equiv_pos_site_id
 _symmetry_equiv_pos_as_xyz
  1  'x, y, z'
loop_
 _atom_site_type_symbol
 _atom_site_label
 _atom_site_symmetry_multiplicity
 _atom_site_fract_x
 _atom_site_fract_y
 _atom_site_fract_z
 _atom_site_occupancy
  Rb  Rb0  1  0.33333300  0.66666700  0.68866700  1
  Rb  Rb1  1  0.66666700  0.33333300  0.31133300  1
  Rb  Rb2  1  0.00000000  0.00000000  0.00000000  1
  Ho  Ho3  1  0.00000000  0.00000000  0.50000000  1
  V  V4  1  0.33333300  0.66666700  0.25184400  1
  V  V5  1  0.66666700  0.33333300  0.74815600  1
  O  O6  1  0.33333300  0.66666700  0.03851500  1
  O  O7  1  0.66666700  0.33333300  0.96148500  1
  O  O8  1  0.17499200  0.82500800  0.32992800  1
  O  O9  1  0.82500800  0.17499200  0.67007200  1
  O  O10  1  0.17499200  0.34998400  0.32992800  1
  O  O11  1  0.82500800  0.65001600  0.67007200  1
  O  O12  1  0.65001600  0.82500800  0.32992800  1
  O  O13  1  0.34998400  0.17499200  0.67007200  1
