# generated using pymatgen
data_Ba7Ga4As9
_symmetry_space_group_name_H-M   'P 1'
_cell_length_a   6.91529300
_cell_length_b   10.26184600
_cell_length_c   17.28098600
_cell_angle_alpha   90.00000000
_cell_angle_beta   90.00000000
_cell_angle_gamma   90.00000000
_symmetry_Int_Tables_number   1
_chemical_formula_structural   Ba7Ga4As9
_chemical_formula_sum   'Ba14 Ga8 As18'
_cell_volume   1226.32221907
_cell_formula_units_Z   2
loop_
 _symmetry_equiv_pos_site_id
 _symmetry_equiv_pos_as_xyz
  1  'x, y, z'
loop_
 _atom_site_type_symbol
 _atom_site_label
 _atom_site_symmetry_multiplicity
 _atom_site_fract_x
 _atom_site_fract_y
 _atom_site_fract_z
 _atom_site_occupancy
  Ba  Ba0  1  0.45132200  0.50000000  0.78486800  1
  Ba  Ba1  1  0.45132200  0.50000000  0.21513200  1
  Ba  Ba2  1  0.54867800  0.00000000  0.71513200  1
  Ba  Ba3  1  0.54867800  0.00000000  0.28486800  1
  Ba  Ba4  1  0.94530500  0.27655500  0.87501800  1
  Ba  Ba5  1  0.94530500  0.72344500  0.87501800  1
  Ba  Ba6  1  0.94530500  0.27655500  0.12498200  1
  Ba  Ba7  1  0.94530500  0.72344500  0.12498200  1
  Ba  Ba8  1  0.05469500  0.22344500  0.62498200  1
  Ba  Ba9  1  0.05469500  0.77655500  0.62498200  1
  Ba  Ba10  1  0.05469500  0.22344500  0.37501800  1
  Ba  Ba11  1  0.05469500  0.77655500  0.37501800  1
  Ba  Ba12  1  0.40767900  0.50000000  0.50000000  1
  Ba  Ba13  1  0.59232100  0.00000000  0.00000000  1
  Ga  Ga14  1  0.76519300  0.50000000  0.37560800  1
  Ga  Ga15  1  0.76519300  0.50000000  0.62439200  1
  Ga  Ga16  1  0.23480700  0.00000000  0.12439200  1
  Ga  Ga17  1  0.23480700  0.00000000  0.87560800  1
  Ga  Ga18  1  0.57009500  0.82513900  0.50000000  1
  Ga  Ga19  1  0.57009500  0.17486100  0.50000000  1
  Ga  Ga20  1  0.42990500  0.67486100  0.00000000  1
  Ga  Ga21  1  0.42990500  0.32513900  0.00000000  1
  As  As22  1  0.55832400  0.29139600  0.37105100  1
  As  As23  1  0.55832400  0.70860400  0.37105100  1
  As  As24  1  0.55832400  0.29139600  0.62894900  1
  As  As25  1  0.55832400  0.70860400  0.62894900  1
  As  As26  1  0.44167600  0.20860400  0.12894900  1
  As  As27  1  0.44167600  0.79139600  0.12894900  1
  As  As28  1  0.44167600  0.20860400  0.87105100  1
  As  As29  1  0.44167600  0.79139600  0.87105100  1
  As  As30  1  0.97986500  0.50000000  0.26185900  1
  As  As31  1  0.97986500  0.50000000  0.73814100  1
  As  As32  1  0.02013500  0.00000000  0.23814100  1
  As  As33  1  0.02013500  0.00000000  0.76185900  1
  As  As34  1  0.69884800  0.50000000  0.00000000  1
  As  As35  1  0.30115200  0.00000000  0.50000000  1
  As  As36  1  0.16169000  0.50000000  0.00000000  1
  As  As37  1  0.83831000  0.00000000  0.50000000  1
  As  As38  1  0.95429300  0.50000000  0.50000000  1
  As  As39  1  0.04570700  0.00000000  0.00000000  1
