# generated using pymatgen
data_Rb3P3H5N
_symmetry_space_group_name_H-M   'P 1'
_cell_length_a   9.74477300
_cell_length_b   13.06342900
_cell_length_c   15.41759400
_cell_angle_alpha   90.00000000
_cell_angle_beta   90.00000000
_cell_angle_gamma   90.00000000
_symmetry_Int_Tables_number   1
_chemical_formula_structural   Rb3P3H5N
_chemical_formula_sum   'Rb24 P24 H40 N8'
_cell_volume   1962.66203202
_cell_formula_units_Z   8
loop_
 _symmetry_equiv_pos_site_id
 _symmetry_equiv_pos_as_xyz
  1  'x, y, z'
loop_
 _atom_site_type_symbol
 _atom_site_label
 _atom_site_symmetry_multiplicity
 _atom_site_fract_x
 _atom_site_fract_y
 _atom_site_fract_z
 _atom_site_occupancy
  Rb  Rb0  1  0.89820700  0.91139800  0.89202700  1
  Rb  Rb1  1  0.60179300  0.41139800  0.10797300  1
  Rb  Rb2  1  0.39820700  0.08860200  0.60797300  1
  Rb  Rb3  1  0.10179300  0.58860200  0.39202700  1
  Rb  Rb4  1  0.10179300  0.08860200  0.10797300  1
  Rb  Rb5  1  0.39820700  0.58860200  0.89202700  1
  Rb  Rb6  1  0.60179300  0.91139800  0.39202700  1
  Rb  Rb7  1  0.89820700  0.41139800  0.60797300  1
  Rb  Rb8  1  0.05976200  0.58831200  0.09423200  1
  Rb  Rb9  1  0.44023800  0.08831200  0.90576800  1
  Rb  Rb10  1  0.55976200  0.41168800  0.40576800  1
  Rb  Rb11  1  0.94023800  0.91168800  0.59423200  1
  Rb  Rb12  1  0.94023800  0.41168800  0.90576800  1
  Rb  Rb13  1  0.55976200  0.91168800  0.09423200  1
  Rb  Rb14  1  0.44023800  0.58831200  0.59423200  1
  Rb  Rb15  1  0.05976200  0.08831200  0.40576800  1
  Rb  Rb16  1  0.76611500  0.17210500  0.76257600  1
  Rb  Rb17  1  0.73388500  0.67210500  0.23742400  1
  Rb  Rb18  1  0.26611500  0.82789500  0.73742400  1
  Rb  Rb19  1  0.23388500  0.32789500  0.26257600  1
  Rb  Rb20  1  0.23388500  0.82789500  0.23742400  1
  Rb  Rb21  1  0.26611500  0.32789500  0.76257600  1
  Rb  Rb22  1  0.73388500  0.17210500  0.26257600  1
  Rb  Rb23  1  0.76611500  0.67210500  0.73742400  1
  P  P24  1  0.04673400  0.16064300  0.64066400  1
  P  P25  1  0.45326600  0.66064300  0.35933600  1
  P  P26  1  0.54673400  0.83935700  0.85933600  1
  P  P27  1  0.95326600  0.33935700  0.14066400  1
  P  P28  1  0.95326600  0.83935700  0.35933600  1
  P  P29  1  0.54673400  0.33935700  0.64066400  1
  P  P30  1  0.45326600  0.16064300  0.14066400  1
  P  P31  1  0.04673400  0.66064300  0.85933600  1
  P  P32  1  0.12802400  0.07644400  0.75556300  1
  P  P33  1  0.37197600  0.57644400  0.24443700  1
  P  P34  1  0.62802400  0.92355600  0.74443700  1
  P  P35  1  0.87197600  0.42355600  0.25556300  1
  P  P36  1  0.87197600  0.92355600  0.24443700  1
  P  P37  1  0.62802400  0.42355600  0.75556300  1
  P  P38  1  0.37197600  0.07644400  0.25556300  1
  P  P39  1  0.12802400  0.57644400  0.74443700  1
  P  P40  1  0.06647800  0.14508200  0.88163700  1
  P  P41  1  0.43352200  0.64508200  0.11836300  1
  P  P42  1  0.56647800  0.85491800  0.61836300  1
  P  P43  1  0.93352200  0.35491800  0.38163700  1
  P  P44  1  0.93352200  0.85491800  0.11836300  1
  P  P45  1  0.56647800  0.35491800  0.88163700  1
  P  P46  1  0.43352200  0.14508200  0.38163700  1
  P  P47  1  0.06647800  0.64508200  0.61836300  1
  H  H48  1  0.15828100  0.22497100  0.60954300  1
  H  H49  1  0.34171900  0.72497100  0.39045700  1
  H  H50  1  0.65828100  0.77502900  0.89045700  1
  H  H51  1  0.84171900  0.27502900  0.10954300  1
  H  H52  1  0.84171900  0.77502900  0.39045700  1
  H  H53  1  0.65828100  0.27502900  0.60954300  1
  H  H54  1  0.34171900  0.22497100  0.10954300  1
  H  H55  1  0.15828100  0.72497100  0.89045700  1
  H  H56  1  0.17672200  0.21409200  0.90799900  1
  H  H57  1  0.32327800  0.71409200  0.09200100  1
  H  H58  1  0.67672200  0.78590800  0.59200100  1
  H  H59  1  0.82327800  0.28590800  0.40799900  1
  H  H60  1  0.82327800  0.78590800  0.09200100  1
  H  H61  1  0.67672200  0.28590800  0.90799900  1
  H  H62  1  0.32327800  0.21409200  0.40799900  1
  H  H63  1  0.17672200  0.71409200  0.59200100  1
  H  H64  1  0.82648300  0.13587900  0.97386900  1
  H  H65  1  0.67351700  0.63587900  0.02613100  1
  H  H66  1  0.32648300  0.86412100  0.52613100  1
  H  H67  1  0.17351700  0.36412100  0.47386900  1
  H  H68  1  0.17351700  0.86412100  0.02613100  1
  H  H69  1  0.32648300  0.36412100  0.97386900  1
  H  H70  1  0.67351700  0.13587900  0.47386900  1
  H  H71  1  0.82648300  0.63587900  0.52613100  1
  H  H72  1  0.79762700  0.04835700  0.04802500  1
  H  H73  1  0.70237300  0.54835700  0.95197500  1
  H  H74  1  0.29762700  0.95164300  0.45197500  1
  H  H75  1  0.20237300  0.45164300  0.54802500  1
  H  H76  1  0.20237300  0.95164300  0.95197500  1
  H  H77  1  0.29762700  0.45164300  0.04802500  1
  H  H78  1  0.70237300  0.04835700  0.54802500  1
  H  H79  1  0.79762700  0.54835700  0.45197500  1
  H  H80  1  0.68735000  0.14352600  0.03608700  1
  H  H81  1  0.81265000  0.64352600  0.96391300  1
  H  H82  1  0.18735000  0.85647400  0.46391300  1
  H  H83  1  0.31265000  0.35647400  0.53608700  1
  H  H84  1  0.31265000  0.85647400  0.96391300  1
  H  H85  1  0.18735000  0.35647400  0.03608700  1
  H  H86  1  0.81265000  0.14352600  0.53608700  1
  H  H87  1  0.68735000  0.64352600  0.46391300  1
  N  N88  1  0.74987200  0.09350100  0.00248200  1
  N  N89  1  0.75012800  0.59350100  0.99751800  1
  N  N90  1  0.24987200  0.90649900  0.49751800  1
  N  N91  1  0.25012800  0.40649900  0.50248200  1
  N  N92  1  0.25012800  0.90649900  0.99751800  1
  N  N93  1  0.24987200  0.40649900  0.00248200  1
  N  N94  1  0.75012800  0.09350100  0.50248200  1
  N  N95  1  0.74987200  0.59350100  0.49751800  1
