# generated using pymatgen
data_CeAsS
_symmetry_space_group_name_H-M   'P 1'
_cell_length_a   3.94165900
_cell_length_b   3.95095900
_cell_length_c   17.08364700
_cell_angle_alpha   90.00000000
_cell_angle_beta   90.00000000
_cell_angle_gamma   90.00000000
_symmetry_Int_Tables_number   1
_chemical_formula_structural   CeAsS
_chemical_formula_sum   'Ce4 As4 S4'
_cell_volume   266.04932531
_cell_formula_units_Z   4
loop_
 _symmetry_equiv_pos_site_id
 _symmetry_equiv_pos_as_xyz
  1  'x, y, z'
loop_
 _atom_site_type_symbol
 _atom_site_label
 _atom_site_symmetry_multiplicity
 _atom_site_fract_x
 _atom_site_fract_y
 _atom_site_fract_z
 _atom_site_occupancy
  Ce  Ce0  1  0.78193900  0.25000000  0.85440300  1
  Ce  Ce1  1  0.71806100  0.25000000  0.35440300  1
  Ce  Ce2  1  0.21806100  0.75000000  0.14559700  1
  Ce  Ce3  1  0.28193900  0.75000000  0.64559700  1
  As  As4  1  0.77908000  0.75000000  0.50138500  1
  As  As5  1  0.72092000  0.75000000  0.00138500  1
  As  As6  1  0.22092000  0.25000000  0.49861500  1
  As  As7  1  0.27908000  0.25000000  0.99861500  1
  S  S8  1  0.78200700  0.25000000  0.68451200  1
  S  S9  1  0.71799300  0.25000000  0.18451200  1
  S  S10  1  0.21799300  0.75000000  0.31548800  1
  S  S11  1  0.28200700  0.75000000  0.81548800  1
