# generated using pymatgen
data_Ba2H2Pd(S5O17)2
_symmetry_space_group_name_H-M   'P 1'
_cell_length_a   9.14468074
_cell_length_b   9.49776515
_cell_length_c   9.66915903
_cell_angle_alpha   60.33374981
_cell_angle_beta   81.35948725
_cell_angle_gamma   88.00086499
_symmetry_Int_Tables_number   1
_chemical_formula_structural   Ba2H2Pd(S5O17)2
_chemical_formula_sum   'Ba2 H2 Pd1 S10 O34'
_cell_volume   720.68230257
_cell_formula_units_Z   1
loop_
 _symmetry_equiv_pos_site_id
 _symmetry_equiv_pos_as_xyz
  1  'x, y, z'
loop_
 _atom_site_type_symbol
 _atom_site_label
 _atom_site_symmetry_multiplicity
 _atom_site_fract_x
 _atom_site_fract_y
 _atom_site_fract_z
 _atom_site_occupancy
  Ba  Ba0  1  0.73727900  0.70365300  0.08681600  1
  Ba  Ba1  1  0.26272100  0.29634700  0.91318400  1
  H  H2  1  0.57631600  0.15928500  0.43333800  1
  H  H3  1  0.42368400  0.84071500  0.56666200  1
  Pd  Pd4  1  0.00000000  0.00000000  0.50000000  1
  S  S5  1  0.64255000  0.15229900  0.72900600  1
  S  S6  1  0.35745000  0.84770100  0.27099400  1
  S  S7  1  0.70087300  0.49827300  0.59511500  1
  S  S8  1  0.29912700  0.50172700  0.40488500  1
  S  S9  1  0.92740800  0.62083100  0.70823600  1
  S  S10  1  0.07259200  0.37916900  0.29176400  1
  S  S11  1  0.86621300  0.03603200  0.20729300  1
  S  S12  1  0.13378700  0.96396800  0.79270700  1
  S  S13  1  0.61281400  0.24893800  0.17571100  1
  S  S14  1  0.38718600  0.75106200  0.82428900  1
  O  O15  1  0.50528700  0.17288100  0.81152800  1
  O  O16  1  0.49471300  0.82711900  0.18847200  1
  O  O17  1  0.63674700  0.17318300  0.57122200  1
  O  O18  1  0.36325300  0.82681700  0.42877800  1
  O  O19  1  0.73235400  0.02327100  0.82684000  1
  O  O20  1  0.26764600  0.97672900  0.17316000  1
  O  O21  1  0.75813700  0.31944300  0.68604600  1
  O  O22  1  0.24186300  0.68055700  0.31395400  1
  O  O23  1  0.58329900  0.52116600  0.69636900  1
  O  O24  1  0.41670100  0.47883400  0.30363100  1
  O  O25  1  0.68250500  0.54193300  0.43392800  1
  O  O26  1  0.31749500  0.45806700  0.56607200  1
  O  O27  1  0.84945900  0.59773200  0.56932200  1
  O  O28  1  0.15054100  0.40226800  0.43067800  1
  O  O29  1  0.80917200  0.65538100  0.80159700  1
  O  O30  1  0.19082800  0.34461900  0.19840300  1
  O  O31  1  0.00707300  0.47602500  0.78879700  1
  O  O32  1  0.99292700  0.52397500  0.21120300  1
  O  O33  1  0.03206100  0.75935000  0.59036300  1
  O  O34  1  0.96793900  0.24065000  0.40963700  1
  O  O35  1  0.83650200  0.99009700  0.38161100  1
  O  O36  1  0.16349800  0.00990300  0.61838900  1
  O  O37  1  0.86622500  0.89861400  0.18250900  1
  O  O38  1  0.13377500  0.10138600  0.81749100  1
  O  O39  1  0.97949300  0.16254900  0.11189300  1
  O  O40  1  0.02050700  0.83745100  0.88810700  1
  O  O41  1  0.70517100  0.11436200  0.14608000  1
  O  O42  1  0.29482900  0.88563800  0.85392000  1
  O  O43  1  0.53019500  0.14844600  0.34927700  1
  O  O44  1  0.46980500  0.85155400  0.65072300  1
  O  O45  1  0.50864100  0.29195100  0.06664100  1
  O  O46  1  0.49135900  0.70804900  0.93335900  1
  O  O47  1  0.71251400  0.37022600  0.16275300  1
  O  O48  1  0.28748600  0.62977400  0.83724700  1
