# generated using pymatgen
data_Na2PdF6
_symmetry_space_group_name_H-M   'P 1'
_cell_length_a   9.35063349
_cell_length_b   9.35063349
_cell_length_c   5.30505900
_cell_angle_alpha   90.00000000
_cell_angle_beta   90.00000000
_cell_angle_gamma   119.99999641
_symmetry_Int_Tables_number   1
_chemical_formula_structural   Na2PdF6
_chemical_formula_sum   'Na6 Pd3 F18'
_cell_volume   401.70102059
_cell_formula_units_Z   3
loop_
 _symmetry_equiv_pos_site_id
 _symmetry_equiv_pos_as_xyz
  1  'x, y, z'
loop_
 _atom_site_type_symbol
 _atom_site_label
 _atom_site_symmetry_multiplicity
 _atom_site_fract_x
 _atom_site_fract_y
 _atom_site_fract_z
 _atom_site_occupancy
  Na  Na0  1  0.29204900  0.00000000  0.50000000  1
  Na  Na1  1  0.00000000  0.29204900  0.50000000  1
  Na  Na2  1  0.70795100  0.70795100  0.50000000  1
  Na  Na3  1  0.62531300  0.00000000  0.00000000  1
  Na  Na4  1  0.00000000  0.62531300  0.00000000  1
  Na  Na5  1  0.37468700  0.37468700  0.00000000  1
  Pd  Pd6  1  0.33333300  0.66666700  0.49446000  1
  Pd  Pd7  1  0.66666700  0.33333300  0.50554000  1
  Pd  Pd8  1  0.00000000  0.00000000  0.00000000  1
  F  F9  1  0.46865300  0.25099500  0.29741000  1
  F  F10  1  0.74900500  0.21765800  0.29741000  1
  F  F11  1  0.25099500  0.46865300  0.70259000  1
  F  F12  1  0.78234200  0.53134700  0.29741000  1
  F  F13  1  0.21765800  0.74900500  0.70259000  1
  F  F14  1  0.53134700  0.78234200  0.70259000  1
  F  F15  1  0.10759100  0.20035800  0.20401300  1
  F  F16  1  0.79964200  0.90723300  0.20401300  1
  F  F17  1  0.20035800  0.10759100  0.79598700  1
  F  F18  1  0.09276700  0.89240900  0.20401300  1
  F  F19  1  0.90723300  0.79964200  0.79598700  1
  F  F20  1  0.89240900  0.09276700  0.79598700  1
  F  F21  1  0.13675100  0.54555800  0.28479700  1
  F  F22  1  0.45444200  0.59119400  0.28479700  1
  F  F23  1  0.54555800  0.13675100  0.71520300  1
  F  F24  1  0.40880600  0.86324900  0.28479700  1
  F  F25  1  0.59119400  0.45444200  0.71520300  1
  F  F26  1  0.86324900  0.40880600  0.71520300  1
