# generated using pymatgen
data_SnPS3
_symmetry_space_group_name_H-M   'P 1'
_cell_length_a   7.68465400
_cell_length_b   6.65579800
_cell_length_c   11.84574619
_cell_angle_alpha   56.17912871
_cell_angle_beta   90.00000000
_cell_angle_gamma   90.00000000
_symmetry_Int_Tables_number   1
_chemical_formula_structural   SnPS3
_chemical_formula_sum   'Sn4 P4 S12'
_cell_volume   503.35435791
_cell_formula_units_Z   4
loop_
 _symmetry_equiv_pos_site_id
 _symmetry_equiv_pos_as_xyz
  1  'x, y, z'
loop_
 _atom_site_type_symbol
 _atom_site_label
 _atom_site_symmetry_multiplicity
 _atom_site_fract_x
 _atom_site_fract_y
 _atom_site_fract_z
 _atom_site_occupancy
  Sn  Sn0  1  0.12955800  0.74524200  0.55107400  1
  Sn  Sn1  1  0.87044200  0.74524200  0.05107400  1
  Sn  Sn2  1  0.39972200  0.19515200  0.04370500  1
  Sn  Sn3  1  0.60027800  0.19515200  0.54370500  1
  P  P4  1  0.64974300  0.87393500  0.31294500  1
  P  P5  1  0.35025700  0.87393500  0.81294500  1
  P  P6  1  0.86511300  0.12743300  0.18151300  1
  P  P7  1  0.13488700  0.12743300  0.68151300  1
  S  S8  1  0.42668500  0.72166300  0.71008800  1
  S  S9  1  0.57331500  0.72166300  0.21008800  1
  S  S10  1  0.54655600  0.09451300  0.79692700  1
  S  S11  1  0.45344400  0.09451300  0.29692700  1
  S  S12  1  0.24829000  0.35279000  0.49665000  1
  S  S13  1  0.75171000  0.35279000  0.99665000  1
  S  S14  1  0.04669600  0.29952900  0.76837500  1
  S  S15  1  0.95330400  0.29952900  0.26837500  1
  S  S16  1  0.94836300  0.90157400  0.68881600  1
  S  S17  1  0.05163700  0.90157400  0.18881600  1
  S  S18  1  0.25994800  0.64306800  0.00320700  1
  S  S19  1  0.74005200  0.64306800  0.50320700  1
