# generated using pymatgen
data_Zr3Tl2OF12
_symmetry_space_group_name_H-M   'P 1'
_cell_length_a   11.13369604
_cell_length_b   11.13369604
_cell_length_c   11.13369605
_cell_angle_alpha   41.36660418
_cell_angle_beta   41.36660418
_cell_angle_gamma   41.36660380
_symmetry_Int_Tables_number   1
_chemical_formula_structural   Zr3Tl2OF12
_chemical_formula_sum   'Zr6 Tl4 O2 F24'
_cell_volume   544.56674647
_cell_formula_units_Z   2
loop_
 _symmetry_equiv_pos_site_id
 _symmetry_equiv_pos_as_xyz
  1  'x, y, z'
loop_
 _atom_site_type_symbol
 _atom_site_label
 _atom_site_symmetry_multiplicity
 _atom_site_fract_x
 _atom_site_fract_y
 _atom_site_fract_z
 _atom_site_occupancy
  Zr  Zr0  1  0.42433600  0.42433600  0.97087700  1
  Zr  Zr1  1  0.97087700  0.42433600  0.42433600  1
  Zr  Zr2  1  0.42433600  0.97087700  0.42433600  1
  Zr  Zr3  1  0.57566400  0.02912300  0.57566400  1
  Zr  Zr4  1  0.57566400  0.57566400  0.02912300  1
  Zr  Zr5  1  0.02912300  0.57566400  0.57566400  1
  Tl  Tl6  1  0.85996300  0.85996300  0.85996300  1
  Tl  Tl7  1  0.14003700  0.14003700  0.14003700  1
  Tl  Tl8  1  0.50000000  0.50000000  0.50000000  1
  Tl  Tl9  1  0.00000000  0.00000000  0.00000000  1
  O  O10  1  0.71314900  0.71314900  0.71314900  1
  O  O11  1  0.28685100  0.28685100  0.28685100  1
  F  F12  1  0.70715400  0.70715400  0.37174600  1
  F  F13  1  0.37174600  0.70715400  0.70715400  1
  F  F14  1  0.70715400  0.37174600  0.70715400  1
  F  F15  1  0.29284600  0.62825400  0.29284600  1
  F  F16  1  0.29284600  0.29284600  0.62825400  1
  F  F17  1  0.62825400  0.29284600  0.29284600  1
  F  F18  1  0.90951400  0.90951400  0.40417000  1
  F  F19  1  0.40417000  0.90951400  0.90951400  1
  F  F20  1  0.64736800  0.35263200  0.00000000  1
  F  F21  1  0.35263200  0.00000000  0.64736800  1
  F  F22  1  0.00000000  0.64736800  0.35263200  1
  F  F23  1  0.35263200  0.64736800  0.00000000  1
  F  F24  1  0.64736800  0.00000000  0.35263200  1
  F  F25  1  0.00000000  0.35263200  0.64736800  1
  F  F26  1  0.91693900  0.35165900  0.35165900  1
  F  F27  1  0.35165900  0.35165900  0.91693900  1
  F  F28  1  0.35165900  0.91693900  0.35165900  1
  F  F29  1  0.64834100  0.08306100  0.64834100  1
  F  F30  1  0.08306100  0.64834100  0.64834100  1
  F  F31  1  0.64834100  0.64834100  0.08306100  1
  F  F32  1  0.59583000  0.09048600  0.09048600  1
  F  F33  1  0.09048600  0.09048600  0.59583000  1
  F  F34  1  0.09048600  0.59583000  0.09048600  1
  F  F35  1  0.90951400  0.40417000  0.90951400  1
