# generated using pymatgen
data_Cs3Bi2(PS4)3
_symmetry_space_group_name_H-M   'P 1'
_cell_length_a   6.97409700
_cell_length_b   18.54482100
_cell_length_c   19.28165875
_cell_angle_alpha   81.53546859
_cell_angle_beta   90.00000000
_cell_angle_gamma   90.00000000
_symmetry_Int_Tables_number   1
_chemical_formula_structural   Cs3Bi2(PS4)3
_chemical_formula_sum   'Cs12 Bi8 P12 S48'
_cell_volume   2466.59799158
_cell_formula_units_Z   4
loop_
 _symmetry_equiv_pos_site_id
 _symmetry_equiv_pos_as_xyz
  1  'x, y, z'
loop_
 _atom_site_type_symbol
 _atom_site_label
 _atom_site_symmetry_multiplicity
 _atom_site_fract_x
 _atom_site_fract_y
 _atom_site_fract_z
 _atom_site_occupancy
  Cs  Cs0  1  0.73261900  0.89201200  0.98825900  1
  Cs  Cs1  1  0.23261900  0.10798800  0.51174100  1
  Cs  Cs2  1  0.26738100  0.10798800  0.01174100  1
  Cs  Cs3  1  0.76738100  0.89201200  0.48825900  1
  Cs  Cs4  1  0.75211300  0.62354900  0.30837800  1
  Cs  Cs5  1  0.25211300  0.37645100  0.19162200  1
  Cs  Cs6  1  0.24788700  0.37645100  0.69162200  1
  Cs  Cs7  1  0.74788700  0.62354900  0.80837800  1
  Cs  Cs8  1  0.27667500  0.76381100  0.63182000  1
  Cs  Cs9  1  0.77667500  0.23618900  0.86818000  1
  Cs  Cs10  1  0.72332500  0.23618900  0.36818000  1
  Cs  Cs11  1  0.22332500  0.76381100  0.13182000  1
  Bi  Bi12  1  0.19041800  0.92836200  0.79097800  1
  Bi  Bi13  1  0.69041800  0.07163800  0.70902200  1
  Bi  Bi14  1  0.80958200  0.07163800  0.20902200  1
  Bi  Bi15  1  0.30958200  0.92836200  0.29097800  1
  Bi  Bi16  1  0.32125400  0.59780000  0.50592100  1
  Bi  Bi17  1  0.82125400  0.40220000  0.99407900  1
  Bi  Bi18  1  0.67874600  0.40220000  0.49407900  1
  Bi  Bi19  1  0.17874600  0.59780000  0.00592100  1
  P  P20  1  0.79065400  0.88257400  0.69665800  1
  P  P21  1  0.29065400  0.11742600  0.80334200  1
  P  P22  1  0.20934600  0.11742600  0.30334200  1
  P  P23  1  0.70934600  0.88257400  0.19665800  1
  P  P24  1  0.24718000  0.77705500  0.41825000  1
  P  P25  1  0.74718000  0.22294500  0.08175000  1
  P  P26  1  0.75282000  0.22294500  0.58175000  1
  P  P27  1  0.25282000  0.77705500  0.91825000  1
  P  P28  1  0.74945800  0.53822200  0.60423100  1
  P  P29  1  0.24945800  0.46177800  0.89576900  1
  P  P30  1  0.25054200  0.46177800  0.39576900  1
  P  P31  1  0.75054200  0.53822200  0.10423100  1
  S  S32  1  0.82565700  0.88416800  0.80458500  1
  S  S33  1  0.32565700  0.11583200  0.69541500  1
  S  S34  1  0.17434300  0.11583200  0.19541500  1
  S  S35  1  0.67434300  0.88416800  0.30458500  1
  S  S36  1  0.77953100  0.78338300  0.66779200  1
  S  S37  1  0.27953100  0.21661700  0.83220800  1
  S  S38  1  0.22046900  0.21661700  0.33220800  1
  S  S39  1  0.72046900  0.78338300  0.16779200  1
  S  S40  1  0.23400100  0.88522900  0.93547400  1
  S  S41  1  0.73400100  0.11477100  0.56452600  1
  S  S42  1  0.76599900  0.11477100  0.06452600  1
  S  S43  1  0.26599900  0.88522900  0.43547400  1
  S  S44  1  0.02346900  0.94257200  0.65315500  1
  S  S45  1  0.52346900  0.05742800  0.84684500  1
  S  S46  1  0.97653100  0.05742800  0.34684500  1
  S  S47  1  0.47653100  0.94257200  0.15315500  1
  S  S48  1  0.50327900  0.72673000  0.44998000  1
  S  S49  1  0.00327900  0.27327000  0.05002000  1
  S  S50  1  0.49672100  0.27327000  0.55002000  1
  S  S51  1  0.99672100  0.72673000  0.94998000  1
  S  S52  1  0.19450600  0.78306700  0.31220200  1
  S  S53  1  0.69450600  0.21693300  0.18779800  1
  S  S54  1  0.80549400  0.21693300  0.68779800  1
  S  S55  1  0.30549400  0.78306700  0.81220200  1
  S  S56  1  0.50981400  0.58054400  0.64489500  1
  S  S57  1  0.00981400  0.41945600  0.85510500  1
  S  S58  1  0.49018600  0.41945600  0.35510500  1
  S  S59  1  0.99018600  0.58054400  0.14489500  1
  S  S60  1  0.25382500  0.57517100  0.37081400  1
  S  S61  1  0.75382500  0.42482900  0.12918600  1
  S  S62  1  0.74617500  0.42482900  0.62918600  1
  S  S63  1  0.24617500  0.57517100  0.87081400  1
  S  S64  1  0.03686000  0.72121400  0.47533400  1
  S  S65  1  0.53686000  0.27878600  0.02466600  1
  S  S66  1  0.96314000  0.27878600  0.52466600  1
  S  S67  1  0.46314000  0.72121400  0.97533400  1
  S  S68  1  0.71454000  0.55894900  0.49407000  1
  S  S69  1  0.21454000  0.44105100  0.00593000  1
  S  S70  1  0.28546000  0.44105100  0.50593000  1
  S  S71  1  0.78546000  0.55894900  0.99407000  1
  S  S72  1  0.99941200  0.57610600  0.63553000  1
  S  S73  1  0.49941200  0.42389400  0.86447000  1
  S  S74  1  0.00058800  0.42389400  0.36447000  1
  S  S75  1  0.50058800  0.57610600  0.13553000  1
  S  S76  1  0.54071300  0.93872900  0.66621700  1
  S  S77  1  0.04071300  0.06127100  0.83378300  1
  S  S78  1  0.45928700  0.06127100  0.33378300  1
  S  S79  1  0.95928700  0.93872900  0.16621700  1
