# generated using pymatgen
data_HoRhO3
_symmetry_space_group_name_H-M   'P 1'
_cell_length_a   5.27950000
_cell_length_b   5.78402600
_cell_length_c   7.65628900
_cell_angle_alpha   90.00000000
_cell_angle_beta   90.00000000
_cell_angle_gamma   90.00000000
_symmetry_Int_Tables_number   1
_chemical_formula_structural   HoRhO3
_chemical_formula_sum   'Ho4 Rh4 O12'
_cell_volume   233.79830001
_cell_formula_units_Z   4
loop_
 _symmetry_equiv_pos_site_id
 _symmetry_equiv_pos_as_xyz
  1  'x, y, z'
loop_
 _atom_site_type_symbol
 _atom_site_label
 _atom_site_symmetry_multiplicity
 _atom_site_fract_x
 _atom_site_fract_y
 _atom_site_fract_z
 _atom_site_occupancy
  Ho  Ho0  1  0.03050700  0.41599700  0.25000000  1
  Ho  Ho1  1  0.96949300  0.58400300  0.75000000  1
  Ho  Ho2  1  0.53050700  0.08400300  0.75000000  1
  Ho  Ho3  1  0.46949300  0.91599700  0.25000000  1
  Rh  Rh4  1  0.00000000  0.00000000  0.00000000  1
  Rh  Rh5  1  0.50000000  0.50000000  0.00000000  1
  Rh  Rh6  1  0.00000000  0.00000000  0.50000000  1
  Rh  Rh7  1  0.50000000  0.50000000  0.50000000  1
  O  O8  1  0.32238000  0.19030300  0.06475700  1
  O  O9  1  0.67762000  0.80969700  0.93524300  1
  O  O10  1  0.82238000  0.30969700  0.93524300  1
  O  O11  1  0.67762000  0.80969700  0.56475700  1
  O  O12  1  0.17762000  0.69030300  0.06475700  1
  O  O13  1  0.32238000  0.19030300  0.43524300  1
  O  O14  1  0.17762000  0.69030300  0.43524300  1
  O  O15  1  0.82238000  0.30969700  0.56475700  1
  O  O16  1  0.63746300  0.55453800  0.25000000  1
  O  O17  1  0.36253700  0.44546200  0.75000000  1
  O  O18  1  0.13746300  0.94546200  0.75000000  1
  O  O19  1  0.86253700  0.05453800  0.25000000  1
