# generated using pymatgen
data_K3Ag3As2
_symmetry_space_group_name_H-M   'P 1'
_cell_length_a   7.99234064
_cell_length_b   7.99234064
_cell_length_c   7.99234064
_cell_angle_alpha   44.87360709
_cell_angle_beta   44.87360709
_cell_angle_gamma   44.87360579
_symmetry_Int_Tables_number   1
_chemical_formula_structural   K3Ag3As2
_chemical_formula_sum   'K3 Ag3 As2'
_cell_volume   231.25050589
_cell_formula_units_Z   1
loop_
 _symmetry_equiv_pos_site_id
 _symmetry_equiv_pos_as_xyz
  1  'x, y, z'
loop_
 _atom_site_type_symbol
 _atom_site_label
 _atom_site_symmetry_multiplicity
 _atom_site_fract_x
 _atom_site_fract_y
 _atom_site_fract_z
 _atom_site_occupancy
  K  K0  1  0.09120000  0.09120000  0.09120000  1
  K  K1  1  0.90880000  0.90880000  0.90880000  1
  K  K2  1  0.50000000  0.50000000  0.50000000  1
  Ag  Ag3  1  0.00000000  0.50000000  0.50000000  1
  Ag  Ag4  1  0.50000000  0.50000000  0.00000000  1
  Ag  Ag5  1  0.50000000  0.00000000  0.50000000  1
  As  As6  1  0.75434800  0.75434800  0.75434800  1
  As  As7  1  0.24565200  0.24565200  0.24565200  1
