# generated using pymatgen
data_SmTl2P2S7
_symmetry_space_group_name_H-M   'P 1'
_cell_length_a   12.03435269
_cell_length_b   12.03435269
_cell_length_c   18.97839738
_cell_angle_alpha   60.20706985
_cell_angle_beta   60.20706985
_cell_angle_gamma   32.77887164
_symmetry_Int_Tables_number   1
_chemical_formula_structural   SmTl2P2S7
_chemical_formula_sum   'Sm4 Tl8 P8 S28'
_cell_volume   1272.94127891
_cell_formula_units_Z   4
loop_
 _symmetry_equiv_pos_site_id
 _symmetry_equiv_pos_as_xyz
  1  'x, y, z'
loop_
 _atom_site_type_symbol
 _atom_site_label
 _atom_site_symmetry_multiplicity
 _atom_site_fract_x
 _atom_site_fract_y
 _atom_site_fract_z
 _atom_site_occupancy
  Sm  Sm0  1  0.88326800  0.80711200  0.23517600  1
  Sm  Sm1  1  0.19288800  0.11673200  0.26482400  1
  Sm  Sm2  1  0.11673200  0.19288800  0.76482400  1
  Sm  Sm3  1  0.80711200  0.88326800  0.73517600  1
  Tl  Tl4  1  0.81887400  0.81643200  0.02606700  1
  Tl  Tl5  1  0.18356800  0.18112600  0.47393300  1
  Tl  Tl6  1  0.18112600  0.18356800  0.97393300  1
  Tl  Tl7  1  0.81643200  0.81887400  0.52606700  1
  Tl  Tl8  1  0.53564800  0.48647300  0.11930000  1
  Tl  Tl9  1  0.51352700  0.46435200  0.38070000  1
  Tl  Tl10  1  0.46435200  0.51352700  0.88070000  1
  Tl  Tl11  1  0.48647300  0.53564800  0.61930000  1
  P  P12  1  0.33098000  0.33526800  0.13745700  1
  P  P13  1  0.66473200  0.66902000  0.36254300  1
  P  P14  1  0.66902000  0.66473200  0.86254300  1
  P  P15  1  0.33526800  0.33098000  0.63745700  1
  P  P16  1  0.97373500  0.92957500  0.31073200  1
  P  P17  1  0.07042500  0.02626500  0.18926800  1
  P  P18  1  0.02626500  0.07042500  0.68926800  1
  P  P19  1  0.92957500  0.97373500  0.81073200  1
  S  S20  1  0.00091400  0.96236400  0.39346800  1
  S  S21  1  0.03763600  0.99908600  0.10653200  1
  S  S22  1  0.99908600  0.03763600  0.60653200  1
  S  S23  1  0.96236400  0.00091400  0.89346800  1
  S  S24  1  0.16334600  0.63355700  0.08446000  1
  S  S25  1  0.36644300  0.83665400  0.41554000  1
  S  S26  1  0.83665400  0.36644300  0.91554000  1
  S  S27  1  0.63355700  0.16334600  0.58446000  1
  S  S28  1  0.16944500  0.63145900  0.31272900  1
  S  S29  1  0.36854100  0.83055500  0.18727100  1
  S  S30  1  0.83055500  0.36854100  0.68727100  1
  S  S31  1  0.63145900  0.16944500  0.81272900  1
  S  S32  1  0.22090100  0.33839000  0.26265600  1
  S  S33  1  0.66161000  0.77909900  0.23734400  1
  S  S34  1  0.77909900  0.66161000  0.73734400  1
  S  S35  1  0.33839000  0.22090100  0.76265600  1
  S  S36  1  0.74780300  0.72081000  0.40150000  1
  S  S37  1  0.27919000  0.25219700  0.09850000  1
  S  S38  1  0.25219700  0.27919000  0.59850000  1
  S  S39  1  0.72081000  0.74780300  0.90150000  1
  S  S40  1  0.85535600  0.36075700  0.39514700  1
  S  S41  1  0.63924300  0.14464400  0.10485300  1
  S  S42  1  0.14464400  0.63924300  0.60485300  1
  S  S43  1  0.36075700  0.85535600  0.89514700  1
  S  S44  1  0.88261100  0.31970700  0.18915600  1
  S  S45  1  0.68029300  0.11738900  0.31084400  1
  S  S46  1  0.11738900  0.68029300  0.81084400  1
  S  S47  1  0.31970700  0.88261100  0.68915600  1
