# generated using pymatgen
data_TiAgPO5
_symmetry_space_group_name_H-M   'P 1'
_cell_length_a   6.33605600
_cell_length_b   10.70456800
_cell_length_c   12.67693300
_cell_angle_alpha   90.00000000
_cell_angle_beta   90.00000000
_cell_angle_gamma   90.00000000
_symmetry_Int_Tables_number   1
_chemical_formula_structural   TiAgPO5
_chemical_formula_sum   'Ti8 Ag8 P8 O40'
_cell_volume   859.80971393
_cell_formula_units_Z   8
loop_
 _symmetry_equiv_pos_site_id
 _symmetry_equiv_pos_as_xyz
  1  'x, y, z'
loop_
 _atom_site_type_symbol
 _atom_site_label
 _atom_site_symmetry_multiplicity
 _atom_site_fract_x
 _atom_site_fract_y
 _atom_site_fract_z
 _atom_site_occupancy
  Ti  Ti0  1  0.29395400  0.23687000  0.27632200  1
  Ti  Ti1  1  0.70604600  0.73687000  0.72367800  1
  Ti  Ti2  1  0.20604600  0.23687000  0.77632200  1
  Ti  Ti3  1  0.79395400  0.73687000  0.22367800  1
  Ti  Ti4  1  0.53247700  0.00274600  0.12923800  1
  Ti  Ti5  1  0.46752300  0.50274600  0.87076200  1
  Ti  Ti6  1  0.96752300  0.00274600  0.62923800  1
  Ti  Ti7  1  0.03247700  0.50274600  0.37076200  1
  Ag  Ag8  1  0.24464100  0.60748500  0.11236000  1
  Ag  Ag9  1  0.75535900  0.10748500  0.88764000  1
  Ag  Ag10  1  0.25535900  0.60748500  0.61236000  1
  Ag  Ag11  1  0.74464100  0.10748500  0.38764000  1
  Ag  Ag12  1  0.81333200  0.29618400  0.14859800  1
  Ag  Ag13  1  0.18666800  0.79618400  0.85140200  1
  Ag  Ag14  1  0.68666800  0.29618400  0.64859800  1
  Ag  Ag15  1  0.31333200  0.79618400  0.35140200  1
  P  P16  1  0.34503300  0.27262700  0.02144400  1
  P  P17  1  0.65496700  0.77262700  0.97855600  1
  P  P18  1  0.15496700  0.27262700  0.52144400  1
  P  P19  1  0.84503300  0.77262700  0.47855600  1
  P  P20  1  0.03662500  0.00496300  0.18342700  1
  P  P21  1  0.96337500  0.50496300  0.81657300  1
  P  P22  1  0.46337500  0.00496300  0.68342700  1
  P  P23  1  0.53662500  0.50496300  0.31657300  1
  O  O24  1  0.21069000  0.26834000  0.12351900  1
  O  O25  1  0.78931000  0.76834000  0.87648100  1
  O  O26  1  0.28931000  0.26834000  0.62351900  1
  O  O27  1  0.71069000  0.76834000  0.37648100  1
  O  O28  1  0.22757600  0.99891900  0.10840500  1
  O  O29  1  0.77242400  0.49891900  0.89159500  1
  O  O30  1  0.27242400  0.99891900  0.60840500  1
  O  O31  1  0.72757600  0.49891900  0.39159500  1
  O  O32  1  0.07215100  0.10263200  0.27296600  1
  O  O33  1  0.92784900  0.60263200  0.72703400  1
  O  O34  1  0.42784900  0.10263200  0.77296600  1
  O  O35  1  0.57215100  0.60263200  0.22703400  1
  O  O36  1  0.50584600  0.37525600  0.26406500  1
  O  O37  1  0.49415400  0.87525600  0.73593500  1
  O  O38  1  0.99415400  0.37525600  0.76406500  1
  O  O39  1  0.00584600  0.87525600  0.23593500  1
  O  O40  1  0.07317900  0.40884400  0.50734800  1
  O  O41  1  0.92682100  0.90884400  0.49265200  1
  O  O42  1  0.42682100  0.40884400  0.00734800  1
  O  O43  1  0.57317900  0.90884400  0.99265200  1
  O  O44  1  0.30318100  0.23458900  0.42875300  1
  O  O45  1  0.69681900  0.73458900  0.57124700  1
  O  O46  1  0.19681900  0.23458900  0.92875300  1
  O  O47  1  0.80318100  0.73458900  0.07124700  1
  O  O48  1  0.05877800  0.36821400  0.29301900  1
  O  O49  1  0.94122200  0.86821400  0.70698100  1
  O  O50  1  0.44122200  0.36821400  0.79301900  1
  O  O51  1  0.55877800  0.86821400  0.20698100  1
  O  O52  1  0.53518900  0.18103000  0.02922300  1
  O  O53  1  0.46481100  0.68103000  0.97077700  1
  O  O54  1  0.96481100  0.18103000  0.52922300  1
  O  O55  1  0.03518900  0.68103000  0.47077700  1
  O  O56  1  0.50230600  0.12272900  0.24801000  1
  O  O57  1  0.49769400  0.62272900  0.75199000  1
  O  O58  1  0.99769400  0.12272900  0.74801000  1
  O  O59  1  0.00230600  0.62272900  0.25199000  1
  O  O60  1  0.34103300  0.54467200  0.38066300  1
  O  O61  1  0.65896700  0.04467200  0.61933700  1
  O  O62  1  0.15896700  0.54467200  0.88066300  1
  O  O63  1  0.84103300  0.04467200  0.11933700  1
