# generated using pymatgen
data_Tb5Ge4
_symmetry_space_group_name_H-M   'P 1'
_cell_length_a   7.69941300
_cell_length_b   7.77576900
_cell_length_c   14.78772500
_cell_angle_alpha   90.00000000
_cell_angle_beta   90.00000000
_cell_angle_gamma   90.00000000
_symmetry_Int_Tables_number   1
_chemical_formula_structural   Tb5Ge4
_chemical_formula_sum   'Tb20 Ge16'
_cell_volume   885.32419225
_cell_formula_units_Z   4
loop_
 _symmetry_equiv_pos_site_id
 _symmetry_equiv_pos_as_xyz
  1  'x, y, z'
loop_
 _atom_site_type_symbol
 _atom_site_label
 _atom_site_symmetry_multiplicity
 _atom_site_fract_x
 _atom_site_fract_y
 _atom_site_fract_z
 _atom_site_occupancy
  Tb  Tb0  1  0.71290600  0.99810600  0.25000000  1
  Tb  Tb1  1  0.21290600  0.50189400  0.25000000  1
  Tb  Tb2  1  0.78709400  0.49810600  0.75000000  1
  Tb  Tb3  1  0.28709400  0.00189400  0.75000000  1
  Tb  Tb4  1  0.02528000  0.17726300  0.39871400  1
  Tb  Tb5  1  0.52528000  0.32273700  0.10128600  1
  Tb  Tb6  1  0.47472000  0.67726300  0.60128600  1
  Tb  Tb7  1  0.97472000  0.82273700  0.89871400  1
  Tb  Tb8  1  0.97472000  0.82273700  0.60128600  1
  Tb  Tb9  1  0.47472000  0.67726300  0.89871400  1
  Tb  Tb10  1  0.52528000  0.32273700  0.39871400  1
  Tb  Tb11  1  0.02528000  0.17726300  0.10128600  1
  Tb  Tb12  1  0.87701900  0.66044800  0.38318100  1
  Tb  Tb13  1  0.37701900  0.83955200  0.11681900  1
  Tb  Tb14  1  0.62298100  0.16044800  0.61681900  1
  Tb  Tb15  1  0.12298100  0.33955200  0.88318100  1
  Tb  Tb16  1  0.12298100  0.33955200  0.61681900  1
  Tb  Tb17  1  0.62298100  0.16044800  0.88318100  1
  Tb  Tb18  1  0.37701900  0.83955200  0.38318100  1
  Tb  Tb19  1  0.87701900  0.66044800  0.11681900  1
  Ge  Ge20  1  0.16937200  0.63707700  0.75000000  1
  Ge  Ge21  1  0.66937200  0.86292300  0.75000000  1
  Ge  Ge22  1  0.33062800  0.13707700  0.25000000  1
  Ge  Ge23  1  0.83062800  0.36292300  0.25000000  1
  Ge  Ge24  1  0.91741700  0.11570900  0.75000000  1
  Ge  Ge25  1  0.41741700  0.38429100  0.75000000  1
  Ge  Ge26  1  0.58258300  0.61570900  0.25000000  1
  Ge  Ge27  1  0.08258300  0.88429100  0.25000000  1
  Ge  Ge28  1  0.78096300  0.46672300  0.54409300  1
  Ge  Ge29  1  0.28096300  0.03327700  0.95590700  1
  Ge  Ge30  1  0.71903700  0.96672300  0.45590700  1
  Ge  Ge31  1  0.21903700  0.53327700  0.04409300  1
  Ge  Ge32  1  0.21903700  0.53327700  0.45590700  1
  Ge  Ge33  1  0.71903700  0.96672300  0.04409300  1
  Ge  Ge34  1  0.28096300  0.03327700  0.54409300  1
  Ge  Ge35  1  0.78096300  0.46672300  0.95590700  1
