# generated using pymatgen
data_TbH18(BrO6)3
_symmetry_space_group_name_H-M   'P 1'
_cell_length_a   11.80141955
_cell_length_b   11.80141955
_cell_length_c   6.79405400
_cell_angle_alpha   90.00000000
_cell_angle_beta   90.00000000
_cell_angle_gamma   119.99999747
_symmetry_Int_Tables_number   1
_chemical_formula_structural   TbH18(BrO6)3
_chemical_formula_sum   'Tb2 H36 Br6 O36'
_cell_volume   819.46071326
_cell_formula_units_Z   2
loop_
 _symmetry_equiv_pos_site_id
 _symmetry_equiv_pos_as_xyz
  1  'x, y, z'
loop_
 _atom_site_type_symbol
 _atom_site_label
 _atom_site_symmetry_multiplicity
 _atom_site_fract_x
 _atom_site_fract_y
 _atom_site_fract_z
 _atom_site_occupancy
  Tb  Tb0  1  0.33333300  0.66666700  0.74676000  1
  Tb  Tb1  1  0.66666700  0.33333300  0.24676000  1
  H  H2  1  0.11765600  0.74579800  0.75723300  1
  H  H3  1  0.25420200  0.37185800  0.75723300  1
  H  H4  1  0.62814200  0.88234400  0.75723300  1
  H  H5  1  0.25420200  0.88234400  0.75723300  1
  H  H6  1  0.62814200  0.74579800  0.75723300  1
  H  H7  1  0.11765600  0.37185800  0.75723300  1
  H  H8  1  0.88234400  0.25420200  0.25723300  1
  H  H9  1  0.74579800  0.62814200  0.25723300  1
  H  H10  1  0.37185800  0.11765600  0.25723300  1
  H  H11  1  0.74579800  0.11765600  0.25723300  1
  H  H12  1  0.37185800  0.25420200  0.25723300  1
  H  H13  1  0.88234400  0.62814200  0.25723300  1
  H  H14  1  0.37072800  0.49646200  0.06077300  1
  H  H15  1  0.50353800  0.87426600  0.06077300  1
  H  H16  1  0.12573400  0.62927200  0.06077300  1
  H  H17  1  0.50353800  0.62927200  0.06077300  1
  H  H18  1  0.12573400  0.49646200  0.06077300  1
  H  H19  1  0.37072800  0.87426600  0.06077300  1
  H  H20  1  0.62932100  0.50430200  0.93974100  1
  H  H21  1  0.49569800  0.12501900  0.93974100  1
  H  H22  1  0.87498100  0.37067900  0.93974100  1
  H  H23  1  0.49569800  0.37067900  0.93974100  1
  H  H24  1  0.87498100  0.50430200  0.93974100  1
  H  H25  1  0.62932100  0.12501900  0.93974100  1
  H  H26  1  0.62927200  0.50353800  0.56077300  1
  H  H27  1  0.49646200  0.12573400  0.56077300  1
  H  H28  1  0.87426600  0.37072800  0.56077300  1
  H  H29  1  0.49646200  0.37072800  0.56077300  1
  H  H30  1  0.87426600  0.50353800  0.56077300  1
  H  H31  1  0.62927200  0.12573400  0.56077300  1
  H  H32  1  0.37067900  0.49569800  0.43974100  1
  H  H33  1  0.50430200  0.87498100  0.43974100  1
  H  H34  1  0.12501900  0.62932100  0.43974100  1
  H  H35  1  0.50430200  0.62932100  0.43974100  1
  H  H36  1  0.12501900  0.49569800  0.43974100  1
  H  H37  1  0.37067900  0.87498100  0.43974100  1
  Br  Br38  1  0.12990700  0.87009300  0.25730000  1
  Br  Br39  1  0.12990700  0.25981500  0.25730000  1
  Br  Br40  1  0.74018500  0.87009300  0.25730000  1
  Br  Br41  1  0.87009300  0.12990700  0.75730000  1
  Br  Br42  1  0.87009300  0.74018500  0.75730000  1
  Br  Br43  1  0.25981500  0.12990700  0.75730000  1
  O  O44  1  0.29562900  0.93250200  0.25119100  1
  O  O45  1  0.06749800  0.36312700  0.25119100  1
  O  O46  1  0.63687300  0.70437100  0.25119100  1
  O  O47  1  0.06749800  0.70437100  0.25119100  1
  O  O48  1  0.63687300  0.93250200  0.25119100  1
  O  O49  1  0.29562900  0.36312700  0.25119100  1
  O  O50  1  0.70437100  0.06749800  0.75119100  1
  O  O51  1  0.93250200  0.63687300  0.75119100  1
  O  O52  1  0.36312700  0.29562900  0.75119100  1
  O  O53  1  0.93250200  0.29562900  0.75119100  1
  O  O54  1  0.36312700  0.06749800  0.75119100  1
  O  O55  1  0.70437100  0.63687300  0.75119100  1
  O  O56  1  0.42281500  0.57718500  0.98399300  1
  O  O57  1  0.42281500  0.84563000  0.98399300  1
  O  O58  1  0.15437000  0.57718500  0.98399300  1
  O  O59  1  0.57705500  0.42294500  0.01490000  1
  O  O60  1  0.57705500  0.15411000  0.01490000  1
  O  O61  1  0.84589000  0.42294500  0.01490000  1
  O  O62  1  0.57718500  0.42281500  0.48399300  1
  O  O63  1  0.57718500  0.15437000  0.48399300  1
  O  O64  1  0.84563000  0.42281500  0.48399300  1
  O  O65  1  0.42294500  0.57705500  0.51490000  1
  O  O66  1  0.42294500  0.84589000  0.51490000  1
  O  O67  1  0.15411000  0.57705500  0.51490000  1
  O  O68  1  0.21269800  0.78730200  0.73614400  1
  O  O69  1  0.21269800  0.42539600  0.73614400  1
  O  O70  1  0.57460400  0.78730200  0.73614400  1
  O  O71  1  0.78730200  0.21269800  0.23614400  1
  O  O72  1  0.78730200  0.57460400  0.23614400  1
  O  O73  1  0.42539600  0.21269800  0.23614400  1
  O  O74  1  0.09225300  0.90774700  0.04173600  1
  O  O75  1  0.09225300  0.18450700  0.04173600  1
  O  O76  1  0.81549300  0.90774700  0.04173600  1
  O  O77  1  0.90774700  0.09225300  0.54173600  1
  O  O78  1  0.90774700  0.81549300  0.54173600  1
  O  O79  1  0.18450700  0.09225300  0.54173600  1
