# generated using pymatgen
data_BaCdAsF
_symmetry_space_group_name_H-M   'P 1'
_cell_length_a   4.48315500
_cell_length_b   4.48315500
_cell_length_c   9.65335500
_cell_angle_alpha   90.00000000
_cell_angle_beta   90.00000000
_cell_angle_gamma   90.00000000
_symmetry_Int_Tables_number   1
_chemical_formula_structural   BaCdAsF
_chemical_formula_sum   'Ba2 Cd2 As2 F2'
_cell_volume   194.01968104
_cell_formula_units_Z   2
loop_
 _symmetry_equiv_pos_site_id
 _symmetry_equiv_pos_as_xyz
  1  'x, y, z'
loop_
 _atom_site_type_symbol
 _atom_site_label
 _atom_site_symmetry_multiplicity
 _atom_site_fract_x
 _atom_site_fract_y
 _atom_site_fract_z
 _atom_site_occupancy
  Ba  Ba0  1  0.00000000  0.50000000  0.84507900  1
  Ba  Ba1  1  0.50000000  0.00000000  0.15492100  1
  Cd  Cd2  1  0.50000000  0.50000000  0.50000000  1
  Cd  Cd3  1  0.00000000  0.00000000  0.50000000  1
  As  As4  1  0.00000000  0.50000000  0.32194400  1
  As  As5  1  0.50000000  0.00000000  0.67805600  1
  F  F6  1  0.50000000  0.50000000  0.00000000  1
  F  F7  1  0.00000000  0.00000000  0.00000000  1
