# generated using pymatgen
data_Pr2Cu(GeO4)2
_symmetry_space_group_name_H-M   'P 1'
_cell_length_a   9.23740118
_cell_length_b   9.23740118
_cell_length_c   5.22617142
_cell_angle_alpha   73.97896431
_cell_angle_beta   73.97896431
_cell_angle_gamma   114.62281220
_symmetry_Int_Tables_number   1
_chemical_formula_structural   Pr2Cu(GeO4)2
_chemical_formula_sum   'Pr4 Cu2 Ge4 O16'
_cell_volume   348.46577160
_cell_formula_units_Z   2
loop_
 _symmetry_equiv_pos_site_id
 _symmetry_equiv_pos_as_xyz
  1  'x, y, z'
loop_
 _atom_site_type_symbol
 _atom_site_label
 _atom_site_symmetry_multiplicity
 _atom_site_fract_x
 _atom_site_fract_y
 _atom_site_fract_z
 _atom_site_occupancy
  Pr  Pr0  1  0.46051200  0.70168200  0.18168400  1
  Pr  Pr1  1  0.70168200  0.46051200  0.18168400  1
  Pr  Pr2  1  0.19925500  0.95689500  0.67593000  1
  Pr  Pr3  1  0.95689500  0.19925500  0.67593000  1
  Cu  Cu4  1  0.65971600  0.07355800  0.37915000  1
  Cu  Cu5  1  0.07355800  0.65971600  0.37915000  1
  Ge  Ge6  1  0.83722900  0.83722900  0.37599200  1
  Ge  Ge7  1  0.53223600  0.11121400  0.91933400  1
  Ge  Ge8  1  0.11121400  0.53223600  0.91933400  1
  Ge  Ge9  1  0.33346300  0.33346300  0.97297800  1
  O  O10  1  0.37859400  0.91191200  0.92593500  1
  O  O11  1  0.91191200  0.37859400  0.92593500  1
  O  O12  1  0.74853700  0.93494200  0.57679000  1
  O  O13  1  0.93494200  0.74853700  0.57679000  1
  O  O14  1  0.50151000  0.50151000  0.00624400  1
  O  O15  1  0.72585700  0.24407700  0.55892800  1
  O  O16  1  0.24407700  0.72585700  0.55892800  1
  O  O17  1  0.42610000  0.24172500  0.76075500  1
  O  O18  1  0.24172500  0.42610000  0.76075500  1
  O  O19  1  0.66934300  0.66934300  0.33823800  1
  O  O20  1  0.16993200  0.16993200  0.33984500  1
  O  O21  1  0.50563200  0.15922700  0.23760100  1
  O  O22  1  0.15922700  0.50563200  0.23760100  1
  O  O23  1  0.99877800  0.99877800  0.00114600  1
  O  O24  1  0.65252000  0.00115300  0.07427300  1
  O  O25  1  0.00115300  0.65252000  0.07427300  1
