# generated using pymatgen
data_Cs2TlBr5
_symmetry_space_group_name_H-M   'P 1'
_cell_length_a   13.99738200
_cell_length_b   8.16622200
_cell_length_c   24.13435400
_cell_angle_alpha   90.00000000
_cell_angle_beta   90.00000000
_cell_angle_gamma   90.00000000
_symmetry_Int_Tables_number   1
_chemical_formula_structural   Cs2TlBr5
_chemical_formula_sum   'Cs16 Tl8 Br40'
_cell_volume   2758.69492383
_cell_formula_units_Z   8
loop_
 _symmetry_equiv_pos_site_id
 _symmetry_equiv_pos_as_xyz
  1  'x, y, z'
loop_
 _atom_site_type_symbol
 _atom_site_label
 _atom_site_symmetry_multiplicity
 _atom_site_fract_x
 _atom_site_fract_y
 _atom_site_fract_z
 _atom_site_occupancy
  Cs  Cs0  1  0.10982600  0.25000000  0.53296900  1
  Cs  Cs1  1  0.60982600  0.25000000  0.96703100  1
  Cs  Cs2  1  0.89017400  0.75000000  0.46703100  1
  Cs  Cs3  1  0.39017400  0.75000000  0.03296900  1
  Cs  Cs4  1  0.12759700  0.25000000  0.10141400  1
  Cs  Cs5  1  0.62759700  0.25000000  0.39858600  1
  Cs  Cs6  1  0.87240300  0.75000000  0.89858600  1
  Cs  Cs7  1  0.37240300  0.75000000  0.60141400  1
  Cs  Cs8  1  0.26580100  0.25000000  0.30688500  1
  Cs  Cs9  1  0.76580100  0.25000000  0.19311500  1
  Cs  Cs10  1  0.73419900  0.75000000  0.69311500  1
  Cs  Cs11  1  0.23419900  0.75000000  0.80688500  1
  Cs  Cs12  1  0.52935600  0.75000000  0.22725600  1
  Cs  Cs13  1  0.02935600  0.75000000  0.27274400  1
  Cs  Cs14  1  0.47064400  0.25000000  0.77274400  1
  Cs  Cs15  1  0.97064400  0.25000000  0.72725600  1
  Tl  Tl16  1  0.94428100  0.25000000  0.35940000  1
  Tl  Tl17  1  0.44428100  0.25000000  0.14060000  1
  Tl  Tl18  1  0.05571900  0.75000000  0.64060000  1
  Tl  Tl19  1  0.55571900  0.75000000  0.85940000  1
  Tl  Tl20  1  0.09984800  0.25000000  0.90913200  1
  Tl  Tl21  1  0.59984800  0.25000000  0.59086800  1
  Tl  Tl22  1  0.90015200  0.75000000  0.09086800  1
  Tl  Tl23  1  0.40015200  0.75000000  0.40913200  1
  Br  Br24  1  0.36400500  0.25000000  0.03471600  1
  Br  Br25  1  0.86400500  0.25000000  0.46528400  1
  Br  Br26  1  0.63599500  0.75000000  0.96528400  1
  Br  Br27  1  0.13599500  0.75000000  0.53471600  1
  Br  Br28  1  0.52421500  0.25000000  0.25318100  1
  Br  Br29  1  0.02421500  0.25000000  0.24681900  1
  Br  Br30  1  0.47578500  0.75000000  0.74681900  1
  Br  Br31  1  0.97578500  0.75000000  0.75318100  1
  Br  Br32  1  0.31513700  0.00616800  0.17360700  1
  Br  Br33  1  0.81513700  0.49383200  0.32639300  1
  Br  Br34  1  0.68486300  0.50616800  0.82639300  1
  Br  Br35  1  0.18486300  0.99383200  0.67360700  1
  Br  Br36  1  0.68486300  0.99383200  0.82639300  1
  Br  Br37  1  0.18486300  0.50616800  0.67360700  1
  Br  Br38  1  0.31513700  0.49383200  0.17360700  1
  Br  Br39  1  0.81513700  0.00616800  0.32639300  1
  Br  Br40  1  0.57654900  0.48747900  0.11024900  1
  Br  Br41  1  0.07654900  0.01252100  0.38975100  1
  Br  Br42  1  0.42345100  0.98747900  0.88975100  1
  Br  Br43  1  0.92345100  0.51252100  0.61024900  1
  Br  Br44  1  0.42345100  0.51252100  0.88975100  1
  Br  Br45  1  0.92345100  0.98747900  0.61024900  1
  Br  Br46  1  0.57654900  0.01252100  0.11024900  1
  Br  Br47  1  0.07654900  0.48747900  0.38975100  1
  Br  Br48  1  0.13284900  0.52364300  0.96148500  1
  Br  Br49  1  0.63284900  0.97635700  0.53851500  1
  Br  Br50  1  0.86715100  0.02364300  0.03851500  1
  Br  Br51  1  0.36715100  0.47635700  0.46148500  1
  Br  Br52  1  0.86715100  0.47635700  0.03851500  1
  Br  Br53  1  0.36715100  0.02364300  0.46148500  1
  Br  Br54  1  0.13284900  0.97635700  0.96148500  1
  Br  Br55  1  0.63284900  0.52364300  0.53851500  1
  Br  Br56  1  0.91656700  0.25000000  0.88347200  1
  Br  Br57  1  0.41656700  0.25000000  0.61652800  1
  Br  Br58  1  0.08343300  0.75000000  0.11652800  1
  Br  Br59  1  0.58343300  0.75000000  0.38347200  1
  Br  Br60  1  0.19057600  0.25000000  0.81392300  1
  Br  Br61  1  0.69057600  0.25000000  0.68607700  1
  Br  Br62  1  0.80942400  0.75000000  0.18607700  1
  Br  Br63  1  0.30942400  0.75000000  0.31392300  1
