# generated using pymatgen
data_Ba3(NaSb2)2
_symmetry_space_group_name_H-M   'P 1'
_cell_length_a   8.29523200
_cell_length_b   9.25518000
_cell_length_c   19.69557021
_cell_angle_alpha   61.94501060
_cell_angle_beta   90.00000000
_cell_angle_gamma   90.00000000
_symmetry_Int_Tables_number   1
_chemical_formula_structural   Ba3(NaSb2)2
_chemical_formula_sum   'Ba12 Na8 Sb16'
_cell_volume   1334.42758885
_cell_formula_units_Z   4
loop_
 _symmetry_equiv_pos_site_id
 _symmetry_equiv_pos_as_xyz
  1  'x, y, z'
loop_
 _atom_site_type_symbol
 _atom_site_label
 _atom_site_symmetry_multiplicity
 _atom_site_fract_x
 _atom_site_fract_y
 _atom_site_fract_z
 _atom_site_occupancy
  Ba  Ba0  1  0.98940300  0.78750800  0.40359600  1
  Ba  Ba1  1  0.48940300  0.21249200  0.09640400  1
  Ba  Ba2  1  0.01148200  0.91066400  0.90274100  1
  Ba  Ba3  1  0.51148200  0.08933600  0.59725900  1
  Ba  Ba4  1  0.01059700  0.21249200  0.59640400  1
  Ba  Ba5  1  0.51059700  0.78750800  0.90359600  1
  Ba  Ba6  1  0.98851800  0.08933600  0.09725900  1
  Ba  Ba7  1  0.48851800  0.91066400  0.40274100  1
  Ba  Ba8  1  0.17272000  0.44903500  0.86973400  1
  Ba  Ba9  1  0.67272000  0.55096500  0.63026600  1
  Ba  Ba10  1  0.82728000  0.55096500  0.13026600  1
  Ba  Ba11  1  0.32728000  0.44903500  0.36973400  1
  Na  Na12  1  0.65082400  0.76808200  0.24904200  1
  Na  Na13  1  0.15082400  0.23191800  0.25095800  1
  Na  Na14  1  0.34917600  0.23191800  0.75095800  1
  Na  Na15  1  0.84917600  0.76808200  0.74904200  1
  Na  Na16  1  0.82763500  0.30217100  0.37266700  1
  Na  Na17  1  0.32763500  0.69782900  0.12733300  1
  Na  Na18  1  0.17236500  0.69782900  0.62733300  1
  Na  Na19  1  0.67236500  0.30217100  0.87266700  1
  Sb  Sb20  1  0.52146900  0.33126700  0.25099100  1
  Sb  Sb21  1  0.02146900  0.66873300  0.24900900  1
  Sb  Sb22  1  0.47853100  0.66873300  0.74900900  1
  Sb  Sb23  1  0.97853100  0.33126700  0.75099100  1
  Sb  Sb24  1  0.77501500  0.11688300  0.24943400  1
  Sb  Sb25  1  0.27501500  0.88311700  0.25056600  1
  Sb  Sb26  1  0.22498500  0.88311700  0.75056600  1
  Sb  Sb27  1  0.72498500  0.11688300  0.74943400  1
  Sb  Sb28  1  0.65761600  0.50243600  0.46316000  1
  Sb  Sb29  1  0.15761600  0.49756400  0.03684000  1
  Sb  Sb30  1  0.34662500  0.06954500  0.96351600  1
  Sb  Sb31  1  0.84662500  0.93045500  0.53648400  1
  Sb  Sb32  1  0.34238400  0.49756400  0.53684000  1
  Sb  Sb33  1  0.84238400  0.50243600  0.96316000  1
  Sb  Sb34  1  0.65337500  0.93045500  0.03648400  1
  Sb  Sb35  1  0.15337500  0.06954500  0.46351600  1
