# generated using pymatgen
data_Na2CrO4
_symmetry_space_group_name_H-M   'P 1'
_cell_length_a   5.56035207
_cell_length_b   5.56036279
_cell_length_c   14.37769900
_cell_angle_alpha   89.99867523
_cell_angle_beta   90.00138016
_cell_angle_gamma   114.83577284
_symmetry_Int_Tables_number   1
_chemical_formula_structural   Na2CrO4
_chemical_formula_sum   'Na8 Cr4 O16'
_cell_volume   403.41200481
_cell_formula_units_Z   4
loop_
 _symmetry_equiv_pos_site_id
 _symmetry_equiv_pos_as_xyz
  1  'x, y, z'
loop_
 _atom_site_type_symbol
 _atom_site_label
 _atom_site_symmetry_multiplicity
 _atom_site_fract_x
 _atom_site_fract_y
 _atom_site_fract_z
 _atom_site_occupancy
  Na  Na0  1  0.18302000  0.81698000  0.37500600  1
  Na  Na1  1  0.18302700  0.81697200  0.87498700  1
  Na  Na2  1  0.81697800  0.18302200  0.12499100  1
  Na  Na3  1  0.81697000  0.18303200  0.62501200  1
  Na  Na4  1  0.50000000  0.50000300  0.24999700  1
  Na  Na5  1  0.49999700  0.50000200  0.74999900  1
  Na  Na6  1  0.50000400  0.49999500  0.99998100  1
  Na  Na7  1  0.49999300  0.50000800  0.50001700  1
  Cr  Cr8  1  0.85368000  0.14632600  0.87503600  1
  Cr  Cr9  1  0.14632800  0.85367000  0.62496600  1
  Cr  Cr10  1  0.85371400  0.14628500  0.37496500  1
  Cr  Cr11  1  0.14628700  0.85370500  0.12503800  1
  O  O12  1  0.24928700  0.75071400  0.03133700  1
  O  O13  1  0.24927300  0.75072600  0.53130100  1
  O  O14  1  0.75072300  0.24927600  0.28132100  1
  O  O15  1  0.75070900  0.24929100  0.78130900  1
  O  O16  1  0.75069900  0.24930300  0.46867600  1
  O  O17  1  0.75073200  0.24926700  0.96869000  1
  O  O18  1  0.24929000  0.75071100  0.21869100  1
  O  O19  1  0.24929400  0.75070700  0.71869100  1
  O  O20  1  0.18564600  0.26922300  0.37496400  1
  O  O21  1  0.18565300  0.26924700  0.87500400  1
  O  O22  1  0.81436200  0.73078800  0.12503500  1
  O  O23  1  0.81434400  0.73075300  0.62499200  1
  O  O24  1  0.73077800  0.81435100  0.37496400  1
  O  O25  1  0.73075200  0.81434700  0.87500400  1
  O  O26  1  0.26921300  0.18563600  0.12503500  1
  O  O27  1  0.26924800  0.18566000  0.62499200  1
