# generated using pymatgen
data_Nd(FeSb3)4
_symmetry_space_group_name_H-M   'P 1'
_cell_length_a   7.95198382
_cell_length_b   7.95198382
_cell_length_c   7.95198382
_cell_angle_alpha   109.47122063
_cell_angle_beta   109.47122063
_cell_angle_gamma   109.47122063
_symmetry_Int_Tables_number   1
_chemical_formula_structural   Nd(FeSb3)4
_chemical_formula_sum   'Nd1 Fe4 Sb12'
_cell_volume   387.08342283
_cell_formula_units_Z   1
loop_
 _symmetry_equiv_pos_site_id
 _symmetry_equiv_pos_as_xyz
  1  'x, y, z'
loop_
 _atom_site_type_symbol
 _atom_site_label
 _atom_site_symmetry_multiplicity
 _atom_site_fract_x
 _atom_site_fract_y
 _atom_site_fract_z
 _atom_site_occupancy
  Nd  Nd0  1  0.00000000  0.00000000  0.00000000  1
  Fe  Fe1  1  0.00000000  0.00000000  0.50000000  1
  Fe  Fe2  1  0.50000000  0.00000000  0.00000000  1
  Fe  Fe3  1  0.00000000  0.50000000  0.00000000  1
  Fe  Fe4  1  0.50000000  0.50000000  0.50000000  1
  Sb  Sb5  1  0.16253800  0.82845600  0.66591800  1
  Sb  Sb6  1  0.83746200  0.17154400  0.33408200  1
  Sb  Sb7  1  0.66591800  0.16253800  0.82845600  1
  Sb  Sb8  1  0.50338000  0.66591800  0.83746200  1
  Sb  Sb9  1  0.66591800  0.83746200  0.50338000  1
  Sb  Sb10  1  0.49662000  0.33408200  0.16253800  1
  Sb  Sb11  1  0.33408200  0.83746200  0.17154400  1
  Sb  Sb12  1  0.17154400  0.33408200  0.83746200  1
  Sb  Sb13  1  0.82845600  0.66591800  0.16253800  1
  Sb  Sb14  1  0.33408200  0.16253800  0.49662000  1
  Sb  Sb15  1  0.83746200  0.50338000  0.66591800  1
  Sb  Sb16  1  0.16253800  0.49662000  0.33408200  1
