# generated using pymatgen
data_Ba2MnTeO6
_symmetry_space_group_name_H-M   'P 1'
_cell_length_a   8.33849900
_cell_length_b   8.33842840
_cell_length_c   10.21485182
_cell_angle_alpha   65.90854427
_cell_angle_beta   114.09169664
_cell_angle_gamma   90.00173222
_symmetry_Int_Tables_number   1
_chemical_formula_structural   Ba2MnTeO6
_chemical_formula_sum   'Ba8 Mn4 Te4 O24'
_cell_volume   579.94857425
_cell_formula_units_Z   4
loop_
 _symmetry_equiv_pos_site_id
 _symmetry_equiv_pos_as_xyz
  1  'x, y, z'
loop_
 _atom_site_type_symbol
 _atom_site_label
 _atom_site_symmetry_multiplicity
 _atom_site_fract_x
 _atom_site_fract_y
 _atom_site_fract_z
 _atom_site_occupancy
  Ba  Ba0  1  0.87499500  0.62501900  0.24999600  1
  Ba  Ba1  1  0.62501000  0.37500600  0.74999800  1
  Ba  Ba2  1  0.37499500  0.12499200  0.24999600  1
  Ba  Ba3  1  0.12498200  0.87500500  0.74999700  1
  Ba  Ba4  1  0.12499300  0.37499400  0.75000300  1
  Ba  Ba5  1  0.87500600  0.12498100  0.25000400  1
  Ba  Ba6  1  0.62502000  0.87499300  0.75000500  1
  Ba  Ba7  1  0.37500700  0.62500800  0.25000400  1
  Mn  Mn8  1  0.49999900  0.50001000  0.00000500  1
  Mn  Mn9  1  0.24999400  0.24999600  0.49998700  1
  Mn  Mn10  1  0.74996400  0.74999400  0.49998000  1
  Mn  Mn11  1  0.00001800  0.00001400  0.00001200  1
  Te  Te12  1  0.50000200  0.99999500  0.00000600  1
  Te  Te13  1  0.24999900  0.75000400  0.49999400  1
  Te  Te14  1  0.99999700  0.50000100  0.99999500  1
  Te  Te15  1  0.75000400  0.24999800  0.50000600  1
  O  O16  1  0.38188400  0.11811700  0.76375800  1
  O  O17  1  0.13187900  0.86812100  0.26374800  1
  O  O18  1  0.88187900  0.61812100  0.76375000  1
  O  O19  1  0.63188300  0.36811700  0.26375700  1
  O  O20  1  0.26368400  0.00002000  0.99996500  1
  O  O21  1  0.01371500  0.74998900  0.50002800  1
  O  O22  1  0.76369600  0.50001900  0.99996600  1
  O  O23  1  0.51372700  0.24998800  0.50002800  1
  O  O24  1  0.50001200  0.23627400  0.00002700  1
  O  O25  1  0.24998100  0.98630200  0.49996700  1
  O  O26  1  0.00001200  0.73628700  0.00002800  1
  O  O27  1  0.74998100  0.48631900  0.49996600  1
  O  O28  1  0.61812200  0.88187900  0.23625200  1
  O  O29  1  0.36811800  0.63188100  0.73624600  1
  O  O30  1  0.11811800  0.38188300  0.23624300  1
  O  O31  1  0.86812200  0.13187700  0.73625400  1
  O  O32  1  0.50002100  0.76369700  0.00003500  1
  O  O33  1  0.24998900  0.51372500  0.49997400  1
  O  O34  1  0.00002100  0.26368200  0.00003500  1
  O  O35  1  0.74998900  0.01371200  0.49997300  1
  O  O36  1  0.73628800  0.00001100  0.99997300  1
  O  O37  1  0.48631600  0.74998000  0.50003500  1
  O  O38  1  0.23627500  0.50001000  0.99997400  1
  O  O39  1  0.98630400  0.24998000  0.50003400  1
