# generated using pymatgen
data_MnPb(SO4)2
_symmetry_space_group_name_H-M   'P 1'
_cell_length_a   6.85897700
_cell_length_b   6.85897700
_cell_length_c   13.99021600
_cell_angle_alpha   90.00000000
_cell_angle_beta   90.00000000
_cell_angle_gamma   90.00000000
_symmetry_Int_Tables_number   1
_chemical_formula_structural   MnPb(SO4)2
_chemical_formula_sum   'Mn4 Pb4 S8 O32'
_cell_volume   658.17762300
_cell_formula_units_Z   4
loop_
 _symmetry_equiv_pos_site_id
 _symmetry_equiv_pos_as_xyz
  1  'x, y, z'
loop_
 _atom_site_type_symbol
 _atom_site_label
 _atom_site_symmetry_multiplicity
 _atom_site_fract_x
 _atom_site_fract_y
 _atom_site_fract_z
 _atom_site_occupancy
  Mn  Mn0  1  0.16636000  0.16636000  0.00000000  1
  Mn  Mn1  1  0.83364000  0.83364000  0.50000000  1
  Mn  Mn2  1  0.33364000  0.66636000  0.25000000  1
  Mn  Mn3  1  0.66636000  0.33364000  0.75000000  1
  Pb  Pb4  1  0.74970100  0.74970100  0.00000000  1
  Pb  Pb5  1  0.25029900  0.25029900  0.50000000  1
  Pb  Pb6  1  0.75029900  0.24970100  0.25000000  1
  Pb  Pb7  1  0.24970100  0.75029900  0.75000000  1
  S  S8  1  0.24662300  0.17377500  0.24290100  1
  S  S9  1  0.75337700  0.82622500  0.74290100  1
  S  S10  1  0.32622500  0.74662300  0.49290100  1
  S  S11  1  0.25337700  0.67377500  0.00709900  1
  S  S12  1  0.67377500  0.25337700  0.99290100  1
  S  S13  1  0.74662300  0.32622500  0.50709900  1
  S  S14  1  0.17377500  0.24662300  0.75709900  1
  S  S15  1  0.82622500  0.75337700  0.25709900  1
  O  O16  1  0.11547700  0.20749300  0.32627200  1
  O  O17  1  0.88452300  0.79250700  0.82627200  1
  O  O18  1  0.29250700  0.61547700  0.57627200  1
  O  O19  1  0.38452300  0.70749300  0.92372800  1
  O  O20  1  0.70749300  0.38452300  0.07627200  1
  O  O21  1  0.61547700  0.29250700  0.42372800  1
  O  O22  1  0.20749300  0.11547700  0.67372800  1
  O  O23  1  0.79250700  0.88452300  0.17372800  1
  O  O24  1  0.12400700  0.17082100  0.15512700  1
  O  O25  1  0.87599300  0.82917900  0.65512700  1
  O  O26  1  0.32917900  0.62400700  0.40512700  1
  O  O27  1  0.37599300  0.67082100  0.09487300  1
  O  O28  1  0.67082100  0.37599300  0.90512700  1
  O  O29  1  0.62400700  0.32917900  0.59487300  1
  O  O30  1  0.17082100  0.12400700  0.84487300  1
  O  O31  1  0.82917900  0.87599300  0.34487300  1
  O  O32  1  0.49088500  0.13976600  0.00439800  1
  O  O33  1  0.50911500  0.86023400  0.50439800  1
  O  O34  1  0.36023400  0.99088500  0.25439800  1
  O  O35  1  0.00911500  0.63976600  0.24560200  1
  O  O36  1  0.63976600  0.00911500  0.75439800  1
  O  O37  1  0.99088500  0.36023400  0.74560200  1
  O  O38  1  0.13976600  0.49088500  0.99560200  1
  O  O39  1  0.86023400  0.50911500  0.49560200  1
  O  O40  1  0.38916600  0.33976900  0.23709100  1
  O  O41  1  0.61083400  0.66023100  0.73709100  1
  O  O42  1  0.16023100  0.88916600  0.48709100  1
  O  O43  1  0.11083400  0.83976900  0.01290900  1
  O  O44  1  0.83976900  0.11083400  0.98709100  1
  O  O45  1  0.88916600  0.16023100  0.51290900  1
  O  O46  1  0.33976900  0.38916600  0.76290900  1
  O  O47  1  0.66023100  0.61083400  0.26290900  1
