# generated using pymatgen
data_Cs9Fe2Se7
_symmetry_space_group_name_H-M   'P 1'
_cell_length_a   14.34839800
_cell_length_b   14.34839800
_cell_length_c   14.34839800
_cell_angle_alpha   90.00000000
_cell_angle_beta   90.00000000
_cell_angle_gamma   90.00000000
_symmetry_Int_Tables_number   1
_chemical_formula_structural   Cs9Fe2Se7
_chemical_formula_sum   'Cs36 Fe8 Se28'
_cell_volume   2953.99832194
_cell_formula_units_Z   4
loop_
 _symmetry_equiv_pos_site_id
 _symmetry_equiv_pos_as_xyz
  1  'x, y, z'
loop_
 _atom_site_type_symbol
 _atom_site_label
 _atom_site_symmetry_multiplicity
 _atom_site_fract_x
 _atom_site_fract_y
 _atom_site_fract_z
 _atom_site_occupancy
  Cs  Cs0  1  0.20162100  0.16710800  0.50213100  1
  Cs  Cs1  1  0.49786900  0.70162100  0.33289200  1
  Cs  Cs2  1  0.66710800  0.99786900  0.79837900  1
  Cs  Cs3  1  0.70162100  0.33289200  0.49786900  1
  Cs  Cs4  1  0.99786900  0.79837900  0.66710800  1
  Cs  Cs5  1  0.16710800  0.50213100  0.20162100  1
  Cs  Cs6  1  0.79837900  0.66710800  0.99786900  1
  Cs  Cs7  1  0.50213100  0.20162100  0.16710800  1
  Cs  Cs8  1  0.33289200  0.49786900  0.70162100  1
  Cs  Cs9  1  0.29837900  0.83289200  0.00213100  1
  Cs  Cs10  1  0.00213100  0.29837900  0.83289200  1
  Cs  Cs11  1  0.83289200  0.00213100  0.29837900  1
  Cs  Cs12  1  0.70714700  0.82327000  0.54291500  1
  Cs  Cs13  1  0.45708500  0.20714700  0.67673000  1
  Cs  Cs14  1  0.32327000  0.95708500  0.29285300  1
  Cs  Cs15  1  0.20714700  0.67673000  0.45708500  1
  Cs  Cs16  1  0.95708500  0.29285300  0.32327000  1
  Cs  Cs17  1  0.82327000  0.54291500  0.70714700  1
  Cs  Cs18  1  0.29285300  0.32327000  0.95708500  1
  Cs  Cs19  1  0.54291500  0.70714700  0.82327000  1
  Cs  Cs20  1  0.67673000  0.45708500  0.20714700  1
  Cs  Cs21  1  0.79285300  0.17673000  0.04291500  1
  Cs  Cs22  1  0.04291500  0.79285300  0.17673000  1
  Cs  Cs23  1  0.17673000  0.04291500  0.79285300  1
  Cs  Cs24  1  0.08279400  0.58279400  0.91720600  1
  Cs  Cs25  1  0.58279400  0.91720600  0.08279400  1
  Cs  Cs26  1  0.91720600  0.08279400  0.58279400  1
  Cs  Cs27  1  0.41720600  0.41720600  0.41720600  1
  Cs  Cs28  1  0.26149800  0.76149800  0.73850200  1
  Cs  Cs29  1  0.76149800  0.73850200  0.26149800  1
  Cs  Cs30  1  0.73850200  0.26149800  0.76149800  1
  Cs  Cs31  1  0.23850200  0.23850200  0.23850200  1
  Cs  Cs32  1  0.44138600  0.94138600  0.55861400  1
  Cs  Cs33  1  0.94138600  0.55861400  0.44138600  1
  Cs  Cs34  1  0.55861400  0.44138600  0.94138600  1
  Cs  Cs35  1  0.05861400  0.05861400  0.05861400  1
  Fe  Fe36  1  0.92942900  0.42942900  0.07057100  1
  Fe  Fe37  1  0.42942900  0.07057100  0.92942900  1
  Fe  Fe38  1  0.07057100  0.92942900  0.42942900  1
  Fe  Fe39  1  0.57057100  0.57057100  0.57057100  1
  Fe  Fe40  1  0.60019000  0.10019000  0.39981000  1
  Fe  Fe41  1  0.10019000  0.39981000  0.60019000  1
  Fe  Fe42  1  0.39981000  0.60019000  0.10019000  1
  Fe  Fe43  1  0.89981000  0.89981000  0.89981000  1
  Se  Se44  1  0.66247200  0.08813300  0.55874000  1
  Se  Se45  1  0.44126000  0.16247200  0.41186700  1
  Se  Se46  1  0.58813300  0.94126000  0.33752800  1
  Se  Se47  1  0.16247200  0.41186700  0.44126000  1
  Se  Se48  1  0.94126000  0.33752800  0.58813300  1
  Se  Se49  1  0.08813300  0.55874000  0.66247200  1
  Se  Se50  1  0.33752800  0.58813300  0.94126000  1
  Se  Se51  1  0.55874000  0.66247200  0.08813300  1
  Se  Se52  1  0.41186700  0.44126000  0.16247200  1
  Se  Se53  1  0.83752800  0.91186700  0.05874000  1
  Se  Se54  1  0.05874000  0.83752800  0.91186700  1
  Se  Se55  1  0.91186700  0.05874000  0.83752800  1
  Se  Se56  1  0.18250600  0.92292000  0.55209800  1
  Se  Se57  1  0.44790200  0.68250600  0.57708000  1
  Se  Se58  1  0.42292000  0.94790200  0.81749400  1
  Se  Se59  1  0.68250600  0.57708000  0.44790200  1
  Se  Se60  1  0.94790200  0.81749400  0.42292000  1
  Se  Se61  1  0.92292000  0.55209800  0.18250600  1
  Se  Se62  1  0.81749400  0.42292000  0.94790200  1
  Se  Se63  1  0.55209800  0.18250600  0.92292000  1
  Se  Se64  1  0.57708000  0.44790200  0.68250600  1
  Se  Se65  1  0.31749400  0.07708000  0.05209800  1
  Se  Se66  1  0.05209800  0.31749400  0.07708000  1
  Se  Se67  1  0.07708000  0.05209800  0.31749400  1
  Se  Se68  1  0.70100200  0.20100200  0.29899800  1
  Se  Se69  1  0.20100200  0.29899800  0.70100200  1
  Se  Se70  1  0.29899800  0.70100200  0.20100200  1
  Se  Se71  1  0.79899800  0.79899800  0.79899800  1
