# generated using pymatgen
data_P4Os
_symmetry_space_group_name_H-M   'P 1'
_cell_length_a   4.75373500
_cell_length_b   7.21113046
_cell_length_c   7.60296266
_cell_angle_alpha   111.32997638
_cell_angle_beta   90.34487870
_cell_angle_gamma   100.43358193
_symmetry_Int_Tables_number   1
_chemical_formula_structural   P4Os
_chemical_formula_sum   'P12 Os3'
_cell_volume   238.02483055
_cell_formula_units_Z   3
loop_
 _symmetry_equiv_pos_site_id
 _symmetry_equiv_pos_as_xyz
  1  'x, y, z'
loop_
 _atom_site_type_symbol
 _atom_site_label
 _atom_site_symmetry_multiplicity
 _atom_site_fract_x
 _atom_site_fract_y
 _atom_site_fract_z
 _atom_site_occupancy
  P  P0  1  0.82197400  0.83746700  0.21449000  1
  P  P1  1  0.17802600  0.16253300  0.78551000  1
  P  P2  1  0.72801800  0.57313200  0.54862800  1
  P  P3  1  0.27198200  0.42686800  0.45137200  1
  P  P4  1  0.79460700  0.29600700  0.12399600  1
  P  P5  1  0.20539300  0.70399300  0.87600400  1
  P  P6  1  0.40065000  0.63317400  0.10032600  1
  P  P7  1  0.59935000  0.36682600  0.89967400  1
  P  P8  1  0.34083000  0.91414400  0.56133400  1
  P  P9  1  0.65917000  0.08585600  0.43866600  1
  P  P10  1  0.60845900  0.83086900  0.76876800  1
  P  P11  1  0.39154100  0.16913100  0.23123200  1
  Os  Os12  1  0.00000000  0.00000000  0.00000000  1
  Os  Os13  1  0.05912200  0.62751600  0.32795400  1
  Os  Os14  1  0.94087800  0.37248400  0.67204600  1
