# generated using pymatgen
data_Sr3CaCN4
_symmetry_space_group_name_H-M   'P 1'
_cell_length_a   3.77426900
_cell_length_b   12.08147400
_cell_length_c   14.53799100
_cell_angle_alpha   90.00000000
_cell_angle_beta   90.00000000
_cell_angle_gamma   90.00000000
_symmetry_Int_Tables_number   1
_chemical_formula_structural   Sr3CaCN4
_chemical_formula_sum   'Sr12 Ca4 C4 N16'
_cell_volume   662.91396695
_cell_formula_units_Z   4
loop_
 _symmetry_equiv_pos_site_id
 _symmetry_equiv_pos_as_xyz
  1  'x, y, z'
loop_
 _atom_site_type_symbol
 _atom_site_label
 _atom_site_symmetry_multiplicity
 _atom_site_fract_x
 _atom_site_fract_y
 _atom_site_fract_z
 _atom_site_occupancy
  Sr  Sr0  1  0.75000000  0.88540000  0.39128000  1
  Sr  Sr1  1  0.25000000  0.11460000  0.60872000  1
  Sr  Sr2  1  0.25000000  0.61460000  0.89128000  1
  Sr  Sr3  1  0.75000000  0.38540000  0.10872000  1
  Sr  Sr4  1  0.75000000  0.64799000  0.25728900  1
  Sr  Sr5  1  0.25000000  0.35201000  0.74271100  1
  Sr  Sr6  1  0.25000000  0.85201000  0.75728900  1
  Sr  Sr7  1  0.75000000  0.14799000  0.24271100  1
  Sr  Sr8  1  0.75000000  0.87790600  0.96383800  1
  Sr  Sr9  1  0.25000000  0.12209400  0.03616200  1
  Sr  Sr10  1  0.25000000  0.62209400  0.46383800  1
  Sr  Sr11  1  0.75000000  0.37790600  0.53616200  1
  Ca  Ca12  1  0.75000000  0.60679200  0.67520500  1
  Ca  Ca13  1  0.25000000  0.39320800  0.32479500  1
  Ca  Ca14  1  0.25000000  0.89320800  0.17520500  1
  Ca  Ca15  1  0.75000000  0.10679200  0.82479500  1
  C  C16  1  0.75000000  0.85089900  0.58950100  1
  C  C17  1  0.25000000  0.14910100  0.41049900  1
  C  C18  1  0.25000000  0.64910100  0.08950100  1
  C  C19  1  0.75000000  0.35089900  0.91049900  1
  N  N20  1  0.75000000  0.75960600  0.55029500  1
  N  N21  1  0.25000000  0.24039400  0.44970500  1
  N  N22  1  0.25000000  0.74039400  0.05029500  1
  N  N23  1  0.75000000  0.25960600  0.94970500  1
  N  N24  1  0.75000000  0.94337200  0.62744700  1
  N  N25  1  0.25000000  0.05662800  0.37255300  1
  N  N26  1  0.25000000  0.55662800  0.12744700  1
  N  N27  1  0.75000000  0.44337200  0.87255300  1
  N  N28  1  0.75000000  0.49882300  0.37928800  1
  N  N29  1  0.25000000  0.50117700  0.62071200  1
  N  N30  1  0.25000000  0.00117700  0.87928800  1
  N  N31  1  0.75000000  0.99882300  0.12071200  1
  N  N32  1  0.75000000  0.72314600  0.81624600  1
  N  N33  1  0.25000000  0.27685400  0.18375400  1
  N  N34  1  0.25000000  0.77685400  0.31624600  1
  N  N35  1  0.75000000  0.22314600  0.68375400  1
