# generated using pymatgen
data_La2(MgAg3)3
_symmetry_space_group_name_H-M   'P 1'
_cell_length_a   5.86365813
_cell_length_b   5.86365813
_cell_length_c   10.22864000
_cell_angle_alpha   90.00000000
_cell_angle_beta   90.00000000
_cell_angle_gamma   122.68677128
_symmetry_Int_Tables_number   1
_chemical_formula_structural   La2(MgAg3)3
_chemical_formula_sum   'La2 Mg3 Ag9'
_cell_volume   295.99148633
_cell_formula_units_Z   1
loop_
 _symmetry_equiv_pos_site_id
 _symmetry_equiv_pos_as_xyz
  1  'x, y, z'
loop_
 _atom_site_type_symbol
 _atom_site_label
 _atom_site_symmetry_multiplicity
 _atom_site_fract_x
 _atom_site_fract_y
 _atom_site_fract_z
 _atom_site_occupancy
  La  La0  1  0.00000000  0.50000000  0.75219400  1
  La  La1  1  0.50000000  0.00000000  0.24780600  1
  Mg  Mg2  1  0.00000000  0.00000000  0.50000000  1
  Mg  Mg3  1  0.00000000  0.00000000  0.00000000  1
  Mg  Mg4  1  0.50000000  0.50000000  0.50000000  1
  Ag  Ag5  1  0.00000000  0.50000000  0.05538400  1
  Ag  Ag6  1  0.50000000  0.00000000  0.55528700  1
  Ag  Ag7  1  0.50000000  0.00000000  0.94461600  1
  Ag  Ag8  1  0.00000000  0.50000000  0.44471300  1
  Ag  Ag9  1  0.19328500  0.30583700  0.25106700  1
  Ag  Ag10  1  0.69416300  0.80671500  0.74893300  1
  Ag  Ag11  1  0.30583700  0.19328500  0.74893300  1
  Ag  Ag12  1  0.80671500  0.69416300  0.25106700  1
  Ag  Ag13  1  0.50000000  0.50000000  0.00000000  1
