# generated using pymatgen
data_Sm2Si2O7
_symmetry_space_group_name_H-M   'P 1'
_cell_length_a   5.47479400
_cell_length_b   8.61160286
_cell_length_c   13.08010762
_cell_angle_alpha   90.46475601
_cell_angle_beta   92.39049917
_cell_angle_gamma   92.51043013
_symmetry_Int_Tables_number   1
_chemical_formula_structural   Sm2Si2O7
_chemical_formula_sum   'Sm8 Si8 O28'
_cell_volume   615.52607145
_cell_formula_units_Z   4
loop_
 _symmetry_equiv_pos_site_id
 _symmetry_equiv_pos_as_xyz
  1  'x, y, z'
loop_
 _atom_site_type_symbol
 _atom_site_label
 _atom_site_symmetry_multiplicity
 _atom_site_fract_x
 _atom_site_fract_y
 _atom_site_fract_z
 _atom_site_occupancy
  Sm  Sm0  1  0.25706200  0.89534900  0.08553800  1
  Sm  Sm1  1  0.74293800  0.10465100  0.91446200  1
  Sm  Sm2  1  0.76456900  0.70197600  0.25936200  1
  Sm  Sm3  1  0.23543100  0.29802400  0.74063800  1
  Sm  Sm4  1  0.74986000  0.59740200  0.59230900  1
  Sm  Sm5  1  0.25014000  0.40259800  0.40769100  1
  Sm  Sm6  1  0.22884700  0.82573300  0.76397600  1
  Sm  Sm7  1  0.77115300  0.17426700  0.23602400  1
  Si  Si8  1  0.78528500  0.49565000  0.82077300  1
  Si  Si9  1  0.21471500  0.50435000  0.17922700  1
  Si  Si10  1  0.19878400  0.75469900  0.48099900  1
  Si  Si11  1  0.80121600  0.24530100  0.51900100  1
  Si  Si12  1  0.69804800  0.75338400  0.97293000  1
  Si  Si13  1  0.30195200  0.24661600  0.02707000  1
  Si  Si14  1  0.29508200  0.00092600  0.31950700  1
  Si  Si15  1  0.70491800  0.99907400  0.68049300  1
  O  O16  1  0.70312800  0.57758400  0.92649700  1
  O  O17  1  0.29687200  0.42241600  0.07350300  1
  O  O18  1  0.95338700  0.85317800  0.95246100  1
  O  O19  1  0.04661300  0.14682200  0.04753900  1
  O  O20  1  0.55021700  0.48391000  0.73780800  1
  O  O21  1  0.44978300  0.51609000  0.26219200  1
  O  O22  1  0.44010000  0.65085900  0.47556400  1
  O  O23  1  0.55990000  0.34914100  0.52443600  1
  O  O24  1  0.24489100  0.92757500  0.43178200  1
  O  O25  1  0.75510900  0.07242500  0.56821800  1
  O  O26  1  0.09821100  0.77222800  0.59568700  1
  O  O27  1  0.90178900  0.22777200  0.40431300  1
  O  O28  1  0.89473000  0.32563300  0.84289600  1
  O  O29  1  0.10527000  0.67436700  0.15710400  1
  O  O30  1  0.62159900  0.75307100  0.09175500  1
  O  O31  1  0.37840100  0.24692900  0.90824500  1
  O  O32  1  0.01858200  0.35393800  0.58277100  1
  O  O33  1  0.98141800  0.64606200  0.41722900  1
  O  O34  1  0.52035400  0.14088100  0.08184500  1
  O  O35  1  0.47964600  0.85911900  0.91815500  1
  O  O36  1  0.48498000  0.08450400  0.73880900  1
  O  O37  1  0.51502000  0.91549600  0.26119100  1
  O  O38  1  0.60914800  0.81679600  0.67774400  1
  O  O39  1  0.39085200  0.18320400  0.32225600  1
  O  O40  1  0.95636000  0.02825000  0.75534700  1
  O  O41  1  0.04364000  0.97175000  0.24465300  1
  O  O42  1  0.99390700  0.40892800  0.23635400  1
  O  O43  1  0.00609300  0.59107200  0.76364600  1
