# generated using pymatgen
data_Sc2B4Ru5
_symmetry_space_group_name_H-M   'P 1'
_cell_length_a   3.01006200
_cell_length_b   8.53167457
_cell_length_c   10.10006247
_cell_angle_alpha   89.94811121
_cell_angle_beta   90.00000000
_cell_angle_gamma   90.00000000
_symmetry_Int_Tables_number   1
_chemical_formula_structural   Sc2B4Ru5
_chemical_formula_sum   'Sc4 B8 Ru10'
_cell_volume   259.37827912
_cell_formula_units_Z   2
loop_
 _symmetry_equiv_pos_site_id
 _symmetry_equiv_pos_as_xyz
  1  'x, y, z'
loop_
 _atom_site_type_symbol
 _atom_site_label
 _atom_site_symmetry_multiplicity
 _atom_site_fract_x
 _atom_site_fract_y
 _atom_site_fract_z
 _atom_site_occupancy
  Sc  Sc0  1  0.50000000  0.84326100  0.18094700  1
  Sc  Sc1  1  0.50000000  0.15673900  0.81905300  1
  Sc  Sc2  1  0.50000000  0.65745900  0.68045500  1
  Sc  Sc3  1  0.50000000  0.34254100  0.31954500  1
  B  B4  1  0.50000000  0.96519600  0.58957400  1
  B  B5  1  0.50000000  0.03480400  0.41042600  1
  B  B6  1  0.50000000  0.85168200  0.89952500  1
  B  B7  1  0.50000000  0.14831800  0.10047500  1
  B  B8  1  0.50000000  0.64759800  0.39856100  1
  B  B9  1  0.50000000  0.35240200  0.60143900  1
  B  B10  1  0.50000000  0.46644100  0.91015400  1
  B  B11  1  0.50000000  0.53355900  0.08984600  1
  Ru  Ru12  1  0.00000000  0.65933300  0.95304100  1
  Ru  Ru13  1  0.00000000  0.34066700  0.04695900  1
  Ru  Ru14  1  0.00000000  0.84011000  0.45196800  1
  Ru  Ru15  1  0.00000000  0.15989000  0.54803200  1
  Ru  Ru16  1  0.00000000  0.00000000  0.00000000  1
  Ru  Ru17  1  0.00000000  0.40415800  0.76190000  1
  Ru  Ru18  1  0.00000000  0.59584200  0.23810000  1
  Ru  Ru19  1  0.00000000  0.50000000  0.50000000  1
  Ru  Ru20  1  0.00000000  0.90354300  0.73883000  1
  Ru  Ru21  1  0.00000000  0.09645700  0.26117000  1
