# generated using pymatgen
data_Ce4Ni3Bi8
_symmetry_space_group_name_H-M   'P 1'
_cell_length_a   4.58797800
_cell_length_b   4.58797800
_cell_length_c   19.16566200
_cell_angle_alpha   90.00000000
_cell_angle_beta   90.00000000
_cell_angle_gamma   90.00000000
_symmetry_Int_Tables_number   1
_chemical_formula_structural   Ce4Ni3Bi8
_chemical_formula_sum   'Ce4 Ni3 Bi8'
_cell_volume   403.42840969
_cell_formula_units_Z   1
loop_
 _symmetry_equiv_pos_site_id
 _symmetry_equiv_pos_as_xyz
  1  'x, y, z'
loop_
 _atom_site_type_symbol
 _atom_site_label
 _atom_site_symmetry_multiplicity
 _atom_site_fract_x
 _atom_site_fract_y
 _atom_site_fract_z
 _atom_site_occupancy
  Ce  Ce0  1  0.50000000  0.00000000  0.11053100  1
  Ce  Ce1  1  0.50000000  0.00000000  0.61257400  1
  Ce  Ce2  1  0.00000000  0.50000000  0.88946900  1
  Ce  Ce3  1  0.00000000  0.50000000  0.38742600  1
  Ni  Ni4  1  0.50000000  0.50000000  0.50000000  1
  Ni  Ni5  1  0.00000000  0.00000000  0.00000000  1
  Ni  Ni6  1  0.00000000  0.00000000  0.50000000  1
  Bi  Bi7  1  0.50000000  0.50000000  0.75096200  1
  Bi  Bi8  1  0.50000000  0.50000000  0.24903800  1
  Bi  Bi9  1  0.00000000  0.00000000  0.75038800  1
  Bi  Bi10  1  0.00000000  0.00000000  0.24961200  1
  Bi  Bi11  1  0.50000000  0.00000000  0.92903300  1
  Bi  Bi12  1  0.50000000  0.00000000  0.42473300  1
  Bi  Bi13  1  0.00000000  0.50000000  0.07096700  1
  Bi  Bi14  1  0.00000000  0.50000000  0.57526700  1
