# generated using pymatgen
data_RbUF5
_symmetry_space_group_name_H-M   'P 1'
_cell_length_a   13.86983800
_cell_length_b   8.30925100
_cell_length_c   8.42100527
_cell_angle_alpha   77.40395568
_cell_angle_beta   90.00000000
_cell_angle_gamma   90.00000000
_symmetry_Int_Tables_number   1
_chemical_formula_structural   RbUF5
_chemical_formula_sum   'Rb8 U8 F40'
_cell_volume   947.14546468
_cell_formula_units_Z   8
loop_
 _symmetry_equiv_pos_site_id
 _symmetry_equiv_pos_as_xyz
  1  'x, y, z'
loop_
 _atom_site_type_symbol
 _atom_site_label
 _atom_site_symmetry_multiplicity
 _atom_site_fract_x
 _atom_site_fract_y
 _atom_site_fract_z
 _atom_site_occupancy
  Rb  Rb0  1  0.51910000  0.72907800  0.77042800  1
  Rb  Rb1  1  0.01910000  0.27092200  0.72957200  1
  Rb  Rb2  1  0.48090000  0.27092200  0.22957200  1
  Rb  Rb3  1  0.98090000  0.72907800  0.27042800  1
  Rb  Rb4  1  0.51848500  0.77959400  0.29343700  1
  Rb  Rb5  1  0.01848500  0.22040600  0.20656300  1
  Rb  Rb6  1  0.48151500  0.22040600  0.70656300  1
  Rb  Rb7  1  0.98151500  0.77959400  0.79343700  1
  U  U8  1  0.24652200  0.94608800  0.54251700  1
  U  U9  1  0.74652200  0.05391200  0.95748300  1
  U  U10  1  0.75347800  0.05391200  0.45748300  1
  U  U11  1  0.25347800  0.94608800  0.04251700  1
  U  U12  1  0.24526700  0.51670300  0.40922900  1
  U  U13  1  0.74526700  0.48329700  0.09077100  1
  U  U14  1  0.75473300  0.48329700  0.59077100  1
  U  U15  1  0.25473300  0.51670300  0.90922900  1
  F  F16  1  0.31807100  0.67592800  0.64797400  1
  F  F17  1  0.81807100  0.32407200  0.85202600  1
  F  F18  1  0.68192900  0.32407200  0.35202600  1
  F  F19  1  0.18192900  0.67592800  0.14797400  1
  F  F20  1  0.40004100  0.98064100  0.49570900  1
  F  F21  1  0.90004100  0.01935900  0.00429100  1
  F  F22  1  0.59995900  0.01935900  0.50429100  1
  F  F23  1  0.09995900  0.98064100  0.99570900  1
  F  F24  1  0.26445800  0.22930200  0.47630700  1
  F  F25  1  0.76445800  0.77069800  0.02369300  1
  F  F26  1  0.73554200  0.77069800  0.52369300  1
  F  F27  1  0.23554200  0.22930200  0.97630700  1
  F  F28  1  0.10238100  0.02822400  0.58074700  1
  F  F29  1  0.60238100  0.97177600  0.91925300  1
  F  F30  1  0.89761900  0.97177600  0.41925300  1
  F  F31  1  0.39761900  0.02822400  0.08074700  1
  F  F32  1  0.19572500  0.03111400  0.27317300  1
  F  F33  1  0.69572500  0.96888600  0.22682700  1
  F  F34  1  0.80427500  0.96888600  0.72682700  1
  F  F35  1  0.30427500  0.03111400  0.77317300  1
  F  F36  1  0.15039200  0.72574900  0.48740600  1
  F  F37  1  0.65039200  0.27425100  0.01259400  1
  F  F38  1  0.84960800  0.27425100  0.51259400  1
  F  F39  1  0.34960800  0.72574900  0.98740600  1
  F  F40  1  0.31077600  0.78672200  0.31407500  1
  F  F41  1  0.81077600  0.21327800  0.18592500  1
  F  F42  1  0.68922400  0.21327800  0.68592500  1
  F  F43  1  0.18922400  0.78672200  0.81407500  1
  F  F44  1  0.40042200  0.48182500  0.43940600  1
  F  F45  1  0.90042200  0.51817500  0.06059400  1
  F  F46  1  0.59957800  0.51817500  0.56059400  1
  F  F47  1  0.09957800  0.48182500  0.93940600  1
  F  F48  1  0.09806900  0.43395600  0.39030800  1
  F  F49  1  0.59806900  0.56604400  0.10969200  1
  F  F50  1  0.90193100  0.56604400  0.60969200  1
  F  F51  1  0.40193100  0.43395600  0.89030800  1
  F  F52  1  0.20920200  0.42047800  0.68178600  1
  F  F53  1  0.70920200  0.57952200  0.81821400  1
  F  F54  1  0.79079800  0.57952200  0.31821400  1
  F  F55  1  0.29079800  0.42047800  0.18178600  1
