# generated using pymatgen
data_Tb4Te3N2
_symmetry_space_group_name_H-M   'P 1'
_cell_length_a   7.35487600
_cell_length_b   11.08079500
_cell_length_c   11.73480600
_cell_angle_alpha   90.00000000
_cell_angle_beta   90.00000000
_cell_angle_gamma   90.00000000
_symmetry_Int_Tables_number   1
_chemical_formula_structural   Tb4Te3N2
_chemical_formula_sum   'Tb16 Te12 N8'
_cell_volume   956.36173149
_cell_formula_units_Z   4
loop_
 _symmetry_equiv_pos_site_id
 _symmetry_equiv_pos_as_xyz
  1  'x, y, z'
loop_
 _atom_site_type_symbol
 _atom_site_label
 _atom_site_symmetry_multiplicity
 _atom_site_fract_x
 _atom_site_fract_y
 _atom_site_fract_z
 _atom_site_occupancy
  Tb  Tb0  1  0.16281400  0.38199200  0.65305200  1
  Tb  Tb1  1  0.33718600  0.38199200  0.34694800  1
  Tb  Tb2  1  0.16281400  0.11800800  0.84694800  1
  Tb  Tb3  1  0.33718600  0.11800800  0.15305200  1
  Tb  Tb4  1  0.83718600  0.61800800  0.34694800  1
  Tb  Tb5  1  0.66281400  0.61800800  0.65305200  1
  Tb  Tb6  1  0.83718600  0.88199200  0.15305200  1
  Tb  Tb7  1  0.66281400  0.88199200  0.84694800  1
  Tb  Tb8  1  0.47522500  0.32279100  0.90839300  1
  Tb  Tb9  1  0.02477500  0.32279100  0.09160700  1
  Tb  Tb10  1  0.47522500  0.17720900  0.59160700  1
  Tb  Tb11  1  0.02477500  0.17720900  0.40839300  1
  Tb  Tb12  1  0.52477500  0.67720900  0.09160700  1
  Tb  Tb13  1  0.97522500  0.67720900  0.90839300  1
  Tb  Tb14  1  0.52477500  0.82279100  0.40839300  1
  Tb  Tb15  1  0.97522500  0.82279100  0.59160700  1
  Te  Te16  1  0.25000000  0.89098800  0.00000000  1
  Te  Te17  1  0.25000000  0.60901200  0.50000000  1
  Te  Te18  1  0.75000000  0.10901200  0.00000000  1
  Te  Te19  1  0.75000000  0.39098800  0.50000000  1
  Te  Te20  1  0.36932600  0.58236700  0.83883100  1
  Te  Te21  1  0.13067400  0.58236700  0.16116900  1
  Te  Te22  1  0.36932600  0.91763300  0.66116900  1
  Te  Te23  1  0.13067400  0.91763300  0.33883100  1
  Te  Te24  1  0.63067400  0.41763300  0.16116900  1
  Te  Te25  1  0.86932600  0.41763300  0.83883100  1
  Te  Te26  1  0.63067400  0.08236700  0.33883100  1
  Te  Te27  1  0.86932600  0.08236700  0.66116900  1
  N  N28  1  0.25000000  0.22545000  0.00000000  1
  N  N29  1  0.25000000  0.27455000  0.50000000  1
  N  N30  1  0.75000000  0.77455000  0.00000000  1
  N  N31  1  0.75000000  0.72545000  0.50000000  1
  N  N32  1  0.34241400  0.25000000  0.75000000  1
  N  N33  1  0.15758600  0.25000000  0.25000000  1
  N  N34  1  0.65758600  0.75000000  0.25000000  1
  N  N35  1  0.84241400  0.75000000  0.75000000  1
