# generated using pymatgen
data_Ca3Ge3(RhO6)2
_symmetry_space_group_name_H-M   'P 1'
_cell_length_a   10.83974899
_cell_length_b   10.83974899
_cell_length_c   10.83974899
_cell_angle_alpha   109.47122063
_cell_angle_beta   109.47122063
_cell_angle_gamma   109.47122063
_symmetry_Int_Tables_number   1
_chemical_formula_structural   Ca3Ge3(RhO6)2
_chemical_formula_sum   'Ca12 Ge12 Rh8 O48'
_cell_volume   980.47333398
_cell_formula_units_Z   4
loop_
 _symmetry_equiv_pos_site_id
 _symmetry_equiv_pos_as_xyz
  1  'x, y, z'
loop_
 _atom_site_type_symbol
 _atom_site_label
 _atom_site_symmetry_multiplicity
 _atom_site_fract_x
 _atom_site_fract_y
 _atom_site_fract_z
 _atom_site_occupancy
  Ca  Ca0  1  0.25000000  0.37500000  0.12500000  1
  Ca  Ca1  1  0.75000000  0.62500000  0.87500000  1
  Ca  Ca2  1  0.75000000  0.12500000  0.37500000  1
  Ca  Ca3  1  0.12500000  0.25000000  0.37500000  1
  Ca  Ca4  1  0.37500000  0.75000000  0.12500000  1
  Ca  Ca5  1  0.25000000  0.87500000  0.62500000  1
  Ca  Ca6  1  0.87500000  0.75000000  0.62500000  1
  Ca  Ca7  1  0.62500000  0.25000000  0.87500000  1
  Ca  Ca8  1  0.37500000  0.12500000  0.25000000  1
  Ca  Ca9  1  0.62500000  0.87500000  0.75000000  1
  Ca  Ca10  1  0.12500000  0.37500000  0.75000000  1
  Ca  Ca11  1  0.87500000  0.62500000  0.25000000  1
  Ge  Ge12  1  0.25000000  0.62500000  0.37500000  1
  Ge  Ge13  1  0.75000000  0.37500000  0.62500000  1
  Ge  Ge14  1  0.75000000  0.87500000  0.12500000  1
  Ge  Ge15  1  0.37500000  0.25000000  0.62500000  1
  Ge  Ge16  1  0.62500000  0.75000000  0.37500000  1
  Ge  Ge17  1  0.25000000  0.12500000  0.87500000  1
  Ge  Ge18  1  0.12500000  0.75000000  0.87500000  1
  Ge  Ge19  1  0.87500000  0.25000000  0.12500000  1
  Ge  Ge20  1  0.62500000  0.37500000  0.25000000  1
  Ge  Ge21  1  0.37500000  0.62500000  0.75000000  1
  Ge  Ge22  1  0.87500000  0.12500000  0.75000000  1
  Ge  Ge23  1  0.12500000  0.87500000  0.25000000  1
  Rh  Rh24  1  0.00000000  0.00000000  0.00000000  1
  Rh  Rh25  1  0.50000000  0.00000000  0.50000000  1
  Rh  Rh26  1  0.00000000  0.50000000  0.50000000  1
  Rh  Rh27  1  0.50000000  0.00000000  0.00000000  1
  Rh  Rh28  1  0.50000000  0.50000000  0.00000000  1
  Rh  Rh29  1  0.50000000  0.50000000  0.50000000  1
  Rh  Rh30  1  0.00000000  0.00000000  0.50000000  1
  Rh  Rh31  1  0.00000000  0.50000000  0.00000000  1
  O  O32  1  0.48026800  0.37935300  0.29331500  1
  O  O33  1  0.51973200  0.62064700  0.70668500  1
  O  O34  1  0.58603800  0.18695300  0.20668500  1
  O  O35  1  0.91396200  0.12064700  0.60091400  1
  O  O36  1  0.29331500  0.48026800  0.37935300  1
  O  O37  1  0.31304700  0.91396200  0.29331500  1
  O  O38  1  0.41396200  0.81304700  0.79331500  1
  O  O39  1  0.08603800  0.87935300  0.39908600  1
  O  O40  1  0.70668500  0.51973200  0.62064700  1
  O  O41  1  0.68695300  0.08603800  0.70668500  1
  O  O42  1  0.01973200  0.31304700  0.89908600  1
  O  O43  1  0.20668500  0.58603800  0.18695300  1
  O  O44  1  0.12064700  0.01973200  0.20668500  1
  O  O45  1  0.98026800  0.68695300  0.10091400  1
  O  O46  1  0.79331500  0.41396200  0.81304700  1
  O  O47  1  0.87935300  0.98026800  0.79331500  1
  O  O48  1  0.60091400  0.91396200  0.12064700  1
  O  O49  1  0.18695300  0.48026800  0.60091400  1
  O  O50  1  0.39908600  0.08603800  0.87935300  1
  O  O51  1  0.81304700  0.51973200  0.39908600  1
  O  O52  1  0.89908600  0.01973200  0.31304700  1
  O  O53  1  0.37935300  0.58603800  0.89908600  1
  O  O54  1  0.10091400  0.98026800  0.68695300  1
  O  O55  1  0.62064700  0.41396200  0.10091400  1
  O  O56  1  0.37935300  0.29331500  0.48026800  1
  O  O57  1  0.58603800  0.89908600  0.37935300  1
  O  O58  1  0.62064700  0.70668500  0.51973200  1
  O  O59  1  0.41396200  0.10091400  0.62064700  1
  O  O60  1  0.12064700  0.60091400  0.91396200  1
  O  O61  1  0.01973200  0.20668500  0.12064700  1
  O  O62  1  0.87935300  0.39908600  0.08603800  1
  O  O63  1  0.98026800  0.79331500  0.87935300  1
  O  O64  1  0.31304700  0.89908600  0.01973200  1
  O  O65  1  0.91396200  0.29331500  0.31304700  1
  O  O66  1  0.68695300  0.10091400  0.98026800  1
  O  O67  1  0.08603800  0.70668500  0.68695300  1
  O  O68  1  0.18695300  0.20668500  0.58603800  1
  O  O69  1  0.48026800  0.60091400  0.18695300  1
  O  O70  1  0.81304700  0.79331500  0.41396200  1
  O  O71  1  0.51973200  0.39908600  0.81304700  1
  O  O72  1  0.29331500  0.31304700  0.91396200  1
  O  O73  1  0.70668500  0.68695300  0.08603800  1
  O  O74  1  0.20668500  0.12064700  0.01973200  1
  O  O75  1  0.79331500  0.87935300  0.98026800  1
  O  O76  1  0.89908600  0.37935300  0.58603800  1
  O  O77  1  0.10091400  0.62064700  0.41396200  1
  O  O78  1  0.60091400  0.18695300  0.48026800  1
  O  O79  1  0.39908600  0.81304700  0.51973200  1
