# generated using pymatgen
data_Sr(AlGa)2
_symmetry_space_group_name_H-M   'P 1'
_cell_length_a   6.36113387
_cell_length_b   6.36113387
_cell_length_c   6.36113387
_cell_angle_alpha   139.37789394
_cell_angle_beta   139.37789394
_cell_angle_gamma   58.79910748
_symmetry_Int_Tables_number   1
_chemical_formula_structural   Sr(AlGa)2
_chemical_formula_sum   'Sr1 Al2 Ga2'
_cell_volume   108.07891045
_cell_formula_units_Z   1
loop_
 _symmetry_equiv_pos_site_id
 _symmetry_equiv_pos_as_xyz
  1  'x, y, z'
loop_
 _atom_site_type_symbol
 _atom_site_label
 _atom_site_symmetry_multiplicity
 _atom_site_fract_x
 _atom_site_fract_y
 _atom_site_fract_z
 _atom_site_occupancy
  Sr  Sr0  1  0.00000000  0.00000000  0.00000000  1
  Al  Al1  1  0.75000000  0.25000000  0.50000000  1
  Al  Al2  1  0.25000000  0.75000000  0.50000000  1
  Ga  Ga3  1  0.38302500  0.38302500  0.00000000  1
  Ga  Ga4  1  0.61697500  0.61697500  0.00000000  1
