# generated using pymatgen
data_Y4C7
_symmetry_space_group_name_H-M   'P 1'
_cell_length_a   12.63917400
_cell_length_b   3.71637400
_cell_length_c   13.84976210
_cell_angle_alpha   81.29138434
_cell_angle_beta   90.00000000
_cell_angle_gamma   90.00000000
_symmetry_Int_Tables_number   1
_chemical_formula_structural   Y4C7
_chemical_formula_sum   'Y16 C28'
_cell_volume   643.04950609
_cell_formula_units_Z   4
loop_
 _symmetry_equiv_pos_site_id
 _symmetry_equiv_pos_as_xyz
  1  'x, y, z'
loop_
 _atom_site_type_symbol
 _atom_site_label
 _atom_site_symmetry_multiplicity
 _atom_site_fract_x
 _atom_site_fract_y
 _atom_site_fract_z
 _atom_site_occupancy
  Y  Y0  1  0.51483000  0.30262900  0.39213400  1
  Y  Y1  1  0.98517000  0.30262900  0.89213400  1
  Y  Y2  1  0.48517000  0.69737100  0.60786600  1
  Y  Y3  1  0.01483000  0.69737100  0.10786600  1
  Y  Y4  1  0.53951500  0.12207100  0.11801600  1
  Y  Y5  1  0.96048500  0.12207100  0.61801600  1
  Y  Y6  1  0.46048500  0.87792900  0.88198400  1
  Y  Y7  1  0.03951500  0.87792900  0.38198400  1
  Y  Y8  1  0.30483400  0.86591000  0.28899200  1
  Y  Y9  1  0.19516600  0.86591000  0.78899200  1
  Y  Y10  1  0.69516600  0.13409000  0.71100800  1
  Y  Y11  1  0.80483400  0.13409000  0.21100800  1
  Y  Y12  1  0.26276500  0.26296700  0.50644400  1
  Y  Y13  1  0.23723500  0.26296700  0.00644400  1
  Y  Y14  1  0.73723500  0.73703300  0.49355600  1
  Y  Y15  1  0.76276500  0.73703300  0.99355600  1
  C  C16  1  0.14088300  0.16489200  0.17407500  1
  C  C17  1  0.35911700  0.16489200  0.67407500  1
  C  C18  1  0.85911700  0.83510800  0.82592500  1
  C  C19  1  0.64088300  0.83510800  0.32592500  1
  C  C20  1  0.38876500  0.74908400  0.04640600  1
  C  C21  1  0.11123500  0.74908400  0.54640600  1
  C  C22  1  0.61123500  0.25091600  0.95359400  1
  C  C23  1  0.88876500  0.25091600  0.45359400  1
  C  C24  1  0.41623500  0.40808800  0.22718000  1
  C  C25  1  0.08376500  0.40808800  0.72718000  1
  C  C26  1  0.58376500  0.59191200  0.77282000  1
  C  C27  1  0.91623500  0.59191200  0.27282000  1
  C  C28  1  0.17120000  0.37447200  0.34659300  1
  C  C29  1  0.32880000  0.37447200  0.84659300  1
  C  C30  1  0.82880000  0.62552800  0.65340700  1
  C  C31  1  0.67120000  0.62552800  0.15340700  1
  C  C32  1  0.39505100  0.58208400  0.13787100  1
  C  C33  1  0.10494900  0.58208400  0.63787100  1
  C  C34  1  0.60494900  0.41791600  0.86212900  1
  C  C35  1  0.89505100  0.41791600  0.36212900  1
  C  C36  1  0.15159800  0.30146600  0.25575000  1
  C  C37  1  0.34840200  0.30146600  0.75575000  1
  C  C38  1  0.84840200  0.69853400  0.74425000  1
  C  C39  1  0.65159800  0.69853400  0.24425000  1
  C  C40  1  0.61579100  0.21295500  0.55087700  1
  C  C41  1  0.88420900  0.21295500  0.05087700  1
  C  C42  1  0.38420900  0.78704500  0.44912300  1
  C  C43  1  0.11579100  0.78704500  0.94912300  1
