# generated using pymatgen
data_FeCl4
_symmetry_space_group_name_H-M   'P 1'
_cell_length_a   6.14931766
_cell_length_b   6.14931766
_cell_length_c   3.43458500
_cell_angle_alpha   90.00000000
_cell_angle_beta   90.00000000
_cell_angle_gamma   104.72359672
_symmetry_Int_Tables_number   1
_chemical_formula_structural   FeCl4
_chemical_formula_sum   'Fe1 Cl4'
_cell_volume   125.61105744
_cell_formula_units_Z   1
loop_
 _symmetry_equiv_pos_site_id
 _symmetry_equiv_pos_as_xyz
  1  'x, y, z'
loop_
 _atom_site_type_symbol
 _atom_site_label
 _atom_site_symmetry_multiplicity
 _atom_site_fract_x
 _atom_site_fract_y
 _atom_site_fract_z
 _atom_site_occupancy
  Fe  Fe0  1  0.00000000  0.00000000  0.50000000  1
  Cl  Cl1  1  0.77713800  0.22286200  0.50000000  1
  Cl  Cl2  1  0.79397800  0.79397800  0.00000000  1
  Cl  Cl3  1  0.20602200  0.20602200  0.00000000  1
  Cl  Cl4  1  0.22286200  0.77713800  0.50000000  1
