# generated using pymatgen
data_Sr2CrO4
_symmetry_space_group_name_H-M   'P 1'
_cell_length_a   5.90983500
_cell_length_b   10.12194200
_cell_length_c   14.38378600
_cell_angle_alpha   90.00000000
_cell_angle_beta   90.00000000
_cell_angle_gamma   90.00000000
_symmetry_Int_Tables_number   1
_chemical_formula_structural   Sr2CrO4
_chemical_formula_sum   'Sr16 Cr8 O32'
_cell_volume   860.42379685
_cell_formula_units_Z   8
loop_
 _symmetry_equiv_pos_site_id
 _symmetry_equiv_pos_as_xyz
  1  'x, y, z'
loop_
 _atom_site_type_symbol
 _atom_site_label
 _atom_site_symmetry_multiplicity
 _atom_site_fract_x
 _atom_site_fract_y
 _atom_site_fract_z
 _atom_site_occupancy
  Sr  Sr0  1  0.72371600  0.77567500  0.04627800  1
  Sr  Sr1  1  0.27628400  0.27567500  0.95372200  1
  Sr  Sr2  1  0.77628400  0.77567500  0.54627800  1
  Sr  Sr3  1  0.22371600  0.27567500  0.45372200  1
  Sr  Sr4  1  0.69351800  0.41402800  0.11878000  1
  Sr  Sr5  1  0.30648200  0.91402800  0.88122000  1
  Sr  Sr6  1  0.80648200  0.41402800  0.61878000  1
  Sr  Sr7  1  0.19351800  0.91402800  0.38122000  1
  Sr  Sr8  1  0.69235900  0.14042200  0.29519600  1
  Sr  Sr9  1  0.30764100  0.64042200  0.70480400  1
  Sr  Sr10  1  0.80764100  0.14042200  0.79519600  1
  Sr  Sr11  1  0.19235900  0.64042200  0.20480400  1
  Sr  Sr12  1  0.72278300  0.50274000  0.36955400  1
  Sr  Sr13  1  0.27721700  0.00274000  0.63044600  1
  Sr  Sr14  1  0.77721700  0.50274000  0.86955400  1
  Sr  Sr15  1  0.22278300  0.00274000  0.13044600  1
  Cr  Cr16  1  0.19684900  0.28829500  0.23068700  1
  Cr  Cr17  1  0.80315100  0.78829500  0.76931300  1
  Cr  Cr18  1  0.30315100  0.28829500  0.73068700  1
  Cr  Cr19  1  0.69684900  0.78829500  0.26931300  1
  Cr  Cr20  1  0.27620800  0.62624800  0.47550000  1
  Cr  Cr21  1  0.72379200  0.12624800  0.52450000  1
  Cr  Cr22  1  0.22379200  0.62624800  0.97550000  1
  Cr  Cr23  1  0.77620800  0.12624800  0.02450000  1
  O  O24  1  0.05381600  0.50833900  0.48690500  1
  O  O25  1  0.94618400  0.00833900  0.51309500  1
  O  O26  1  0.44618400  0.50833900  0.98690500  1
  O  O27  1  0.55381600  0.00833900  0.01309500  1
  O  O28  1  0.52990500  0.55831400  0.52867200  1
  O  O29  1  0.47009500  0.05831400  0.47132800  1
  O  O30  1  0.97009500  0.55831400  0.02867200  1
  O  O31  1  0.02990500  0.05831400  0.97132800  1
  O  O32  1  0.94561500  0.84652900  0.20219200  1
  O  O33  1  0.05438500  0.34652900  0.79780800  1
  O  O34  1  0.55438500  0.84652900  0.70219200  1
  O  O35  1  0.44561500  0.34652900  0.29780800  1
  O  O36  1  0.28324000  0.77146900  0.04518000  1
  O  O37  1  0.71676000  0.27146900  0.95482000  1
  O  O38  1  0.21676000  0.77146900  0.54518000  1
  O  O39  1  0.78324000  0.27146900  0.45482000  1
  O  O40  1  0.63309700  0.64326800  0.19841500  1
  O  O41  1  0.36690300  0.14326800  0.80158500  1
  O  O42  1  0.86690300  0.64326800  0.69841500  1
  O  O43  1  0.13309700  0.14326800  0.30158500  1
  O  O44  1  0.35808000  0.67846600  0.36099600  1
  O  O45  1  0.64192000  0.17846600  0.63900400  1
  O  O46  1  0.14192000  0.67846600  0.86099600  1
  O  O47  1  0.85808000  0.17846600  0.13900400  1
  O  O48  1  0.34084300  0.25318400  0.12393300  1
  O  O49  1  0.65915700  0.75318400  0.87606700  1
  O  O50  1  0.15915700  0.25318400  0.62393300  1
  O  O51  1  0.84084300  0.75318400  0.37606700  1
  O  O52  1  0.99921300  0.42332300  0.24339000  1
  O  O53  1  0.00078700  0.92332300  0.75661000  1
  O  O54  1  0.50078700  0.42332300  0.74339000  1
  O  O55  1  0.49921300  0.92332300  0.25661000  1
