# generated using pymatgen
data_ZrTl2S3
_symmetry_space_group_name_H-M   'P 1'
_cell_length_a   3.83138400
_cell_length_b   7.99128500
_cell_length_c   10.46438448
_cell_angle_alpha   82.91228413
_cell_angle_beta   90.00000000
_cell_angle_gamma   90.00000000
_symmetry_Int_Tables_number   1
_chemical_formula_structural   ZrTl2S3
_chemical_formula_sum   'Zr2 Tl4 S6'
_cell_volume   317.94686400
_cell_formula_units_Z   2
loop_
 _symmetry_equiv_pos_site_id
 _symmetry_equiv_pos_as_xyz
  1  'x, y, z'
loop_
 _atom_site_type_symbol
 _atom_site_label
 _atom_site_symmetry_multiplicity
 _atom_site_fract_x
 _atom_site_fract_y
 _atom_site_fract_z
 _atom_site_occupancy
  Zr  Zr0  1  0.25000000  0.58937900  0.33585600  1
  Zr  Zr1  1  0.75000000  0.41062100  0.66414400  1
  Tl  Tl2  1  0.25000000  0.93708300  0.66049100  1
  Tl  Tl3  1  0.75000000  0.06291700  0.33950900  1
  Tl  Tl4  1  0.25000000  0.25104800  0.99985100  1
  Tl  Tl5  1  0.75000000  0.74895200  0.00014900  1
  S  S6  1  0.25000000  0.86250600  0.19372400  1
  S  S7  1  0.75000000  0.13749400  0.80627600  1
  S  S8  1  0.25000000  0.54297300  0.78501600  1
  S  S9  1  0.75000000  0.45702700  0.21498400  1
  S  S10  1  0.25000000  0.31261100  0.51620100  1
  S  S11  1  0.75000000  0.68738900  0.48379900  1
