# generated using pymatgen
data_NpSeO5
_symmetry_space_group_name_H-M   'P 1'
_cell_length_a   4.26544000
_cell_length_b   9.49006200
_cell_length_c   5.87661537
_cell_angle_alpha   90.00000000
_cell_angle_beta   91.36653370
_cell_angle_gamma   90.00000000
_symmetry_Int_Tables_number   1
_chemical_formula_structural   NpSeO5
_chemical_formula_sum   'Np2 Se2 O10'
_cell_volume   237.81356225
_cell_formula_units_Z   2
loop_
 _symmetry_equiv_pos_site_id
 _symmetry_equiv_pos_as_xyz
  1  'x, y, z'
loop_
 _atom_site_type_symbol
 _atom_site_label
 _atom_site_symmetry_multiplicity
 _atom_site_fract_x
 _atom_site_fract_y
 _atom_site_fract_z
 _atom_site_occupancy
  Np  Np0  1  0.50000000  0.50000000  0.00000000  1
  Np  Np1  1  0.50000000  0.00000000  0.00000000  1
  Se  Se2  1  0.08650300  0.25000000  0.28950900  1
  Se  Se3  1  0.91349700  0.75000000  0.71049100  1
  O  O4  1  0.47134700  0.25000000  0.19945700  1
  O  O5  1  0.52865300  0.75000000  0.80054300  1
  O  O6  1  0.99108300  0.39646700  0.12351500  1
  O  O7  1  0.00891700  0.89646700  0.87648500  1
  O  O8  1  0.00891700  0.60353300  0.87648500  1
  O  O9  1  0.99108300  0.10353300  0.12351500  1
  O  O10  1  0.49594700  0.40926000  0.73338700  1
  O  O11  1  0.50405300  0.90926000  0.26661300  1
  O  O12  1  0.50405300  0.59074000  0.26661300  1
  O  O13  1  0.49594700  0.09074000  0.73338700  1
