# generated using pymatgen
data_Mn(CrSe2)2
_symmetry_space_group_name_H-M   'P 1'
_cell_length_a   7.05640883
_cell_length_b   7.05640883
_cell_length_c   6.45370707
_cell_angle_alpha   63.04430400
_cell_angle_beta   63.04430400
_cell_angle_gamma   30.59769143
_symmetry_Int_Tables_number   1
_chemical_formula_structural   Mn(CrSe2)2
_chemical_formula_sum   'Mn1 Cr2 Se4'
_cell_volume   144.38050396
_cell_formula_units_Z   1
loop_
 _symmetry_equiv_pos_site_id
 _symmetry_equiv_pos_as_xyz
  1  'x, y, z'
loop_
 _atom_site_type_symbol
 _atom_site_label
 _atom_site_symmetry_multiplicity
 _atom_site_fract_x
 _atom_site_fract_y
 _atom_site_fract_z
 _atom_site_occupancy
  Mn  Mn0  1  0.00000000  0.00000000  0.00000000  1
  Cr  Cr1  1  0.74084100  0.74084100  0.27361000  1
  Cr  Cr2  1  0.25915900  0.25915900  0.72639000  1
  Se  Se3  1  0.87164500  0.87164500  0.45699600  1
  Se  Se4  1  0.12835500  0.12835500  0.54300400  1
  Se  Se5  1  0.63717800  0.63717800  0.02230000  1
  Se  Se6  1  0.36282200  0.36282200  0.97770000  1
