# generated using pymatgen
data_Bi3(TeCl5)2
_symmetry_space_group_name_H-M   'P 1'
_cell_length_a   7.49601900
_cell_length_b   8.96556947
_cell_length_c   14.24060440
_cell_angle_alpha   87.79033174
_cell_angle_beta   83.15728313
_cell_angle_gamma   88.10051189
_symmetry_Int_Tables_number   1
_chemical_formula_structural   Bi3(TeCl5)2
_chemical_formula_sum   'Bi6 Te4 Cl20'
_cell_volume   949.13817695
_cell_formula_units_Z   2
loop_
 _symmetry_equiv_pos_site_id
 _symmetry_equiv_pos_as_xyz
  1  'x, y, z'
loop_
 _atom_site_type_symbol
 _atom_site_label
 _atom_site_symmetry_multiplicity
 _atom_site_fract_x
 _atom_site_fract_y
 _atom_site_fract_z
 _atom_site_occupancy
  Bi  Bi0  1  0.92399200  0.97443500  0.83224200  1
  Bi  Bi1  1  0.07600800  0.02556500  0.16775800  1
  Bi  Bi2  1  0.89584000  0.51830100  0.25955300  1
  Bi  Bi3  1  0.10416000  0.48169900  0.74044700  1
  Bi  Bi4  1  0.40647200  0.73314200  0.96855200  1
  Bi  Bi5  1  0.59352800  0.26685800  0.03144800  1
  Te  Te6  1  0.59847900  0.83887100  0.57383600  1
  Te  Te7  1  0.40152100  0.16112900  0.42616400  1
  Te  Te8  1  0.32179300  0.87076900  0.46463100  1
  Te  Te9  1  0.67820700  0.12923100  0.53536900  1
  Cl  Cl10  1  0.74125900  0.96744400  0.01950200  1
  Cl  Cl11  1  0.25874100  0.03255600  0.98049800  1
  Cl  Cl12  1  0.41447000  0.45628200  0.89817700  1
  Cl  Cl13  1  0.58553000  0.54371800  0.10182300  1
  Cl  Cl14  1  0.77614600  0.71235600  0.84354900  1
  Cl  Cl15  1  0.22385400  0.28764400  0.15645100  1
  Cl  Cl16  1  0.80972300  0.79620300  0.26634400  1
  Cl  Cl17  1  0.19027700  0.20379700  0.73365600  1
  Cl  Cl18  1  0.27823400  0.78433000  0.80259200  1
  Cl  Cl19  1  0.72176600  0.21567000  0.19740800  1
  Cl  Cl20  1  0.64042800  0.11860200  0.80052600  1
  Cl  Cl21  1  0.35957200  0.88139800  0.19947400  1
  Cl  Cl22  1  0.90612800  0.32368000  0.94770100  1
  Cl  Cl23  1  0.09387200  0.67632000  0.05229900  1
  Cl  Cl24  1  0.65989700  0.46729400  0.40039600  1
  Cl  Cl25  1  0.34010300  0.53270600  0.59960400  1
  Cl  Cl26  1  0.86147400  0.46051900  0.63676900  1
  Cl  Cl27  1  0.13852600  0.53948100  0.36323100  1
  Cl  Cl28  1  0.96191800  0.91238500  0.64852200  1
  Cl  Cl29  1  0.03808200  0.08761500  0.35147800  1
