# generated using pymatgen
data_Dy7Rh3
_symmetry_space_group_name_H-M   'P 1'
_cell_length_a   9.80025270
_cell_length_b   9.80025270
_cell_length_c   6.15441700
_cell_angle_alpha   90.00000000
_cell_angle_beta   90.00000000
_cell_angle_gamma   120.00000470
_symmetry_Int_Tables_number   1
_chemical_formula_structural   Dy7Rh3
_chemical_formula_sum   'Dy14 Rh6'
_cell_volume   511.90819035
_cell_formula_units_Z   2
loop_
 _symmetry_equiv_pos_site_id
 _symmetry_equiv_pos_as_xyz
  1  'x, y, z'
loop_
 _atom_site_type_symbol
 _atom_site_label
 _atom_site_symmetry_multiplicity
 _atom_site_fract_x
 _atom_site_fract_y
 _atom_site_fract_z
 _atom_site_occupancy
  Dy  Dy0  1  0.66666700  0.33333300  0.53500600  1
  Dy  Dy1  1  0.33333300  0.66666700  0.03500600  1
  Dy  Dy2  1  0.87546300  0.75092500  0.74227300  1
  Dy  Dy3  1  0.24907500  0.12453700  0.74227300  1
  Dy  Dy4  1  0.87546300  0.12453700  0.74227300  1
  Dy  Dy5  1  0.12453700  0.24907500  0.24227300  1
  Dy  Dy6  1  0.75092500  0.87546300  0.24227300  1
  Dy  Dy7  1  0.12453700  0.87546300  0.24227300  1
  Dy  Dy8  1  0.45932900  0.91865900  0.54728000  1
  Dy  Dy9  1  0.08134100  0.54067100  0.54728000  1
  Dy  Dy10  1  0.45932900  0.54067100  0.54728000  1
  Dy  Dy11  1  0.54067100  0.08134100  0.04728000  1
  Dy  Dy12  1  0.91865900  0.45932900  0.04728000  1
  Dy  Dy13  1  0.54067100  0.45932900  0.04728000  1
  Rh  Rh14  1  0.18960800  0.37921500  0.81235100  1
  Rh  Rh15  1  0.62078500  0.81039200  0.81235100  1
  Rh  Rh16  1  0.18960800  0.81039200  0.81235100  1
  Rh  Rh17  1  0.81039200  0.62078500  0.31235100  1
  Rh  Rh18  1  0.37921500  0.18960800  0.31235100  1
  Rh  Rh19  1  0.81039200  0.18960800  0.31235100  1
