# generated using pymatgen
data_Na2MoH2O3F4
_symmetry_space_group_name_H-M   'P 1'
_cell_length_a   5.50311200
_cell_length_b   5.83138000
_cell_length_c   19.46319800
_cell_angle_alpha   90.00000000
_cell_angle_beta   90.00000000
_cell_angle_gamma   90.00000000
_symmetry_Int_Tables_number   1
_chemical_formula_structural   Na2MoH2O3F4
_chemical_formula_sum   'Na8 Mo4 H8 O12 F16'
_cell_volume   624.58837315
_cell_formula_units_Z   4
loop_
 _symmetry_equiv_pos_site_id
 _symmetry_equiv_pos_as_xyz
  1  'x, y, z'
loop_
 _atom_site_type_symbol
 _atom_site_label
 _atom_site_symmetry_multiplicity
 _atom_site_fract_x
 _atom_site_fract_y
 _atom_site_fract_z
 _atom_site_occupancy
  Na  Na0  1  0.26127600  0.76163200  0.36182300  1
  Na  Na1  1  0.23872400  0.23836800  0.86182300  1
  Na  Na2  1  0.76127600  0.73836800  0.63817700  1
  Na  Na3  1  0.73872400  0.26163200  0.13817700  1
  Na  Na4  1  0.73976600  0.81770100  0.25027600  1
  Na  Na5  1  0.76023400  0.18229900  0.75027600  1
  Na  Na6  1  0.23976600  0.68229900  0.74972400  1
  Na  Na7  1  0.26023400  0.31770100  0.24972400  1
  Mo  Mo8  1  0.76513800  0.26049000  0.36408600  1
  Mo  Mo9  1  0.73486200  0.73951000  0.86408600  1
  Mo  Mo10  1  0.26513800  0.23951000  0.63591400  1
  Mo  Mo11  1  0.23486200  0.76049000  0.13591400  1
  H  H12  1  0.30275100  0.97231600  0.49805600  1
  H  H13  1  0.19724900  0.02768400  0.99805600  1
  H  H14  1  0.80275100  0.52768400  0.50194400  1
  H  H15  1  0.69724900  0.47231600  0.00194400  1
  H  H16  1  0.50509300  0.78502700  0.49504800  1
  H  H17  1  0.99490700  0.21497300  0.99504800  1
  H  H18  1  0.00509300  0.71497300  0.50495200  1
  H  H19  1  0.49490700  0.28502700  0.00495200  1
  O  O20  1  0.64201300  0.28435200  0.44567700  1
  O  O21  1  0.85798700  0.71564800  0.94567700  1
  O  O22  1  0.14201300  0.21564800  0.55432300  1
  O  O23  1  0.35798700  0.78435200  0.05432300  1
  O  O24  1  0.03426700  0.41519800  0.37053300  1
  O  O25  1  0.46573300  0.58480200  0.87053300  1
  O  O26  1  0.53426700  0.08480200  0.62946700  1
  O  O27  1  0.96573300  0.91519800  0.12946700  1
  O  O28  1  0.33728100  0.81814700  0.48034500  1
  O  O29  1  0.16271900  0.18185300  0.98034500  1
  O  O30  1  0.83728100  0.68185300  0.51965500  1
  O  O31  1  0.66271900  0.31814700  0.01965500  1
  F  F32  1  0.85991600  0.20576000  0.25740400  1
  F  F33  1  0.64008400  0.79424000  0.75740400  1
  F  F34  1  0.35991600  0.29424000  0.74259600  1
  F  F35  1  0.14008400  0.70576000  0.24259600  1
  F  F36  1  0.90206300  0.95176100  0.37137900  1
  F  F37  1  0.59793700  0.04823900  0.87137900  1
  F  F38  1  0.40206300  0.54823900  0.62862100  1
  F  F39  1  0.09793700  0.45176100  0.12862100  1
  F  F40  1  0.47524800  0.07319800  0.32250500  1
  F  F41  1  0.02475200  0.92680200  0.82250500  1
  F  F42  1  0.97524800  0.42680200  0.67749500  1
  F  F43  1  0.52475200  0.57319800  0.17749500  1
  F  F44  1  0.57384100  0.51916200  0.32468900  1
  F  F45  1  0.92615900  0.48083800  0.82468900  1
  F  F46  1  0.07384100  0.98083800  0.67531100  1
  F  F47  1  0.42615900  0.01916200  0.17531100  1
