# generated using pymatgen
data_SbIrSe
_symmetry_space_group_name_H-M   'P 1'
_cell_length_a   6.27090200
_cell_length_b   6.27090200
_cell_length_c   6.27090200
_cell_angle_alpha   90.00000000
_cell_angle_beta   90.00000000
_cell_angle_gamma   90.00000000
_symmetry_Int_Tables_number   1
_chemical_formula_structural   SbIrSe
_chemical_formula_sum   'Sb4 Ir4 Se4'
_cell_volume   246.59827901
_cell_formula_units_Z   4
loop_
 _symmetry_equiv_pos_site_id
 _symmetry_equiv_pos_as_xyz
  1  'x, y, z'
loop_
 _atom_site_type_symbol
 _atom_site_label
 _atom_site_symmetry_multiplicity
 _atom_site_fract_x
 _atom_site_fract_y
 _atom_site_fract_z
 _atom_site_occupancy
  Sb  Sb0  1  0.87548400  0.37548400  0.12451600  1
  Sb  Sb1  1  0.37548400  0.12451600  0.87548400  1
  Sb  Sb2  1  0.12451600  0.87548400  0.37548400  1
  Sb  Sb3  1  0.62451600  0.62451600  0.62451600  1
  Ir  Ir4  1  0.50478300  0.00478300  0.49521700  1
  Ir  Ir5  1  0.00478300  0.49521700  0.50478300  1
  Ir  Ir6  1  0.49521700  0.50478300  0.00478300  1
  Ir  Ir7  1  0.99521700  0.99521700  0.99521700  1
  Se  Se8  1  0.12056800  0.62056800  0.87943200  1
  Se  Se9  1  0.62056800  0.87943200  0.12056800  1
  Se  Se10  1  0.87943200  0.12056800  0.62056800  1
  Se  Se11  1  0.37943200  0.37943200  0.37943200  1
