# generated using pymatgen
data_Sr2MgReO6
_symmetry_space_group_name_H-M   'P 1'
_cell_length_a   5.65162841
_cell_length_b   5.65162841
_cell_length_c   5.65162841
_cell_angle_alpha   120.36240494
_cell_angle_beta   120.36240494
_cell_angle_gamma   89.37343406
_symmetry_Int_Tables_number   1
_chemical_formula_structural   Sr2MgReO6
_chemical_formula_sum   'Sr2 Mg1 Re1 O6'
_cell_volume   126.93814786
_cell_formula_units_Z   1
loop_
 _symmetry_equiv_pos_site_id
 _symmetry_equiv_pos_as_xyz
  1  'x, y, z'
loop_
 _atom_site_type_symbol
 _atom_site_label
 _atom_site_symmetry_multiplicity
 _atom_site_fract_x
 _atom_site_fract_y
 _atom_site_fract_z
 _atom_site_occupancy
  Sr  Sr0  1  0.25000000  0.75000000  0.50000000  1
  Sr  Sr1  1  0.75000000  0.25000000  0.50000000  1
  Mg  Mg2  1  0.50000000  0.50000000  0.00000000  1
  Re  Re3  1  0.00000000  0.00000000  0.00000000  1
  O  O4  1  0.24244400  0.24244400  0.00000000  1
  O  O5  1  0.75755600  0.75755600  0.00000000  1
  O  O6  1  0.72615600  0.79095600  0.51711300  1
  O  O7  1  0.27384400  0.20904400  0.48288700  1
  O  O8  1  0.79095600  0.27384400  0.06480000  1
  O  O9  1  0.20904400  0.72615600  0.93520000  1
