# generated using pymatgen
data_BaMnO3
_symmetry_space_group_name_H-M   'P 1'
_cell_length_a   4.93206800
_cell_length_b   5.80473285
_cell_length_c   10.05227633
_cell_angle_alpha   90.00022694
_cell_angle_beta   89.99999430
_cell_angle_gamma   90.00000000
_symmetry_Int_Tables_number   1
_chemical_formula_structural   BaMnO3
_chemical_formula_sum   'Ba4 Mn4 O12'
_cell_volume   287.79000784
_cell_formula_units_Z   4
loop_
 _symmetry_equiv_pos_site_id
 _symmetry_equiv_pos_as_xyz
  1  'x, y, z'
loop_
 _atom_site_type_symbol
 _atom_site_label
 _atom_site_symmetry_multiplicity
 _atom_site_fract_x
 _atom_site_fract_y
 _atom_site_fract_z
 _atom_site_occupancy
  Ba  Ba0  1  0.26780000  0.00000300  0.33332600  1
  Ba  Ba1  1  0.26779900  0.50000300  0.83332600  1
  Ba  Ba2  1  0.76780200  0.49999700  0.16667500  1
  Ba  Ba3  1  0.76780000  0.99999700  0.66667300  1
  Mn  Mn4  1  0.53359300  0.49999900  0.50000100  1
  Mn  Mn5  1  0.03359700  0.00000200  0.99999800  1
  Mn  Mn6  1  0.53357400  0.99999900  0.00000300  1
  Mn  Mn7  1  0.03358000  0.50000200  0.49999700  1
  O  O8  1  0.28420200  0.49999700  0.35146200  1
  O  O9  1  0.28421000  0.99999700  0.85146100  1
  O  O10  1  0.28420800  0.77721100  0.07427700  1
  O  O11  1  0.28420300  0.27720800  0.57427900  1
  O  O12  1  0.28421000  0.22278700  0.07427800  1
  O  O13  1  0.28420500  0.72279000  0.57428000  1
  O  O14  1  0.78420000  0.00000300  0.14853900  1
  O  O15  1  0.78420700  0.50000300  0.64853900  1
  O  O16  1  0.78420700  0.72278900  0.42572300  1
  O  O17  1  0.78420000  0.22279300  0.92572100  1
  O  O18  1  0.78420900  0.27721300  0.42572200  1
  O  O19  1  0.78420200  0.77720900  0.92571900  1
