# generated using pymatgen
data_Rb6InP3S14
_symmetry_space_group_name_H-M   'P 1'
_cell_length_a   11.57498497
_cell_length_b   11.57498497
_cell_length_c   13.38411063
_cell_angle_alpha   74.19977220
_cell_angle_beta   74.19977220
_cell_angle_gamma   58.27595156
_symmetry_Int_Tables_number   1
_chemical_formula_structural   Rb6InP3S14
_chemical_formula_sum   'Rb12 In2 P6 S28'
_cell_volume   1449.27878578
_cell_formula_units_Z   2
loop_
 _symmetry_equiv_pos_site_id
 _symmetry_equiv_pos_as_xyz
  1  'x, y, z'
loop_
 _atom_site_type_symbol
 _atom_site_label
 _atom_site_symmetry_multiplicity
 _atom_site_fract_x
 _atom_site_fract_y
 _atom_site_fract_z
 _atom_site_occupancy
  Rb  Rb0  1  0.02119000  0.78955100  0.58713800  1
  Rb  Rb1  1  0.21044900  0.97881000  0.91286200  1
  Rb  Rb2  1  0.97881000  0.21044900  0.41286200  1
  Rb  Rb3  1  0.78955100  0.02119000  0.08713800  1
  Rb  Rb4  1  0.89779400  0.67271000  0.35022100  1
  Rb  Rb5  1  0.32729000  0.10220600  0.14977900  1
  Rb  Rb6  1  0.10220600  0.32729000  0.64977900  1
  Rb  Rb7  1  0.67271000  0.89779400  0.85022100  1
  Rb  Rb8  1  0.79789300  0.43611500  0.00990000  1
  Rb  Rb9  1  0.56388500  0.20210700  0.49010000  1
  Rb  Rb10  1  0.20210700  0.56388500  0.99010000  1
  Rb  Rb11  1  0.43611500  0.79789300  0.50990000  1
  In  In12  1  0.36598700  0.63401300  0.25000000  1
  In  In13  1  0.63401300  0.36598700  0.75000000  1
  P  P14  1  0.27419600  0.34225900  0.32935500  1
  P  P15  1  0.65774100  0.72580400  0.17064500  1
  P  P16  1  0.72580400  0.65774100  0.67064500  1
  P  P17  1  0.34225900  0.27419600  0.82935500  1
  P  P18  1  0.05800600  0.94199400  0.25000000  1
  P  P19  1  0.94199400  0.05800600  0.75000000  1
  S  S20  1  0.13330200  0.78585300  0.16122700  1
  S  S21  1  0.21414700  0.86669800  0.33877300  1
  S  S22  1  0.86669800  0.21414700  0.83877300  1
  S  S23  1  0.78585300  0.13330200  0.66122700  1
  S  S24  1  0.47238000  0.44105300  0.13213200  1
  S  S25  1  0.55894700  0.52762000  0.36786800  1
  S  S26  1  0.52762000  0.55894700  0.86786800  1
  S  S27  1  0.44105300  0.47238000  0.63213200  1
  S  S28  1  0.24448900  0.49470300  0.40140600  1
  S  S29  1  0.50529700  0.75551100  0.09859400  1
  S  S30  1  0.75551100  0.50529700  0.59859400  1
  S  S31  1  0.49470300  0.24448900  0.90140600  1
  S  S32  1  0.13343800  0.40523400  0.23799500  1
  S  S33  1  0.59476600  0.86656200  0.26200500  1
  S  S34  1  0.86656200  0.59476600  0.76200500  1
  S  S35  1  0.40523400  0.13343800  0.73799500  1
  S  S36  1  0.83055400  0.69606400  0.06727500  1
  S  S37  1  0.30393600  0.16944600  0.43272500  1
  S  S38  1  0.16944600  0.30393600  0.93272500  1
  S  S39  1  0.69606400  0.83055400  0.56727500  1
  S  S40  1  0.72612100  0.52183600  0.25973900  1
  S  S41  1  0.47816400  0.27387900  0.24026100  1
  S  S42  1  0.27387900  0.47816400  0.74026100  1
  S  S43  1  0.52183600  0.72612100  0.75973900  1
  S  S44  1  0.03031300  0.11957900  0.15150700  1
  S  S45  1  0.88042100  0.96968700  0.34849300  1
  S  S46  1  0.96968700  0.88042100  0.84849300  1
  S  S47  1  0.11957900  0.03031300  0.65150700  1
