# generated using pymatgen
data_TmSi3Ni5
_symmetry_space_group_name_H-M   'P 1'
_cell_length_a   3.74626100
_cell_length_b   18.57345900
_cell_length_c   6.64662800
_cell_angle_alpha   90.00000000
_cell_angle_beta   90.00000000
_cell_angle_gamma   90.00000000
_symmetry_Int_Tables_number   1
_chemical_formula_structural   TmSi3Ni5
_chemical_formula_sum   'Tm4 Si12 Ni20'
_cell_volume   462.47918961
_cell_formula_units_Z   4
loop_
 _symmetry_equiv_pos_site_id
 _symmetry_equiv_pos_as_xyz
  1  'x, y, z'
loop_
 _atom_site_type_symbol
 _atom_site_label
 _atom_site_symmetry_multiplicity
 _atom_site_fract_x
 _atom_site_fract_y
 _atom_site_fract_z
 _atom_site_occupancy
  Tm  Tm0  1  0.75000000  0.64389500  0.12268600  1
  Tm  Tm1  1  0.25000000  0.35610500  0.87731400  1
  Tm  Tm2  1  0.25000000  0.85610500  0.62268600  1
  Tm  Tm3  1  0.75000000  0.14389500  0.37731400  1
  Si  Si4  1  0.75000000  0.73775100  0.62219900  1
  Si  Si5  1  0.25000000  0.26224900  0.37780100  1
  Si  Si6  1  0.25000000  0.76224900  0.12219900  1
  Si  Si7  1  0.75000000  0.23775100  0.87780100  1
  Si  Si8  1  0.75000000  0.92477300  0.34775400  1
  Si  Si9  1  0.25000000  0.07522700  0.65224600  1
  Si  Si10  1  0.25000000  0.57522700  0.84775400  1
  Si  Si11  1  0.75000000  0.42477300  0.15224600  1
  Si  Si12  1  0.75000000  0.91478300  0.91151700  1
  Si  Si13  1  0.25000000  0.08521700  0.08848300  1
  Si  Si14  1  0.25000000  0.58521700  0.41151700  1
  Si  Si15  1  0.75000000  0.41478300  0.58848300  1
  Ni  Ni16  1  0.75000000  0.80011400  0.31681800  1
  Ni  Ni17  1  0.25000000  0.19988600  0.68318200  1
  Ni  Ni18  1  0.25000000  0.69988600  0.81681800  1
  Ni  Ni19  1  0.75000000  0.30011400  0.18318200  1
  Ni  Ni20  1  0.75000000  0.99476500  0.63179100  1
  Ni  Ni21  1  0.25000000  0.00523500  0.36820900  1
  Ni  Ni22  1  0.25000000  0.50523500  0.13179100  1
  Ni  Ni23  1  0.75000000  0.49476500  0.86820900  1
  Ni  Ni24  1  0.75000000  0.51373000  0.38181400  1
  Ni  Ni25  1  0.25000000  0.48627000  0.61818600  1
  Ni  Ni26  1  0.25000000  0.98627000  0.88181400  1
  Ni  Ni27  1  0.75000000  0.01373000  0.11818600  1
  Ni  Ni28  1  0.75000000  0.79398700  0.92992900  1
  Ni  Ni29  1  0.25000000  0.20601300  0.07007100  1
  Ni  Ni30  1  0.25000000  0.70601300  0.42992900  1
  Ni  Ni31  1  0.75000000  0.29398700  0.57007100  1
  Ni  Ni32  1  0.75000000  0.61410000  0.64194500  1
  Ni  Ni33  1  0.25000000  0.38590000  0.35805500  1
  Ni  Ni34  1  0.25000000  0.88590000  0.14194500  1
  Ni  Ni35  1  0.75000000  0.11410000  0.85805500  1
