# generated using pymatgen
data_La2Os2I
_symmetry_space_group_name_H-M   'P 1'
_cell_length_a   4.34109068
_cell_length_b   4.34109068
_cell_length_c   18.10055200
_cell_angle_alpha   90.00000000
_cell_angle_beta   90.00000000
_cell_angle_gamma   120.00001029
_symmetry_Int_Tables_number   1
_chemical_formula_structural   La2Os2I
_chemical_formula_sum   'La4 Os4 I2'
_cell_volume   295.40655012
_cell_formula_units_Z   2
loop_
 _symmetry_equiv_pos_site_id
 _symmetry_equiv_pos_as_xyz
  1  'x, y, z'
loop_
 _atom_site_type_symbol
 _atom_site_label
 _atom_site_symmetry_multiplicity
 _atom_site_fract_x
 _atom_site_fract_y
 _atom_site_fract_z
 _atom_site_occupancy
  La  La0  1  0.00000000  0.00000000  0.10842900  1
  La  La1  1  0.00000000  0.00000000  0.89157100  1
  La  La2  1  0.00000000  0.00000000  0.60842900  1
  La  La3  1  0.00000000  0.00000000  0.39157100  1
  Os  Os4  1  0.33333300  0.66666700  0.50608700  1
  Os  Os5  1  0.66666700  0.33333300  0.49391300  1
  Os  Os6  1  0.66666700  0.33333300  0.00608700  1
  Os  Os7  1  0.33333300  0.66666700  0.99391300  1
  I  I8  1  0.33333300  0.66666700  0.25000000  1
  I  I9  1  0.66666700  0.33333300  0.75000000  1
