# generated using pymatgen
data_Cs3Ag9(SbS3)4
_symmetry_space_group_name_H-M   'P 1'
_cell_length_a   9.98325362
_cell_length_b   9.98325362
_cell_length_c   9.98325362
_cell_angle_alpha   111.30872140
_cell_angle_beta   111.30872140
_cell_angle_gamma   105.85560303
_symmetry_Int_Tables_number   1
_chemical_formula_structural   Cs3Ag9(SbS3)4
_chemical_formula_sum   'Cs3 Ag9 Sb4 S12'
_cell_volume   763.67046275
_cell_formula_units_Z   1
loop_
 _symmetry_equiv_pos_site_id
 _symmetry_equiv_pos_as_xyz
  1  'x, y, z'
loop_
 _atom_site_type_symbol
 _atom_site_label
 _atom_site_symmetry_multiplicity
 _atom_site_fract_x
 _atom_site_fract_y
 _atom_site_fract_z
 _atom_site_occupancy
  Cs  Cs0  1  0.00000000  0.00000000  0.00000000  1
  Cs  Cs1  1  0.32615700  0.32615700  0.00000000  1
  Cs  Cs2  1  0.67384300  0.67384300  0.00000000  1
  Ag  Ag3  1  0.25000000  0.75000000  0.50000000  1
  Ag  Ag4  1  0.33203700  0.48633800  0.48865000  1
  Ag  Ag5  1  0.99768800  0.84338700  0.51135000  1
  Ag  Ag6  1  0.49906400  0.00938400  0.16861100  1
  Ag  Ag7  1  0.84077300  0.33045400  0.83138900  1
  Ag  Ag8  1  0.66954600  0.50093600  0.51032000  1
  Ag  Ag9  1  0.99061600  0.15922700  0.48968000  1
  Ag  Ag10  1  0.51366200  0.00231200  0.84569900  1
  Ag  Ag11  1  0.15661300  0.66796300  0.15430100  1
  Sb  Sb12  1  0.12547900  0.60722400  0.74355500  1
  Sb  Sb13  1  0.86366900  0.38192400  0.25644500  1
  Sb  Sb14  1  0.61807600  0.87452100  0.48174500  1
  Sb  Sb15  1  0.39277600  0.13633100  0.51825500  1
  S  S16  1  0.66983200  0.30404600  0.96962200  1
  S  S17  1  0.33442400  0.70021000  0.03037800  1
  S  S18  1  0.29979000  0.33016800  0.63421400  1
  S  S19  1  0.69595400  0.66557600  0.36578600  1
  S  S20  1  0.42499600  0.21610200  0.32024200  1
  S  S21  1  0.89586000  0.10475400  0.67975800  1
  S  S22  1  0.21485700  0.88417500  0.77958400  1
  S  S23  1  0.10459200  0.43527400  0.22041600  1
  S  S24  1  0.56472600  0.78514300  0.66931800  1
  S  S25  1  0.11582500  0.89540800  0.33068200  1
  S  S26  1  0.78389800  0.10414000  0.20889500  1
  S  S27  1  0.89524600  0.57500400  0.79110500  1
