# generated using pymatgen
data_Tb14Ag51
_symmetry_space_group_name_H-M   'P 1'
_cell_length_a   12.83542961
_cell_length_b   12.83542961
_cell_length_c   9.43262800
_cell_angle_alpha   90.00000000
_cell_angle_beta   90.00000000
_cell_angle_gamma   119.99999800
_symmetry_Int_Tables_number   1
_chemical_formula_structural   Tb14Ag51
_chemical_formula_sum   'Tb14 Ag51'
_cell_volume   1345.81128774
_cell_formula_units_Z   1
loop_
 _symmetry_equiv_pos_site_id
 _symmetry_equiv_pos_as_xyz
  1  'x, y, z'
loop_
 _atom_site_type_symbol
 _atom_site_label
 _atom_site_symmetry_multiplicity
 _atom_site_fract_x
 _atom_site_fract_y
 _atom_site_fract_z
 _atom_site_occupancy
  Tb  Tb0  1  0.13334200  0.66127400  0.50000000  1
  Tb  Tb1  1  0.52793200  0.86665800  0.50000000  1
  Tb  Tb2  1  0.33872600  0.47206800  0.50000000  1
  Tb  Tb3  1  0.19795700  0.00500600  0.50000000  1
  Tb  Tb4  1  0.80704900  0.80204300  0.50000000  1
  Tb  Tb5  1  0.99499400  0.19295100  0.50000000  1
  Tb  Tb6  1  0.77990300  0.06003500  0.00000000  1
  Tb  Tb7  1  0.28013200  0.22009700  0.00000000  1
  Tb  Tb8  1  0.93996500  0.71986800  0.00000000  1
  Tb  Tb9  1  0.54938900  0.61490500  0.00000000  1
  Tb  Tb10  1  0.06551600  0.45061100  0.00000000  1
  Tb  Tb11  1  0.38509500  0.93448400  0.00000000  1
  Tb  Tb12  1  0.66666700  0.33333300  0.69248200  1
  Tb  Tb13  1  0.66666700  0.33333300  0.30751800  1
  Ag  Ag14  1  0.77065700  0.99819700  0.66717000  1
  Ag  Ag15  1  0.22753900  0.22934300  0.66717000  1
  Ag  Ag16  1  0.00180300  0.77246100  0.66717000  1
  Ag  Ag17  1  0.56192400  0.66867400  0.66680000  1
  Ag  Ag18  1  0.10675000  0.43807600  0.66680000  1
  Ag  Ag19  1  0.33132600  0.89325000  0.66680000  1
  Ag  Ag20  1  0.56192400  0.66867400  0.33320000  1
  Ag  Ag21  1  0.10675000  0.43807600  0.33320000  1
  Ag  Ag22  1  0.33132600  0.89325000  0.33320000  1
  Ag  Ag23  1  0.77065700  0.99819700  0.33283000  1
  Ag  Ag24  1  0.22753900  0.22934300  0.33283000  1
  Ag  Ag25  1  0.00180300  0.77246100  0.33283000  1
  Ag  Ag26  1  0.15945300  0.71061600  0.84767400  1
  Ag  Ag27  1  0.55116400  0.84054700  0.84767400  1
  Ag  Ag28  1  0.28938400  0.44883600  0.84767400  1
  Ag  Ag29  1  0.17066400  0.95332100  0.84852000  1
  Ag  Ag30  1  0.78265700  0.82933600  0.84852000  1
  Ag  Ag31  1  0.04667900  0.21734300  0.84852000  1
  Ag  Ag32  1  0.17066400  0.95332100  0.15148000  1
  Ag  Ag33  1  0.78265700  0.82933600  0.15148000  1
  Ag  Ag34  1  0.04667900  0.21734300  0.15148000  1
  Ag  Ag35  1  0.15945300  0.71061600  0.15232600  1
  Ag  Ag36  1  0.55116400  0.84054700  0.15232600  1
  Ag  Ag37  1  0.28938400  0.44883600  0.15232600  1
  Ag  Ag38  1  0.72513000  0.15419900  0.50000000  1
  Ag  Ag39  1  0.42906900  0.27487000  0.50000000  1
  Ag  Ag40  1  0.84580100  0.57093100  0.50000000  1
  Ag  Ag41  1  0.60640200  0.51165600  0.50000000  1
  Ag  Ag42  1  0.90525400  0.39359800  0.50000000  1
  Ag  Ag43  1  0.48834400  0.09474600  0.50000000  1
  Ag  Ag44  1  0.33333300  0.66666700  0.00000000  1
  Ag  Ag45  1  0.00000000  0.00000000  0.00000000  1
  Ag  Ag46  1  0.85914200  0.25546500  0.75908100  1
  Ag  Ag47  1  0.39632300  0.14085800  0.75908100  1
  Ag  Ag48  1  0.74453500  0.60367700  0.75908100  1
  Ag  Ag49  1  0.47774700  0.40784400  0.76896900  1
  Ag  Ag50  1  0.93009700  0.52225300  0.76896900  1
  Ag  Ag51  1  0.59215600  0.06990300  0.76896900  1
  Ag  Ag52  1  0.47774700  0.40784400  0.23103100  1
  Ag  Ag53  1  0.93009700  0.52225300  0.23103100  1
  Ag  Ag54  1  0.59215600  0.06990300  0.23103100  1
  Ag  Ag55  1  0.85914200  0.25546500  0.24091900  1
  Ag  Ag56  1  0.39632300  0.14085800  0.24091900  1
  Ag  Ag57  1  0.74453500  0.60367700  0.24091900  1
  Ag  Ag58  1  0.33333300  0.66666700  0.69697000  1
  Ag  Ag59  1  0.00000000  0.00000000  0.69765300  1
  Ag  Ag60  1  0.00000000  0.00000000  0.30234700  1
  Ag  Ag61  1  0.33333300  0.66666700  0.30303000  1
  Ag  Ag62  1  0.79684000  0.34138900  0.00000000  1
  Ag  Ag63  1  0.54454900  0.20316000  0.00000000  1
  Ag  Ag64  1  0.65861100  0.45545100  0.00000000  1
