# generated using pymatgen
data_Pr(Co2B)6
_symmetry_space_group_name_H-M   'P 1'
_cell_length_a   5.98439403
_cell_length_b   5.98439403
_cell_length_c   5.98439494
_cell_angle_alpha   103.96571171
_cell_angle_beta   103.96571171
_cell_angle_gamma   103.96570565
_symmetry_Int_Tables_number   1
_chemical_formula_structural   Pr(Co2B)6
_chemical_formula_sum   'Pr1 Co12 B6'
_cell_volume   191.35086496
_cell_formula_units_Z   1
loop_
 _symmetry_equiv_pos_site_id
 _symmetry_equiv_pos_as_xyz
  1  'x, y, z'
loop_
 _atom_site_type_symbol
 _atom_site_label
 _atom_site_symmetry_multiplicity
 _atom_site_fract_x
 _atom_site_fract_y
 _atom_site_fract_z
 _atom_site_occupancy
  Pr  Pr0  1  0.00000000  0.00000000  0.00000000  1
  Co  Co1  1  0.13303700  0.86696300  0.50000000  1
  Co  Co2  1  0.50000000  0.13303700  0.86696300  1
  Co  Co3  1  0.86696300  0.50000000  0.13303700  1
  Co  Co4  1  0.50000000  0.86696300  0.13303700  1
  Co  Co5  1  0.13303700  0.50000000  0.86696300  1
  Co  Co6  1  0.86696300  0.13303700  0.50000000  1
  Co  Co7  1  0.54120500  0.81352100  0.54120500  1
  Co  Co8  1  0.54120500  0.54120500  0.81352100  1
  Co  Co9  1  0.81352100  0.54120500  0.54120500  1
  Co  Co10  1  0.45879500  0.18647900  0.45879500  1
  Co  Co11  1  0.45879500  0.45879500  0.18647900  1
  Co  Co12  1  0.18647900  0.45879500  0.45879500  1
  B  B13  1  0.76826000  0.32662800  0.76826000  1
  B  B14  1  0.76826000  0.76826000  0.32662800  1
  B  B15  1  0.32662800  0.76826000  0.76826000  1
  B  B16  1  0.23174000  0.67337200  0.23174000  1
  B  B17  1  0.23174000  0.23174000  0.67337200  1
  B  B18  1  0.67337200  0.23174000  0.23174000  1
