# generated using pymatgen
data_CsCeSiS4
_symmetry_space_group_name_H-M   'P 1'
_cell_length_a   6.52829200
_cell_length_b   6.77232500
_cell_length_c   18.25809400
_cell_angle_alpha   90.00000000
_cell_angle_beta   90.00000000
_cell_angle_gamma   90.00000000
_symmetry_Int_Tables_number   1
_chemical_formula_structural   CsCeSiS4
_chemical_formula_sum   'Cs4 Ce4 Si4 S16'
_cell_volume   807.22165054
_cell_formula_units_Z   4
loop_
 _symmetry_equiv_pos_site_id
 _symmetry_equiv_pos_as_xyz
  1  'x, y, z'
loop_
 _atom_site_type_symbol
 _atom_site_label
 _atom_site_symmetry_multiplicity
 _atom_site_fract_x
 _atom_site_fract_y
 _atom_site_fract_z
 _atom_site_occupancy
  Cs  Cs0  1  0.50228700  0.75000000  0.21530400  1
  Cs  Cs1  1  0.99771300  0.75000000  0.71530400  1
  Cs  Cs2  1  0.49771300  0.25000000  0.78469600  1
  Cs  Cs3  1  0.00228700  0.25000000  0.28469600  1
  Ce  Ce4  1  0.29222800  0.75000000  0.47781400  1
  Ce  Ce5  1  0.20777200  0.75000000  0.97781400  1
  Ce  Ce6  1  0.70777200  0.25000000  0.52218600  1
  Ce  Ce7  1  0.79222800  0.25000000  0.02218600  1
  Si  Si8  1  0.78779700  0.75000000  0.41529100  1
  Si  Si9  1  0.71220300  0.75000000  0.91529100  1
  Si  Si10  1  0.21220300  0.25000000  0.58470900  1
  Si  Si11  1  0.28779700  0.25000000  0.08470900  1
  S  S12  1  0.04725700  0.75000000  0.34611600  1
  S  S13  1  0.45274300  0.75000000  0.84611600  1
  S  S14  1  0.95274300  0.25000000  0.65388400  1
  S  S15  1  0.54725700  0.25000000  0.15388400  1
  S  S16  1  0.62543000  0.75000000  0.02792800  1
  S  S17  1  0.87457000  0.75000000  0.52792800  1
  S  S18  1  0.37457000  0.25000000  0.97207200  1
  S  S19  1  0.12543000  0.25000000  0.47207200  1
  S  S20  1  0.59032400  0.50210000  0.39802300  1
  S  S21  1  0.90967600  0.99790000  0.89802300  1
  S  S22  1  0.40967600  0.00210000  0.60197700  1
  S  S23  1  0.09032400  0.49790000  0.10197700  1
  S  S24  1  0.40967600  0.49790000  0.60197700  1
  S  S25  1  0.09032400  0.00210000  0.10197700  1
  S  S26  1  0.59032400  0.99790000  0.39802300  1
  S  S27  1  0.90967600  0.50210000  0.89802300  1
