# generated using pymatgen
data_La2Co14B
_symmetry_space_group_name_H-M   'P 1'
_cell_length_a   8.62924200
_cell_length_b   8.62924200
_cell_length_c   11.88041100
_cell_angle_alpha   90.00000000
_cell_angle_beta   90.00000000
_cell_angle_gamma   90.00000000
_symmetry_Int_Tables_number   1
_chemical_formula_structural   La2Co14B
_chemical_formula_sum   'La8 Co56 B4'
_cell_volume   884.66075646
_cell_formula_units_Z   4
loop_
 _symmetry_equiv_pos_site_id
 _symmetry_equiv_pos_as_xyz
  1  'x, y, z'
loop_
 _atom_site_type_symbol
 _atom_site_label
 _atom_site_symmetry_multiplicity
 _atom_site_fract_x
 _atom_site_fract_y
 _atom_site_fract_z
 _atom_site_occupancy
  La  La0  1  0.22517300  0.77482700  0.50000000  1
  La  La1  1  0.77482700  0.22517300  0.50000000  1
  La  La2  1  0.27482700  0.27482700  0.00000000  1
  La  La3  1  0.72517300  0.72517300  0.00000000  1
  La  La4  1  0.64450500  0.64450500  0.50000000  1
  La  La5  1  0.35549500  0.35549500  0.50000000  1
  La  La6  1  0.85549500  0.14450500  0.00000000  1
  La  La7  1  0.14450500  0.85549500  0.00000000  1
  Co  Co8  1  0.00000000  0.50000000  0.50000000  1
  Co  Co9  1  0.50000000  0.00000000  0.00000000  1
  Co  Co10  1  0.50000000  0.00000000  0.50000000  1
  Co  Co11  1  0.00000000  0.50000000  0.00000000  1
  Co  Co12  1  0.50000000  0.50000000  0.11530500  1
  Co  Co13  1  0.00000000  0.00000000  0.61530500  1
  Co  Co14  1  0.50000000  0.50000000  0.88469500  1
  Co  Co15  1  0.00000000  0.00000000  0.38469500  1
  Co  Co16  1  0.18200900  0.81799100  0.25257100  1
  Co  Co17  1  0.81799100  0.18200900  0.25257100  1
  Co  Co18  1  0.31799100  0.31799100  0.75257100  1
  Co  Co19  1  0.68200900  0.68200900  0.75257100  1
  Co  Co20  1  0.81799100  0.18200900  0.74742900  1
  Co  Co21  1  0.18200900  0.81799100  0.74742900  1
  Co  Co22  1  0.68200900  0.68200900  0.24742900  1
  Co  Co23  1  0.31799100  0.31799100  0.24742900  1
  Co  Co24  1  0.40096800  0.59903200  0.29170200  1
  Co  Co25  1  0.59903200  0.40096800  0.29170200  1
  Co  Co26  1  0.09903200  0.09903200  0.79170200  1
  Co  Co27  1  0.90096800  0.90096800  0.79170200  1
  Co  Co28  1  0.59903200  0.40096800  0.70829800  1
  Co  Co29  1  0.40096800  0.59903200  0.70829800  1
  Co  Co30  1  0.90096800  0.90096800  0.20829800  1
  Co  Co31  1  0.09903200  0.09903200  0.20829800  1
  Co  Co32  1  0.13927200  0.53606400  0.32041000  1
  Co  Co33  1  0.86072800  0.46393600  0.32041000  1
  Co  Co34  1  0.36072800  0.03606400  0.82041000  1
  Co  Co35  1  0.63927200  0.96393600  0.82041000  1
  Co  Co36  1  0.86072800  0.46393600  0.67959000  1
  Co  Co37  1  0.13927200  0.53606400  0.67959000  1
  Co  Co38  1  0.63927200  0.96393600  0.17959000  1
  Co  Co39  1  0.36072800  0.03606400  0.17959000  1
  Co  Co40  1  0.53606400  0.13927200  0.32041000  1
  Co  Co41  1  0.46393600  0.86072800  0.32041000  1
  Co  Co42  1  0.03606400  0.36072800  0.82041000  1
  Co  Co43  1  0.96393600  0.63927200  0.82041000  1
  Co  Co44  1  0.46393600  0.86072800  0.67959000  1
  Co  Co45  1  0.53606400  0.13927200  0.67959000  1
  Co  Co46  1  0.96393600  0.63927200  0.17959000  1
  Co  Co47  1  0.03606400  0.36072800  0.17959000  1
  Co  Co48  1  0.92966100  0.72408500  0.37317000  1
  Co  Co49  1  0.07033900  0.27591500  0.37317000  1
  Co  Co50  1  0.57033900  0.22408500  0.87317000  1
  Co  Co51  1  0.42966100  0.77591500  0.87317000  1
  Co  Co52  1  0.07033900  0.27591500  0.62683000  1
  Co  Co53  1  0.92966100  0.72408500  0.62683000  1
  Co  Co54  1  0.42966100  0.77591500  0.12683000  1
  Co  Co55  1  0.57033900  0.22408500  0.12683000  1
  Co  Co56  1  0.72408500  0.92966100  0.37317000  1
  Co  Co57  1  0.27591500  0.07033900  0.37317000  1
  Co  Co58  1  0.22408500  0.57033900  0.87317000  1
  Co  Co59  1  0.77591500  0.42966100  0.87317000  1
  Co  Co60  1  0.27591500  0.07033900  0.62683000  1
  Co  Co61  1  0.72408500  0.92966100  0.62683000  1
  Co  Co62  1  0.77591500  0.42966100  0.12683000  1
  Co  Co63  1  0.22408500  0.57033900  0.12683000  1
  B  B64  1  0.87861600  0.87861600  0.50000000  1
  B  B65  1  0.12138400  0.12138400  0.50000000  1
  B  B66  1  0.62138400  0.37861600  0.00000000  1
  B  B67  1  0.37861600  0.62138400  0.00000000  1
