# generated using pymatgen
data_Ga7Te10
_symmetry_space_group_name_H-M   'P 1'
_cell_length_a   10.44823747
_cell_length_b   10.44823747
_cell_length_c   10.44823693
_cell_angle_alpha   89.70749548
_cell_angle_beta   89.70749548
_cell_angle_gamma   89.70749573
_symmetry_Int_Tables_number   1
_chemical_formula_structural   Ga7Te10
_chemical_formula_sum   'Ga14 Te20'
_cell_volume   1140.54430691
_cell_formula_units_Z   2
loop_
 _symmetry_equiv_pos_site_id
 _symmetry_equiv_pos_as_xyz
  1  'x, y, z'
loop_
 _atom_site_type_symbol
 _atom_site_label
 _atom_site_symmetry_multiplicity
 _atom_site_fract_x
 _atom_site_fract_y
 _atom_site_fract_z
 _atom_site_occupancy
  Ga  Ga0  1  0.56949600  0.56949600  0.56949600  1
  Ga  Ga1  1  0.43050400  0.43050400  0.43050400  1
  Ga  Ga2  1  0.34183100  0.16646000  0.74375600  1
  Ga  Ga3  1  0.16646000  0.74375600  0.34183100  1
  Ga  Ga4  1  0.74375600  0.34183100  0.16646000  1
  Ga  Ga5  1  0.83354000  0.65816900  0.25624400  1
  Ga  Ga6  1  0.65816900  0.25624400  0.83354000  1
  Ga  Ga7  1  0.25624400  0.83354000  0.65816900  1
  Ga  Ga8  1  0.57837500  0.88640700  0.84687100  1
  Ga  Ga9  1  0.88640700  0.84687100  0.57837500  1
  Ga  Ga10  1  0.84687100  0.57837500  0.88640700  1
  Ga  Ga11  1  0.11359300  0.42162500  0.15312900  1
  Ga  Ga12  1  0.42162500  0.15312900  0.11359300  1
  Ga  Ga13  1  0.15312900  0.11359300  0.42162500  1
  Te  Te14  1  0.83282200  0.83282200  0.83282200  1
  Te  Te15  1  0.16717800  0.16717800  0.16717800  1
  Te  Te16  1  0.00000000  0.82369700  0.17630300  1
  Te  Te17  1  0.82369700  0.17630300  0.00000000  1
  Te  Te18  1  0.17630300  0.00000000  0.82369700  1
  Te  Te19  1  0.50000000  0.91646900  0.08353100  1
  Te  Te20  1  0.91646900  0.08353100  0.50000000  1
  Te  Te21  1  0.08353100  0.50000000  0.91646900  1
  Te  Te22  1  0.43917300  0.68528900  0.76258900  1
  Te  Te23  1  0.68528900  0.76258900  0.43917300  1
  Te  Te24  1  0.76258900  0.43917300  0.68528900  1
  Te  Te25  1  0.31471100  0.56082700  0.23741100  1
  Te  Te26  1  0.56082700  0.23741100  0.31471100  1
  Te  Te27  1  0.23741100  0.31471100  0.56082700  1
  Te  Te28  1  0.57369100  0.07466400  0.67061700  1
  Te  Te29  1  0.07466400  0.67061700  0.57369100  1
  Te  Te30  1  0.67061700  0.57369100  0.07466400  1
  Te  Te31  1  0.92533600  0.42630900  0.32938300  1
  Te  Te32  1  0.42630900  0.32938300  0.92533600  1
  Te  Te33  1  0.32938300  0.92533600  0.42630900  1
