# generated using pymatgen
data_Yb14AlSb11
_symmetry_space_group_name_H-M   'P 1'
_cell_length_a   16.21706364
_cell_length_b   16.21706364
_cell_length_c   16.21706364
_cell_angle_alpha   117.95788920
_cell_angle_beta   117.95788920
_cell_angle_gamma   93.57499824
_symmetry_Int_Tables_number   1
_chemical_formula_structural   Yb14AlSb11
_chemical_formula_sum   'Yb56 Al4 Sb44'
_cell_volume   3102.34830059
_cell_formula_units_Z   4
loop_
 _symmetry_equiv_pos_site_id
 _symmetry_equiv_pos_as_xyz
  1  'x, y, z'
loop_
 _atom_site_type_symbol
 _atom_site_label
 _atom_site_symmetry_multiplicity
 _atom_site_fract_x
 _atom_site_fract_y
 _atom_site_fract_z
 _atom_site_occupancy
  Yb  Yb0  1  0.00325800  0.72206800  0.63341500  1
  Yb  Yb1  1  0.50325800  0.86984300  0.28119000  1
  Yb  Yb2  1  0.97206800  0.75325800  0.13341500  1
  Yb  Yb3  1  0.47206800  0.33865300  0.21881000  1
  Yb  Yb4  1  0.74674200  0.52793200  0.86658500  1
  Yb  Yb5  1  0.24674200  0.38015700  0.21881000  1
  Yb  Yb6  1  0.77793200  0.49674200  0.36658500  1
  Yb  Yb7  1  0.27793200  0.91134700  0.28119000  1
  Yb  Yb8  1  0.58865300  0.22206800  0.71881000  1
  Yb  Yb9  1  0.08865300  0.36984300  0.36658500  1
  Yb  Yb10  1  0.11984300  0.25325800  0.78119000  1
  Yb  Yb11  1  0.61984300  0.83865300  0.86658500  1
  Yb  Yb12  1  0.16134700  0.02793200  0.78119000  1
  Yb  Yb13  1  0.66134700  0.88015700  0.13341500  1
  Yb  Yb14  1  0.63015700  0.99674200  0.71881000  1
  Yb  Yb15  1  0.13015700  0.41134700  0.63341500  1
  Yb  Yb16  1  0.84840900  0.74354500  0.85030900  1
  Yb  Yb17  1  0.34840900  0.49810000  0.10486400  1
  Yb  Yb18  1  0.99354500  0.59840900  0.35030900  1
  Yb  Yb19  1  0.49354500  0.14323600  0.39513600  1
  Yb  Yb20  1  0.90159100  0.50645500  0.64969100  1
  Yb  Yb21  1  0.40159100  0.75190000  0.39513600  1
  Yb  Yb22  1  0.75645500  0.65159100  0.14969100  1
  Yb  Yb23  1  0.25645500  0.10676400  0.10486400  1
  Yb  Yb24  1  0.39323600  0.24354500  0.89513600  1
  Yb  Yb25  1  0.89323600  0.99810000  0.14969100  1
  Yb  Yb26  1  0.74810000  0.09840900  0.60486400  1
  Yb  Yb27  1  0.24810000  0.64323600  0.64969100  1
  Yb  Yb28  1  0.35676400  0.00645500  0.60486400  1
  Yb  Yb29  1  0.85676400  0.25190000  0.35030900  1
  Yb  Yb30  1  0.00190000  0.15159100  0.89513600  1
  Yb  Yb31  1  0.50190000  0.60676400  0.85030900  1
  Yb  Yb32  1  0.97819600  0.37500000  0.10319600  1
  Yb  Yb33  1  0.47819600  0.37500000  0.60319600  1
  Yb  Yb34  1  0.62500000  0.72819600  0.60319600  1
  Yb  Yb35  1  0.12500000  0.52180400  0.89680400  1
  Yb  Yb36  1  0.77180400  0.87500000  0.39680400  1
  Yb  Yb37  1  0.27180400  0.87500000  0.89680400  1
  Yb  Yb38  1  0.62500000  0.22819600  0.10319600  1
  Yb  Yb39  1  0.12500000  0.02180400  0.39680400  1
  Yb  Yb40  1  0.21232500  0.19224400  0.34021600  1
  Yb  Yb41  1  0.71232500  0.37210900  0.02008100  1
  Yb  Yb42  1  0.44224400  0.96232500  0.84021600  1
  Yb  Yb43  1  0.94224400  0.10202800  0.47991900  1
  Yb  Yb44  1  0.53767500  0.05775600  0.15978400  1
  Yb  Yb45  1  0.03767500  0.87789100  0.47991900  1
  Yb  Yb46  1  0.30775600  0.28767500  0.65978400  1
  Yb  Yb47  1  0.80775600  0.14797200  0.02008100  1
  Yb  Yb48  1  0.35202800  0.69224400  0.97991900  1
  Yb  Yb49  1  0.85202800  0.87210900  0.65978400  1
  Yb  Yb50  1  0.62210900  0.46232500  0.52008100  1
  Yb  Yb51  1  0.12210900  0.60202800  0.15978400  1
  Yb  Yb52  1  0.39797200  0.55775600  0.52008100  1
  Yb  Yb53  1  0.89797200  0.37789100  0.84021600  1
  Yb  Yb54  1  0.12789100  0.78767500  0.97991900  1
  Yb  Yb55  1  0.62789100  0.64797200  0.34021600  1
  Al  Al56  1  0.00000000  0.00000000  0.00000000  1
  Al  Al57  1  0.50000000  0.50000000  0.00000000  1
  Al  Al58  1  0.25000000  0.75000000  0.50000000  1
  Al  Al59  1  0.75000000  0.25000000  0.50000000  1
  Sb  Sb60  1  0.88513600  0.88513600  0.27027200  1
  Sb  Sb61  1  0.38513600  0.11486400  0.00000000  1
  Sb  Sb62  1  0.13513600  0.63513600  0.77027200  1
  Sb  Sb63  1  0.63513600  0.86486400  0.50000000  1
  Sb  Sb64  1  0.86486400  0.36486400  0.22972800  1
  Sb  Sb65  1  0.36486400  0.13513600  0.50000000  1
  Sb  Sb66  1  0.61486400  0.61486400  0.72972800  1
  Sb  Sb67  1  0.11486400  0.38513600  0.00000000  1
  Sb  Sb68  1  0.06910800  0.92555800  0.86599300  1
  Sb  Sb69  1  0.56910800  0.70311500  0.14355000  1
  Sb  Sb70  1  0.17555800  0.81910800  0.36599300  1
  Sb  Sb71  1  0.67555800  0.30956500  0.35645000  1
  Sb  Sb72  1  0.68089200  0.32444200  0.63400700  1
  Sb  Sb73  1  0.18089200  0.54688500  0.35645000  1
  Sb  Sb74  1  0.57444200  0.43089200  0.13400700  1
  Sb  Sb75  1  0.07444200  0.94043500  0.14355000  1
  Sb  Sb76  1  0.55956500  0.42555800  0.85645000  1
  Sb  Sb77  1  0.05956500  0.20311500  0.13400700  1
  Sb  Sb78  1  0.95311500  0.31910800  0.64355000  1
  Sb  Sb79  1  0.45311500  0.80956500  0.63400700  1
  Sb  Sb80  1  0.19043500  0.82444200  0.64355000  1
  Sb  Sb81  1  0.69043500  0.04688500  0.36599300  1
  Sb  Sb82  1  0.79688500  0.93089200  0.85645000  1
  Sb  Sb83  1  0.29688500  0.44043500  0.86599300  1
  Sb  Sb84  1  0.79164200  0.64578200  0.59306300  1
  Sb  Sb85  1  0.29164200  0.69857900  0.14586000  1
  Sb  Sb86  1  0.89578200  0.54164200  0.09306300  1
  Sb  Sb87  1  0.39578200  0.30271900  0.35414000  1
  Sb  Sb88  1  0.95835800  0.60421800  0.90693700  1
  Sb  Sb89  1  0.45835800  0.55142100  0.35414000  1
  Sb  Sb90  1  0.85421800  0.70835800  0.40693700  1
  Sb  Sb91  1  0.35421800  0.94728100  0.14586000  1
  Sb  Sb92  1  0.55271900  0.14578200  0.85414000  1
  Sb  Sb93  1  0.05271900  0.19857900  0.40693700  1
  Sb  Sb94  1  0.94857900  0.04164200  0.64586000  1
  Sb  Sb95  1  0.44857900  0.80271900  0.90693700  1
  Sb  Sb96  1  0.19728100  0.10421800  0.64586000  1
  Sb  Sb97  1  0.69728100  0.05142100  0.09306300  1
  Sb  Sb98  1  0.80142100  0.20835800  0.85414000  1
  Sb  Sb99  1  0.30142100  0.44728100  0.59306300  1
  Sb  Sb100  1  0.75000000  0.75000000  0.00000000  1
  Sb  Sb101  1  0.25000000  0.25000000  0.00000000  1
  Sb  Sb102  1  0.00000000  0.50000000  0.50000000  1
  Sb  Sb103  1  0.50000000  0.00000000  0.50000000  1
