# generated using pymatgen
data_NdSbPt
_symmetry_space_group_name_H-M   'P 1'
_cell_length_a   4.58894033
_cell_length_b   4.58894033
_cell_length_c   8.07557300
_cell_angle_alpha   90.00000000
_cell_angle_beta   90.00000000
_cell_angle_gamma   120.00000479
_symmetry_Int_Tables_number   1
_chemical_formula_structural   NdSbPt
_chemical_formula_sum   'Nd2 Sb2 Pt2'
_cell_volume   147.27491464
_cell_formula_units_Z   2
loop_
 _symmetry_equiv_pos_site_id
 _symmetry_equiv_pos_as_xyz
  1  'x, y, z'
loop_
 _atom_site_type_symbol
 _atom_site_label
 _atom_site_symmetry_multiplicity
 _atom_site_fract_x
 _atom_site_fract_y
 _atom_site_fract_z
 _atom_site_occupancy
  Nd  Nd0  1  0.00000000  0.00000000  0.49675000  1
  Nd  Nd1  1  0.00000000  0.00000000  0.99675000  1
  Sb  Sb2  1  0.66666700  0.33333300  0.23428300  1
  Sb  Sb3  1  0.33333300  0.66666700  0.73428300  1
  Pt  Pt4  1  0.33333300  0.66666700  0.29286700  1
  Pt  Pt5  1  0.66666700  0.33333300  0.79286700  1
