# generated using pymatgen
data_BaNd2BeO5
_symmetry_space_group_name_H-M   'P 1'
_cell_length_a   6.77191500
_cell_length_b   7.46121900
_cell_length_c   9.85398864
_cell_angle_alpha   89.17413558
_cell_angle_beta   90.00000000
_cell_angle_gamma   90.00000000
_symmetry_Int_Tables_number   1
_chemical_formula_structural   BaNd2BeO5
_chemical_formula_sum   'Ba4 Nd8 Be4 O20'
_cell_volume   497.83820930
_cell_formula_units_Z   4
loop_
 _symmetry_equiv_pos_site_id
 _symmetry_equiv_pos_as_xyz
  1  'x, y, z'
loop_
 _atom_site_type_symbol
 _atom_site_label
 _atom_site_symmetry_multiplicity
 _atom_site_fract_x
 _atom_site_fract_y
 _atom_site_fract_z
 _atom_site_occupancy
  Ba  Ba0  1  0.58198000  0.02033200  0.67320700  1
  Ba  Ba1  1  0.08198000  0.97966800  0.82679300  1
  Ba  Ba2  1  0.41802000  0.97966800  0.32679300  1
  Ba  Ba3  1  0.91802000  0.02033200  0.17320700  1
  Nd  Nd4  1  0.41718100  0.52055000  0.32358000  1
  Nd  Nd5  1  0.91718100  0.47945000  0.17642000  1
  Nd  Nd6  1  0.58281900  0.47945000  0.67642000  1
  Nd  Nd7  1  0.08281900  0.52055000  0.82358000  1
  Nd  Nd8  1  0.09066000  0.25702200  0.52052900  1
  Nd  Nd9  1  0.59066000  0.74297800  0.97947100  1
  Nd  Nd10  1  0.90934000  0.74297800  0.47947100  1
  Nd  Nd11  1  0.40934000  0.25702200  0.02052900  1
  Be  Be12  1  0.80713300  0.26153300  0.90342600  1
  Be  Be13  1  0.69286700  0.26153300  0.40342600  1
  Be  Be14  1  0.19286700  0.73846700  0.09657400  1
  Be  Be15  1  0.30713300  0.73846700  0.59657400  1
  O  O16  1  0.63072300  0.28009300  0.23175100  1
  O  O17  1  0.13072300  0.71990700  0.26824900  1
  O  O18  1  0.36927700  0.71990700  0.76824900  1
  O  O19  1  0.86927700  0.28009300  0.73175100  1
  O  O20  1  0.16500300  0.28514800  0.28475400  1
  O  O21  1  0.66500300  0.71485200  0.21524600  1
  O  O22  1  0.83499700  0.71485200  0.71524600  1
  O  O23  1  0.33499700  0.28514800  0.78475400  1
  O  O24  1  0.01771300  0.28091800  0.99035700  1
  O  O25  1  0.48228700  0.28091800  0.49035700  1
  O  O26  1  0.98228700  0.71908200  0.00964300  1
  O  O27  1  0.51771300  0.71908200  0.50964300  1
  O  O28  1  0.19228900  0.93102900  0.56159500  1
  O  O29  1  0.69228900  0.06897100  0.93840500  1
  O  O30  1  0.80771100  0.06897100  0.43840500  1
  O  O31  1  0.30771100  0.93102900  0.06159500  1
  O  O32  1  0.82137400  0.44123500  0.43413000  1
  O  O33  1  0.32137400  0.55876500  0.06587000  1
  O  O34  1  0.17862600  0.55876500  0.56587000  1
  O  O35  1  0.67862600  0.44123500  0.93413000  1
