# generated using pymatgen
data_CeSbSe
_symmetry_space_group_name_H-M   'P 1'
_cell_length_a   4.24557900
_cell_length_b   4.25827800
_cell_length_c   17.80254800
_cell_angle_alpha   90.00000000
_cell_angle_beta   90.00000000
_cell_angle_gamma   90.00000000
_symmetry_Int_Tables_number   1
_chemical_formula_structural   CeSbSe
_chemical_formula_sum   'Ce4 Sb4 Se4'
_cell_volume   321.84969555
_cell_formula_units_Z   4
loop_
 _symmetry_equiv_pos_site_id
 _symmetry_equiv_pos_as_xyz
  1  'x, y, z'
loop_
 _atom_site_type_symbol
 _atom_site_label
 _atom_site_symmetry_multiplicity
 _atom_site_fract_x
 _atom_site_fract_y
 _atom_site_fract_z
 _atom_site_occupancy
  Ce  Ce0  1  0.75000000  0.23806900  0.85291700  1
  Ce  Ce1  1  0.75000000  0.26193100  0.35291700  1
  Ce  Ce2  1  0.25000000  0.76193100  0.14708300  1
  Ce  Ce3  1  0.25000000  0.73806900  0.64708300  1
  Sb  Sb4  1  0.25000000  0.24829200  0.50014800  1
  Sb  Sb5  1  0.25000000  0.25170800  0.00014800  1
  Sb  Sb6  1  0.75000000  0.75170800  0.49985200  1
  Sb  Sb7  1  0.75000000  0.74829200  0.99985200  1
  Se  Se8  1  0.75000000  0.23598200  0.68323300  1
  Se  Se9  1  0.75000000  0.26401800  0.18323300  1
  Se  Se10  1  0.25000000  0.76401800  0.31676700  1
  Se  Se11  1  0.25000000  0.73598200  0.81676700  1
