# generated using pymatgen
data_Tm4Zr3O12
_symmetry_space_group_name_H-M   'P 1'
_cell_length_a   6.32505441
_cell_length_b   6.35941533
_cell_length_c   6.52326797
_cell_angle_alpha   99.84772479
_cell_angle_beta   98.78482921
_cell_angle_gamma   99.47491134
_symmetry_Int_Tables_number   1
_chemical_formula_structural   Tm4Zr3O12
_chemical_formula_sum   'Tm4 Zr3 O12'
_cell_volume   250.54101930
_cell_formula_units_Z   1
loop_
 _symmetry_equiv_pos_site_id
 _symmetry_equiv_pos_as_xyz
  1  'x, y, z'
loop_
 _atom_site_type_symbol
 _atom_site_label
 _atom_site_symmetry_multiplicity
 _atom_site_fract_x
 _atom_site_fract_y
 _atom_site_fract_z
 _atom_site_occupancy
  Tm  Tm0  1  0.38939900  0.69909700  0.86519400  1
  Tm  Tm1  1  0.69333600  0.86487100  0.38990900  1
  Tm  Tm2  1  0.61060100  0.30090300  0.13480600  1
  Tm  Tm3  1  0.30666400  0.13512900  0.61009100  1
  Zr  Zr4  1  0.00000000  0.00000000  0.00000000  1
  Zr  Zr5  1  0.84867600  0.39549900  0.67239300  1
  Zr  Zr6  1  0.15132400  0.60450100  0.32760700  1
  O  O7  1  0.03325300  0.67725600  0.88945200  1
  O  O8  1  0.68333000  0.92979900  0.06154400  1
  O  O9  1  0.91851400  0.08064500  0.68931800  1
  O  O10  1  0.96674700  0.32274400  0.11054800  1
  O  O11  1  0.31667000  0.07020100  0.93845600  1
  O  O12  1  0.08148600  0.91935500  0.31068200  1
  O  O13  1  0.58333900  0.18600800  0.43091400  1
  O  O14  1  0.17492400  0.42829200  0.57425600  1
  O  O15  1  0.41624600  0.58156900  0.17799100  1
  O  O16  1  0.41666100  0.81399200  0.56908600  1
  O  O17  1  0.82507600  0.57170800  0.42574400  1
  O  O18  1  0.58375400  0.41843100  0.82200900  1
