# generated using pymatgen
data_Th(Al10V)2
_symmetry_space_group_name_H-M   'P 1'
_cell_length_a   10.29654105
_cell_length_b   10.29654105
_cell_length_c   10.29654105
_cell_angle_alpha   60.00000000
_cell_angle_beta   60.00000000
_cell_angle_gamma   60.00000000
_symmetry_Int_Tables_number   1
_chemical_formula_structural   Th(Al10V)2
_chemical_formula_sum   'Th2 Al40 V4'
_cell_volume   771.89649360
_cell_formula_units_Z   2
loop_
 _symmetry_equiv_pos_site_id
 _symmetry_equiv_pos_as_xyz
  1  'x, y, z'
loop_
 _atom_site_type_symbol
 _atom_site_label
 _atom_site_symmetry_multiplicity
 _atom_site_fract_x
 _atom_site_fract_y
 _atom_site_fract_z
 _atom_site_occupancy
  Th  Th0  1  0.50000000  0.50000000  0.50000000  1
  Th  Th1  1  0.75000000  0.75000000  0.75000000  1
  Al  Al2  1  0.12500000  0.62500000  0.62500000  1
  Al  Al3  1  0.62500000  0.12500000  0.62500000  1
  Al  Al4  1  0.62500000  0.62500000  0.12500000  1
  Al  Al5  1  0.62500000  0.62500000  0.62500000  1
  Al  Al6  1  0.86404800  0.86404800  0.13595200  1
  Al  Al7  1  0.13595200  0.13595200  0.86404800  1
  Al  Al8  1  0.86404800  0.13595200  0.86404800  1
  Al  Al9  1  0.13595200  0.86404800  0.13595200  1
  Al  Al10  1  0.13595200  0.86404800  0.86404800  1
  Al  Al11  1  0.86404800  0.13595200  0.13595200  1
  Al  Al12  1  0.38595200  0.38595200  0.11404800  1
  Al  Al13  1  0.11404800  0.11404800  0.38595200  1
  Al  Al14  1  0.38595200  0.11404800  0.38595200  1
  Al  Al15  1  0.11404800  0.38595200  0.11404800  1
  Al  Al16  1  0.11404800  0.38595200  0.38595200  1
  Al  Al17  1  0.38595200  0.11404800  0.11404800  1
  Al  Al18  1  0.56905800  0.29887100  0.29887100  1
  Al  Al19  1  0.29887100  0.56905800  0.83320000  1
  Al  Al20  1  0.29887100  0.83320000  0.56905800  1
  Al  Al21  1  0.83320000  0.29887100  0.29887100  1
  Al  Al22  1  0.29887100  0.29887100  0.56905800  1
  Al  Al23  1  0.56905800  0.83320000  0.29887100  1
  Al  Al24  1  0.83320000  0.56905800  0.29887100  1
  Al  Al25  1  0.29887100  0.29887100  0.83320000  1
  Al  Al26  1  0.29887100  0.56905800  0.29887100  1
  Al  Al27  1  0.83320000  0.29887100  0.56905800  1
  Al  Al28  1  0.56905800  0.29887100  0.83320000  1
  Al  Al29  1  0.29887100  0.83320000  0.29887100  1
  Al  Al30  1  0.68094200  0.95112900  0.95112900  1
  Al  Al31  1  0.95112900  0.68094200  0.41680000  1
  Al  Al32  1  0.95112900  0.41680000  0.68094200  1
  Al  Al33  1  0.41680000  0.95112900  0.95112900  1
  Al  Al34  1  0.95112900  0.95112900  0.68094200  1
  Al  Al35  1  0.68094200  0.41680000  0.95112900  1
  Al  Al36  1  0.41680000  0.68094200  0.95112900  1
  Al  Al37  1  0.95112900  0.95112900  0.41680000  1
  Al  Al38  1  0.95112900  0.68094200  0.95112900  1
  Al  Al39  1  0.41680000  0.95112900  0.68094200  1
  Al  Al40  1  0.68094200  0.95112900  0.41680000  1
  Al  Al41  1  0.95112900  0.41680000  0.95112900  1
  V  V42  1  0.62500000  0.12500000  0.12500000  1
  V  V43  1  0.12500000  0.62500000  0.12500000  1
  V  V44  1  0.12500000  0.12500000  0.62500000  1
  V  V45  1  0.12500000  0.12500000  0.12500000  1
