# generated using pymatgen
data_K3Si6H6N11
_symmetry_space_group_name_H-M   'P 1'
_cell_length_a   10.90863800
_cell_length_b   10.90863800
_cell_length_c   10.90863800
_cell_angle_alpha   90.00000000
_cell_angle_beta   90.00000000
_cell_angle_gamma   90.00000000
_symmetry_Int_Tables_number   1
_chemical_formula_structural   K3Si6H6N11
_chemical_formula_sum   'K12 Si24 H24 N44'
_cell_volume   1298.11028290
_cell_formula_units_Z   4
loop_
 _symmetry_equiv_pos_site_id
 _symmetry_equiv_pos_as_xyz
  1  'x, y, z'
loop_
 _atom_site_type_symbol
 _atom_site_label
 _atom_site_symmetry_multiplicity
 _atom_site_fract_x
 _atom_site_fract_y
 _atom_site_fract_z
 _atom_site_occupancy
  K  K0  1  0.79217600  0.79217600  0.79217600  1
  K  K1  1  0.70782400  0.20782400  0.29217600  1
  K  K2  1  0.20782400  0.29217600  0.70782400  1
  K  K3  1  0.54217600  0.04217600  0.45782400  1
  K  K4  1  0.29217600  0.70782400  0.20782400  1
  K  K5  1  0.95782400  0.95782400  0.95782400  1
  K  K6  1  0.04217600  0.45782400  0.54217600  1
  K  K7  1  0.45782400  0.54217600  0.04217600  1
  K  K8  1  0.37500000  0.37500000  0.37500000  1
  K  K9  1  0.12500000  0.62500000  0.87500000  1
  K  K10  1  0.62500000  0.87500000  0.12500000  1
  K  K11  1  0.87500000  0.12500000  0.62500000  1
  Si  Si12  1  0.08902300  0.23604000  0.31506300  1
  Si  Si13  1  0.41097700  0.76396000  0.81506300  1
  Si  Si14  1  0.91097700  0.73604000  0.18493700  1
  Si  Si15  1  0.31506300  0.08902300  0.23604000  1
  Si  Si16  1  0.98604000  0.33902300  0.93493700  1
  Si  Si17  1  0.58902300  0.26396000  0.68493700  1
  Si  Si18  1  0.81506300  0.41097700  0.76396000  1
  Si  Si19  1  0.51396000  0.66097700  0.43493700  1
  Si  Si20  1  0.18493700  0.91097700  0.73604000  1
  Si  Si21  1  0.48604000  0.16097700  0.06506300  1
  Si  Si22  1  0.68493700  0.58902300  0.26396000  1
  Si  Si23  1  0.01396000  0.83902300  0.56506300  1
  Si  Si24  1  0.23604000  0.31506300  0.08902300  1
  Si  Si25  1  0.83902300  0.56506300  0.01396000  1
  Si  Si26  1  0.73604000  0.18493700  0.91097700  1
  Si  Si27  1  0.66097700  0.43493700  0.51396000  1
  Si  Si28  1  0.26396000  0.68493700  0.58902300  1
  Si  Si29  1  0.33902300  0.93493700  0.98604000  1
  Si  Si30  1  0.76396000  0.81506300  0.41097700  1
  Si  Si31  1  0.16097700  0.06506300  0.48604000  1
  Si  Si32  1  0.93493700  0.98604000  0.33902300  1
  Si  Si33  1  0.43493700  0.51396000  0.66097700  1
  Si  Si34  1  0.56506300  0.01396000  0.83902300  1
  Si  Si35  1  0.06506300  0.48604000  0.16097700  1
  H  H36  1  0.04637200  0.62890300  0.31398000  1
  H  H37  1  0.45362800  0.37109700  0.81398000  1
  H  H38  1  0.95362800  0.12890300  0.18602000  1
  H  H39  1  0.31398000  0.04637200  0.62890300  1
  H  H40  1  0.37890300  0.29637200  0.93602000  1
  H  H41  1  0.54637200  0.87109700  0.68602000  1
  H  H42  1  0.81398000  0.45362800  0.37109700  1
  H  H43  1  0.12109700  0.70362800  0.43602000  1
  H  H44  1  0.18602000  0.95362800  0.12890300  1
  H  H45  1  0.87890300  0.20362800  0.06398000  1
  H  H46  1  0.68602000  0.54637200  0.87109700  1
  H  H47  1  0.62109700  0.79637200  0.56398000  1
  H  H48  1  0.62890300  0.31398000  0.04637200  1
  H  H49  1  0.79637200  0.56398000  0.62109700  1
  H  H50  1  0.12890300  0.18602000  0.95362800  1
  H  H51  1  0.70362800  0.43602000  0.12109700  1
  H  H52  1  0.87109700  0.68602000  0.54637200  1
  H  H53  1  0.29637200  0.93602000  0.37890300  1
  H  H54  1  0.37109700  0.81398000  0.45362800  1
  H  H55  1  0.20362800  0.06398000  0.87890300  1
  H  H56  1  0.93602000  0.37890300  0.29637200  1
  H  H57  1  0.43602000  0.12109700  0.70362800  1
  H  H58  1  0.56398000  0.62109700  0.79637200  1
  H  H59  1  0.06398000  0.87890300  0.20362800  1
  N  N60  1  0.12500000  0.21530700  0.46530700  1
  N  N61  1  0.37500000  0.78469300  0.96530700  1
  N  N62  1  0.87500000  0.71530700  0.03469300  1
  N  N63  1  0.46530700  0.12500000  0.21530700  1
  N  N64  1  0.96530700  0.37500000  0.78469300  1
  N  N65  1  0.62500000  0.28469300  0.53469300  1
  N  N66  1  0.53469300  0.62500000  0.28469300  1
  N  N67  1  0.03469300  0.87500000  0.71530700  1
  N  N68  1  0.21530700  0.46530700  0.12500000  1
  N  N69  1  0.71530700  0.03469300  0.87500000  1
  N  N70  1  0.28469300  0.53469300  0.62500000  1
  N  N71  1  0.78469300  0.96530700  0.37500000  1
  N  N72  1  0.21782600  0.21782600  0.21782600  1
  N  N73  1  0.28217400  0.78217400  0.71782600  1
  N  N74  1  0.78217400  0.71782600  0.28217400  1
  N  N75  1  0.96782600  0.46782600  0.03217400  1
  N  N76  1  0.71782600  0.28217400  0.78217400  1
  N  N77  1  0.53217400  0.53217400  0.53217400  1
  N  N78  1  0.46782600  0.03217400  0.96782600  1
  N  N79  1  0.03217400  0.96782600  0.46782600  1
  N  N80  1  0.02861700  0.38153500  0.28048500  1
  N  N81  1  0.47138300  0.61846500  0.78048500  1
  N  N82  1  0.97138300  0.88153500  0.21951500  1
  N  N83  1  0.28048500  0.02861700  0.38153500  1
  N  N84  1  0.13153500  0.27861700  0.96951500  1
  N  N85  1  0.52861700  0.11846500  0.71951500  1
  N  N86  1  0.78048500  0.47138300  0.61846500  1
  N  N87  1  0.36846500  0.72138300  0.46951500  1
  N  N88  1  0.21951500  0.97138300  0.88153500  1
  N  N89  1  0.63153500  0.22138300  0.03048500  1
  N  N90  1  0.71951500  0.52861700  0.11846500  1
  N  N91  1  0.86846500  0.77861700  0.53048500  1
  N  N92  1  0.38153500  0.28048500  0.02861700  1
  N  N93  1  0.77861700  0.53048500  0.86846500  1
  N  N94  1  0.88153500  0.21951500  0.97138300  1
  N  N95  1  0.72138300  0.46951500  0.36846500  1
  N  N96  1  0.11846500  0.71951500  0.52861700  1
  N  N97  1  0.27861700  0.96951500  0.13153500  1
  N  N98  1  0.61846500  0.78048500  0.47138300  1
  N  N99  1  0.22138300  0.03048500  0.63153500  1
  N  N100  1  0.96951500  0.13153500  0.27861700  1
  N  N101  1  0.46951500  0.36846500  0.72138300  1
  N  N102  1  0.53048500  0.86846500  0.77861700  1
  N  N103  1  0.03048500  0.63153500  0.22138300  1
