# generated using pymatgen
data_Er5P12Ir19
_symmetry_space_group_name_H-M   'P 1'
_cell_length_a   12.71585298
_cell_length_b   12.71585298
_cell_length_c   3.96473500
_cell_angle_alpha   90.00000000
_cell_angle_beta   90.00000000
_cell_angle_gamma   120.00000512
_symmetry_Int_Tables_number   1
_chemical_formula_structural   Er5P12Ir19
_chemical_formula_sum   'Er5 P12 Ir19'
_cell_volume   555.18250265
_cell_formula_units_Z   1
loop_
 _symmetry_equiv_pos_site_id
 _symmetry_equiv_pos_as_xyz
  1  'x, y, z'
loop_
 _atom_site_type_symbol
 _atom_site_label
 _atom_site_symmetry_multiplicity
 _atom_site_fract_x
 _atom_site_fract_y
 _atom_site_fract_z
 _atom_site_occupancy
  Er  Er0  1  0.66666700  0.33333300  0.00000000  1
  Er  Er1  1  0.33333300  0.66666700  0.00000000  1
  Er  Er2  1  0.81515800  0.81515800  0.50000000  1
  Er  Er3  1  0.18484200  0.00000000  0.50000000  1
  Er  Er4  1  0.00000000  0.18484200  0.50000000  1
  P  P5  1  0.68825000  0.17103800  0.50000000  1
  P  P6  1  0.82896200  0.51721200  0.50000000  1
  P  P7  1  0.48278800  0.31175000  0.50000000  1
  P  P8  1  0.17103800  0.68825000  0.50000000  1
  P  P9  1  0.51721200  0.82896200  0.50000000  1
  P  P10  1  0.31175000  0.48278800  0.50000000  1
  P  P11  1  0.64161800  0.64161800  0.00000000  1
  P  P12  1  0.35838200  0.00000000  0.00000000  1
  P  P13  1  0.00000000  0.35838200  0.00000000  1
  P  P14  1  0.17740300  0.17740300  0.00000000  1
  P  P15  1  0.82259700  0.00000000  0.00000000  1
  P  P16  1  0.00000000  0.82259700  0.00000000  1
  Ir  Ir17  1  0.80669800  0.18119200  0.00000000  1
  Ir  Ir18  1  0.81880800  0.62550600  0.00000000  1
  Ir  Ir19  1  0.37449400  0.19330200  0.00000000  1
  Ir  Ir20  1  0.18119200  0.80669800  0.00000000  1
  Ir  Ir21  1  0.62550600  0.81880800  0.00000000  1
  Ir  Ir22  1  0.19330200  0.37449400  0.00000000  1
  Ir  Ir23  1  0.46138200  0.46138200  0.00000000  1
  Ir  Ir24  1  0.53861800  0.00000000  0.00000000  1
  Ir  Ir25  1  0.00000000  0.53861800  0.00000000  1
  Ir  Ir26  1  0.28359600  0.28359600  0.50000000  1
  Ir  Ir27  1  0.71640400  0.00000000  0.50000000  1
  Ir  Ir28  1  0.00000000  0.71640400  0.50000000  1
  Ir  Ir29  1  0.86676200  0.36081100  0.50000000  1
  Ir  Ir30  1  0.63918900  0.50595200  0.50000000  1
  Ir  Ir31  1  0.49404800  0.13323800  0.50000000  1
  Ir  Ir32  1  0.36081100  0.86676200  0.50000000  1
  Ir  Ir33  1  0.50595200  0.63918900  0.50000000  1
  Ir  Ir34  1  0.13323800  0.49404800  0.50000000  1
  Ir  Ir35  1  0.00000000  0.00000000  0.00000000  1
