# generated using pymatgen
data_Ho6Al43V4
_symmetry_space_group_name_H-M   'P 1'
_cell_length_a   10.99906774
_cell_length_b   10.99906774
_cell_length_c   17.56453400
_cell_angle_alpha   90.00000000
_cell_angle_beta   90.00000000
_cell_angle_gamma   119.99999841
_symmetry_Int_Tables_number   1
_chemical_formula_structural   Ho6Al43V4
_chemical_formula_sum   'Ho12 Al86 V8'
_cell_volume   1840.25931155
_cell_formula_units_Z   2
loop_
 _symmetry_equiv_pos_site_id
 _symmetry_equiv_pos_as_xyz
  1  'x, y, z'
loop_
 _atom_site_type_symbol
 _atom_site_label
 _atom_site_symmetry_multiplicity
 _atom_site_fract_x
 _atom_site_fract_y
 _atom_site_fract_z
 _atom_site_occupancy
  Ho  Ho0  1  0.53032100  0.00000000  0.59588300  1
  Ho  Ho1  1  0.46967900  0.00000000  0.40411700  1
  Ho  Ho2  1  0.00000000  0.53032100  0.59588300  1
  Ho  Ho3  1  0.46967900  0.00000000  0.09588300  1
  Ho  Ho4  1  0.00000000  0.53032100  0.90411700  1
  Ho  Ho5  1  0.00000000  0.46967900  0.40411700  1
  Ho  Ho6  1  0.53032100  0.00000000  0.90411700  1
  Ho  Ho7  1  0.00000000  0.46967900  0.09588300  1
  Ho  Ho8  1  0.46967900  0.46967900  0.59588300  1
  Ho  Ho9  1  0.53032100  0.53032100  0.40411700  1
  Ho  Ho10  1  0.53032100  0.53032100  0.09588300  1
  Ho  Ho11  1  0.46967900  0.46967900  0.90411700  1
  Al  Al12  1  0.14599700  0.59762100  0.75000000  1
  Al  Al13  1  0.85400300  0.40237900  0.25000000  1
  Al  Al14  1  0.40237900  0.54837600  0.75000000  1
  Al  Al15  1  0.59762100  0.14599700  0.75000000  1
  Al  Al16  1  0.59762100  0.45162400  0.25000000  1
  Al  Al17  1  0.40237900  0.85400300  0.25000000  1
  Al  Al18  1  0.45162400  0.85400300  0.75000000  1
  Al  Al19  1  0.54837600  0.40237900  0.75000000  1
  Al  Al20  1  0.54837600  0.14599700  0.25000000  1
  Al  Al21  1  0.45162400  0.59762100  0.25000000  1
  Al  Al22  1  0.85400300  0.45162400  0.75000000  1
  Al  Al23  1  0.14599700  0.54837600  0.25000000  1
  Al  Al24  1  0.15590300  0.00000000  0.11563500  1
  Al  Al25  1  0.84409700  0.00000000  0.88436500  1
  Al  Al26  1  0.00000000  0.15590300  0.11563500  1
  Al  Al27  1  0.84409700  0.00000000  0.61563500  1
  Al  Al28  1  0.00000000  0.15590300  0.38436500  1
  Al  Al29  1  0.00000000  0.84409700  0.88436500  1
  Al  Al30  1  0.15590300  0.00000000  0.38436500  1
  Al  Al31  1  0.00000000  0.84409700  0.61563500  1
  Al  Al32  1  0.84409700  0.84409700  0.11563500  1
  Al  Al33  1  0.15590300  0.15590300  0.88436500  1
  Al  Al34  1  0.15590300  0.15590300  0.61563500  1
  Al  Al35  1  0.84409700  0.84409700  0.38436500  1
  Al  Al36  1  0.24707600  0.49415300  0.50000000  1
  Al  Al37  1  0.75292400  0.50584700  0.50000000  1
  Al  Al38  1  0.50584700  0.75292400  0.50000000  1
  Al  Al39  1  0.75292400  0.50584700  0.00000000  1
  Al  Al40  1  0.49415300  0.24707600  0.00000000  1
  Al  Al41  1  0.49415300  0.24707600  0.50000000  1
  Al  Al42  1  0.24707600  0.49415300  0.00000000  1
  Al  Al43  1  0.50584700  0.75292400  0.00000000  1
  Al  Al44  1  0.24707600  0.75292400  0.50000000  1
  Al  Al45  1  0.75292400  0.24707600  0.50000000  1
  Al  Al46  1  0.75292400  0.24707600  0.00000000  1
  Al  Al47  1  0.24707600  0.75292400  0.00000000  1
  Al  Al48  1  0.14546200  0.00000000  0.75000000  1
  Al  Al49  1  0.85453800  0.00000000  0.25000000  1
  Al  Al50  1  0.00000000  0.14546200  0.75000000  1
  Al  Al51  1  0.00000000  0.85453800  0.25000000  1
  Al  Al52  1  0.85453800  0.85453800  0.75000000  1
  Al  Al53  1  0.14546200  0.14546200  0.25000000  1
  Al  Al54  1  0.33333300  0.66666700  0.62732500  1
  Al  Al55  1  0.66666700  0.33333300  0.37267500  1
  Al  Al56  1  0.66666700  0.33333300  0.12732500  1
  Al  Al57  1  0.66666700  0.33333300  0.87267500  1
  Al  Al58  1  0.33333300  0.66666700  0.87267500  1
  Al  Al59  1  0.33333300  0.66666700  0.12732500  1
  Al  Al60  1  0.33333300  0.66666700  0.37267500  1
  Al  Al61  1  0.66666700  0.33333300  0.62732500  1
  Al  Al62  1  0.25296200  0.00000000  0.52974100  1
  Al  Al63  1  0.74703800  0.00000000  0.47025900  1
  Al  Al64  1  0.00000000  0.25296200  0.52974100  1
  Al  Al65  1  0.74703800  0.00000000  0.02974100  1
  Al  Al66  1  0.00000000  0.25296200  0.97025900  1
  Al  Al67  1  0.00000000  0.74703800  0.47025900  1
  Al  Al68  1  0.25296200  0.00000000  0.97025900  1
  Al  Al69  1  0.00000000  0.74703800  0.02974100  1
  Al  Al70  1  0.74703800  0.74703800  0.52974100  1
  Al  Al71  1  0.25296200  0.25296200  0.47025900  1
  Al  Al72  1  0.25296200  0.25296200  0.02974100  1
  Al  Al73  1  0.74703800  0.74703800  0.97025900  1
  Al  Al74  1  0.15714200  0.39167800  0.66556100  1
  Al  Al75  1  0.84285800  0.60832200  0.33443900  1
  Al  Al76  1  0.60832200  0.76546400  0.66556100  1
  Al  Al77  1  0.84285800  0.60832200  0.16556100  1
  Al  Al78  1  0.39167800  0.15714200  0.83443900  1
  Al  Al79  1  0.39167800  0.23453600  0.33443900  1
  Al  Al80  1  0.15714200  0.39167800  0.83443900  1
  Al  Al81  1  0.60832200  0.84285800  0.16556100  1
  Al  Al82  1  0.23453600  0.84285800  0.66556100  1
  Al  Al83  1  0.39167800  0.23453600  0.16556100  1
  Al  Al84  1  0.76546400  0.60832200  0.83443900  1
  Al  Al85  1  0.76546400  0.15714200  0.33443900  1
  Al  Al86  1  0.60832200  0.76546400  0.83443900  1
  Al  Al87  1  0.23453600  0.39167800  0.16556100  1
  Al  Al88  1  0.60832200  0.84285800  0.33443900  1
  Al  Al89  1  0.39167800  0.15714200  0.66556100  1
  Al  Al90  1  0.76546400  0.15714200  0.16556100  1
  Al  Al91  1  0.23453600  0.39167800  0.33443900  1
  Al  Al92  1  0.23453600  0.84285800  0.83443900  1
  Al  Al93  1  0.76546400  0.60832200  0.66556100  1
  Al  Al94  1  0.84285800  0.23453600  0.83443900  1
  Al  Al95  1  0.15714200  0.76546400  0.16556100  1
  Al  Al96  1  0.15714200  0.76546400  0.33443900  1
  Al  Al97  1  0.84285800  0.23453600  0.66556100  1
  V  V98  1  0.00000000  0.00000000  0.50000000  1
  V  V99  1  0.00000000  0.00000000  0.00000000  1
  V  V100  1  0.73018100  0.00000000  0.75000000  1
  V  V101  1  0.26981900  0.00000000  0.25000000  1
  V  V102  1  0.00000000  0.73018100  0.75000000  1
  V  V103  1  0.00000000  0.26981900  0.25000000  1
  V  V104  1  0.26981900  0.26981900  0.75000000  1
  V  V105  1  0.73018100  0.73018100  0.25000000  1
