# generated using pymatgen
data_Tb7RhI12
_symmetry_space_group_name_H-M   'P 1'
_cell_length_a   9.81494025
_cell_length_b   9.81494025
_cell_length_c   9.81494013
_cell_angle_alpha   106.92113184
_cell_angle_beta   106.92113184
_cell_angle_gamma   106.92113074
_symmetry_Int_Tables_number   1
_chemical_formula_structural   Tb7RhI12
_chemical_formula_sum   'Tb7 Rh1 I12'
_cell_volume   789.11203387
_cell_formula_units_Z   1
loop_
 _symmetry_equiv_pos_site_id
 _symmetry_equiv_pos_as_xyz
  1  'x, y, z'
loop_
 _atom_site_type_symbol
 _atom_site_label
 _atom_site_symmetry_multiplicity
 _atom_site_fract_x
 _atom_site_fract_y
 _atom_site_fract_z
 _atom_site_occupancy
  Tb  Tb0  1  0.50000000  0.50000000  0.50000000  1
  Tb  Tb1  1  0.90541200  0.97616800  0.70380500  1
  Tb  Tb2  1  0.97616800  0.70380500  0.90541200  1
  Tb  Tb3  1  0.70380500  0.90541200  0.97616800  1
  Tb  Tb4  1  0.09458800  0.02383200  0.29619500  1
  Tb  Tb5  1  0.02383200  0.29619500  0.09458800  1
  Tb  Tb6  1  0.29619500  0.09458800  0.02383200  1
  Rh  Rh7  1  0.00000000  0.00000000  0.00000000  1
  I  I8  1  0.53415300  0.83703900  0.61164300  1
  I  I9  1  0.83703900  0.61164300  0.53415300  1
  I  I10  1  0.61164300  0.53415300  0.83703900  1
  I  I11  1  0.46584700  0.16296100  0.38835700  1
  I  I12  1  0.16296100  0.38835700  0.46584700  1
  I  I13  1  0.38835700  0.46584700  0.16296100  1
  I  I14  1  0.67722500  0.22426100  0.07079600  1
  I  I15  1  0.22426100  0.07079600  0.67722500  1
  I  I16  1  0.07079600  0.67722500  0.22426100  1
  I  I17  1  0.32277500  0.77573900  0.92920400  1
  I  I18  1  0.77573900  0.92920400  0.32277500  1
  I  I19  1  0.92920400  0.32277500  0.77573900  1
