# generated using pymatgen
data_Y2TeO6
_symmetry_space_group_name_H-M   'P 1'
_cell_length_a   5.31934200
_cell_length_b   9.17268600
_cell_length_c   10.05800800
_cell_angle_alpha   90.00000000
_cell_angle_beta   90.00000000
_cell_angle_gamma   90.00000000
_symmetry_Int_Tables_number   1
_chemical_formula_structural   Y2TeO6
_chemical_formula_sum   'Y8 Te4 O24'
_cell_volume   490.75690319
_cell_formula_units_Z   4
loop_
 _symmetry_equiv_pos_site_id
 _symmetry_equiv_pos_as_xyz
  1  'x, y, z'
loop_
 _atom_site_type_symbol
 _atom_site_label
 _atom_site_symmetry_multiplicity
 _atom_site_fract_x
 _atom_site_fract_y
 _atom_site_fract_z
 _atom_site_occupancy
  Y  Y0  1  0.96158800  0.78308500  0.86453900  1
  Y  Y1  1  0.46158800  0.71691500  0.13546100  1
  Y  Y2  1  0.03841200  0.28308500  0.63546100  1
  Y  Y3  1  0.53841200  0.21691500  0.36453900  1
  Y  Y4  1  0.51875100  0.10346200  0.96159000  1
  Y  Y5  1  0.01875100  0.39653800  0.03841000  1
  Y  Y6  1  0.48124900  0.60346200  0.53841000  1
  Y  Y7  1  0.98124900  0.89653800  0.46159000  1
  Te  Te8  1  0.46224200  0.99506100  0.64782100  1
  Te  Te9  1  0.96224100  0.50493900  0.35217900  1
  Te  Te10  1  0.53775900  0.49506100  0.85217900  1
  Te  Te11  1  0.03775800  0.00493900  0.14782100  1
  O  O12  1  0.75770900  0.41466400  0.49493900  1
  O  O13  1  0.25770900  0.08533600  0.50506100  1
  O  O14  1  0.24229100  0.91466400  0.00506100  1
  O  O15  1  0.74229100  0.58533600  0.99493900  1
  O  O16  1  0.73325300  0.11443500  0.56864400  1
  O  O17  1  0.23325300  0.38556500  0.43135600  1
  O  O18  1  0.26674700  0.61443500  0.93135600  1
  O  O19  1  0.76674700  0.88556500  0.06864400  1
  O  O20  1  0.81819100  0.35967700  0.82205700  1
  O  O21  1  0.31819100  0.14032300  0.17794300  1
  O  O22  1  0.18180900  0.85967700  0.67794300  1
  O  O23  1  0.68180900  0.64032300  0.32205700  1
  O  O24  1  0.66874000  0.94945600  0.79911400  1
  O  O25  1  0.16874000  0.55054400  0.20088600  1
  O  O26  1  0.33126000  0.44945600  0.70088600  1
  O  O27  1  0.83126000  0.05054400  0.29911400  1
  O  O28  1  0.68718700  0.64081100  0.73884900  1
  O  O29  1  0.18718700  0.85918900  0.26115100  1
  O  O30  1  0.31281300  0.14081100  0.76115100  1
  O  O31  1  0.81281300  0.35918900  0.23884900  1
  O  O32  1  0.58882600  0.84457800  0.52949500  1
  O  O33  1  0.08882600  0.65542200  0.47050500  1
  O  O34  1  0.41117400  0.34457800  0.97050500  1
  O  O35  1  0.91117400  0.15542200  0.02949500  1
