# generated using pymatgen
data_NO3
_symmetry_space_group_name_H-M   'P 1'
_cell_length_a   9.31315800
_cell_length_b   6.66125700
_cell_length_c   16.91628114
_cell_angle_alpha   89.91380031
_cell_angle_beta   90.00000000
_cell_angle_gamma   90.00000000
_symmetry_Int_Tables_number   1
_chemical_formula_structural   NO3
_chemical_formula_sum   'N16 O48'
_cell_volume   1049.43987895
_cell_formula_units_Z   16
loop_
 _symmetry_equiv_pos_site_id
 _symmetry_equiv_pos_as_xyz
  1  'x, y, z'
loop_
 _atom_site_type_symbol
 _atom_site_label
 _atom_site_symmetry_multiplicity
 _atom_site_fract_x
 _atom_site_fract_y
 _atom_site_fract_z
 _atom_site_occupancy
  N  N0  1  0.24678800  0.01982700  0.49182400  1
  N  N1  1  0.74678800  0.98017300  0.00817600  1
  N  N2  1  0.75321200  0.98017300  0.50817600  1
  N  N3  1  0.25321200  0.01982700  0.99182400  1
  N  N4  1  0.41247000  0.47442700  0.36640100  1
  N  N5  1  0.91247000  0.52557300  0.13359900  1
  N  N6  1  0.58753000  0.52557300  0.63359900  1
  N  N7  1  0.08753000  0.47442700  0.86640100  1
  N  N8  1  0.08063100  0.96611600  0.25644800  1
  N  N9  1  0.58063100  0.03388400  0.24355200  1
  N  N10  1  0.91936900  0.03388400  0.74355200  1
  N  N11  1  0.41936900  0.96611600  0.75644800  1
  N  N12  1  0.42043900  0.47500500  0.11349600  1
  N  N13  1  0.92043900  0.52499500  0.38650400  1
  N  N14  1  0.57956100  0.52499500  0.88650400  1
  N  N15  1  0.07956100  0.47500500  0.61349600  1
  O  O16  1  0.24326300  0.90506600  0.55026600  1
  O  O17  1  0.74326300  0.09493400  0.94973400  1
  O  O18  1  0.75673700  0.09493400  0.44973400  1
  O  O19  1  0.25673700  0.90506600  0.05026600  1
  O  O20  1  0.36440400  0.08143800  0.46575100  1
  O  O21  1  0.86440400  0.91856200  0.03424900  1
  O  O22  1  0.63559600  0.91856200  0.53424900  1
  O  O23  1  0.13559600  0.08143800  0.96575100  1
  O  O24  1  0.13241100  0.07358100  0.45928400  1
  O  O25  1  0.63241100  0.92641900  0.04071600  1
  O  O26  1  0.86758900  0.92641900  0.54071600  1
  O  O27  1  0.36758900  0.07358100  0.95928400  1
  O  O28  1  0.40453700  0.58970800  0.42439300  1
  O  O29  1  0.90453700  0.41029200  0.07560700  1
  O  O30  1  0.59546300  0.41029200  0.57560700  1
  O  O31  1  0.09546300  0.58970800  0.92439300  1
  O  O32  1  0.53143400  0.41273900  0.34245300  1
  O  O33  1  0.03143400  0.58726100  0.15754700  1
  O  O34  1  0.46856600  0.58726100  0.65754700  1
  O  O35  1  0.96856600  0.41273900  0.84245300  1
  O  O36  1  0.30019800  0.41985700  0.33189400  1
  O  O37  1  0.80019800  0.58014300  0.16810600  1
  O  O38  1  0.69980200  0.58014300  0.66810600  1
  O  O39  1  0.19980200  0.41985700  0.83189400  1
  O  O40  1  0.07764900  0.08117900  0.19813000  1
  O  O41  1  0.57764900  0.91882100  0.30187000  1
  O  O42  1  0.92235100  0.91882100  0.80187000  1
  O  O43  1  0.42235100  0.08117900  0.69813000  1
  O  O44  1  0.19717100  0.89668800  0.28096800  1
  O  O45  1  0.69717100  0.10331200  0.21903200  1
  O  O46  1  0.80282900  0.10331200  0.71903200  1
  O  O47  1  0.30282900  0.89668800  0.78096800  1
  O  O48  1  0.96647300  0.91913400  0.29078300  1
  O  O49  1  0.46647300  0.08086600  0.20921700  1
  O  O50  1  0.03352700  0.08086600  0.70921700  1
  O  O51  1  0.53352700  0.91913400  0.79078300  1
  O  O52  1  0.42231700  0.59020900  0.17168000  1
  O  O53  1  0.92231700  0.40979100  0.32832000  1
  O  O54  1  0.57768300  0.40979100  0.82832000  1
  O  O55  1  0.07768300  0.59020900  0.67168000  1
  O  O56  1  0.53538400  0.41648000  0.08310400  1
  O  O57  1  0.03538400  0.58352000  0.41689600  1
  O  O58  1  0.46461600  0.58352000  0.91689600  1
  O  O59  1  0.96461600  0.41648000  0.58310400  1
  O  O60  1  0.30323400  0.41768500  0.08544000  1
  O  O61  1  0.80323400  0.58231500  0.41456000  1
  O  O62  1  0.69676600  0.58231500  0.91456000  1
  O  O63  1  0.19676600  0.41768500  0.58544000  1
