# generated using pymatgen
data_La6Ti3Se9O5
_symmetry_space_group_name_H-M   'P 1'
_cell_length_a   3.97296868
_cell_length_b   11.19100175
_cell_length_c   22.27475849
_cell_angle_alpha   96.68562816
_cell_angle_beta   95.11648757
_cell_angle_gamma   90.00000207
_symmetry_Int_Tables_number   1
_chemical_formula_structural   La6Ti3Se9O5
_chemical_formula_sum   'La12 Ti6 Se18 O10'
_cell_volume   979.66122835
_cell_formula_units_Z   2
loop_
 _symmetry_equiv_pos_site_id
 _symmetry_equiv_pos_as_xyz
  1  'x, y, z'
loop_
 _atom_site_type_symbol
 _atom_site_label
 _atom_site_symmetry_multiplicity
 _atom_site_fract_x
 _atom_site_fract_y
 _atom_site_fract_z
 _atom_site_occupancy
  La  La0  1  0.36261086  0.34937498  0.72522171  1
  La  La1  1  0.46279619  0.25416123  0.92559238  1
  La  La2  1  0.53720381  0.74583877  0.07440762  1
  La  La3  1  0.88774989  0.98597721  0.77549979  1
  La  La4  1  0.95921970  0.74685679  0.91843939  1
  La  La5  1  0.78954325  0.54156748  0.57908649  1
  La  La6  1  0.63738914  0.65062502  0.27477829  1
  La  La7  1  0.04078030  0.25314321  0.08156061  1
  La  La8  1  0.21045675  0.45843252  0.42091351  1
  La  La9  1  0.78853765  0.99253848  0.57707529  1
  La  La10  1  0.21146235  0.00746152  0.42292471  1
  La  La11  1  0.11225011  0.01402279  0.22450021  1
  Ti  Ti12  1  0.26956264  0.26011174  0.53912527  1
  Ti  Ti13  1  0.64167251  0.34392514  0.28334501  1
  Ti  Ti14  1  0.35832749  0.65607486  0.71665499  1
  Ti  Ti15  1  -0.00000000  0.50000000  0.00000000  1
  Ti  Ti16  1  0.73043736  0.73988826  0.46087473  1
  Ti  Ti17  1  0.50000000  -0.00000000  0.00000000  1
  Se  Se18  1  0.59062604  0.18545218  0.18125209  1
  Se  Se19  1  0.40937396  0.81454782  0.81874791  1
  Se  Se20  1  0.27224061  0.76407776  0.54448122  1
  Se  Se21  1  0.16327315  0.22437635  0.32654631  1
  Se  Se22  1  0.96014972  0.02936935  0.92029944  1
  Se  Se23  1  0.90721736  0.25279790  0.81443472  1
  Se  Se24  1  0.18995451  0.71791046  0.37990901  1
  Se  Se25  1  0.11261426  0.44917184  0.22522852  1
  Se  Se26  1  0.72775939  0.23592224  0.45551878  1
  Se  Se27  1  0.65608914  0.93864255  0.31217827  1
  Se  Se28  1  0.03985028  0.97063065  0.07970056  1
  Se  Se29  1  0.83672685  0.77562365  0.67345369  1
  Se  Se30  1  0.45942213  0.52601153  0.91884425  1
  Se  Se31  1  0.09278264  0.74720210  0.18556528  1
  Se  Se32  1  0.34391086  0.06135745  0.68782173  1
  Se  Se33  1  0.88738574  0.55082816  0.77477148  1
  Se  Se34  1  0.54057787  0.47398847  0.08115575  1
  Se  Se35  1  0.81004549  0.28208954  0.62009099  1
  O  O36  1  0.26548141  0.42964117  0.53096281  1
  O  O37  1  0.98878826  0.32914803  0.97757652  1
  O  O38  1  0.48711024  0.82795569  0.97422047  1
  O  O39  1  0.26755288  0.08271475  0.53510576  1
  O  O40  1  0.73244712  0.91728525  0.46489424  1
  O  O41  1  0.67201920  0.46795407  0.34403839  1
  O  O42  1  0.01121174  0.67085197  0.02242348  1
  O  O43  1  0.73451859  0.57035883  0.46903719  1
  O  O44  1  0.51288976  0.17204431  0.02577953  1
  O  O45  1  0.32798080  0.53204593  0.65596161  1
