# generated using pymatgen
data_Ca19Mg2(PO4)14
_symmetry_space_group_name_H-M   'P 1'
_cell_length_a   13.86226092
_cell_length_b   13.86226092
_cell_length_c   13.86226052
_cell_angle_alpha   44.24593352
_cell_angle_beta   44.24593352
_cell_angle_gamma   44.24593483
_symmetry_Int_Tables_number   1
_chemical_formula_structural   Ca19Mg2(PO4)14
_chemical_formula_sum   'Ca19 Mg2 P14 O56'
_cell_volume   1178.49375064
_cell_formula_units_Z   1
loop_
 _symmetry_equiv_pos_site_id
 _symmetry_equiv_pos_as_xyz
  1  'x, y, z'
loop_
 _atom_site_type_symbol
 _atom_site_label
 _atom_site_symmetry_multiplicity
 _atom_site_fract_x
 _atom_site_fract_y
 _atom_site_fract_z
 _atom_site_occupancy
  Ca  Ca0  1  0.01604900  0.04476700  0.45570400  1
  Ca  Ca1  1  0.04476700  0.45570400  0.01604900  1
  Ca  Ca2  1  0.45570400  0.01604900  0.04476700  1
  Ca  Ca3  1  0.53541200  0.93358000  0.55768700  1
  Ca  Ca4  1  0.93358000  0.55768700  0.53541200  1
  Ca  Ca5  1  0.55768700  0.53541200  0.93358000  1
  Ca  Ca6  1  0.05575000  0.65652700  0.08961600  1
  Ca  Ca7  1  0.65652700  0.08961600  0.05575000  1
  Ca  Ca8  1  0.08961600  0.05575000  0.65652700  1
  Ca  Ca9  1  0.56631200  0.59508800  0.14912300  1
  Ca  Ca10  1  0.59508800  0.14912300  0.56631200  1
  Ca  Ca11  1  0.14912300  0.56631200  0.59508800  1
  Ca  Ca12  1  0.93391200  0.34334100  0.92463900  1
  Ca  Ca13  1  0.34334100  0.92463900  0.93391200  1
  Ca  Ca14  1  0.92463900  0.93391200  0.34334100  1
  Ca  Ca15  1  0.43609200  0.42406000  0.83962700  1
  Ca  Ca16  1  0.42406000  0.83962700  0.43609200  1
  Ca  Ca17  1  0.83962700  0.43609200  0.42406000  1
  Ca  Ca18  1  0.31130300  0.31130300  0.31130300  1
  Mg  Mg19  1  0.49904400  0.49904400  0.49904400  1
  Mg  Mg20  1  0.99910500  0.99910500  0.99910500  1
  P  P21  1  0.23573800  0.23573800  0.23573800  1
  P  P22  1  0.73587400  0.73587400  0.73587400  1
  P  P23  1  0.19195600  0.67365800  0.22863400  1
  P  P24  1  0.67365800  0.22863400  0.19195600  1
  P  P25  1  0.22863400  0.19195600  0.67365800  1
  P  P26  1  0.68958900  0.72526600  0.17931700  1
  P  P27  1  0.72526600  0.17931700  0.68958900  1
  P  P28  1  0.17931700  0.68958900  0.72526600  1
  P  P29  1  0.27547000  0.81351200  0.31633900  1
  P  P30  1  0.81351200  0.31633900  0.27547000  1
  P  P31  1  0.31633900  0.27547000  0.81351200  1
  P  P32  1  0.77411400  0.81819300  0.31314900  1
  P  P33  1  0.81819300  0.31314900  0.77411400  1
  P  P34  1  0.31314900  0.77411400  0.81819300  1
  O  O35  1  0.10732100  0.66563900  0.38921000  1
  O  O36  1  0.66563900  0.38921000  0.10732100  1
  O  O37  1  0.38921000  0.10732100  0.66563900  1
  O  O38  1  0.60989300  0.88813100  0.16538100  1
  O  O39  1  0.88813100  0.16538100  0.60989300  1
  O  O40  1  0.16538100  0.60989300  0.88813100  1
  O  O41  1  0.32901900  0.86928400  0.14674200  1
  O  O42  1  0.86928400  0.14674200  0.32901900  1
  O  O43  1  0.14674200  0.32901900  0.86928400  1
  O  O44  1  0.82751300  0.64823500  0.37093500  1
  O  O45  1  0.64823500  0.37093500  0.82751300  1
  O  O46  1  0.37093500  0.82751300  0.64823500  1
  O  O47  1  0.36534800  0.63708900  0.38402400  1
  O  O48  1  0.63708900  0.38402400  0.36534800  1
  O  O49  1  0.38402400  0.36534800  0.63708900  1
  O  O50  1  0.86458900  0.88439700  0.13616700  1
  O  O51  1  0.88439700  0.13616700  0.86458900  1
  O  O52  1  0.13616700  0.86458900  0.88439700  1
  O  O53  1  0.12507800  0.84751800  0.12514000  1
  O  O54  1  0.84751800  0.12514000  0.12507800  1
  O  O55  1  0.12514000  0.12507800  0.84751800  1
  O  O56  1  0.62335100  0.62520400  0.35568200  1
  O  O57  1  0.62520400  0.35568200  0.62335100  1
  O  O58  1  0.35568200  0.62335100  0.62520400  1
  O  O59  1  0.19512500  0.19512500  0.19512500  1
  O  O60  1  0.69401000  0.69401000  0.69401000  1
  O  O61  1  0.36599200  0.61288300  0.15694300  1
  O  O62  1  0.61288300  0.15694300  0.36599200  1
  O  O63  1  0.15694300  0.36599200  0.61288300  1
  O  O64  1  0.86428900  0.65094000  0.12233300  1
  O  O65  1  0.65094000  0.12233300  0.86428900  1
  O  O66  1  0.12233300  0.86428900  0.65094000  1
  O  O67  1  0.39019800  0.25263400  0.11336700  1
  O  O68  1  0.25263400  0.11336700  0.39019800  1
  O  O69  1  0.11336700  0.39019800  0.25263400  1
  O  O70  1  0.89060200  0.60586700  0.74703000  1
  O  O71  1  0.60586700  0.74703000  0.89060200  1
  O  O72  1  0.74703000  0.89060200  0.60586700  1
  O  O73  1  0.30695300  0.89263700  0.32618900  1
  O  O74  1  0.89263700  0.32618900  0.30695300  1
  O  O75  1  0.32618900  0.30695300  0.89263700  1
  O  O76  1  0.80862400  0.82833900  0.38936400  1
  O  O77  1  0.82833900  0.38936400  0.80862400  1
  O  O78  1  0.38936400  0.80862400  0.82833900  1
  O  O79  1  0.15213400  0.57588200  0.25070600  1
  O  O80  1  0.57588200  0.25070600  0.15213400  1
  O  O81  1  0.25070600  0.15213400  0.57588200  1
  O  O82  1  0.64196700  0.74207700  0.09483500  1
  O  O83  1  0.74207700  0.09483500  0.64196700  1
  O  O84  1  0.09483500  0.64196700  0.74207700  1
  O  O85  1  0.10293500  0.85130800  0.41194200  1
  O  O86  1  0.85130800  0.41194200  0.10293500  1
  O  O87  1  0.41194200  0.10293500  0.85130800  1
  O  O88  1  0.60129200  0.91506900  0.35289900  1
  O  O89  1  0.91506900  0.35289900  0.60129200  1
  O  O90  1  0.35289900  0.60129200  0.91506900  1
