# generated using pymatgen
data_Lu(TiGa2)2
_symmetry_space_group_name_H-M   'P 1'
_cell_length_a   5.47021857
_cell_length_b   5.47021857
_cell_length_c   5.47021857
_cell_angle_alpha   104.39015183
_cell_angle_beta   104.39015183
_cell_angle_gamma   120.19557517
_symmetry_Int_Tables_number   1
_chemical_formula_structural   Lu(TiGa2)2
_chemical_formula_sum   'Lu1 Ti2 Ga4'
_cell_volume   122.64310551
_cell_formula_units_Z   1
loop_
 _symmetry_equiv_pos_site_id
 _symmetry_equiv_pos_as_xyz
  1  'x, y, z'
loop_
 _atom_site_type_symbol
 _atom_site_label
 _atom_site_symmetry_multiplicity
 _atom_site_fract_x
 _atom_site_fract_y
 _atom_site_fract_z
 _atom_site_occupancy
  Lu  Lu0  1  0.00000000  0.00000000  0.00000000  1
  Ti  Ti1  1  0.25000000  0.75000000  0.50000000  1
  Ti  Ti2  1  0.75000000  0.25000000  0.50000000  1
  Ga  Ga3  1  0.30175600  0.30175600  0.60351200  1
  Ga  Ga4  1  0.69824400  0.69824400  0.39648800  1
  Ga  Ga5  1  0.69824400  0.30175600  0.00000000  1
  Ga  Ga6  1  0.30175600  0.69824400  0.00000000  1
