# generated using pymatgen
data_PrIn2Ir
_symmetry_space_group_name_H-M   'P 1'
_cell_length_a   5.68360215
_cell_length_b   5.68360215
_cell_length_c   8.07204100
_cell_angle_alpha   90.00000000
_cell_angle_beta   90.00000000
_cell_angle_gamma   133.98476132
_symmetry_Int_Tables_number   1
_chemical_formula_structural   PrIn2Ir
_chemical_formula_sum   'Pr2 In4 Ir2'
_cell_volume   187.61877841
_cell_formula_units_Z   2
loop_
 _symmetry_equiv_pos_site_id
 _symmetry_equiv_pos_as_xyz
  1  'x, y, z'
loop_
 _atom_site_type_symbol
 _atom_site_label
 _atom_site_symmetry_multiplicity
 _atom_site_fract_x
 _atom_site_fract_y
 _atom_site_fract_z
 _atom_site_occupancy
  Pr  Pr0  1  0.57040200  0.42959800  0.25000000  1
  Pr  Pr1  1  0.42959800  0.57040200  0.75000000  1
  In  In2  1  0.85502300  0.14497700  0.05253900  1
  In  In3  1  0.14497700  0.85502300  0.94746100  1
  In  In4  1  0.14497700  0.85502300  0.55253900  1
  In  In5  1  0.85502300  0.14497700  0.44746100  1
  Ir  Ir6  1  0.27930000  0.72070000  0.25000000  1
  Ir  Ir7  1  0.72070000  0.27930000  0.75000000  1
