# generated using pymatgen
data_Li7Cu2N3
_symmetry_space_group_name_H-M   'P 1'
_cell_length_a   5.24022436
_cell_length_b   5.24022436
_cell_length_c   5.24022362
_cell_angle_alpha   75.21693155
_cell_angle_beta   75.21693155
_cell_angle_gamma   75.21693250
_symmetry_Int_Tables_number   1
_chemical_formula_structural   Li7Cu2N3
_chemical_formula_sum   'Li7 Cu2 N3'
_cell_volume   131.71858374
_cell_formula_units_Z   1
loop_
 _symmetry_equiv_pos_site_id
 _symmetry_equiv_pos_as_xyz
  1  'x, y, z'
loop_
 _atom_site_type_symbol
 _atom_site_label
 _atom_site_symmetry_multiplicity
 _atom_site_fract_x
 _atom_site_fract_y
 _atom_site_fract_z
 _atom_site_occupancy
  Li  Li0  1  0.50000000  0.83386600  0.16613400  1
  Li  Li1  1  0.16613400  0.50000000  0.83386600  1
  Li  Li2  1  0.83386600  0.16613400  0.50000000  1
  Li  Li3  1  0.50000000  0.16613400  0.83386600  1
  Li  Li4  1  0.16613400  0.83386600  0.50000000  1
  Li  Li5  1  0.83386600  0.50000000  0.16613400  1
  Li  Li6  1  0.00000000  0.00000000  0.00000000  1
  Cu  Cu7  1  0.66592300  0.66592300  0.66592300  1
  Cu  Cu8  1  0.33407700  0.33407700  0.33407700  1
  N  N9  1  0.16796700  0.16796700  0.16796700  1
  N  N10  1  0.83203300  0.83203300  0.83203300  1
  N  N11  1  0.50000000  0.50000000  0.50000000  1
