# generated using pymatgen
data_Ba3CaBi2O9
_symmetry_space_group_name_H-M   'P 1'
_cell_length_a   10.69435167
_cell_length_b   10.69435167
_cell_length_c   10.69435167
_cell_angle_alpha   146.47759983
_cell_angle_beta   131.95212519
_cell_angle_gamma   59.85570727
_symmetry_Int_Tables_number   1
_chemical_formula_structural   Ba3CaBi2O9
_chemical_formula_sum   'Ba6 Ca2 Bi4 O18'
_cell_volume   497.80608829
_cell_formula_units_Z   2
loop_
 _symmetry_equiv_pos_site_id
 _symmetry_equiv_pos_as_xyz
  1  'x, y, z'
loop_
 _atom_site_type_symbol
 _atom_site_label
 _atom_site_symmetry_multiplicity
 _atom_site_fract_x
 _atom_site_fract_y
 _atom_site_fract_z
 _atom_site_occupancy
  Ba  Ba0  1  0.75824000  0.50000000  0.25824000  1
  Ba  Ba1  1  0.41685800  0.16957800  0.24727900  1
  Ba  Ba2  1  0.07770100  0.83042200  0.24727900  1
  Ba  Ba3  1  0.24176000  0.50000000  0.74176000  1
  Ba  Ba4  1  0.92229900  0.16957800  0.75272100  1
  Ba  Ba5  1  0.58314200  0.83042200  0.75272100  1
  Ca  Ca6  1  0.16600200  0.66600200  0.50000000  1
  Ca  Ca7  1  0.83399800  0.33399800  0.50000000  1
  Bi  Bi8  1  0.00000000  0.00000000  0.00000000  1
  Bi  Bi9  1  0.66757800  0.66757800  0.00000000  1
  Bi  Bi10  1  0.33242200  0.33242200  0.00000000  1
  Bi  Bi11  1  0.50000000  0.00000000  0.50000000  1
  O  O12  1  0.74469100  0.00000000  0.74469100  1
  O  O13  1  0.42262700  0.66102100  0.76160600  1
  O  O14  1  0.10058500  0.33897900  0.76160600  1
  O  O15  1  0.58106800  0.83403200  0.25296400  1
  O  O16  1  0.25427800  0.49954800  0.24527100  1
  O  O17  1  0.92063900  0.16039500  0.23975600  1
  O  O18  1  0.41893200  0.67189600  0.25296400  1
  O  O19  1  0.07936100  0.31911700  0.23975600  1
  O  O20  1  0.74572200  0.99099300  0.24527100  1
  O  O21  1  0.25530900  0.00000000  0.25530900  1
  O  O22  1  0.89941500  0.66102100  0.23839400  1
  O  O23  1  0.57737300  0.33897900  0.23839400  1
  O  O24  1  0.41893200  0.16596800  0.74703600  1
  O  O25  1  0.07936100  0.83960500  0.76024400  1
  O  O26  1  0.74572200  0.50045200  0.75472900  1
  O  O27  1  0.58106800  0.32810400  0.74703600  1
  O  O28  1  0.25427800  0.00900700  0.75472900  1
  O  O29  1  0.92063900  0.68088300  0.76024400  1
