# generated using pymatgen
data_NdCu2
_symmetry_space_group_name_H-M   'P 1'
_cell_length_a   5.53661379
_cell_length_b   5.53661379
_cell_length_c   5.53661379
_cell_angle_alpha   133.69690447
_cell_angle_beta   100.71717381
_cell_angle_gamma   97.07656096
_symmetry_Int_Tables_number   1
_chemical_formula_structural   NdCu2
_chemical_formula_sum   'Nd2 Cu4'
_cell_volume   112.74854255
_cell_formula_units_Z   2
loop_
 _symmetry_equiv_pos_site_id
 _symmetry_equiv_pos_as_xyz
  1  'x, y, z'
loop_
 _atom_site_type_symbol
 _atom_site_label
 _atom_site_symmetry_multiplicity
 _atom_site_fract_x
 _atom_site_fract_y
 _atom_site_fract_z
 _atom_site_occupancy
  Nd  Nd0  1  0.20910400  0.45910400  0.75000000  1
  Nd  Nd1  1  0.79089600  0.54089600  0.25000000  1
  Cu  Cu2  1  0.38742400  0.83478200  0.55264200  1
  Cu  Cu3  1  0.61257600  0.16521800  0.44735800  1
  Cu  Cu4  1  0.21785900  0.16521800  0.05264200  1
  Cu  Cu5  1  0.78214100  0.83478200  0.94735800  1
