# generated using pymatgen
data_Na2Al2B2O7
_symmetry_space_group_name_H-M   'P 1'
_cell_length_a   4.86489178
_cell_length_b   4.86489178
_cell_length_c   15.57485080
_cell_angle_alpha   89.95648119
_cell_angle_beta   89.95648119
_cell_angle_gamma   119.67475956
_symmetry_Int_Tables_number   1
_chemical_formula_structural   Na2Al2B2O7
_chemical_formula_sum   'Na4 Al4 B4 O14'
_cell_volume   320.26864263
_cell_formula_units_Z   2
loop_
 _symmetry_equiv_pos_site_id
 _symmetry_equiv_pos_as_xyz
  1  'x, y, z'
loop_
 _atom_site_type_symbol
 _atom_site_label
 _atom_site_symmetry_multiplicity
 _atom_site_fract_x
 _atom_site_fract_y
 _atom_site_fract_z
 _atom_site_occupancy
  Na  Na0  1  0.99819700  0.99891600  0.50001100  1
  Na  Na1  1  0.99891600  0.99819700  0.00001100  1
  Na  Na2  1  0.00412100  0.00753900  0.25000300  1
  Na  Na3  1  0.00753900  0.00412100  0.75000300  1
  Al  Al4  1  0.32238700  0.66100300  0.86111400  1
  Al  Al5  1  0.66100300  0.32238700  0.36111400  1
  Al  Al6  1  0.66292600  0.32302500  0.13889200  1
  Al  Al7  1  0.32302500  0.66292600  0.63889200  1
  B  B8  1  0.33171100  0.66393100  0.39586500  1
  B  B9  1  0.66393100  0.33171100  0.89586500  1
  B  B10  1  0.66354500  0.33118300  0.60414100  1
  B  B11  1  0.33118300  0.66354500  0.10414100  1
  O  O12  1  0.64594400  0.29060000  0.25000500  1
  O  O13  1  0.29060000  0.64594400  0.75000500  1
  O  O14  1  0.39196200  0.35467700  0.60543200  1
  O  O15  1  0.64154000  0.03662200  0.60807300  1
  O  O16  1  0.95664800  0.60142100  0.59881400  1
  O  O17  1  0.03662200  0.64154000  0.10807300  1
  O  O18  1  0.35467700  0.39196200  0.10543200  1
  O  O19  1  0.60142100  0.95664800  0.09881400  1
  O  O20  1  0.60376200  0.64073500  0.39226100  1
  O  O21  1  0.35467600  0.95798100  0.40125000  1
  O  O22  1  0.03826400  0.39270600  0.39414000  1
  O  O23  1  0.95798100  0.35467600  0.90125000  1
  O  O24  1  0.64073500  0.60376200  0.89226100  1
  O  O25  1  0.39270600  0.03826400  0.89414000  1
