# generated using pymatgen
data_CsYbP2O7
_symmetry_space_group_name_H-M   'P 1'
_cell_length_a   11.15399100
_cell_length_b   7.97043100
_cell_length_c   9.05657373
_cell_angle_alpha   75.77571889
_cell_angle_beta   90.00000000
_cell_angle_gamma   90.00000000
_symmetry_Int_Tables_number   1
_chemical_formula_structural   CsYbP2O7
_chemical_formula_sum   'Cs4 Yb4 P8 O28'
_cell_volume   780.46376092
_cell_formula_units_Z   4
loop_
 _symmetry_equiv_pos_site_id
 _symmetry_equiv_pos_as_xyz
  1  'x, y, z'
loop_
 _atom_site_type_symbol
 _atom_site_label
 _atom_site_symmetry_multiplicity
 _atom_site_fract_x
 _atom_site_fract_y
 _atom_site_fract_z
 _atom_site_occupancy
  Cs  Cs0  1  0.68450300  0.80382800  0.55383500  1
  Cs  Cs1  1  0.18450300  0.19617200  0.94616500  1
  Cs  Cs2  1  0.31549700  0.19617200  0.44616500  1
  Cs  Cs3  1  0.81549700  0.80382800  0.05383500  1
  Yb  Yb4  1  0.09313300  0.76669000  0.75093800  1
  Yb  Yb5  1  0.59313300  0.23331000  0.74906200  1
  Yb  Yb6  1  0.90686700  0.23331000  0.24906200  1
  Yb  Yb7  1  0.40686700  0.76669000  0.25093800  1
  P  P8  1  0.13699400  0.57232800  0.17285500  1
  P  P9  1  0.63699400  0.42767200  0.32714500  1
  P  P10  1  0.86300600  0.42767200  0.82714500  1
  P  P11  1  0.36300600  0.57232800  0.67285500  1
  P  P12  1  0.40057400  0.85909400  0.82215400  1
  P  P13  1  0.90057400  0.14090600  0.67784600  1
  P  P14  1  0.59942600  0.14090600  0.17784600  1
  P  P15  1  0.09942600  0.85909400  0.32215400  1
  O  O16  1  0.07191900  0.66982200  0.29049800  1
  O  O17  1  0.57191900  0.33017800  0.20950200  1
  O  O18  1  0.92808100  0.33017800  0.70950200  1
  O  O19  1  0.42808100  0.66982200  0.79049800  1
  O  O20  1  0.99322700  0.01633800  0.76993600  1
  O  O21  1  0.49322700  0.98366200  0.73006400  1
  O  O22  1  0.00677300  0.98366200  0.23006400  1
  O  O23  1  0.50677300  0.01633800  0.26993600  1
  O  O24  1  0.22824500  0.56532500  0.70506800  1
  O  O25  1  0.72824500  0.43467500  0.79493200  1
  O  O26  1  0.77175500  0.43467500  0.29493200  1
  O  O27  1  0.27175500  0.56532500  0.20506800  1
  O  O28  1  0.08191800  0.83752300  0.49247500  1
  O  O29  1  0.58191800  0.16247700  0.00752500  1
  O  O30  1  0.91808200  0.16247700  0.50752500  1
  O  O31  1  0.41808200  0.83752300  0.99247500  1
  O  O32  1  0.22790400  0.91138900  0.27059700  1
  O  O33  1  0.72790400  0.08861100  0.22940300  1
  O  O34  1  0.77209600  0.08861100  0.72940300  1
  O  O35  1  0.27209600  0.91138900  0.77059700  1
  O  O36  1  0.39306300  0.67554400  0.51150300  1
  O  O37  1  0.89306300  0.32445600  0.98849700  1
  O  O38  1  0.60693700  0.32445600  0.48849700  1
  O  O39  1  0.10693700  0.67554400  0.01150300  1
  O  O40  1  0.58206200  0.60847500  0.28935800  1
  O  O41  1  0.08206200  0.39152500  0.21064200  1
  O  O42  1  0.41793800  0.39152500  0.71064200  1
  O  O43  1  0.91793800  0.60847500  0.78935800  1
