# generated using pymatgen
data_HfSi
_symmetry_space_group_name_H-M   'P 1'
_cell_length_a   3.78472800
_cell_length_b   5.25262900
_cell_length_c   6.91331500
_cell_angle_alpha   90.00000000
_cell_angle_beta   90.00000000
_cell_angle_gamma   90.00000000
_symmetry_Int_Tables_number   1
_chemical_formula_structural   HfSi
_chemical_formula_sum   'Hf4 Si4'
_cell_volume   137.43512631
_cell_formula_units_Z   4
loop_
 _symmetry_equiv_pos_site_id
 _symmetry_equiv_pos_as_xyz
  1  'x, y, z'
loop_
 _atom_site_type_symbol
 _atom_site_label
 _atom_site_symmetry_multiplicity
 _atom_site_fract_x
 _atom_site_fract_y
 _atom_site_fract_z
 _atom_site_occupancy
  Hf  Hf0  1  0.25000000  0.37447800  0.67512700  1
  Hf  Hf1  1  0.75000000  0.62552200  0.32487300  1
  Hf  Hf2  1  0.75000000  0.87447800  0.82487300  1
  Hf  Hf3  1  0.25000000  0.12552200  0.17512700  1
  Si  Si4  1  0.25000000  0.85980400  0.54394500  1
  Si  Si5  1  0.75000000  0.14019600  0.45605500  1
  Si  Si6  1  0.75000000  0.35980400  0.95605500  1
  Si  Si7  1  0.25000000  0.64019600  0.04394500  1
