# generated using pymatgen
data_SrLiAs
_symmetry_space_group_name_H-M   'P 1'
_cell_length_a   4.54196400
_cell_length_b   7.66281800
_cell_length_c   8.08299800
_cell_angle_alpha   90.00000000
_cell_angle_beta   90.00000000
_cell_angle_gamma   90.00000000
_symmetry_Int_Tables_number   1
_chemical_formula_structural   SrLiAs
_chemical_formula_sum   'Sr4 Li4 As4'
_cell_volume   281.32263056
_cell_formula_units_Z   4
loop_
 _symmetry_equiv_pos_site_id
 _symmetry_equiv_pos_as_xyz
  1  'x, y, z'
loop_
 _atom_site_type_symbol
 _atom_site_label
 _atom_site_symmetry_multiplicity
 _atom_site_fract_x
 _atom_site_fract_y
 _atom_site_fract_z
 _atom_site_occupancy
  Sr  Sr0  1  0.25000000  0.00750300  0.29465200  1
  Sr  Sr1  1  0.25000000  0.50750300  0.20534800  1
  Sr  Sr2  1  0.75000000  0.99249700  0.70534800  1
  Sr  Sr3  1  0.75000000  0.49249700  0.79465200  1
  Li  Li4  1  0.25000000  0.15748000  0.92713100  1
  Li  Li5  1  0.25000000  0.65748000  0.57286900  1
  Li  Li6  1  0.75000000  0.84252000  0.07286900  1
  Li  Li7  1  0.75000000  0.34252000  0.42713100  1
  As  As8  1  0.25000000  0.27582900  0.59400500  1
  As  As9  1  0.25000000  0.77582900  0.90599500  1
  As  As10  1  0.75000000  0.72417100  0.40599500  1
  As  As11  1  0.75000000  0.22417100  0.09400500  1
