# generated using pymatgen
data_K2AlSO4F3
_symmetry_space_group_name_H-M   'P 1'
_cell_length_a   6.96194000
_cell_length_b   8.47483800
_cell_length_c   11.12115000
_cell_angle_alpha   90.00000000
_cell_angle_beta   90.00000000
_cell_angle_gamma   90.00000000
_symmetry_Int_Tables_number   1
_chemical_formula_structural   K2AlSO4F3
_chemical_formula_sum   'K8 Al4 S4 O16 F12'
_cell_volume   656.16245947
_cell_formula_units_Z   4
loop_
 _symmetry_equiv_pos_site_id
 _symmetry_equiv_pos_as_xyz
  1  'x, y, z'
loop_
 _atom_site_type_symbol
 _atom_site_label
 _atom_site_symmetry_multiplicity
 _atom_site_fract_x
 _atom_site_fract_y
 _atom_site_fract_z
 _atom_site_occupancy
  K  K0  1  0.70013200  0.17576000  0.19653100  1
  K  K1  1  0.20013200  0.32424000  0.30346900  1
  K  K2  1  0.29986800  0.32424000  0.69653100  1
  K  K3  1  0.79986800  0.17576000  0.80346900  1
  K  K4  1  0.29986800  0.82424000  0.80346900  1
  K  K5  1  0.79986800  0.67576000  0.69653100  1
  K  K6  1  0.70013200  0.67576000  0.30346900  1
  K  K7  1  0.20013200  0.82424000  0.19653100  1
  Al  Al8  1  0.50000000  0.50000000  0.00000000  1
  Al  Al9  1  0.00000000  0.00000000  0.50000000  1
  Al  Al10  1  0.50000000  0.00000000  0.50000000  1
  Al  Al11  1  0.00000000  0.50000000  0.00000000  1
  S  S12  1  0.75000000  0.30804100  0.50000000  1
  S  S13  1  0.25000000  0.19195900  0.00000000  1
  S  S14  1  0.25000000  0.69195900  0.50000000  1
  S  S15  1  0.75000000  0.80804100  0.00000000  1
  O  O16  1  0.82768100  0.40192100  0.40095400  1
  O  O17  1  0.32768100  0.09807900  0.09904600  1
  O  O18  1  0.17231900  0.09807900  0.90095400  1
  O  O19  1  0.67231900  0.40192100  0.59904600  1
  O  O20  1  0.17231900  0.59807900  0.59904600  1
  O  O21  1  0.67231900  0.90192100  0.90095400  1
  O  O22  1  0.82768100  0.90192100  0.09904600  1
  O  O23  1  0.32768100  0.59807900  0.40095400  1
  O  O24  1  0.59418600  0.20241700  0.44801900  1
  O  O25  1  0.09418600  0.29758300  0.05198100  1
  O  O26  1  0.40581400  0.29758300  0.94801900  1
  O  O27  1  0.90581400  0.20241700  0.55198100  1
  O  O28  1  0.40581400  0.79758300  0.55198100  1
  O  O29  1  0.90581400  0.70241700  0.94801900  1
  O  O30  1  0.59418600  0.70241700  0.05198100  1
  O  O31  1  0.09418600  0.79758300  0.44801900  1
  F  F32  1  0.97839300  0.05224500  0.34521900  1
  F  F33  1  0.47839300  0.44775500  0.15478100  1
  F  F34  1  0.02160700  0.44775500  0.84521900  1
  F  F35  1  0.52160700  0.05224500  0.65478100  1
  F  F36  1  0.02160700  0.94775500  0.65478100  1
  F  F37  1  0.52160700  0.55224500  0.84521900  1
  F  F38  1  0.97839300  0.55224500  0.15478100  1
  F  F39  1  0.47839300  0.94775500  0.34521900  1
  F  F40  1  0.75000000  0.41628300  0.00000000  1
  F  F41  1  0.25000000  0.08371700  0.50000000  1
  F  F42  1  0.25000000  0.58371700  0.00000000  1
  F  F43  1  0.75000000  0.91628300  0.50000000  1
