# generated using pymatgen
data_Dy(ZnP)3
_symmetry_space_group_name_H-M   'P 1'
_cell_length_a   4.00711355
_cell_length_b   4.00711355
_cell_length_c   19.83927600
_cell_angle_alpha   90.00000000
_cell_angle_beta   90.00000000
_cell_angle_gamma   119.99999257
_symmetry_Int_Tables_number   1
_chemical_formula_structural   Dy(ZnP)3
_chemical_formula_sum   'Dy2 Zn6 P6'
_cell_volume   275.87972345
_cell_formula_units_Z   2
loop_
 _symmetry_equiv_pos_site_id
 _symmetry_equiv_pos_as_xyz
  1  'x, y, z'
loop_
 _atom_site_type_symbol
 _atom_site_label
 _atom_site_symmetry_multiplicity
 _atom_site_fract_x
 _atom_site_fract_y
 _atom_site_fract_z
 _atom_site_occupancy
  Dy  Dy0  1  0.00000000  0.00000000  0.00000000  1
  Dy  Dy1  1  0.00000000  0.00000000  0.50000000  1
  Zn  Zn2  1  0.33333300  0.66666700  0.75000000  1
  Zn  Zn3  1  0.66666700  0.33333300  0.25000000  1
  Zn  Zn4  1  0.33333300  0.66666700  0.12833900  1
  Zn  Zn5  1  0.66666700  0.33333300  0.87166100  1
  Zn  Zn6  1  0.66666700  0.33333300  0.62833900  1
  Zn  Zn7  1  0.33333300  0.66666700  0.37166100  1
  P  P8  1  0.33333300  0.66666700  0.58365600  1
  P  P9  1  0.66666700  0.33333300  0.41634400  1
  P  P10  1  0.66666700  0.33333300  0.08365600  1
  P  P11  1  0.33333300  0.66666700  0.91634400  1
  P  P12  1  0.33333300  0.66666700  0.25000000  1
  P  P13  1  0.66666700  0.33333300  0.75000000  1
