# generated using pymatgen
data_Pr4Si2Se3O7
_symmetry_space_group_name_H-M   'P 1'
_cell_length_a   11.35350914
_cell_length_b   11.35350914
_cell_length_c   11.35350914
_cell_angle_alpha   114.62457895
_cell_angle_beta   114.62457895
_cell_angle_gamma   99.59358771
_symmetry_Int_Tables_number   1
_chemical_formula_structural   Pr4Si2Se3O7
_chemical_formula_sum   'Pr16 Si8 Se12 O28'
_cell_volume   1102.12432355
_cell_formula_units_Z   4
loop_
 _symmetry_equiv_pos_site_id
 _symmetry_equiv_pos_as_xyz
  1  'x, y, z'
loop_
 _atom_site_type_symbol
 _atom_site_label
 _atom_site_symmetry_multiplicity
 _atom_site_fract_x
 _atom_site_fract_y
 _atom_site_fract_z
 _atom_site_occupancy
  Pr  Pr0  1  0.92237000  0.42237000  0.84474000  1
  Pr  Pr1  1  0.17237000  0.82763000  0.00000000  1
  Pr  Pr2  1  0.82763000  0.17237000  0.00000000  1
  Pr  Pr3  1  0.57763000  0.07763000  0.15526000  1
  Pr  Pr4  1  0.82763000  0.82763000  0.65526000  1
  Pr  Pr5  1  0.57763000  0.42237000  0.50000000  1
  Pr  Pr6  1  0.92237000  0.07763000  0.50000000  1
  Pr  Pr7  1  0.17237000  0.17237000  0.34474000  1
  Pr  Pr8  1  0.54077800  0.30101400  0.76023600  1
  Pr  Pr9  1  0.54077800  0.78054200  0.23976400  1
  Pr  Pr10  1  0.69898600  0.45922200  0.23976400  1
  Pr  Pr11  1  0.53054200  0.79077800  0.73976400  1
  Pr  Pr12  1  0.05101400  0.79077800  0.26023600  1
  Pr  Pr13  1  0.20922200  0.46945800  0.26023600  1
  Pr  Pr14  1  0.20922200  0.94898600  0.73976400  1
  Pr  Pr15  1  0.21945800  0.45922200  0.76023600  1
  Si  Si16  1  0.78110100  0.90490600  0.12380500  1
  Si  Si17  1  0.78110100  0.65729600  0.87619500  1
  Si  Si18  1  0.09509400  0.21889900  0.87619500  1
  Si  Si19  1  0.40729600  0.03110100  0.37619500  1
  Si  Si20  1  0.65490600  0.03110100  0.62380500  1
  Si  Si21  1  0.96889900  0.59270400  0.62380500  1
  Si  Si22  1  0.96889900  0.34509400  0.37619500  1
  Si  Si23  1  0.34270400  0.21889900  0.12380500  1
  Se  Se24  1  0.00000000  0.00000000  0.00000000  1
  Se  Se25  1  0.75000000  0.25000000  0.50000000  1
  Se  Se26  1  0.25000000  0.75000000  0.50000000  1
  Se  Se27  1  0.50000000  0.50000000  0.00000000  1
  Se  Se28  1  0.37500000  0.47865400  0.60365400  1
  Se  Se29  1  0.22865400  0.12500000  0.60365400  1
  Se  Se30  1  0.52134600  0.62500000  0.39634600  1
  Se  Se31  1  0.87500000  0.77134600  0.39634600  1
  Se  Se32  1  0.37500000  0.77134600  0.89634600  1
  Se  Se33  1  0.52134600  0.12500000  0.89634600  1
  Se  Se34  1  0.22865400  0.62500000  0.10365400  1
  Se  Se35  1  0.87500000  0.47865400  0.10365400  1
  O  O36  1  0.26460900  0.26460900  0.00000000  1
  O  O37  1  0.01460900  0.51460900  0.50000000  1
  O  O38  1  0.48539100  0.98539100  0.50000000  1
  O  O39  1  0.73539100  0.73539100  0.00000000  1
  O  O40  1  0.70536300  0.48032600  0.77496300  1
  O  O41  1  0.70536300  0.93040000  0.22503700  1
  O  O42  1  0.51967400  0.29463700  0.22503700  1
  O  O43  1  0.68040000  0.95536300  0.72503700  1
  O  O44  1  0.23032600  0.95536300  0.27496300  1
  O  O45  1  0.04463700  0.31960000  0.27496300  1
  O  O46  1  0.04463700  0.76967400  0.72503700  1
  O  O47  1  0.06960000  0.29463700  0.77496300  1
  O  O48  1  0.79892100  0.55713800  0.52292900  1
  O  O49  1  0.03420800  0.27599200  0.47707100  1
  O  O50  1  0.44286200  0.20107900  0.47707100  1
  O  O51  1  0.02599200  0.04892100  0.74178400  1
  O  O52  1  0.30713800  0.28420800  0.25821600  1
  O  O53  1  0.95107900  0.97400800  0.25821600  1
  O  O54  1  0.71579200  0.69286200  0.74178400  1
  O  O55  1  0.72400800  0.96579200  0.52292900  1
  O  O56  1  0.95107900  0.69286200  0.97707100  1
  O  O57  1  0.71579200  0.97400800  0.02292900  1
  O  O58  1  0.30713800  0.04892100  0.02292900  1
  O  O59  1  0.72400800  0.20107900  0.75821600  1
  O  O60  1  0.44286200  0.96579200  0.24178400  1
  O  O61  1  0.79892100  0.27599200  0.24178400  1
  O  O62  1  0.03420800  0.55713800  0.75821600  1
  O  O63  1  0.02599200  0.28420800  0.97707100  1
