# generated using pymatgen
data_Li2Mg(HN)2
_symmetry_space_group_name_H-M   'P 1'
_cell_length_a   5.13678100
_cell_length_b   5.23601100
_cell_length_c   9.76793800
_cell_angle_alpha   90.00000000
_cell_angle_beta   90.00000000
_cell_angle_gamma   90.00000000
_symmetry_Int_Tables_number   1
_chemical_formula_structural   Li2Mg(HN)2
_chemical_formula_sum   'Li8 Mg4 H8 N8'
_cell_volume   262.72082254
_cell_formula_units_Z   4
loop_
 _symmetry_equiv_pos_site_id
 _symmetry_equiv_pos_as_xyz
  1  'x, y, z'
loop_
 _atom_site_type_symbol
 _atom_site_label
 _atom_site_symmetry_multiplicity
 _atom_site_fract_x
 _atom_site_fract_y
 _atom_site_fract_z
 _atom_site_occupancy
  Li  Li0  1  0.00000000  0.25000000  0.74574600  1
  Li  Li1  1  0.50000000  0.75000000  0.75425400  1
  Li  Li2  1  0.00000000  0.75000000  0.25425400  1
  Li  Li3  1  0.50000000  0.25000000  0.24574600  1
  Li  Li4  1  0.50000000  0.25000000  0.48812400  1
  Li  Li5  1  0.00000000  0.75000000  0.01187600  1
  Li  Li6  1  0.50000000  0.75000000  0.51187600  1
  Li  Li7  1  0.00000000  0.25000000  0.98812400  1
  Mg  Mg8  1  0.50000000  0.25000000  0.76133400  1
  Mg  Mg9  1  0.00000000  0.75000000  0.73866600  1
  Mg  Mg10  1  0.50000000  0.75000000  0.23866600  1
  Mg  Mg11  1  0.00000000  0.25000000  0.26133400  1
  H  H12  1  0.83316200  0.44989400  0.55692200  1
  H  H13  1  0.66683800  0.94989400  0.94307800  1
  H  H14  1  0.83316200  0.94989400  0.44307800  1
  H  H15  1  0.66683800  0.44989400  0.05692200  1
  H  H16  1  0.33316200  0.05010600  0.05692200  1
  H  H17  1  0.16683800  0.55010600  0.44307800  1
  H  H18  1  0.33316200  0.55010600  0.94307800  1
  H  H19  1  0.16683800  0.05010600  0.55692200  1
  N  N20  1  0.72810500  0.50275300  0.64265300  1
  N  N21  1  0.77189500  0.00275300  0.85734700  1
  N  N22  1  0.72810500  0.00275300  0.35734700  1
  N  N23  1  0.77189500  0.50275300  0.14265300  1
  N  N24  1  0.22810500  0.99724700  0.14265300  1
  N  N25  1  0.27189500  0.49724700  0.35734700  1
  N  N26  1  0.22810500  0.49724700  0.85734700  1
  N  N27  1  0.27189500  0.99724700  0.64265300  1
