# generated using pymatgen
data_Rb2Cd3Se4
_symmetry_space_group_name_H-M   'P 1'
_cell_length_a   6.96074100
_cell_length_b   11.24334200
_cell_length_c   14.95715000
_cell_angle_alpha   90.00000000
_cell_angle_beta   90.00000000
_cell_angle_gamma   90.00000000
_symmetry_Int_Tables_number   1
_chemical_formula_structural   Rb2Cd3Se4
_chemical_formula_sum   'Rb8 Cd12 Se16'
_cell_volume   1170.57634820
_cell_formula_units_Z   4
loop_
 _symmetry_equiv_pos_site_id
 _symmetry_equiv_pos_as_xyz
  1  'x, y, z'
loop_
 _atom_site_type_symbol
 _atom_site_label
 _atom_site_symmetry_multiplicity
 _atom_site_fract_x
 _atom_site_fract_y
 _atom_site_fract_z
 _atom_site_occupancy
  Rb  Rb0  1  0.01994400  0.25000000  0.53776800  1
  Rb  Rb1  1  0.51994400  0.75000000  0.96223200  1
  Rb  Rb2  1  0.98005600  0.75000000  0.46223200  1
  Rb  Rb3  1  0.48005600  0.25000000  0.03776800  1
  Rb  Rb4  1  0.50000000  0.50000000  0.50000000  1
  Rb  Rb5  1  0.00000000  0.00000000  0.00000000  1
  Rb  Rb6  1  0.50000000  0.00000000  0.50000000  1
  Rb  Rb7  1  0.00000000  0.50000000  0.00000000  1
  Cd  Cd8  1  0.81484100  0.59536800  0.75499800  1
  Cd  Cd9  1  0.31484100  0.40463200  0.74500200  1
  Cd  Cd10  1  0.18515900  0.09536800  0.24500200  1
  Cd  Cd11  1  0.68515900  0.90463200  0.25499800  1
  Cd  Cd12  1  0.18515900  0.40463200  0.24500200  1
  Cd  Cd13  1  0.68515900  0.59536800  0.25499800  1
  Cd  Cd14  1  0.81484100  0.90463200  0.75499800  1
  Cd  Cd15  1  0.31484100  0.09536800  0.74500200  1
  Cd  Cd16  1  0.75327600  0.25000000  0.29315600  1
  Cd  Cd17  1  0.25327600  0.75000000  0.20684400  1
  Cd  Cd18  1  0.24672400  0.75000000  0.70684400  1
  Cd  Cd19  1  0.74672400  0.25000000  0.79315600  1
  Se  Se20  1  0.09738900  0.53842000  0.63910300  1
  Se  Se21  1  0.59738900  0.46158000  0.86089700  1
  Se  Se22  1  0.90261100  0.03842000  0.36089700  1
  Se  Se23  1  0.40261100  0.96158000  0.13910300  1
  Se  Se24  1  0.90261100  0.46158000  0.36089700  1
  Se  Se25  1  0.40261100  0.53842000  0.13910300  1
  Se  Se26  1  0.09738900  0.96158000  0.63910300  1
  Se  Se27  1  0.59738900  0.03842000  0.86089700  1
  Se  Se28  1  0.96210800  0.25000000  0.13992500  1
  Se  Se29  1  0.46210800  0.75000000  0.36007500  1
  Se  Se30  1  0.03789200  0.75000000  0.86007500  1
  Se  Se31  1  0.53789200  0.25000000  0.63992500  1
  Se  Se32  1  0.89135000  0.75000000  0.15328600  1
  Se  Se33  1  0.60865000  0.75000000  0.65328600  1
  Se  Se34  1  0.10865000  0.25000000  0.84671400  1
  Se  Se35  1  0.39135000  0.25000000  0.34671400  1
