# generated using pymatgen
data_Ce7Ti4(Se2O)6
_symmetry_space_group_name_H-M   'P 1'
_cell_length_a   3.84622091
_cell_length_b   11.12449999
_cell_length_c   14.20660221
_cell_angle_alpha   90.35452892
_cell_angle_beta   82.22013606
_cell_angle_gamma   90.00000000
_symmetry_Int_Tables_number   1
_chemical_formula_structural   Ce7Ti4(Se2O)6
_chemical_formula_sum   'Ce7 Ti4 Se12 O6'
_cell_volume   602.25510483
_cell_formula_units_Z   1
loop_
 _symmetry_equiv_pos_site_id
 _symmetry_equiv_pos_as_xyz
  1  'x, y, z'
loop_
 _atom_site_type_symbol
 _atom_site_label
 _atom_site_symmetry_multiplicity
 _atom_site_fract_x
 _atom_site_fract_y
 _atom_site_fract_z
 _atom_site_occupancy
  Ce  Ce0  1  0.19770649  0.42147015  0.60458703  1
  Ce  Ce1  1  0.79977486  0.57681321  0.40045028  1
  Ce  Ce2  1  0.56773809  0.77096796  0.86452382  1
  Ce  Ce3  1  0.43673695  0.23270118  0.12652610  1
  Ce  Ce4  1  0.05609559  0.26787411  0.88780882  1
  Ce  Ce5  1  0.94698429  0.73185652  0.10603142  1
  Ce  Ce6  1  0.32312057  0.95506269  0.35375886  1
  Ti  Ti7  1  0.50062004  0.50041396  0.99875992  1
  Ti  Ti8  1  0.20885949  0.73380974  0.58228103  1
  Ti  Ti9  1  0.78768826  0.26836903  0.42462348  1
  Ti  Ti10  1  0.00062625  0.00066493  0.99874750  1
  Se  Se11  1  0.36331877  0.70939966  0.27336246  1
  Se  Se12  1  0.63636709  0.29339870  0.72726583  1
  Se  Se13  1  0.13934105  0.86830191  0.72131791  1
  Se  Se14  1  0.86075520  0.12576859  0.27848959  1
  Se  Se15  1  0.43714776  0.95103748  0.12570448  1
  Se  Se16  1  0.56051081  0.04774245  0.87897839  1
  Se  Se17  1  0.33858562  0.38059276  0.32282875  1
  Se  Se18  1  0.66245176  0.61779552  0.67509647  1
  Se  Se19  1  0.06383214  0.54089285  0.87233573  1
  Se  Se20  1  0.93619479  0.46039539  0.12761042  1
  Se  Se21  1  0.75663033  0.84252021  0.48673933  1
  Se  Se22  1  0.24644440  0.15574302  0.50711121  1
  O  O23  1  0.48498778  0.67096935  0.03002443  1
  O  O24  1  0.51499464  0.32866559  0.97001072  1
  O  O25  1  0.02200400  0.83287168  0.95599199  1
  O  O26  1  0.97730162  0.16825503  0.04539676  1
  O  O27  1  0.25286956  0.59480665  0.49426088  1
  O  O28  1  0.74649181  0.40553971  0.50701638  1
