# generated using pymatgen
data_EuMg3SiN4
_symmetry_space_group_name_H-M   'P 1'
_cell_length_a   10.65987704
_cell_length_b   10.65987704
_cell_length_c   10.65987704
_cell_angle_alpha   113.97490305
_cell_angle_beta   113.97490305
_cell_angle_gamma   100.79683787
_symmetry_Int_Tables_number   1
_chemical_formula_structural   EuMg3SiN4
_chemical_formula_sum   'Eu8 Mg24 Si8 N32'
_cell_volume   916.78997745
_cell_formula_units_Z   8
loop_
 _symmetry_equiv_pos_site_id
 _symmetry_equiv_pos_as_xyz
  1  'x, y, z'
loop_
 _atom_site_type_symbol
 _atom_site_label
 _atom_site_symmetry_multiplicity
 _atom_site_fract_x
 _atom_site_fract_y
 _atom_site_fract_z
 _atom_site_occupancy
  Eu  Eu0  1  0.23098200  0.20064700  0.50773100  1
  Eu  Eu1  1  0.69291600  0.72325100  0.49226900  1
  Eu  Eu2  1  0.95064700  0.94291600  0.46966500  1
  Eu  Eu3  1  0.47325100  0.48098200  0.53033500  1
  Eu  Eu4  1  0.51901800  0.04935300  0.99226900  1
  Eu  Eu5  1  0.05708400  0.52674900  0.00773100  1
  Eu  Eu6  1  0.79935300  0.30708400  0.03033500  1
  Eu  Eu7  1  0.27674900  0.76901800  0.96966500  1
  Mg  Mg8  1  0.94249600  0.80482800  0.13849700  1
  Mg  Mg9  1  0.66633100  0.80399900  0.86150300  1
  Mg  Mg10  1  0.55482800  0.91633100  0.36233200  1
  Mg  Mg11  1  0.55399900  0.19249600  0.63766800  1
  Mg  Mg12  1  0.80750400  0.44517200  0.36150300  1
  Mg  Mg13  1  0.08366900  0.44600100  0.63849700  1
  Mg  Mg14  1  0.19517200  0.33366900  0.13766800  1
  Mg  Mg15  1  0.19600100  0.05750400  0.86233200  1
  Mg  Mg16  1  0.91508200  0.09519600  0.14047000  1
  Mg  Mg17  1  0.95472500  0.77461200  0.85953000  1
  Mg  Mg18  1  0.84519600  0.20472500  0.68011400  1
  Mg  Mg19  1  0.52461200  0.16508200  0.31988600  1
  Mg  Mg20  1  0.83491800  0.15480400  0.35953000  1
  Mg  Mg21  1  0.79527500  0.47538800  0.64047000  1
  Mg  Mg22  1  0.90480400  0.04527500  0.81988600  1
  Mg  Mg23  1  0.22538800  0.08491800  0.18011400  1
  Mg  Mg24  1  0.46398200  0.28187600  0.87301500  1
  Mg  Mg25  1  0.40886100  0.59096700  0.12698500  1
  Mg  Mg26  1  0.03187600  0.65886100  0.31789300  1
  Mg  Mg27  1  0.34096700  0.71398200  0.68210700  1
  Mg  Mg28  1  0.28601800  0.96812400  0.62698500  1
  Mg  Mg29  1  0.34113900  0.65903300  0.37301500  1
  Mg  Mg30  1  0.71812400  0.59113900  0.18210700  1
  Mg  Mg31  1  0.40903300  0.53601800  0.81789300  1
  Si  Si32  1  0.14143500  0.28296700  0.78475500  1
  Si  Si33  1  0.49821200  0.35668000  0.21524500  1
  Si  Si34  1  0.03296700  0.74821200  0.64153200  1
  Si  Si35  1  0.10668000  0.39143500  0.35846800  1
  Si  Si36  1  0.60856500  0.96703300  0.71524500  1
  Si  Si37  1  0.25178800  0.89332000  0.28475500  1
  Si  Si38  1  0.71703300  0.50178800  0.85846800  1
  Si  Si39  1  0.64332000  0.85856500  0.14153200  1
  N  N40  1  0.23024000  0.16061000  0.74011300  1
  N  N41  1  0.42049700  0.49012700  0.25988700  1
  N  N42  1  0.91061000  0.67049700  0.43037000  1
  N  N43  1  0.24012700  0.48024000  0.56963000  1
  N  N44  1  0.51976000  0.08939000  0.75988700  1
  N  N45  1  0.32950300  0.75987300  0.24011300  1
  N  N46  1  0.83939000  0.57950300  0.06963000  1
  N  N47  1  0.50987300  0.76976000  0.93037000  1
  N  N48  1  0.38746300  0.08353100  0.39058800  1
  N  N49  1  0.69294300  0.99687500  0.60941200  1
  N  N50  1  0.83353100  0.94294300  0.19606800  1
  N  N51  1  0.74687500  0.63746300  0.80393200  1
  N  N52  1  0.36253700  0.16646900  0.10941200  1
  N  N53  1  0.05705700  0.25312500  0.89058800  1
  N  N54  1  0.91646900  0.30705700  0.30393200  1
  N  N55  1  0.00312500  0.61253700  0.69606800  1
  N  N56  1  0.98522700  0.22767200  0.59247800  1
  N  N57  1  0.63519400  0.39274900  0.40752200  1
  N  N58  1  0.97767200  0.88519400  0.74244500  1
  N  N59  1  0.14274900  0.23522700  0.25755500  1
  N  N60  1  0.76477300  0.02232800  0.90752200  1
  N  N61  1  0.11480600  0.85725100  0.09247800  1
  N  N62  1  0.77232800  0.36480600  0.75755500  1
  N  N63  1  0.60725100  0.01477300  0.24244500  1
  N  N64  1  0.14880100  0.87863800  0.37855200  1
  N  N65  1  0.50008600  0.77024900  0.62144800  1
  N  N66  1  0.62863800  0.75008600  0.22983700  1
  N  N67  1  0.52024900  0.39880100  0.77016300  1
  N  N68  1  0.60119900  0.37136200  0.12144800  1
  N  N69  1  0.24991400  0.47975100  0.87855200  1
  N  N70  1  0.12136200  0.49991400  0.27016300  1
  N  N71  1  0.22975100  0.85119900  0.72983700  1
