# generated using pymatgen
data_BaSc2Si3O10
_symmetry_space_group_name_H-M   'P 1'
_cell_length_a   12.08429600
_cell_length_b   5.33832800
_cell_length_c   6.65947023
_cell_angle_alpha   73.07132781
_cell_angle_beta   90.00000000
_cell_angle_gamma   90.00000000
_symmetry_Int_Tables_number   1
_chemical_formula_structural   BaSc2Si3O10
_chemical_formula_sum   'Ba2 Sc4 Si6 O20'
_cell_volume   410.98647835
_cell_formula_units_Z   2
loop_
 _symmetry_equiv_pos_site_id
 _symmetry_equiv_pos_as_xyz
  1  'x, y, z'
loop_
 _atom_site_type_symbol
 _atom_site_label
 _atom_site_symmetry_multiplicity
 _atom_site_fract_x
 _atom_site_fract_y
 _atom_site_fract_z
 _atom_site_occupancy
  Ba  Ba0  1  0.25000000  0.23912300  0.02214600  1
  Ba  Ba1  1  0.75000000  0.76087700  0.97785400  1
  Sc  Sc2  1  0.10093300  0.84623400  0.67778100  1
  Sc  Sc3  1  0.60093300  0.15376600  0.32221900  1
  Sc  Sc4  1  0.89906700  0.15376600  0.32221900  1
  Sc  Sc5  1  0.39906700  0.84623400  0.67778100  1
  Si  Si6  1  0.25000000  0.42856400  0.48663700  1
  Si  Si7  1  0.75000000  0.57143600  0.51336300  1
  Si  Si8  1  0.05399100  0.69818500  0.21030100  1
  Si  Si9  1  0.55399100  0.30181500  0.78969900  1
  Si  Si10  1  0.94600900  0.30181500  0.78969900  1
  Si  Si11  1  0.44600900  0.69818500  0.21030100  1
  O  O12  1  0.25000000  0.65664300  0.60592900  1
  O  O13  1  0.75000000  0.34335700  0.39407100  1
  O  O14  1  0.25000000  0.12509500  0.63489600  1
  O  O15  1  0.75000000  0.87490500  0.36510400  1
  O  O16  1  0.14300400  0.46165200  0.32941600  1
  O  O17  1  0.64300400  0.53834800  0.67058400  1
  O  O18  1  0.85699600  0.53834800  0.67058400  1
  O  O19  1  0.35699600  0.46165200  0.32941600  1
  O  O20  1  0.94001800  0.54168000  0.20171900  1
  O  O21  1  0.44001800  0.45832000  0.79828100  1
  O  O22  1  0.05998200  0.45832000  0.79828100  1
  O  O23  1  0.55998200  0.54168000  0.20171900  1
  O  O24  1  0.11168900  0.84996200  0.98589200  1
  O  O25  1  0.61168900  0.15003800  0.01410800  1
  O  O26  1  0.88831100  0.15003800  0.01410800  1
  O  O27  1  0.38831100  0.84996200  0.98589200  1
  O  O28  1  0.04200900  0.90024000  0.35665100  1
  O  O29  1  0.54200900  0.09976000  0.64334900  1
  O  O30  1  0.95799100  0.09976000  0.64334900  1
  O  O31  1  0.45799100  0.90024000  0.35665100  1
