# generated using pymatgen
data_LiEuBi
_symmetry_space_group_name_H-M   'P 1'
_cell_length_a   4.92507300
_cell_length_b   8.07388200
_cell_length_c   8.62039000
_cell_angle_alpha   90.00000000
_cell_angle_beta   90.00000000
_cell_angle_gamma   90.00000000
_symmetry_Int_Tables_number   1
_chemical_formula_structural   LiEuBi
_chemical_formula_sum   'Li4 Eu4 Bi4'
_cell_volume   342.78513820
_cell_formula_units_Z   4
loop_
 _symmetry_equiv_pos_site_id
 _symmetry_equiv_pos_as_xyz
  1  'x, y, z'
loop_
 _atom_site_type_symbol
 _atom_site_label
 _atom_site_symmetry_multiplicity
 _atom_site_fract_x
 _atom_site_fract_y
 _atom_site_fract_z
 _atom_site_occupancy
  Li  Li0  1  0.25000000  0.16820000  0.92733600  1
  Li  Li1  1  0.25000000  0.66820000  0.57266400  1
  Li  Li2  1  0.75000000  0.83180000  0.07266400  1
  Li  Li3  1  0.75000000  0.33180000  0.42733600  1
  Eu  Eu4  1  0.25000000  0.00370500  0.28985900  1
  Eu  Eu5  1  0.25000000  0.50370500  0.21014100  1
  Eu  Eu6  1  0.75000000  0.99629500  0.71014100  1
  Eu  Eu7  1  0.75000000  0.49629500  0.78985900  1
  Bi  Bi8  1  0.25000000  0.27395000  0.59399700  1
  Bi  Bi9  1  0.25000000  0.77395000  0.90600300  1
  Bi  Bi10  1  0.75000000  0.72605000  0.40600300  1
  Bi  Bi11  1  0.75000000  0.22605000  0.09399700  1
