# generated using pymatgen
data_BaAlB4H3O10
_symmetry_space_group_name_H-M   'P 1'
_cell_length_a   7.23925087
_cell_length_b   7.23925087
_cell_length_c   19.48184540
_cell_angle_alpha   74.16981827
_cell_angle_beta   74.16981827
_cell_angle_gamma   59.75591149
_symmetry_Int_Tables_number   1
_chemical_formula_structural   BaAlB4H3O10
_chemical_formula_sum   'Ba4 Al4 B16 H12 O40'
_cell_volume   837.22696426
_cell_formula_units_Z   4
loop_
 _symmetry_equiv_pos_site_id
 _symmetry_equiv_pos_as_xyz
  1  'x, y, z'
loop_
 _atom_site_type_symbol
 _atom_site_label
 _atom_site_symmetry_multiplicity
 _atom_site_fract_x
 _atom_site_fract_y
 _atom_site_fract_z
 _atom_site_occupancy
  Ba  Ba0  1  0.97959500  0.61978000  0.60183600  1
  Ba  Ba1  1  0.38022000  0.02040500  0.89816400  1
  Ba  Ba2  1  0.02040500  0.38022000  0.39816400  1
  Ba  Ba3  1  0.61978000  0.97959500  0.10183600  1
  Al  Al4  1  0.33124000  0.96728200  0.55783400  1
  Al  Al5  1  0.03271800  0.66876000  0.94216600  1
  Al  Al6  1  0.66876000  0.03271800  0.44216600  1
  Al  Al7  1  0.96728200  0.33124000  0.05783400  1
  B  B8  1  0.58628800  0.10965600  0.60096800  1
  B  B9  1  0.89034400  0.41371200  0.89903200  1
  B  B10  1  0.41371200  0.89034400  0.39903200  1
  B  B11  1  0.10965600  0.58628800  0.10096800  1
  B  B12  1  0.86725200  0.23883900  0.56998700  1
  B  B13  1  0.76116100  0.13274800  0.93001300  1
  B  B14  1  0.13274800  0.76116100  0.43001300  1
  B  B15  1  0.23883900  0.86725200  0.06998700  1
  B  B16  1  0.48701800  0.50644400  0.57633600  1
  B  B17  1  0.49355600  0.51298200  0.92366400  1
  B  B18  1  0.51298200  0.49355600  0.42366400  1
  B  B19  1  0.50644400  0.48701800  0.07633600  1
  B  B20  1  0.38445500  0.94413000  0.70414400  1
  B  B21  1  0.05587000  0.61554500  0.79585600  1
  B  B22  1  0.61554500  0.05587000  0.29585600  1
  B  B23  1  0.94413000  0.38445500  0.20414400  1
  H  H24  1  0.23362300  0.83805100  0.79928300  1
  H  H25  1  0.16194900  0.76637700  0.70071700  1
  H  H26  1  0.76637700  0.16194900  0.20071700  1
  H  H27  1  0.83805100  0.23362300  0.29928300  1
  H  H28  1  0.96910400  0.22314800  0.71588100  1
  H  H29  1  0.77685200  0.03089600  0.78411900  1
  H  H30  1  0.03089600  0.77685200  0.28411900  1
  H  H31  1  0.22314800  0.96910400  0.21588100  1
  H  H32  1  0.92380600  0.39429900  0.76225400  1
  H  H33  1  0.60570100  0.07619400  0.73774600  1
  H  H34  1  0.07619400  0.60570100  0.23774600  1
  H  H35  1  0.39429900  0.92380600  0.26225400  1
  O  O36  1  0.42927000  0.34281300  0.59399400  1
  O  O37  1  0.65718700  0.57073000  0.90600600  1
  O  O38  1  0.57073000  0.65718700  0.40600600  1
  O  O39  1  0.34281300  0.42927000  0.09399400  1
  O  O40  1  0.33257600  0.71403800  0.56391000  1
  O  O41  1  0.28596200  0.66742400  0.93609000  1
  O  O42  1  0.66742400  0.28596200  0.43609000  1
  O  O43  1  0.71403800  0.33257600  0.06391000  1
  O  O44  1  0.70595000  0.45636300  0.56889600  1
  O  O45  1  0.54363700  0.29405000  0.93110400  1
  O  O46  1  0.29405000  0.54363700  0.43110400  1
  O  O47  1  0.45636300  0.70595000  0.06889600  1
  O  O48  1  0.07433200  0.20964200  0.54822000  1
  O  O49  1  0.79035800  0.92566800  0.95178000  1
  O  O50  1  0.92566800  0.79035800  0.45178000  1
  O  O51  1  0.20964200  0.07433200  0.04822000  1
  O  O52  1  0.81308300  0.07459800  0.58766900  1
  O  O53  1  0.92540200  0.18691700  0.91233100  1
  O  O54  1  0.18691700  0.92540200  0.41233100  1
  O  O55  1  0.07459800  0.81308300  0.08766900  1
  O  O56  1  0.55205600  0.99971400  0.67663200  1
  O  O57  1  0.00028600  0.44794400  0.82336800  1
  O  O58  1  0.44794400  0.00028600  0.32336800  1
  O  O59  1  0.99971400  0.55205600  0.17663200  1
  O  O60  1  0.56859100  0.00546800  0.54932000  1
  O  O61  1  0.99453200  0.43140900  0.95068000  1
  O  O62  1  0.43140900  0.99453200  0.45068000  1
  O  O63  1  0.00546800  0.56859100  0.04932000  1
  O  O64  1  0.27106400  0.93817000  0.66027600  1
  O  O65  1  0.06183000  0.72893600  0.83972400  1
  O  O66  1  0.72893600  0.06183000  0.33972400  1
  O  O67  1  0.93817000  0.27106400  0.16027600  1
  O  O68  1  0.33912800  0.89918300  0.77927600  1
  O  O69  1  0.10081700  0.66087200  0.72072400  1
  O  O70  1  0.66087200  0.10081700  0.22072400  1
  O  O71  1  0.89918300  0.33912800  0.27927600  1
  O  O72  1  0.88148400  0.37554900  0.72040300  1
  O  O73  1  0.62445100  0.11851600  0.77959700  1
  O  O74  1  0.11851600  0.62445100  0.27959700  1
  O  O75  1  0.37554900  0.88148400  0.22040300  1
