# generated using pymatgen
data_HoSiPt2
_symmetry_space_group_name_H-M   'P 1'
_cell_length_a   5.53161000
_cell_length_b   6.96259700
_cell_length_c   7.33485100
_cell_angle_alpha   90.00000000
_cell_angle_beta   90.00000000
_cell_angle_gamma   90.00000000
_symmetry_Int_Tables_number   1
_chemical_formula_structural   HoSiPt2
_chemical_formula_sum   'Ho4 Si4 Pt8'
_cell_volume   282.49717405
_cell_formula_units_Z   4
loop_
 _symmetry_equiv_pos_site_id
 _symmetry_equiv_pos_as_xyz
  1  'x, y, z'
loop_
 _atom_site_type_symbol
 _atom_site_label
 _atom_site_symmetry_multiplicity
 _atom_site_fract_x
 _atom_site_fract_y
 _atom_site_fract_z
 _atom_site_occupancy
  Ho  Ho0  1  0.36069900  0.75000000  0.02880300  1
  Ho  Ho1  1  0.13930100  0.75000000  0.52880300  1
  Ho  Ho2  1  0.63930100  0.25000000  0.97119700  1
  Ho  Ho3  1  0.86069900  0.25000000  0.47119700  1
  Si  Si4  1  0.63925500  0.75000000  0.37978500  1
  Si  Si5  1  0.86074500  0.75000000  0.87978500  1
  Si  Si6  1  0.36074500  0.25000000  0.62021500  1
  Si  Si7  1  0.13925500  0.25000000  0.12021500  1
  Pt  Pt8  1  0.90800700  0.55050300  0.18134600  1
  Pt  Pt9  1  0.59199300  0.94949700  0.68134600  1
  Pt  Pt10  1  0.09199300  0.05050300  0.81865400  1
  Pt  Pt11  1  0.40800700  0.44949700  0.31865400  1
  Pt  Pt12  1  0.09199300  0.44949700  0.81865400  1
  Pt  Pt13  1  0.40800700  0.05050300  0.31865400  1
  Pt  Pt14  1  0.90800700  0.94949700  0.18134600  1
  Pt  Pt15  1  0.59199300  0.55050300  0.68134600  1
