# generated using pymatgen
data_KPr5(CCl5)2
_symmetry_space_group_name_H-M   'P 1'
_cell_length_a   8.61575414
_cell_length_b   8.61575414
_cell_length_c   15.21123300
_cell_angle_alpha   90.00000000
_cell_angle_beta   90.00000000
_cell_angle_gamma   120.00000109
_symmetry_Int_Tables_number   1
_chemical_formula_structural   KPr5(CCl5)2
_chemical_formula_sum   'K2 Pr10 C4 Cl20'
_cell_volume   977.87116630
_cell_formula_units_Z   2
loop_
 _symmetry_equiv_pos_site_id
 _symmetry_equiv_pos_as_xyz
  1  'x, y, z'
loop_
 _atom_site_type_symbol
 _atom_site_label
 _atom_site_symmetry_multiplicity
 _atom_site_fract_x
 _atom_site_fract_y
 _atom_site_fract_z
 _atom_site_occupancy
  K  K0  1  0.00000000  0.00000000  0.04910100  1
  K  K1  1  0.00000000  0.00000000  0.54910100  1
  Pr  Pr2  1  0.66666700  0.33333300  0.44988200  1
  Pr  Pr3  1  0.33333300  0.66666700  0.94988200  1
  Pr  Pr4  1  0.33333300  0.66666700  0.54944100  1
  Pr  Pr5  1  0.66666700  0.33333300  0.04944100  1
  Pr  Pr6  1  0.38265300  0.96494400  0.74883800  1
  Pr  Pr7  1  0.03505600  0.41770900  0.74883800  1
  Pr  Pr8  1  0.58229100  0.61734700  0.74883800  1
  Pr  Pr9  1  0.61734700  0.03505600  0.24883800  1
  Pr  Pr10  1  0.96494400  0.58229100  0.24883800  1
  Pr  Pr11  1  0.41770900  0.38265300  0.24883800  1
  C  C12  1  0.33333300  0.66666700  0.70262600  1
  C  C13  1  0.66666700  0.33333300  0.20262600  1
  C  C14  1  0.66666700  0.33333300  0.29755700  1
  C  C15  1  0.33333300  0.66666700  0.79755700  1
  Cl  Cl16  1  0.00553500  0.65290100  0.06320400  1
  Cl  Cl17  1  0.34709900  0.35263400  0.06320400  1
  Cl  Cl18  1  0.64736600  0.99446500  0.06320400  1
  Cl  Cl19  1  0.99446500  0.34709900  0.56320400  1
  Cl  Cl20  1  0.65290100  0.64736600  0.56320400  1
  Cl  Cl21  1  0.35263400  0.00553500  0.56320400  1
  Cl  Cl22  1  0.98472800  0.34334500  0.93319800  1
  Cl  Cl23  1  0.65665500  0.64138200  0.93319800  1
  Cl  Cl24  1  0.35861800  0.01527200  0.93319800  1
  Cl  Cl25  1  0.01527200  0.65665500  0.43319800  1
  Cl  Cl26  1  0.34334500  0.35861800  0.43319800  1
  Cl  Cl27  1  0.64138200  0.98472800  0.43319800  1
  Cl  Cl28  1  0.99125300  0.74792400  0.74923300  1
  Cl  Cl29  1  0.25207600  0.24332800  0.74923300  1
  Cl  Cl30  1  0.75667200  0.00874700  0.74923300  1
  Cl  Cl31  1  0.00874700  0.25207600  0.24923300  1
  Cl  Cl32  1  0.74792400  0.75667200  0.24923300  1
  Cl  Cl33  1  0.24332800  0.99125300  0.24923300  1
  Cl  Cl34  1  0.66666700  0.33333300  0.70518300  1
  Cl  Cl35  1  0.33333300  0.66666700  0.20518300  1
