# generated using pymatgen
data_Al2Ga2Bi2O9
_symmetry_space_group_name_H-M   'P 1'
_cell_length_a   5.84657000
_cell_length_b   7.94406100
_cell_length_c   8.31215500
_cell_angle_alpha   90.00000000
_cell_angle_beta   90.00000000
_cell_angle_gamma   90.00000000
_symmetry_Int_Tables_number   1
_chemical_formula_structural   Al2Ga2Bi2O9
_chemical_formula_sum   'Al4 Ga4 Bi4 O18'
_cell_volume   386.06226754
_cell_formula_units_Z   2
loop_
 _symmetry_equiv_pos_site_id
 _symmetry_equiv_pos_as_xyz
  1  'x, y, z'
loop_
 _atom_site_type_symbol
 _atom_site_label
 _atom_site_symmetry_multiplicity
 _atom_site_fract_x
 _atom_site_fract_y
 _atom_site_fract_z
 _atom_site_occupancy
  Al  Al0  1  0.24155300  0.00000000  0.50000000  1
  Al  Al1  1  0.75844700  0.00000000  0.50000000  1
  Al  Al2  1  0.75844700  0.50000000  0.00000000  1
  Al  Al3  1  0.24155300  0.50000000  0.00000000  1
  Ga  Ga4  1  0.00000000  0.15271000  0.16370100  1
  Ga  Ga5  1  0.00000000  0.84729000  0.83629900  1
  Ga  Ga6  1  0.00000000  0.34729000  0.66370100  1
  Ga  Ga7  1  0.00000000  0.65271000  0.33629900  1
  Bi  Bi8  1  0.50000000  0.32884200  0.33290500  1
  Bi  Bi9  1  0.50000000  0.67115800  0.66709500  1
  Bi  Bi10  1  0.50000000  0.17115800  0.83290500  1
  Bi  Bi11  1  0.50000000  0.82884200  0.16709500  1
  O  O12  1  0.50000000  0.35900200  0.06900000  1
  O  O13  1  0.50000000  0.64099800  0.93100000  1
  O  O14  1  0.50000000  0.14099800  0.56900000  1
  O  O15  1  0.50000000  0.85900200  0.43100000  1
  O  O16  1  0.25501300  0.12714400  0.29906200  1
  O  O17  1  0.74498700  0.87285600  0.70093800  1
  O  O18  1  0.25501300  0.87285600  0.70093800  1
  O  O19  1  0.74498700  0.37285600  0.79906200  1
  O  O20  1  0.74498700  0.12714400  0.29906200  1
  O  O21  1  0.25501300  0.62714400  0.20093800  1
  O  O22  1  0.74498700  0.62714400  0.20093800  1
  O  O23  1  0.25501300  0.37285600  0.79906200  1
  O  O24  1  0.00000000  0.37129300  0.08738200  1
  O  O25  1  0.00000000  0.62870700  0.91261800  1
  O  O26  1  0.00000000  0.12870700  0.58738200  1
  O  O27  1  0.00000000  0.87129300  0.41261800  1
  O  O28  1  0.00000000  0.00000000  0.00000000  1
  O  O29  1  0.00000000  0.50000000  0.50000000  1
