# generated using pymatgen
data_Li6Er(BO3)3
_symmetry_space_group_name_H-M   'P 1'
_cell_length_a   16.51879900
_cell_length_b   6.68086800
_cell_length_c   7.24827931
_cell_angle_alpha   74.41672510
_cell_angle_beta   90.00000000
_cell_angle_gamma   90.00000000
_symmetry_Int_Tables_number   1
_chemical_formula_structural   Li6Er(BO3)3
_chemical_formula_sum   'Li24 Er4 B12 O36'
_cell_volume   770.51527339
_cell_formula_units_Z   4
loop_
 _symmetry_equiv_pos_site_id
 _symmetry_equiv_pos_as_xyz
  1  'x, y, z'
loop_
 _atom_site_type_symbol
 _atom_site_label
 _atom_site_symmetry_multiplicity
 _atom_site_fract_x
 _atom_site_fract_y
 _atom_site_fract_z
 _atom_site_occupancy
  Li  Li0  1  0.96705000  0.94589300  0.19315600  1
  Li  Li1  1  0.03295000  0.05410700  0.80684400  1
  Li  Li2  1  0.46705000  0.55410700  0.80684400  1
  Li  Li3  1  0.53295000  0.44589300  0.19315600  1
  Li  Li4  1  0.55552700  0.90215300  0.63492200  1
  Li  Li5  1  0.44447300  0.09784700  0.36507800  1
  Li  Li6  1  0.05552700  0.59784700  0.36507800  1
  Li  Li7  1  0.94447300  0.40215300  0.63492200  1
  Li  Li8  1  0.47347900  0.82692100  0.04370700  1
  Li  Li9  1  0.52652100  0.17307900  0.95629300  1
  Li  Li10  1  0.97347900  0.67307900  0.95629300  1
  Li  Li11  1  0.02652100  0.32692100  0.04370700  1
  Li  Li12  1  0.70750100  0.86420900  0.78777900  1
  Li  Li13  1  0.29249900  0.13579100  0.21222100  1
  Li  Li14  1  0.20750100  0.63579100  0.21222100  1
  Li  Li15  1  0.79249900  0.36420900  0.78777900  1
  Li  Li16  1  0.79634300  0.95897900  0.07140700  1
  Li  Li17  1  0.20365700  0.04102100  0.92859300  1
  Li  Li18  1  0.29634300  0.54102100  0.92859300  1
  Li  Li19  1  0.70365700  0.45897900  0.07140700  1
  Li  Li20  1  0.99427400  0.82149600  0.57423800  1
  Li  Li21  1  0.00572600  0.17850400  0.42576200  1
  Li  Li22  1  0.49427400  0.67850400  0.42576200  1
  Li  Li23  1  0.50572600  0.32149600  0.57423800  1
  Er  Er24  1  0.69046100  0.65360000  0.42298700  1
  Er  Er25  1  0.30953900  0.34640000  0.57701300  1
  Er  Er26  1  0.19046100  0.84640000  0.57701300  1
  Er  Er27  1  0.80953900  0.15360000  0.42298700  1
  B  B28  1  0.87933600  0.00138100  0.78714400  1
  B  B29  1  0.12066400  0.99861900  0.21285600  1
  B  B30  1  0.37933600  0.49861900  0.21285600  1
  B  B31  1  0.62066400  0.50138100  0.78714400  1
  B  B32  1  0.61781100  0.81236300  0.06227100  1
  B  B33  1  0.38218900  0.18763700  0.93772900  1
  B  B34  1  0.11781100  0.68763700  0.93772900  1
  B  B35  1  0.88218900  0.31236300  0.06227100  1
  B  B36  1  0.86431000  0.66197400  0.41693400  1
  B  B37  1  0.13569000  0.33802600  0.58306600  1
  B  B38  1  0.36431000  0.83802600  0.58306600  1
  B  B39  1  0.63569000  0.16197400  0.41693400  1
  O  O40  1  0.94663800  0.67611700  0.40999300  1
  O  O41  1  0.05336200  0.32388300  0.59000700  1
  O  O42  1  0.44663800  0.82388300  0.59000700  1
  O  O43  1  0.55336200  0.17611700  0.40999300  1
  O  O44  1  0.70063200  0.77214100  0.08342000  1
  O  O45  1  0.29936800  0.22785900  0.91658000  1
  O  O46  1  0.20063200  0.72785900  0.91658000  1
  O  O47  1  0.79936800  0.27214100  0.08342000  1
  O  O48  1  0.81407400  0.83551000  0.36216300  1
  O  O49  1  0.18592600  0.16449000  0.63783700  1
  O  O50  1  0.31407400  0.66449000  0.63783700  1
  O  O51  1  0.68592600  0.33551000  0.36216300  1
  O  O52  1  0.57077700  0.72829900  0.22502200  1
  O  O53  1  0.42922300  0.27170100  0.77497800  1
  O  O54  1  0.07077700  0.77170100  0.77497800  1
  O  O55  1  0.92922300  0.22829900  0.22502200  1
  O  O56  1  0.41325000  0.58517800  0.03676600  1
  O  O57  1  0.58675000  0.41482200  0.96323400  1
  O  O58  1  0.91325000  0.91482200  0.96323400  1
  O  O59  1  0.08675000  0.08517800  0.03676600  1
  O  O60  1  0.58139100  0.92433900  0.89435500  1
  O  O61  1  0.41860900  0.07566100  0.10564500  1
  O  O62  1  0.08139100  0.57566100  0.10564500  1
  O  O63  1  0.91860900  0.42433900  0.89435500  1
  O  O64  1  0.42568900  0.45370100  0.38048600  1
  O  O65  1  0.57431100  0.54629900  0.61951400  1
  O  O66  1  0.92568900  0.04629900  0.61951400  1
  O  O67  1  0.07431100  0.95370100  0.38048600  1
  O  O68  1  0.67429300  0.97051000  0.48949100  1
  O  O69  1  0.32570700  0.02949000  0.51050900  1
  O  O70  1  0.17429300  0.52949000  0.51050900  1
  O  O71  1  0.82570700  0.47051000  0.48949100  1
  O  O72  1  0.20215700  0.94241100  0.23823000  1
  O  O73  1  0.79784300  0.05758900  0.76177000  1
  O  O74  1  0.70215700  0.55758900  0.76177000  1
  O  O75  1  0.29784300  0.44241100  0.23823000  1
