# generated using pymatgen
data_Nd(BOs)4
_symmetry_space_group_name_H-M   'P 1'
_cell_length_a   7.62822800
_cell_length_b   7.62822800
_cell_length_c   4.00770800
_cell_angle_alpha   90.00000000
_cell_angle_beta   90.00000000
_cell_angle_gamma   90.00000000
_symmetry_Int_Tables_number   1
_chemical_formula_structural   Nd(BOs)4
_chemical_formula_sum   'Nd2 B8 Os8'
_cell_volume   233.20797714
_cell_formula_units_Z   2
loop_
 _symmetry_equiv_pos_site_id
 _symmetry_equiv_pos_as_xyz
  1  'x, y, z'
loop_
 _atom_site_type_symbol
 _atom_site_label
 _atom_site_symmetry_multiplicity
 _atom_site_fract_x
 _atom_site_fract_y
 _atom_site_fract_z
 _atom_site_occupancy
  Nd  Nd0  1  0.50000000  0.50000000  0.00000000  1
  Nd  Nd1  1  0.00000000  0.00000000  0.50000000  1
  B  B2  1  0.66429400  0.78059000  0.61101600  1
  B  B3  1  0.16429400  0.28059000  0.88898400  1
  B  B4  1  0.28059000  0.83570600  0.11101600  1
  B  B5  1  0.71941000  0.16429400  0.11101600  1
  B  B6  1  0.33570600  0.21941000  0.61101600  1
  B  B7  1  0.83570600  0.71941000  0.88898400  1
  B  B8  1  0.21941000  0.66429400  0.38898400  1
  B  B9  1  0.78059000  0.33570600  0.38898400  1
  Os  Os10  1  0.35387500  0.10661600  0.11225500  1
  Os  Os11  1  0.64612500  0.89338400  0.11225500  1
  Os  Os12  1  0.60661600  0.14612500  0.61225500  1
  Os  Os13  1  0.10661600  0.64612500  0.88774500  1
  Os  Os14  1  0.14612500  0.39338400  0.38774500  1
  Os  Os15  1  0.85387500  0.60661600  0.38774500  1
  Os  Os16  1  0.89338400  0.35387500  0.88774500  1
  Os  Os17  1  0.39338400  0.85387500  0.61225500  1
