# generated using pymatgen
data_BaHfN2
_symmetry_space_group_name_H-M   'P 1'
_cell_length_a   4.15101300
_cell_length_b   4.15101300
_cell_length_c   8.48455600
_cell_angle_alpha   90.00000000
_cell_angle_beta   90.00000000
_cell_angle_gamma   90.00000000
_symmetry_Int_Tables_number   1
_chemical_formula_structural   BaHfN2
_chemical_formula_sum   'Ba2 Hf2 N4'
_cell_volume   146.19661171
_cell_formula_units_Z   2
loop_
 _symmetry_equiv_pos_site_id
 _symmetry_equiv_pos_as_xyz
  1  'x, y, z'
loop_
 _atom_site_type_symbol
 _atom_site_label
 _atom_site_symmetry_multiplicity
 _atom_site_fract_x
 _atom_site_fract_y
 _atom_site_fract_z
 _atom_site_occupancy
  Ba  Ba0  1  0.00000000  0.50000000  0.15173700  1
  Ba  Ba1  1  0.50000000  0.00000000  0.84826300  1
  Hf  Hf2  1  0.50000000  0.00000000  0.41506700  1
  Hf  Hf3  1  0.00000000  0.50000000  0.58493300  1
  N  N4  1  0.00000000  0.50000000  0.81979800  1
  N  N5  1  0.50000000  0.00000000  0.18020200  1
  N  N6  1  0.00000000  0.00000000  0.50000000  1
  N  N7  1  0.50000000  0.50000000  0.50000000  1
