# generated using pymatgen
data_Sr2Ta2O7
_symmetry_space_group_name_H-M   'P 1'
_cell_length_a   13.96637837
_cell_length_b   13.96637837
_cell_length_c   5.75446000
_cell_angle_alpha   90.00000000
_cell_angle_beta   90.00000000
_cell_angle_gamma   163.57308046
_symmetry_Int_Tables_number   1
_chemical_formula_structural   Sr2Ta2O7
_chemical_formula_sum   'Sr4 Ta4 O14'
_cell_volume   317.42382743
_cell_formula_units_Z   2
loop_
 _symmetry_equiv_pos_site_id
 _symmetry_equiv_pos_as_xyz
  1  'x, y, z'
loop_
 _atom_site_type_symbol
 _atom_site_label
 _atom_site_symmetry_multiplicity
 _atom_site_fract_x
 _atom_site_fract_y
 _atom_site_fract_z
 _atom_site_occupancy
  Sr  Sr0  1  0.44662100  0.55337900  0.23748700  1
  Sr  Sr1  1  0.55337900  0.44662100  0.73748700  1
  Sr  Sr2  1  0.28549800  0.71450200  0.75023700  1
  Sr  Sr3  1  0.71450200  0.28549800  0.25023700  1
  Ta  Ta4  1  0.94527200  0.05472800  0.73960300  1
  Ta  Ta5  1  0.05472800  0.94527200  0.23960300  1
  Ta  Ta6  1  0.84091400  0.15908600  0.24374500  1
  Ta  Ta7  1  0.15908600  0.84091400  0.74374500  1
  O  O8  1  0.20719500  0.79280500  0.51107400  1
  O  O9  1  0.79280500  0.20719500  0.01107400  1
  O  O10  1  0.10088200  0.89911800  0.48719400  1
  O  O11  1  0.89911800  0.10088200  0.98719400  1
  O  O12  1  0.64905800  0.35094200  0.73920200  1
  O  O13  1  0.35094200  0.64905800  0.23920200  1
  O  O14  1  0.54702500  0.45297500  0.23657800  1
  O  O15  1  0.45297500  0.54702500  0.73657800  1
  O  O16  1  0.00190200  0.99809800  0.49557300  1
  O  O17  1  0.99809800  0.00190200  0.99557300  1
  O  O18  1  0.90287400  0.09712600  0.47216000  1
  O  O19  1  0.09712600  0.90287400  0.97216000  1
  O  O20  1  0.79558800  0.20441200  0.48734800  1
  O  O21  1  0.20441200  0.79558800  0.98734800  1
