# generated using pymatgen
data_Na2ZnGaF7
_symmetry_space_group_name_H-M   'P 1'
_cell_length_a   7.36000701
_cell_length_b   7.36000701
_cell_length_c   24.78614647
_cell_angle_alpha   81.83945302
_cell_angle_beta   81.83945302
_cell_angle_gamma   60.58485571
_symmetry_Int_Tables_number   1
_chemical_formula_structural   Na2ZnGaF7
_chemical_formula_sum   'Na16 Zn8 Ga8 F56'
_cell_volume   1153.65599567
_cell_formula_units_Z   8
loop_
 _symmetry_equiv_pos_site_id
 _symmetry_equiv_pos_as_xyz
  1  'x, y, z'
loop_
 _atom_site_type_symbol
 _atom_site_label
 _atom_site_symmetry_multiplicity
 _atom_site_fract_x
 _atom_site_fract_y
 _atom_site_fract_z
 _atom_site_occupancy
  Na  Na0  1  0.00000000  0.00000000  0.50000000  1
  Na  Na1  1  0.00000000  0.00000000  0.00000000  1
  Na  Na2  1  0.50000000  0.50000000  0.50000000  1
  Na  Na3  1  0.50000000  0.50000000  0.00000000  1
  Na  Na4  1  0.00000000  0.50000000  0.00000000  1
  Na  Na5  1  0.50000000  0.00000000  0.50000000  1
  Na  Na6  1  0.21236500  0.78763500  0.25000000  1
  Na  Na7  1  0.78763500  0.21236500  0.75000000  1
  Na  Na8  1  0.20439900  0.30064400  0.24982700  1
  Na  Na9  1  0.69935600  0.79560100  0.25017300  1
  Na  Na10  1  0.79560100  0.69935600  0.75017300  1
  Na  Na11  1  0.30064400  0.20439900  0.74982700  1
  Na  Na12  1  0.86541200  0.88222300  0.37823000  1
  Na  Na13  1  0.11777700  0.13458800  0.12177000  1
  Na  Na14  1  0.13458800  0.11777700  0.62177000  1
  Na  Na15  1  0.88222300  0.86541200  0.87823000  1
  Zn  Zn16  1  0.36912500  0.38629800  0.37216000  1
  Zn  Zn17  1  0.61370200  0.63087500  0.12784000  1
  Zn  Zn18  1  0.63087500  0.61370200  0.62784000  1
  Zn  Zn19  1  0.38629800  0.36912500  0.87216000  1
  Zn  Zn20  1  0.86516500  0.38771800  0.37419600  1
  Zn  Zn21  1  0.61228200  0.13483500  0.12580400  1
  Zn  Zn22  1  0.13483500  0.61228200  0.62580400  1
  Zn  Zn23  1  0.38771800  0.86516500  0.87419600  1
  Ga  Ga24  1  0.00000000  0.50000000  0.50000000  1
  Ga  Ga25  1  0.50000000  0.00000000  0.00000000  1
  Ga  Ga26  1  0.75139200  0.24860800  0.25000000  1
  Ga  Ga27  1  0.24860800  0.75139200  0.75000000  1
  Ga  Ga28  1  0.36305200  0.88955200  0.37476900  1
  Ga  Ga29  1  0.11044800  0.63694800  0.12523100  1
  Ga  Ga30  1  0.63694800  0.11044800  0.62523100  1
  Ga  Ga31  1  0.88955200  0.36305200  0.87476900  1
  F  F32  1  0.81293000  0.36488400  0.95313100  1
  F  F33  1  0.63511600  0.18707000  0.54686900  1
  F  F34  1  0.18707000  0.63511600  0.04686900  1
  F  F35  1  0.36488400  0.81293000  0.45313100  1
  F  F36  1  0.97279900  0.35761800  0.79683100  1
  F  F37  1  0.64238200  0.02720100  0.70316900  1
  F  F38  1  0.02720100  0.64238200  0.20316900  1
  F  F39  1  0.35761800  0.97279900  0.29683100  1
  F  F40  1  0.14217400  0.02031100  0.70953700  1
  F  F41  1  0.97968900  0.85782600  0.79046300  1
  F  F42  1  0.85782600  0.97968900  0.29046300  1
  F  F43  1  0.02031100  0.14217400  0.20953700  1
  F  F44  1  0.78970700  0.86934500  0.96830800  1
  F  F45  1  0.13065500  0.21029300  0.53169200  1
  F  F46  1  0.21029300  0.13065500  0.03169200  1
  F  F47  1  0.86934500  0.78970700  0.46830800  1
  F  F48  1  0.30457800  0.64296200  0.90153200  1
  F  F49  1  0.35703800  0.69542200  0.59846800  1
  F  F50  1  0.69542200  0.35703800  0.09846800  1
  F  F51  1  0.64296200  0.30457800  0.40153200  1
  F  F52  1  0.46512400  0.09125300  0.84505300  1
  F  F53  1  0.36380700  0.85865700  0.79348000  1
  F  F54  1  0.90874700  0.53487600  0.65494700  1
  F  F55  1  0.09125300  0.46512400  0.34505300  1
  F  F56  1  0.70139800  0.65686200  0.85936800  1
  F  F57  1  0.34313800  0.29860200  0.64063200  1
  F  F58  1  0.29860200  0.34313800  0.14063200  1
  F  F59  1  0.65686200  0.70139800  0.35936800  1
  F  F60  1  0.07406100  0.06913400  0.89089000  1
  F  F61  1  0.93086600  0.92593900  0.60911000  1
  F  F62  1  0.92593900  0.93086600  0.10911000  1
  F  F63  1  0.06913400  0.07406100  0.39089000  1
  F  F64  1  0.25249000  0.42115200  0.45324200  1
  F  F65  1  0.57884900  0.74751000  0.04675800  1
  F  F66  1  0.74751000  0.57884900  0.54675800  1
  F  F67  1  0.42115100  0.25249000  0.95324200  1
  F  F68  1  0.47716600  0.36274200  0.29035500  1
  F  F69  1  0.63725800  0.52283400  0.20964500  1
  F  F70  1  0.52283400  0.63725800  0.70964500  1
  F  F71  1  0.36274200  0.47716600  0.79035500  1
  F  F72  1  0.27144700  0.70107600  0.35865600  1
  F  F73  1  0.29892400  0.72855300  0.14134400  1
  F  F74  1  0.72855300  0.29892400  0.64134400  1
  F  F75  1  0.70107600  0.27144700  0.85865600  1
  F  F76  1  0.45945000  0.07483100  0.39010800  1
  F  F77  1  0.92516900  0.54055000  0.10989200  1
  F  F78  1  0.54055000  0.92516900  0.60989200  1
  F  F79  1  0.07483100  0.45945000  0.89010800  1
  F  F80  1  0.86576700  0.41852900  0.45492600  1
  F  F81  1  0.58147100  0.13423300  0.04507400  1
  F  F82  1  0.13423300  0.58147100  0.54507400  1
  F  F83  1  0.41852900  0.86576700  0.95492600  1
  F  F84  1  0.85865700  0.36380700  0.29348000  1
  F  F85  1  0.63619300  0.14134300  0.20652000  1
  F  F86  1  0.14134300  0.63619300  0.70652000  1
  F  F87  1  0.53487600  0.90874700  0.15494700  1
