# generated using pymatgen
data_BeCr2O4
_symmetry_space_group_name_H-M   'P 1'
_cell_length_a   4.61413431
_cell_length_b   5.78011039
_cell_length_c   9.98434500
_cell_angle_alpha   89.99994735
_cell_angle_beta   89.99977348
_cell_angle_gamma   90.04213653
_symmetry_Int_Tables_number   1
_chemical_formula_structural   BeCr2O4
_chemical_formula_sum   'Be4 Cr8 O16'
_cell_volume   266.28446273
_cell_formula_units_Z   4
loop_
 _symmetry_equiv_pos_site_id
 _symmetry_equiv_pos_as_xyz
  1  'x, y, z'
loop_
 _atom_site_type_symbol
 _atom_site_label
 _atom_site_symmetry_multiplicity
 _atom_site_fract_x
 _atom_site_fract_y
 _atom_site_fract_z
 _atom_site_occupancy
  Be  Be0  1  0.93005100  0.75000900  0.40716000  1
  Be  Be1  1  0.56995200  0.74999100  0.90716000  1
  Be  Be2  1  0.06995000  0.24999000  0.59284100  1
  Be  Be3  1  0.43005000  0.25001100  0.09284000  1
  Cr  Cr4  1  0.49657100  0.74927500  0.23071200  1
  Cr  Cr5  1  0.00343100  0.75072600  0.73071400  1
  Cr  Cr6  1  0.50342700  0.25072200  0.76928700  1
  Cr  Cr7  1  0.99656900  0.24928100  0.26928700  1
  Cr  Cr8  1  0.49999900  0.49999700  0.49999900  1
  Cr  Cr9  1  0.99999700  0.99999800  0.00000100  1
  Cr  Cr10  1  0.50000200  0.99999800  0.50000000  1
  Cr  Cr11  1  0.99999900  0.50000300  0.99999800  1
  O  O12  1  0.27375200  0.75022700  0.40711300  1
  O  O13  1  0.22624400  0.74977300  0.90711200  1
  O  O14  1  0.72624800  0.24976900  0.59288600  1
  O  O15  1  0.77375100  0.25023200  0.09289100  1
  O  O16  1  0.72692500  0.75019800  0.05966300  1
  O  O17  1  0.77307600  0.74980000  0.55965900  1
  O  O18  1  0.27307900  0.24980500  0.94033700  1
  O  O19  1  0.22692400  0.25019400  0.44034000  1
  O  O20  1  0.76031400  0.97481900  0.33699800  1
  O  O21  1  0.73968600  0.52518000  0.83699600  1
  O  O22  1  0.23909200  0.47495600  0.66311100  1
  O  O23  1  0.26090900  0.02504500  0.16311500  1
  O  O24  1  0.23968800  0.02518200  0.66300000  1
  O  O25  1  0.26031300  0.47482000  0.16300400  1
  O  O26  1  0.76090700  0.52504400  0.33688900  1
  O  O27  1  0.73909300  0.97495900  0.83688700  1
