# generated using pymatgen
data_Sc5Sb3
_symmetry_space_group_name_H-M   'P 1'
_cell_length_a   7.62172500
_cell_length_b   8.77289500
_cell_length_c   11.17134000
_cell_angle_alpha   90.00000000
_cell_angle_beta   90.00000000
_cell_angle_gamma   90.00000000
_symmetry_Int_Tables_number   1
_chemical_formula_structural   Sc5Sb3
_chemical_formula_sum   'Sc20 Sb12'
_cell_volume   746.96710397
_cell_formula_units_Z   4
loop_
 _symmetry_equiv_pos_site_id
 _symmetry_equiv_pos_as_xyz
  1  'x, y, z'
loop_
 _atom_site_type_symbol
 _atom_site_label
 _atom_site_symmetry_multiplicity
 _atom_site_fract_x
 _atom_site_fract_y
 _atom_site_fract_z
 _atom_site_occupancy
  Sc  Sc0  1  0.02666100  0.25000000  0.51058600  1
  Sc  Sc1  1  0.97333900  0.75000000  0.48941400  1
  Sc  Sc2  1  0.47333900  0.75000000  0.01058600  1
  Sc  Sc3  1  0.52666100  0.25000000  0.98941400  1
  Sc  Sc4  1  0.35312100  0.25000000  0.28424000  1
  Sc  Sc5  1  0.64687900  0.75000000  0.71576000  1
  Sc  Sc6  1  0.14687900  0.75000000  0.78424000  1
  Sc  Sc7  1  0.85312100  0.25000000  0.21576000  1
  Sc  Sc8  1  0.18669800  0.25000000  0.77940600  1
  Sc  Sc9  1  0.81330200  0.75000000  0.22059400  1
  Sc  Sc10  1  0.31330200  0.75000000  0.27940600  1
  Sc  Sc11  1  0.68669800  0.25000000  0.72059400  1
  Sc  Sc12  1  0.19599700  0.06241800  0.06070700  1
  Sc  Sc13  1  0.80400300  0.93758200  0.93929300  1
  Sc  Sc14  1  0.30400300  0.93758200  0.56070700  1
  Sc  Sc15  1  0.80400300  0.56241800  0.93929300  1
  Sc  Sc16  1  0.69599700  0.06241800  0.43929300  1
  Sc  Sc17  1  0.19599700  0.43758200  0.06070700  1
  Sc  Sc18  1  0.69599700  0.43758200  0.43929300  1
  Sc  Sc19  1  0.30400300  0.56241800  0.56070700  1
  Sb  Sb20  1  0.41195900  0.25000000  0.53991300  1
  Sb  Sb21  1  0.58804100  0.75000000  0.46008700  1
  Sb  Sb22  1  0.08804100  0.75000000  0.03991300  1
  Sb  Sb23  1  0.91195900  0.25000000  0.96008700  1
  Sb  Sb24  1  0.06622400  0.00389700  0.32655100  1
  Sb  Sb25  1  0.93377600  0.99610300  0.67344900  1
  Sb  Sb26  1  0.43377600  0.99610300  0.82655100  1
  Sb  Sb27  1  0.93377600  0.50389700  0.67344900  1
  Sb  Sb28  1  0.56622400  0.00389700  0.17344900  1
  Sb  Sb29  1  0.06622400  0.49610300  0.32655100  1
  Sb  Sb30  1  0.56622400  0.49610300  0.17344900  1
  Sb  Sb31  1  0.43377600  0.50389700  0.82655100  1
