# generated using pymatgen
data_Cs2MnH12(SeO7)2
_symmetry_space_group_name_H-M   'P 1'
_cell_length_a   13.42734300
_cell_length_b   6.76102700
_cell_length_c   9.65256043
_cell_angle_alpha   74.45984362
_cell_angle_beta   90.00000000
_cell_angle_gamma   90.00000000
_symmetry_Int_Tables_number   1
_chemical_formula_structural   Cs2MnH12(SeO7)2
_chemical_formula_sum   'Cs4 Mn2 H24 Se4 O28'
_cell_volume   844.25039379
_cell_formula_units_Z   2
loop_
 _symmetry_equiv_pos_site_id
 _symmetry_equiv_pos_as_xyz
  1  'x, y, z'
loop_
 _atom_site_type_symbol
 _atom_site_label
 _atom_site_symmetry_multiplicity
 _atom_site_fract_x
 _atom_site_fract_y
 _atom_site_fract_z
 _atom_site_occupancy
  Cs  Cs0  1  0.63745600  0.85514000  0.87274400  1
  Cs  Cs1  1  0.36254400  0.14486000  0.12725600  1
  Cs  Cs2  1  0.13745600  0.14486000  0.62725600  1
  Cs  Cs3  1  0.86254400  0.85514000  0.37274400  1
  Mn  Mn4  1  0.50000000  0.50000000  0.50000000  1
  Mn  Mn5  1  0.00000000  0.50000000  0.00000000  1
  H  H6  1  0.89165300  0.80308900  0.78875000  1
  H  H7  1  0.10834700  0.19691100  0.21125000  1
  H  H8  1  0.39165300  0.19691100  0.71125000  1
  H  H9  1  0.60834700  0.80308900  0.28875000  1
  H  H10  1  0.13813800  0.80686500  0.97921500  1
  H  H11  1  0.86186200  0.19313500  0.02078500  1
  H  H12  1  0.63813800  0.19313500  0.52078500  1
  H  H13  1  0.36186200  0.80686500  0.47921500  1
  H  H14  1  0.36172500  0.41732400  0.73440200  1
  H  H15  1  0.63827500  0.58267600  0.26559800  1
  H  H16  1  0.86172500  0.58267600  0.76559800  1
  H  H17  1  0.13827500  0.41732400  0.23440200  1
  H  H18  1  0.18149600  0.51633900  0.84796700  1
  H  H19  1  0.81850400  0.48366100  0.15203300  1
  H  H20  1  0.68149600  0.48366100  0.65203300  1
  H  H21  1  0.31850400  0.51633900  0.34796700  1
  H  H22  1  0.09939900  0.57571700  0.72509500  1
  H  H23  1  0.90060100  0.42428300  0.27490500  1
  H  H24  1  0.59939900  0.42428300  0.77490500  1
  H  H25  1  0.40060100  0.57571700  0.22509500  1
  H  H26  1  0.43281700  0.82002300  0.60713400  1
  H  H27  1  0.56718300  0.17997700  0.39286600  1
  H  H28  1  0.93281700  0.17997700  0.89286600  1
  H  H29  1  0.06718300  0.82002300  0.10713400  1
  Se  Se30  1  0.34903700  0.75590600  0.89760500  1
  Se  Se31  1  0.65096300  0.24409400  0.10239500  1
  Se  Se32  1  0.84903700  0.24409400  0.60239500  1
  Se  Se33  1  0.15096300  0.75590600  0.39760500  1
  O  O34  1  0.31006500  0.53625800  0.86307700  1
  O  O35  1  0.68993500  0.46374200  0.13692300  1
  O  O36  1  0.81006500  0.46374200  0.63692300  1
  O  O37  1  0.18993500  0.53625800  0.36307700  1
  O  O38  1  0.08016200  0.70445500  0.54560300  1
  O  O39  1  0.91983800  0.29554500  0.45439700  1
  O  O40  1  0.58016200  0.29554500  0.95439700  1
  O  O41  1  0.41983800  0.70445500  0.04560300  1
  O  O42  1  0.38316300  0.34360500  0.66285500  1
  O  O43  1  0.61683700  0.65639500  0.33714500  1
  O  O44  1  0.88316300  0.65639500  0.83714500  1
  O  O45  1  0.11683700  0.34360500  0.16285500  1
  O  O46  1  0.10996300  0.49738600  0.82677000  1
  O  O47  1  0.89003700  0.50261400  0.17323000  1
  O  O48  1  0.60996300  0.50261400  0.67323000  1
  O  O49  1  0.39003700  0.49738600  0.32677000  1
  O  O50  1  0.41759000  0.89668400  0.76054500  1
  O  O51  1  0.58241000  0.10331600  0.23945500  1
  O  O52  1  0.91759000  0.10331600  0.73945500  1
  O  O53  1  0.08241000  0.89668400  0.26054500  1
  O  O54  1  0.43144800  0.77943900  0.51535600  1
  O  O55  1  0.56855200  0.22056100  0.48464400  1
  O  O56  1  0.93144800  0.22056100  0.98464400  1
  O  O57  1  0.06855200  0.77943900  0.01535600  1
  O  O58  1  0.25069300  0.89886200  0.91723700  1
  O  O59  1  0.74930700  0.10113800  0.08276300  1
  O  O60  1  0.75069300  0.10113800  0.58276300  1
  O  O61  1  0.24930700  0.89886200  0.41723700  1
