# generated using pymatgen
data_Na(VSe2)2
_symmetry_space_group_name_H-M   'P 1'
_cell_length_a   3.55193400
_cell_length_b   6.17121400
_cell_length_c   7.83149639
_cell_angle_alpha   69.88277925
_cell_angle_beta   90.00000000
_cell_angle_gamma   90.00000000
_symmetry_Int_Tables_number   1
_chemical_formula_structural   Na(VSe2)2
_chemical_formula_sum   'Na1 V2 Se4'
_cell_volume   161.19131522
_cell_formula_units_Z   1
loop_
 _symmetry_equiv_pos_site_id
 _symmetry_equiv_pos_as_xyz
  1  'x, y, z'
loop_
 _atom_site_type_symbol
 _atom_site_label
 _atom_site_symmetry_multiplicity
 _atom_site_fract_x
 _atom_site_fract_y
 _atom_site_fract_z
 _atom_site_occupancy
  Na  Na0  1  0.50000000  0.66171700  0.50777400  1
  V  V1  1  0.00000000  0.97125400  0.99599100  1
  V  V2  1  0.50000000  0.53151200  0.00309600  1
  Se  Se3  1  0.00000000  0.57295700  0.21999100  1
  Se  Se4  1  0.50000000  0.09085200  0.18076500  1
  Se  Se5  1  0.00000000  0.41012400  0.81771100  1
  Se  Se6  1  0.50000000  0.92668400  0.77937100  1
