# generated using pymatgen
data_Cs3Nb9(TeO8)4
_symmetry_space_group_name_H-M   'P 1'
_cell_length_a   19.67701849
_cell_length_b   19.67701849
_cell_length_c   7.53532100
_cell_angle_alpha   90.00000000
_cell_angle_beta   90.00000000
_cell_angle_gamma   147.89947598
_symmetry_Int_Tables_number   1
_chemical_formula_structural   Cs3Nb9(TeO8)4
_chemical_formula_sum   'Cs6 Nb18 Te8 O64'
_cell_volume   1550.41180439
_cell_formula_units_Z   2
loop_
 _symmetry_equiv_pos_site_id
 _symmetry_equiv_pos_as_xyz
  1  'x, y, z'
loop_
 _atom_site_type_symbol
 _atom_site_label
 _atom_site_symmetry_multiplicity
 _atom_site_fract_x
 _atom_site_fract_y
 _atom_site_fract_z
 _atom_site_occupancy
  Cs  Cs0  1  0.36550400  0.36550400  0.25000000  1
  Cs  Cs1  1  0.63449600  0.63449600  0.75000000  1
  Cs  Cs2  1  0.24891900  0.04446100  0.25000000  1
  Cs  Cs3  1  0.95553900  0.75108100  0.75000000  1
  Cs  Cs4  1  0.75108100  0.95553900  0.75000000  1
  Cs  Cs5  1  0.04446100  0.24891900  0.25000000  1
  Nb  Nb6  1  0.19795100  0.80204900  0.00000000  1
  Nb  Nb7  1  0.19795100  0.80204900  0.50000000  1
  Nb  Nb8  1  0.80204900  0.19795100  0.00000000  1
  Nb  Nb9  1  0.80204900  0.19795100  0.50000000  1
  Nb  Nb10  1  0.39156300  0.09235400  0.75000000  1
  Nb  Nb11  1  0.90764600  0.60843700  0.25000000  1
  Nb  Nb12  1  0.60843700  0.90764600  0.25000000  1
  Nb  Nb13  1  0.09235400  0.39156300  0.75000000  1
  Nb  Nb14  1  0.59353500  0.40646500  0.00000000  1
  Nb  Nb15  1  0.59353500  0.40646500  0.50000000  1
  Nb  Nb16  1  0.40646500  0.59353500  0.00000000  1
  Nb  Nb17  1  0.40646500  0.59353500  0.50000000  1
  Nb  Nb18  1  0.28917300  0.19359100  0.75000000  1
  Nb  Nb19  1  0.80640900  0.71082700  0.25000000  1
  Nb  Nb20  1  0.71082700  0.80640900  0.25000000  1
  Nb  Nb21  1  0.19359100  0.28917300  0.75000000  1
  Nb  Nb22  1  0.00000000  0.00000000  0.00000000  1
  Nb  Nb23  1  0.00000000  0.00000000  0.50000000  1
  Te  Te24  1  0.48324400  0.98521200  0.75000000  1
  Te  Te25  1  0.01478800  0.51675600  0.25000000  1
  Te  Te26  1  0.51675600  0.01478800  0.25000000  1
  Te  Te27  1  0.98521200  0.48324400  0.75000000  1
  Te  Te28  1  0.68288200  0.31711800  0.00000000  1
  Te  Te29  1  0.68288200  0.31711800  0.50000000  1
  Te  Te30  1  0.31711800  0.68288200  0.00000000  1
  Te  Te31  1  0.31711800  0.68288200  0.50000000  1
  O  O32  1  0.36446800  0.88766100  0.94582000  1
  O  O33  1  0.11233900  0.63553200  0.05418000  1
  O  O34  1  0.36446800  0.88766100  0.55418000  1
  O  O35  1  0.11233900  0.63553200  0.44582000  1
  O  O36  1  0.63553200  0.11233900  0.05418000  1
  O  O37  1  0.88766100  0.36446800  0.94582000  1
  O  O38  1  0.63553200  0.11233900  0.44582000  1
  O  O39  1  0.88766100  0.36446800  0.55418000  1
  O  O40  1  0.51375000  0.10766700  0.75000000  1
  O  O41  1  0.89233300  0.48625000  0.25000000  1
  O  O42  1  0.48625000  0.89233300  0.25000000  1
  O  O43  1  0.10766700  0.51375000  0.75000000  1
  O  O44  1  0.60307300  0.23307300  0.25000000  1
  O  O45  1  0.76692700  0.39692700  0.75000000  1
  O  O46  1  0.39692700  0.76692700  0.75000000  1
  O  O47  1  0.23307300  0.60307300  0.25000000  1
  O  O48  1  0.53116100  0.24427700  0.93681400  1
  O  O49  1  0.75572300  0.46883900  0.06318600  1
  O  O50  1  0.53116100  0.24427700  0.56318600  1
  O  O51  1  0.75572300  0.46883900  0.43681400  1
  O  O52  1  0.46883900  0.75572300  0.06318600  1
  O  O53  1  0.24427700  0.53116100  0.93681400  1
  O  O54  1  0.46883900  0.75572300  0.43681400  1
  O  O55  1  0.24427700  0.53116100  0.56318600  1
  O  O56  1  0.14699400  0.74620600  0.75000000  1
  O  O57  1  0.25379400  0.85300600  0.25000000  1
  O  O58  1  0.85300600  0.25379400  0.25000000  1
  O  O59  1  0.74620600  0.14699400  0.75000000  1
  O  O60  1  0.28850900  0.96270700  0.93457500  1
  O  O61  1  0.03729300  0.71149100  0.06542500  1
  O  O62  1  0.28850900  0.96270700  0.56542500  1
  O  O63  1  0.03729300  0.71149100  0.43457500  1
  O  O64  1  0.71149100  0.03729300  0.06542500  1
  O  O65  1  0.96270700  0.28850900  0.93457500  1
  O  O66  1  0.71149100  0.03729300  0.43457500  1
  O  O67  1  0.96270700  0.28850900  0.56542500  1
  O  O68  1  0.30496000  0.10169700  0.75000000  1
  O  O69  1  0.89830300  0.69504000  0.25000000  1
  O  O70  1  0.69504000  0.89830300  0.25000000  1
  O  O71  1  0.10169700  0.30496000  0.75000000  1
  O  O72  1  0.65441400  0.45677200  0.75000000  1
  O  O73  1  0.54322800  0.34558600  0.25000000  1
  O  O74  1  0.34558600  0.54322800  0.25000000  1
  O  O75  1  0.45677200  0.65441400  0.75000000  1
  O  O76  1  0.43465000  0.30964900  0.56051900  1
  O  O77  1  0.69035100  0.56535000  0.43948100  1
  O  O78  1  0.43465000  0.30964900  0.93948100  1
  O  O79  1  0.69035100  0.56535000  0.06051900  1
  O  O80  1  0.56535000  0.69035100  0.43948100  1
  O  O81  1  0.30964900  0.43465000  0.56051900  1
  O  O82  1  0.56535000  0.69035100  0.06051900  1
  O  O83  1  0.30964900  0.43465000  0.93948100  1
  O  O84  1  0.31026300  0.31026300  0.75000000  1
  O  O85  1  0.68973700  0.68973700  0.25000000  1
  O  O86  1  0.16281300  0.08766400  0.93644800  1
  O  O87  1  0.91233600  0.83718700  0.06355200  1
  O  O88  1  0.16281300  0.08766400  0.56355200  1
  O  O89  1  0.91233600  0.83718700  0.43644800  1
  O  O90  1  0.83718700  0.91233600  0.06355200  1
  O  O91  1  0.08766400  0.16281300  0.93644800  1
  O  O92  1  0.83718700  0.91233600  0.43644800  1
  O  O93  1  0.08766400  0.16281300  0.56355200  1
  O  O94  1  0.05734800  0.05734800  0.25000000  1
  O  O95  1  0.94265200  0.94265200  0.75000000  1
