# generated using pymatgen
data_GdV(SeO4)2
_symmetry_space_group_name_H-M   'P 1'
_cell_length_a   7.05858400
_cell_length_b   6.83617700
_cell_length_c   13.63509505
_cell_angle_alpha   88.76136524
_cell_angle_beta   90.00000000
_cell_angle_gamma   90.00000000
_symmetry_Int_Tables_number   1
_chemical_formula_structural   GdV(SeO4)2
_chemical_formula_sum   'Gd4 V4 Se8 O32'
_cell_volume   657.79045073
_cell_formula_units_Z   4
loop_
 _symmetry_equiv_pos_site_id
 _symmetry_equiv_pos_as_xyz
  1  'x, y, z'
loop_
 _atom_site_type_symbol
 _atom_site_label
 _atom_site_symmetry_multiplicity
 _atom_site_fract_x
 _atom_site_fract_y
 _atom_site_fract_z
 _atom_site_occupancy
  Gd  Gd0  1  0.75000000  0.37644500  0.86350300  1
  Gd  Gd1  1  0.25000000  0.62355500  0.13649700  1
  Gd  Gd2  1  0.75000000  0.92245800  0.06912700  1
  Gd  Gd3  1  0.25000000  0.07754200  0.93087300  1
  V  V4  1  0.50886700  0.62646400  0.61377300  1
  V  V5  1  0.00886700  0.37353600  0.38622700  1
  V  V6  1  0.49113300  0.37353600  0.38622700  1
  V  V7  1  0.99113300  0.62646400  0.61377300  1
  Se  Se8  1  0.25000000  0.03801000  0.64917300  1
  Se  Se9  1  0.75000000  0.96199000  0.35082700  1
  Se  Se10  1  0.75000000  0.45069400  0.13816800  1
  Se  Se11  1  0.25000000  0.54930600  0.86183200  1
  Se  Se12  1  0.75000000  0.20684200  0.59268200  1
  Se  Se13  1  0.25000000  0.79315800  0.40731800  1
  Se  Se14  1  0.75000000  0.89316300  0.83963700  1
  Se  Se15  1  0.25000000  0.10683700  0.16036300  1
  O  O16  1  0.25000000  0.98192000  0.77053400  1
  O  O17  1  0.75000000  0.01808000  0.22946600  1
  O  O18  1  0.44516200  0.90603900  0.60537500  1
  O  O19  1  0.94516200  0.09396100  0.39462500  1
  O  O20  1  0.55483800  0.09396100  0.39462500  1
  O  O21  1  0.05483800  0.90603900  0.60537500  1
  O  O22  1  0.75000000  0.29076700  0.04099600  1
  O  O23  1  0.25000000  0.70923300  0.95900400  1
  O  O24  1  0.57454000  0.62093200  0.10770300  1
  O  O25  1  0.07454000  0.37906800  0.89229700  1
  O  O26  1  0.42546000  0.37906800  0.89229700  1
  O  O27  1  0.92546000  0.62093200  0.10770300  1
  O  O28  1  0.75000000  0.21151400  0.71656700  1
  O  O29  1  0.25000000  0.78848600  0.28343300  1
  O  O30  1  0.55486700  0.36064500  0.56232100  1
  O  O31  1  0.05486700  0.63935500  0.43767900  1
  O  O32  1  0.44513300  0.63935500  0.43767900  1
  O  O33  1  0.94513300  0.36064500  0.56232100  1
  O  O34  1  0.75000000  0.69416000  0.91899900  1
  O  O35  1  0.25000000  0.30584000  0.08100100  1
  O  O36  1  0.57683600  0.02813700  0.90070600  1
  O  O37  1  0.07683600  0.97186300  0.09929400  1
  O  O38  1  0.42316400  0.97186300  0.09929400  1
  O  O39  1  0.92316400  0.02813700  0.90070600  1
  O  O40  1  0.56252900  0.58669800  0.73102800  1
  O  O41  1  0.06252900  0.41330200  0.26897200  1
  O  O42  1  0.43747100  0.41330200  0.26897200  1
  O  O43  1  0.93747100  0.58669800  0.73102800  1
  O  O44  1  0.75000000  0.69841700  0.57190800  1
  O  O45  1  0.25000000  0.30158300  0.42809200  1
  O  O46  1  0.25000000  0.57595100  0.61687400  1
  O  O47  1  0.75000000  0.42404900  0.38312600  1
