# generated using pymatgen
data_V5Se4
_symmetry_space_group_name_H-M   'P 1'
_cell_length_a   6.80256029
_cell_length_b   6.80256029
_cell_length_c   6.80256029
_cell_angle_alpha   93.42836719
_cell_angle_beta   93.42836719
_cell_angle_gamma   151.69050894
_symmetry_Int_Tables_number   1
_chemical_formula_structural   V5Se4
_chemical_formula_sum   'V5 Se4'
_cell_volume   144.75044969
_cell_formula_units_Z   1
loop_
 _symmetry_equiv_pos_site_id
 _symmetry_equiv_pos_as_xyz
  1  'x, y, z'
loop_
 _atom_site_type_symbol
 _atom_site_label
 _atom_site_symmetry_multiplicity
 _atom_site_fract_x
 _atom_site_fract_y
 _atom_site_fract_z
 _atom_site_occupancy
  V  V0  1  0.00000000  0.00000000  0.00000000  1
  V  V1  1  0.38021600  0.30674800  0.68696400  1
  V  V2  1  0.61978400  0.69325200  0.31303600  1
  V  V3  1  0.69325200  0.38021600  0.07346900  1
  V  V4  1  0.30674800  0.61978400  0.92653100  1
  Se  Se5  1  0.27709600  0.06204400  0.33914000  1
  Se  Se6  1  0.72290400  0.93795600  0.66086000  1
  Se  Se7  1  0.93795600  0.27709600  0.21505200  1
  Se  Se8  1  0.06204400  0.72290400  0.78494800  1
