# generated using pymatgen
data_Lu2Si4Mo3
_symmetry_space_group_name_H-M   'P 1'
_cell_length_a   6.69821600
_cell_length_b   6.91555000
_cell_length_c   12.84979600
_cell_angle_alpha   90.00000000
_cell_angle_beta   90.00000000
_cell_angle_gamma   90.00000000
_symmetry_Int_Tables_number   1
_chemical_formula_structural   Lu2Si4Mo3
_chemical_formula_sum   'Lu8 Si16 Mo12'
_cell_volume   595.22629276
_cell_formula_units_Z   4
loop_
 _symmetry_equiv_pos_site_id
 _symmetry_equiv_pos_as_xyz
  1  'x, y, z'
loop_
 _atom_site_type_symbol
 _atom_site_label
 _atom_site_symmetry_multiplicity
 _atom_site_fract_x
 _atom_site_fract_y
 _atom_site_fract_z
 _atom_site_occupancy
  Lu  Lu0  1  0.49707100  0.33143500  0.09353500  1
  Lu  Lu1  1  0.99707100  0.16856500  0.40646500  1
  Lu  Lu2  1  0.50292900  0.66856500  0.59353500  1
  Lu  Lu3  1  0.00292900  0.83143500  0.90646500  1
  Lu  Lu4  1  0.50292900  0.66856500  0.90646500  1
  Lu  Lu5  1  0.00292900  0.83143500  0.59353500  1
  Lu  Lu6  1  0.49707100  0.33143500  0.40646500  1
  Lu  Lu7  1  0.99707100  0.16856500  0.09353500  1
  Si  Si8  1  0.66125200  0.03985900  0.54625100  1
  Si  Si9  1  0.16125200  0.46014100  0.95374900  1
  Si  Si10  1  0.33874800  0.96014100  0.04625100  1
  Si  Si11  1  0.83874800  0.53985900  0.45374900  1
  Si  Si12  1  0.33874800  0.96014100  0.45374900  1
  Si  Si13  1  0.83874800  0.53985900  0.04625100  1
  Si  Si14  1  0.66125200  0.03985900  0.95374900  1
  Si  Si15  1  0.16125200  0.46014100  0.54625100  1
  Si  Si16  1  0.53375900  0.36961200  0.75000000  1
  Si  Si17  1  0.03375900  0.13038800  0.75000000  1
  Si  Si18  1  0.46624100  0.63038800  0.25000000  1
  Si  Si19  1  0.96624100  0.86961200  0.25000000  1
  Si  Si20  1  0.80114700  0.63291000  0.75000000  1
  Si  Si21  1  0.30114700  0.86709000  0.75000000  1
  Si  Si22  1  0.19885300  0.36709000  0.25000000  1
  Si  Si23  1  0.69885300  0.13291000  0.25000000  1
  Mo  Mo24  1  0.82964500  0.33391900  0.62448400  1
  Mo  Mo25  1  0.32964500  0.16608100  0.87551600  1
  Mo  Mo26  1  0.17035500  0.66608100  0.12448400  1
  Mo  Mo27  1  0.67035500  0.83391900  0.37551600  1
  Mo  Mo28  1  0.17035500  0.66608100  0.37551600  1
  Mo  Mo29  1  0.67035500  0.83391900  0.12448400  1
  Mo  Mo30  1  0.82964500  0.33391900  0.87551600  1
  Mo  Mo31  1  0.32964500  0.16608100  0.62448400  1
  Mo  Mo32  1  0.66614900  0.99604300  0.75000000  1
  Mo  Mo33  1  0.16614900  0.50395700  0.75000000  1
  Mo  Mo34  1  0.33385100  0.00395700  0.25000000  1
  Mo  Mo35  1  0.83385100  0.49604300  0.25000000  1
