# generated using pymatgen
data_La3SbO3
_symmetry_space_group_name_H-M   'P 1'
_cell_length_a   4.11897200
_cell_length_b   7.25920594
_cell_length_c   11.12569699
_cell_angle_alpha   81.81361664
_cell_angle_beta   79.33241117
_cell_angle_gamma   73.51843741
_symmetry_Int_Tables_number   1
_chemical_formula_structural   La3SbO3
_chemical_formula_sum   'La6 Sb2 O6'
_cell_volume   312.05270210
_cell_formula_units_Z   2
loop_
 _symmetry_equiv_pos_site_id
 _symmetry_equiv_pos_as_xyz
  1  'x, y, z'
loop_
 _atom_site_type_symbol
 _atom_site_label
 _atom_site_symmetry_multiplicity
 _atom_site_fract_x
 _atom_site_fract_y
 _atom_site_fract_z
 _atom_site_occupancy
  La  La0  1  0.38038500  0.79459400  0.44463600  1
  La  La1  1  0.61961500  0.20540600  0.55536400  1
  La  La2  1  0.37211100  0.35673600  0.89904200  1
  La  La3  1  0.62788900  0.64326400  0.10095800  1
  La  La4  1  0.84548900  0.10228700  0.20673400  1
  La  La5  1  0.15451100  0.89771300  0.79326600  1
  Sb  Sb6  1  0.87775800  0.56240500  0.68207900  1
  Sb  Sb7  1  0.12224200  0.43759500  0.31792100  1
  O  O8  1  0.81042300  0.96846800  0.41068500  1
  O  O9  1  0.18957700  0.03153200  0.58931500  1
  O  O10  1  0.56371700  0.07400200  0.79856300  1
  O  O11  1  0.43628300  0.92599800  0.20143700  1
  O  O12  1  0.83823500  0.31090700  0.01262300  1
  O  O13  1  0.16176500  0.68909300  0.98737700  1
