# generated using pymatgen
data_Li3InN2
_symmetry_space_group_name_H-M   'P 1'
_cell_length_a   8.84697604
_cell_length_b   8.84697604
_cell_length_c   8.84697604
_cell_angle_alpha   109.47122063
_cell_angle_beta   109.47122063
_cell_angle_gamma   109.47122063
_symmetry_Int_Tables_number   1
_chemical_formula_structural   Li3InN2
_chemical_formula_sum   'Li24 In8 N16'
_cell_volume   533.04351361
_cell_formula_units_Z   8
loop_
 _symmetry_equiv_pos_site_id
 _symmetry_equiv_pos_as_xyz
  1  'x, y, z'
loop_
 _atom_site_type_symbol
 _atom_site_label
 _atom_site_symmetry_multiplicity
 _atom_site_fract_x
 _atom_site_fract_y
 _atom_site_fract_z
 _atom_site_occupancy
  Li  Li0  1  0.26374500  0.22575600  0.75990700  1
  Li  Li1  1  0.53415100  0.27424400  0.53798900  1
  Li  Li2  1  0.23625500  0.99616200  0.96201100  1
  Li  Li3  1  0.96584900  0.50383800  0.74009300  1
  Li  Li4  1  0.99616200  0.96201100  0.23625500  1
  Li  Li5  1  0.50383800  0.74009300  0.96584900  1
  Li  Li6  1  0.22575600  0.75990700  0.26374500  1
  Li  Li7  1  0.27424400  0.53798900  0.53415100  1
  Li  Li8  1  0.74009300  0.96584900  0.50383800  1
  Li  Li9  1  0.96201100  0.23625500  0.99616200  1
  Li  Li10  1  0.53798900  0.53415100  0.27424400  1
  Li  Li11  1  0.75990700  0.26374500  0.22575600  1
  Li  Li12  1  0.73625500  0.77424400  0.24009300  1
  Li  Li13  1  0.46584900  0.72575600  0.46201100  1
  Li  Li14  1  0.76374500  0.00383800  0.03798900  1
  Li  Li15  1  0.03415100  0.49616200  0.25990700  1
  Li  Li16  1  0.00383800  0.03798900  0.76374500  1
  Li  Li17  1  0.49616200  0.25990700  0.03415100  1
  Li  Li18  1  0.77424400  0.24009300  0.73625500  1
  Li  Li19  1  0.72575600  0.46201100  0.46584900  1
  Li  Li20  1  0.25990700  0.03415100  0.49616200  1
  Li  Li21  1  0.03798900  0.76374500  0.00383800  1
  Li  Li22  1  0.46201100  0.46584900  0.72575600  1
  Li  Li23  1  0.24009300  0.73625500  0.77424400  1
  In  In24  1  0.24794800  0.50000000  0.00000000  1
  In  In25  1  0.50000000  0.00000000  0.24794800  1
  In  In26  1  0.25205200  0.25205200  0.25205200  1
  In  In27  1  0.00000000  0.24794800  0.50000000  1
  In  In28  1  0.75205200  0.50000000  0.00000000  1
  In  In29  1  0.50000000  0.00000000  0.75205200  1
  In  In30  1  0.74794800  0.74794800  0.74794800  1
  In  In31  1  0.00000000  0.75205200  0.50000000  1
  N  N32  1  0.00000000  0.50000000  0.00000000  1
  N  N33  1  0.50000000  0.00000000  0.00000000  1
  N  N34  1  0.50000000  0.50000000  0.50000000  1
  N  N35  1  0.00000000  0.00000000  0.50000000  1
  N  N36  1  0.49914500  0.75000000  0.24914500  1
  N  N37  1  0.00085500  0.25000000  0.25085500  1
  N  N38  1  0.25000000  0.25085500  0.00085500  1
  N  N39  1  0.75000000  0.24914500  0.49914500  1
  N  N40  1  0.25085500  0.00085500  0.25000000  1
  N  N41  1  0.24914500  0.49914500  0.75000000  1
  N  N42  1  0.50085500  0.25000000  0.75085500  1
  N  N43  1  0.99914500  0.75000000  0.74914500  1
  N  N44  1  0.75000000  0.74914500  0.99914500  1
  N  N45  1  0.25000000  0.75085500  0.50085500  1
  N  N46  1  0.74914500  0.99914500  0.75000000  1
  N  N47  1  0.75085500  0.50085500  0.25000000  1
