# generated using pymatgen
data_LaNiC2
_symmetry_space_group_name_H-M   'P 1'
_cell_length_a   3.82731293
_cell_length_b   3.82731293
_cell_length_c   3.97763500
_cell_angle_alpha   90.00000000
_cell_angle_beta   90.00000000
_cell_angle_gamma   106.73987644
_symmetry_Int_Tables_number   1
_chemical_formula_structural   LaNiC2
_chemical_formula_sum   'La1 Ni1 C2'
_cell_volume   55.79651958
_cell_formula_units_Z   1
loop_
 _symmetry_equiv_pos_site_id
 _symmetry_equiv_pos_as_xyz
  1  'x, y, z'
loop_
 _atom_site_type_symbol
 _atom_site_label
 _atom_site_symmetry_multiplicity
 _atom_site_fract_x
 _atom_site_fract_y
 _atom_site_fract_z
 _atom_site_occupancy
  La  La0  1  0.99994300  0.00005700  0.00000000  1
  Ni  Ni1  1  0.61261900  0.38738100  0.50000000  1
  C  C2  1  0.45061500  0.84817700  0.50000000  1
  C  C3  1  0.15182300  0.54938500  0.50000000  1
