# generated using pymatgen
data_CsCoNiF6
_symmetry_space_group_name_H-M   'P 1'
_cell_length_a   7.36367935
_cell_length_b   7.36367935
_cell_length_c   7.36367935
_cell_angle_alpha   119.99866445
_cell_angle_beta   119.61491871
_cell_angle_gamma   90.33529324
_symmetry_Int_Tables_number   1
_chemical_formula_structural   CsCoNiF6
_chemical_formula_sum   'Cs2 Co2 Ni2 F12'
_cell_volume   283.15351176
_cell_formula_units_Z   2
loop_
 _symmetry_equiv_pos_site_id
 _symmetry_equiv_pos_as_xyz
  1  'x, y, z'
loop_
 _atom_site_type_symbol
 _atom_site_label
 _atom_site_symmetry_multiplicity
 _atom_site_fract_x
 _atom_site_fract_y
 _atom_site_fract_z
 _atom_site_occupancy
  Cs  Cs0  1  0.37207400  0.62207400  0.75000000  1
  Cs  Cs1  1  0.62792600  0.37792600  0.25000000  1
  Co  Co2  1  0.00000000  0.00000000  0.00000000  1
  Co  Co3  1  0.50000000  0.00000000  0.50000000  1
  Ni  Ni4  1  0.00000000  0.00000000  0.50000000  1
  Ni  Ni5  1  0.00000000  0.50000000  0.00000000  1
  F  F6  1  0.31852900  0.06852900  0.25000000  1
  F  F7  1  0.92703700  0.67703700  0.25000000  1
  F  F8  1  0.33040400  0.69047600  0.26154800  1
  F  F9  1  0.92892800  0.06885600  0.23845200  1
  F  F10  1  0.33040400  0.06885600  0.63992800  1
  F  F11  1  0.92892800  0.69047600  0.86007200  1
  F  F12  1  0.68147100  0.93147100  0.75000000  1
  F  F13  1  0.07296300  0.32296300  0.75000000  1
  F  F14  1  0.66959600  0.30952400  0.73845200  1
  F  F15  1  0.07107200  0.93114400  0.76154800  1
  F  F16  1  0.66959600  0.93114400  0.36007200  1
  F  F17  1  0.07107200  0.30952400  0.13992800  1
