# generated using pymatgen
data_KUN3O11
_symmetry_space_group_name_H-M   'P 1'
_cell_length_a   9.47704200
_cell_length_b   12.55842800
_cell_length_c   16.87669000
_cell_angle_alpha   90.00000000
_cell_angle_beta   90.00000000
_cell_angle_gamma   90.00000000
_symmetry_Int_Tables_number   1
_chemical_formula_structural   KUN3O11
_chemical_formula_sum   'K8 U8 N24 O88'
_cell_volume   2008.60878798
_cell_formula_units_Z   8
loop_
 _symmetry_equiv_pos_site_id
 _symmetry_equiv_pos_as_xyz
  1  'x, y, z'
loop_
 _atom_site_type_symbol
 _atom_site_label
 _atom_site_symmetry_multiplicity
 _atom_site_fract_x
 _atom_site_fract_y
 _atom_site_fract_z
 _atom_site_occupancy
  K  K0  1  0.74363500  0.69794300  0.37825800  1
  K  K1  1  0.24363500  0.80205700  0.62174200  1
  K  K2  1  0.25636500  0.19794300  0.12174200  1
  K  K3  1  0.75636500  0.30205700  0.87825800  1
  K  K4  1  0.25636500  0.30205700  0.62174200  1
  K  K5  1  0.75636500  0.19794300  0.37825800  1
  K  K6  1  0.74363500  0.80205700  0.87825800  1
  K  K7  1  0.24363500  0.69794300  0.12174200  1
  U  U8  1  0.23783600  0.98375100  0.36968500  1
  U  U9  1  0.73783600  0.51624900  0.63031500  1
  U  U10  1  0.76216400  0.48375100  0.13031500  1
  U  U11  1  0.26216400  0.01624900  0.86968500  1
  U  U12  1  0.76216400  0.01624900  0.63031500  1
  U  U13  1  0.26216400  0.48375100  0.36968500  1
  U  U14  1  0.23783600  0.51624900  0.86968500  1
  U  U15  1  0.73783600  0.98375100  0.13031500  1
  N  N16  1  0.54445200  0.95750300  0.38031400  1
  N  N17  1  0.04445200  0.54249700  0.61968600  1
  N  N18  1  0.45554800  0.45750300  0.11968600  1
  N  N19  1  0.95554800  0.04249700  0.88031400  1
  N  N20  1  0.45554800  0.04249700  0.61968600  1
  N  N21  1  0.95554800  0.45750300  0.38031400  1
  N  N22  1  0.54445200  0.54249700  0.88031400  1
  N  N23  1  0.04445200  0.95750300  0.11968600  1
  N  N24  1  0.07023900  0.80729200  0.30589100  1
  N  N25  1  0.57023900  0.69270800  0.69410900  1
  N  N26  1  0.92976100  0.30729200  0.19410900  1
  N  N27  1  0.42976100  0.19270800  0.80589100  1
  N  N28  1  0.92976100  0.19270800  0.69410900  1
  N  N29  1  0.42976100  0.30729200  0.30589100  1
  N  N30  1  0.07023900  0.69270800  0.80589100  1
  N  N31  1  0.57023900  0.80729200  0.19410900  1
  N  N32  1  0.09917300  0.16302400  0.45098100  1
  N  N33  1  0.59917300  0.33697600  0.54901900  1
  N  N34  1  0.90082700  0.66302400  0.04901900  1
  N  N35  1  0.40082700  0.83697600  0.95098100  1
  N  N36  1  0.90082700  0.83697600  0.54901900  1
  N  N37  1  0.40082700  0.66302400  0.45098100  1
  N  N38  1  0.09917300  0.33697600  0.95098100  1
  N  N39  1  0.59917300  0.16302400  0.04901900  1
  O  O40  1  0.23057600  0.91651300  0.46363300  1
  O  O41  1  0.73057600  0.58348700  0.53636700  1
  O  O42  1  0.76942400  0.41651300  0.03636700  1
  O  O43  1  0.26942400  0.08348700  0.96363300  1
  O  O44  1  0.76942400  0.08348700  0.53636700  1
  O  O45  1  0.26942400  0.41651300  0.46363300  1
  O  O46  1  0.23057600  0.58348700  0.96363300  1
  O  O47  1  0.73057600  0.91651300  0.03636700  1
  O  O48  1  0.24475500  0.05035000  0.27505000  1
  O  O49  1  0.74475500  0.44965000  0.72495000  1
  O  O50  1  0.75524500  0.55035000  0.22495000  1
  O  O51  1  0.25524500  0.94965000  0.77505000  1
  O  O52  1  0.75524500  0.94965000  0.72495000  1
  O  O53  1  0.25524500  0.55035000  0.27505000  1
  O  O54  1  0.24475500  0.44965000  0.77505000  1
  O  O55  1  0.74475500  0.05035000  0.22495000  1
  O  O56  1  0.48197300  0.04314900  0.40385900  1
  O  O57  1  0.98197300  0.45685100  0.59614100  1
  O  O58  1  0.51802700  0.54314900  0.09614100  1
  O  O59  1  0.01802700  0.95685100  0.90385900  1
  O  O60  1  0.51802700  0.95685100  0.59614100  1
  O  O61  1  0.01802700  0.54314900  0.40385900  1
  O  O62  1  0.48197300  0.45685100  0.90385900  1
  O  O63  1  0.98197300  0.04314900  0.09614100  1
  O  O64  1  0.46268000  0.88751000  0.34796900  1
  O  O65  1  0.96268000  0.61249000  0.65203100  1
  O  O66  1  0.53732000  0.38751000  0.15203100  1
  O  O67  1  0.03732000  0.11249000  0.84796900  1
  O  O68  1  0.53732000  0.11249000  0.65203100  1
  O  O69  1  0.03732000  0.38751000  0.34796900  1
  O  O70  1  0.46268000  0.61249000  0.84796900  1
  O  O71  1  0.96268000  0.88751000  0.15203100  1
  O  O72  1  0.20442500  0.81477700  0.29350400  1
  O  O73  1  0.70442500  0.68522300  0.70649600  1
  O  O74  1  0.79557500  0.31477700  0.20649600  1
  O  O75  1  0.29557500  0.18522300  0.79350400  1
  O  O76  1  0.79557500  0.18522300  0.70649600  1
  O  O77  1  0.29557500  0.31477700  0.29350400  1
  O  O78  1  0.20442500  0.68522300  0.79350400  1
  O  O79  1  0.70442500  0.81477700  0.20649600  1
  O  O80  1  0.01417100  0.88781400  0.34140000  1
  O  O81  1  0.51417100  0.61218600  0.65860000  1
  O  O82  1  0.98582900  0.38781400  0.15860000  1
  O  O83  1  0.48582900  0.11218600  0.84140000  1
  O  O84  1  0.98582900  0.11218600  0.65860000  1
  O  O85  1  0.48582900  0.38781400  0.34140000  1
  O  O86  1  0.01417100  0.61218600  0.84140000  1
  O  O87  1  0.51417100  0.88781400  0.15860000  1
  O  O88  1  0.03089400  0.09610100  0.40679300  1
  O  O89  1  0.53089400  0.40389900  0.59320700  1
  O  O90  1  0.96910600  0.59610100  0.09320700  1
  O  O91  1  0.46910600  0.90389900  0.90679300  1
  O  O92  1  0.96910600  0.90389900  0.59320700  1
  O  O93  1  0.46910600  0.59610100  0.40679300  1
  O  O94  1  0.03089400  0.40389900  0.90679300  1
  O  O95  1  0.53089400  0.09610100  0.09320700  1
  O  O96  1  0.23406600  0.15150900  0.45108400  1
  O  O97  1  0.73406600  0.34849100  0.54891600  1
  O  O98  1  0.76593400  0.65150900  0.04891600  1
  O  O99  1  0.26593400  0.84849100  0.95108400  1
  O  O100  1  0.76593400  0.84849100  0.54891600  1
  O  O101  1  0.26593400  0.65150900  0.45108400  1
  O  O102  1  0.23406600  0.34849100  0.95108400  1
  O  O103  1  0.73406600  0.15150900  0.04891600  1
  O  O104  1  0.67179400  0.94325200  0.38759900  1
  O  O105  1  0.17179400  0.55674800  0.61240100  1
  O  O106  1  0.32820600  0.44325200  0.11240100  1
  O  O107  1  0.82820600  0.05674800  0.88759900  1
  O  O108  1  0.32820600  0.05674800  0.61240100  1
  O  O109  1  0.82820600  0.44325200  0.38759900  1
  O  O110  1  0.67179400  0.55674800  0.88759900  1
  O  O111  1  0.17179400  0.94325200  0.11240100  1
  O  O112  1  0.00134100  0.72921600  0.28555800  1
  O  O113  1  0.50134100  0.77078400  0.71444200  1
  O  O114  1  0.99865900  0.22921600  0.21444200  1
  O  O115  1  0.49865900  0.27078400  0.78555800  1
  O  O116  1  0.99865900  0.27078400  0.71444200  1
  O  O117  1  0.49865900  0.22921600  0.28555800  1
  O  O118  1  0.00134100  0.77078400  0.78555800  1
  O  O119  1  0.50134100  0.72921600  0.21444200  1
  O  O120  1  0.03840700  0.23177100  0.48979600  1
  O  O121  1  0.53840700  0.26822900  0.51020400  1
  O  O122  1  0.96159300  0.73177100  0.01020400  1
  O  O123  1  0.46159300  0.76822900  0.98979600  1
  O  O124  1  0.96159300  0.76822900  0.51020400  1
  O  O125  1  0.46159300  0.73177100  0.48979600  1
  O  O126  1  0.03840700  0.26822900  0.98979600  1
  O  O127  1  0.53840700  0.23177100  0.01020400  1
