# generated using pymatgen
data_Tb3BCl3
_symmetry_space_group_name_H-M   'P 1'
_cell_length_a   9.50462534
_cell_length_b   9.50462534
_cell_length_c   9.50462534
_cell_angle_alpha   109.47122063
_cell_angle_beta   109.47122063
_cell_angle_gamma   109.47122063
_symmetry_Int_Tables_number   1
_chemical_formula_structural   Tb3BCl3
_chemical_formula_sum   'Tb12 B4 Cl12'
_cell_volume   660.97208198
_cell_formula_units_Z   4
loop_
 _symmetry_equiv_pos_site_id
 _symmetry_equiv_pos_as_xyz
  1  'x, y, z'
loop_
 _atom_site_type_symbol
 _atom_site_label
 _atom_site_symmetry_multiplicity
 _atom_site_fract_x
 _atom_site_fract_y
 _atom_site_fract_z
 _atom_site_occupancy
  Tb  Tb0  1  0.46986100  0.48493000  0.23493000  1
  Tb  Tb1  1  0.75000000  0.23493000  0.26507000  1
  Tb  Tb2  1  0.75000000  0.01507000  0.48493000  1
  Tb  Tb3  1  0.23493000  0.46986100  0.48493000  1
  Tb  Tb4  1  0.26507000  0.75000000  0.23493000  1
  Tb  Tb5  1  0.03013900  0.26507000  0.01507000  1
  Tb  Tb6  1  0.01507000  0.03013900  0.26507000  1
  Tb  Tb7  1  0.48493000  0.75000000  0.01507000  1
  Tb  Tb8  1  0.48493000  0.23493000  0.46986100  1
  Tb  Tb9  1  0.01507000  0.48493000  0.75000000  1
  Tb  Tb10  1  0.26507000  0.01507000  0.03013900  1
  Tb  Tb11  1  0.23493000  0.26507000  0.75000000  1
  B  B12  1  0.25000000  0.25000000  0.25000000  1
  B  B13  1  0.50000000  0.00000000  0.25000000  1
  B  B14  1  0.00000000  0.25000000  0.50000000  1
  B  B15  1  0.25000000  0.50000000  0.00000000  1
  Cl  Cl16  1  0.25000000  0.75542400  0.74457600  1
  Cl  Cl17  1  0.51084800  0.50542400  0.75542400  1
  Cl  Cl18  1  0.98915200  0.74457600  0.99457600  1
  Cl  Cl19  1  0.74457600  0.25000000  0.75542400  1
  Cl  Cl20  1  0.99457600  0.98915200  0.74457600  1
  Cl  Cl21  1  0.25000000  0.99457600  0.50542400  1
  Cl  Cl22  1  0.75542400  0.51084800  0.50542400  1
  Cl  Cl23  1  0.50542400  0.25000000  0.99457600  1
  Cl  Cl24  1  0.75542400  0.74457600  0.25000000  1
  Cl  Cl25  1  0.74457600  0.99457600  0.98915200  1
  Cl  Cl26  1  0.99457600  0.50542400  0.25000000  1
  Cl  Cl27  1  0.50542400  0.75542400  0.51084800  1
