# generated using pymatgen
data_HoFeC2
_symmetry_space_group_name_H-M   'P 1'
_cell_length_a   3.72583024
_cell_length_b   3.72583024
_cell_length_c   3.60492600
_cell_angle_alpha   90.00000000
_cell_angle_beta   90.00000000
_cell_angle_gamma   104.96106275
_symmetry_Int_Tables_number   1
_chemical_formula_structural   HoFeC2
_chemical_formula_sum   'Ho1 Fe1 C2'
_cell_volume   48.34652164
_cell_formula_units_Z   1
loop_
 _symmetry_equiv_pos_site_id
 _symmetry_equiv_pos_as_xyz
  1  'x, y, z'
loop_
 _atom_site_type_symbol
 _atom_site_label
 _atom_site_symmetry_multiplicity
 _atom_site_fract_x
 _atom_site_fract_y
 _atom_site_fract_z
 _atom_site_occupancy
  Ho  Ho0  1  0.00496500  0.99503500  0.00000000  1
  Fe  Fe1  1  0.61331300  0.38668700  0.50000000  1
  C  C2  1  0.45319200  0.85647000  0.50000000  1
  C  C3  1  0.14353000  0.54680800  0.50000000  1
