# generated using pymatgen
data_Ho2(Ga3Rh)3
_symmetry_space_group_name_H-M   'P 1'
_cell_length_a   7.56737492
_cell_length_b   7.56737492
_cell_length_c   9.52741600
_cell_angle_alpha   90.00000000
_cell_angle_beta   90.00000000
_cell_angle_gamma   119.85412573
_symmetry_Int_Tables_number   1
_chemical_formula_structural   Ho2(Ga3Rh)3
_chemical_formula_sum   'Ho4 Ga18 Rh6'
_cell_volume   473.18696012
_cell_formula_units_Z   2
loop_
 _symmetry_equiv_pos_site_id
 _symmetry_equiv_pos_as_xyz
  1  'x, y, z'
loop_
 _atom_site_type_symbol
 _atom_site_label
 _atom_site_symmetry_multiplicity
 _atom_site_fract_x
 _atom_site_fract_y
 _atom_site_fract_z
 _atom_site_occupancy
  Ho  Ho0  1  0.99684900  0.66759300  0.25000000  1
  Ho  Ho1  1  0.00315100  0.33240700  0.75000000  1
  Ho  Ho2  1  0.66759300  0.99684900  0.25000000  1
  Ho  Ho3  1  0.33240700  0.00315100  0.75000000  1
  Ga  Ga4  1  0.12475100  0.12475100  0.25000000  1
  Ga  Ga5  1  0.87524900  0.87524900  0.75000000  1
  Ga  Ga6  1  0.00005500  0.33393600  0.07875200  1
  Ga  Ga7  1  0.99994500  0.66606400  0.92124800  1
  Ga  Ga8  1  0.99994500  0.66606400  0.57875200  1
  Ga  Ga9  1  0.33393600  0.00005500  0.42124800  1
  Ga  Ga10  1  0.00005500  0.33393600  0.42124800  1
  Ga  Ga11  1  0.66606400  0.99994500  0.57875200  1
  Ga  Ga12  1  0.66606400  0.99994500  0.92124800  1
  Ga  Ga13  1  0.33393600  0.00005500  0.07875200  1
  Ga  Ga14  1  0.33334600  0.33334600  0.56311100  1
  Ga  Ga15  1  0.66665400  0.66665400  0.43688900  1
  Ga  Ga16  1  0.66665400  0.66665400  0.06311100  1
  Ga  Ga17  1  0.33334600  0.33334600  0.93688900  1
  Ga  Ga18  1  0.33796200  0.54725700  0.25000000  1
  Ga  Ga19  1  0.66203800  0.45274300  0.75000000  1
  Ga  Ga20  1  0.54725700  0.33796200  0.25000000  1
  Ga  Ga21  1  0.45274300  0.66203800  0.75000000  1
  Rh  Rh22  1  0.67165400  0.32834600  0.00000000  1
  Rh  Rh23  1  0.32834600  0.67165400  0.00000000  1
  Rh  Rh24  1  0.32834600  0.67165400  0.50000000  1
  Rh  Rh25  1  0.67165400  0.32834600  0.50000000  1
  Rh  Rh26  1  0.00000000  0.00000000  0.00000000  1
  Rh  Rh27  1  0.00000000  0.00000000  0.50000000  1
