# generated using pymatgen
data_Eu(CuSn)2
_symmetry_space_group_name_H-M   'P 1'
_cell_length_a   5.97709190
_cell_length_b   5.97709190
_cell_length_c   4.84937196
_cell_angle_alpha   72.61485960
_cell_angle_beta   72.61485960
_cell_angle_gamma   42.32539931
_symmetry_Int_Tables_number   1
_chemical_formula_structural   Eu(CuSn)2
_chemical_formula_sum   'Eu1 Cu2 Sn2'
_cell_volume   110.50430593
_cell_formula_units_Z   1
loop_
 _symmetry_equiv_pos_site_id
 _symmetry_equiv_pos_as_xyz
  1  'x, y, z'
loop_
 _atom_site_type_symbol
 _atom_site_label
 _atom_site_symmetry_multiplicity
 _atom_site_fract_x
 _atom_site_fract_y
 _atom_site_fract_z
 _atom_site_occupancy
  Eu  Eu0  1  0.00000000  0.00000000  0.00000000  1
  Cu  Cu1  1  0.73903300  0.73903300  0.86118000  1
  Cu  Cu2  1  0.26096700  0.26096700  0.13882000  1
  Sn  Sn3  1  0.35652700  0.35652700  0.57108000  1
  Sn  Sn4  1  0.64347300  0.64347300  0.42892000  1
