# generated using pymatgen
data_Th3Si2
_symmetry_space_group_name_H-M   'P 1'
_cell_length_a   7.83904700
_cell_length_b   7.83904700
_cell_length_c   4.16576600
_cell_angle_alpha   90.00000000
_cell_angle_beta   90.00000000
_cell_angle_gamma   90.00000000
_symmetry_Int_Tables_number   1
_chemical_formula_structural   Th3Si2
_chemical_formula_sum   'Th6 Si4'
_cell_volume   255.98906123
_cell_formula_units_Z   2
loop_
 _symmetry_equiv_pos_site_id
 _symmetry_equiv_pos_as_xyz
  1  'x, y, z'
loop_
 _atom_site_type_symbol
 _atom_site_label
 _atom_site_symmetry_multiplicity
 _atom_site_fract_x
 _atom_site_fract_y
 _atom_site_fract_z
 _atom_site_occupancy
  Th  Th0  1  0.50000000  0.50000000  0.00000000  1
  Th  Th1  1  0.00000000  0.00000000  0.00000000  1
  Th  Th2  1  0.68121500  0.18121500  0.50000000  1
  Th  Th3  1  0.31878500  0.81878500  0.50000000  1
  Th  Th4  1  0.18121500  0.31878500  0.50000000  1
  Th  Th5  1  0.81878500  0.68121500  0.50000000  1
  Si  Si6  1  0.11253300  0.61253300  0.00000000  1
  Si  Si7  1  0.88746700  0.38746700  0.00000000  1
  Si  Si8  1  0.61253300  0.88746700  0.00000000  1
  Si  Si9  1  0.38746700  0.11253300  0.00000000  1
