# generated using pymatgen
data_LaCeSi2(BO5)2
_symmetry_space_group_name_H-M   'P 1'
_cell_length_a   6.85529100
_cell_length_b   6.85797654
_cell_length_c   11.90464322
_cell_angle_alpha   90.18361902
_cell_angle_beta   90.04720968
_cell_angle_gamma   90.08494144
_symmetry_Int_Tables_number   1
_chemical_formula_structural   LaCeSi2(BO5)2
_chemical_formula_sum   'La3 Ce3 Si6 B6 O30'
_cell_volume   559.67436787
_cell_formula_units_Z   3
loop_
 _symmetry_equiv_pos_site_id
 _symmetry_equiv_pos_as_xyz
  1  'x, y, z'
loop_
 _atom_site_type_symbol
 _atom_site_label
 _atom_site_symmetry_multiplicity
 _atom_site_fract_x
 _atom_site_fract_y
 _atom_site_fract_z
 _atom_site_occupancy
  La  La0  1  0.99997500  0.59762200  0.00005800  1
  La  La1  1  0.66648700  0.20069100  0.20106900  1
  La  La2  1  0.66693000  0.70078300  0.70063100  1
  Ce  Ce3  1  0.33317100  0.70134400  0.29894300  1
  Ce  Ce4  1  0.33346900  0.20150000  0.79834500  1
  Ce  Ce5  1  0.99993000  0.09675800  0.50009200  1
  Si  Si6  1  0.83324600  0.70903000  0.29141600  1
  Si  Si7  1  0.83356200  0.20819600  0.79072500  1
  Si  Si8  1  0.49993200  0.08190000  0.49981200  1
  Si  Si9  1  0.49971300  0.58187200  0.99969500  1
  Si  Si10  1  0.16662600  0.20912600  0.20969800  1
  Si  Si11  1  0.16701700  0.70994900  0.70890000  1
  B  B12  1  0.33331500  0.94611700  0.05406500  1
  B  B13  1  0.33304400  0.44593200  0.55393400  1
  B  B14  1  0.00038800  0.10786900  0.99996100  1
  B  B15  1  0.00037500  0.60834900  0.49993300  1
  B  B16  1  0.66663800  0.44604500  0.44601100  1
  B  B17  1  0.66639800  0.94609300  0.94590600  1
  O  O18  1  0.00463800  0.16254000  0.30496900  1
  O  O19  1  0.00372200  0.66332400  0.80351100  1
  O  O20  1  0.66943800  0.87287200  0.26673800  1
  O  O21  1  0.66993000  0.37282200  0.76675200  1
  O  O22  1  0.33700600  0.96208900  0.42921200  1
  O  O23  1  0.33794800  0.46157500  0.92890600  1
  O  O24  1  0.32877400  0.37595600  0.23377300  1
  O  O25  1  0.32918600  0.87601800  0.73354100  1
  O  O26  1  0.99695600  0.66344600  0.19695300  1
  O  O27  1  0.99612200  0.16277100  0.69558200  1
  O  O28  1  0.66291900  0.46317500  0.07023600  1
  O  O29  1  0.66372000  0.96391600  0.56974900  1
  O  O30  1  0.83322800  0.98128700  0.01891500  1
  O  O31  1  0.83332500  0.48142000  0.51900900  1
  O  O32  1  0.49997800  0.03814100  0.00021800  1
  O  O33  1  0.50010400  0.53787500  0.50020500  1
  O  O34  1  0.16673000  0.48108100  0.48085300  1
  O  O35  1  0.16686900  0.98082900  0.98111200  1
  O  O36  1  0.64043200  0.23142200  0.42380100  1
  O  O37  1  0.64014300  0.73133000  0.92387000  1
  O  O38  1  0.30732600  0.02036900  0.17264100  1
  O  O39  1  0.30718000  0.52056900  0.67236200  1
  O  O40  1  0.97393500  0.74884800  0.40401300  1
  O  O41  1  0.97456700  0.24763900  0.90346500  1
  O  O42  1  0.69257300  0.52008100  0.32795100  1
  O  O43  1  0.69266600  0.01972000  0.82776500  1
  O  O44  1  0.35912600  0.73116400  0.07593000  1
  O  O45  1  0.35874200  0.23108900  0.57584500  1
  O  O46  1  0.02645600  0.24809600  0.09681100  1
  O  O47  1  0.02684500  0.74935800  0.59612100  1
