# generated using pymatgen
data_Rb2MnI4
_symmetry_space_group_name_H-M   'P 1'
_cell_length_a   8.38535800
_cell_length_b   8.16911100
_cell_length_c   10.28467564
_cell_angle_alpha   71.50819758
_cell_angle_beta   90.00000000
_cell_angle_gamma   90.00000000
_symmetry_Int_Tables_number   1
_chemical_formula_structural   Rb2MnI4
_chemical_formula_sum   'Rb4 Mn2 I8'
_cell_volume   668.13523407
_cell_formula_units_Z   2
loop_
 _symmetry_equiv_pos_site_id
 _symmetry_equiv_pos_as_xyz
  1  'x, y, z'
loop_
 _atom_site_type_symbol
 _atom_site_label
 _atom_site_symmetry_multiplicity
 _atom_site_fract_x
 _atom_site_fract_y
 _atom_site_fract_z
 _atom_site_occupancy
  Rb  Rb0  1  0.75000000  0.78567400  0.55049700  1
  Rb  Rb1  1  0.25000000  0.21432600  0.44950300  1
  Rb  Rb2  1  0.75000000  0.73303600  0.06828000  1
  Rb  Rb3  1  0.25000000  0.26696400  0.93172000  1
  Mn  Mn4  1  0.75000000  0.22389100  0.70043800  1
  Mn  Mn5  1  0.25000000  0.77610900  0.29956200  1
  I  I6  1  0.75000000  0.39573000  0.43052300  1
  I  I7  1  0.25000000  0.60427000  0.56947700  1
  I  I8  1  0.99925600  0.99544200  0.23912000  1
  I  I9  1  0.00074400  0.00455800  0.76088000  1
  I  I10  1  0.49925600  0.00455800  0.76088000  1
  I  I11  1  0.50074400  0.99544200  0.23912000  1
  I  I12  1  0.75000000  0.41620300  0.86978200  1
  I  I13  1  0.25000000  0.58379700  0.13021800  1
