# generated using pymatgen
data_Nb2Tl4S11
_symmetry_space_group_name_H-M   'P 1'
_cell_length_a   8.15813100
_cell_length_b   9.19623185
_cell_length_c   13.50160385
_cell_angle_alpha   107.75709183
_cell_angle_beta   89.04470667
_cell_angle_gamma   94.96228593
_symmetry_Int_Tables_number   1
_chemical_formula_structural   Nb2Tl4S11
_chemical_formula_sum   'Nb4 Tl8 S22'
_cell_volume   961.02040940
_cell_formula_units_Z   2
loop_
 _symmetry_equiv_pos_site_id
 _symmetry_equiv_pos_as_xyz
  1  'x, y, z'
loop_
 _atom_site_type_symbol
 _atom_site_label
 _atom_site_symmetry_multiplicity
 _atom_site_fract_x
 _atom_site_fract_y
 _atom_site_fract_z
 _atom_site_occupancy
  Nb  Nb0  1  0.12333500  0.63965200  0.30708800  1
  Nb  Nb1  1  0.87666500  0.36034800  0.69291200  1
  Nb  Nb2  1  0.33235300  0.88750800  0.18985900  1
  Nb  Nb3  1  0.66764700  0.11249200  0.81014100  1
  Tl  Tl4  1  0.23251400  0.57832200  0.58414900  1
  Tl  Tl5  1  0.76748600  0.42167800  0.41585100  1
  Tl  Tl6  1  0.49950200  0.73730300  0.88925200  1
  Tl  Tl7  1  0.50049800  0.26269700  0.11074800  1
  Tl  Tl8  1  0.21334100  0.03273800  0.57547700  1
  Tl  Tl9  1  0.78665900  0.96726200  0.42452300  1
  Tl  Tl10  1  0.04820200  0.24133800  0.97547000  1
  Tl  Tl11  1  0.95179800  0.75866200  0.02453000  1
  S  S12  1  0.00734900  0.28833400  0.53340500  1
  S  S13  1  0.99265100  0.71166600  0.46659500  1
  S  S14  1  0.61386300  0.19171000  0.62838500  1
  S  S15  1  0.38613700  0.80829000  0.37161500  1
  S  S16  1  0.04683300  0.36117500  0.24854400  1
  S  S17  1  0.95316700  0.63882500  0.75145600  1
  S  S18  1  0.10071800  0.51047300  0.81140400  1
  S  S19  1  0.89928200  0.48952700  0.18859600  1
  S  S20  1  0.39060400  0.57591300  0.35374900  1
  S  S21  1  0.60939600  0.42408700  0.64625100  1
  S  S22  1  0.36032800  0.12827000  0.33241800  1
  S  S23  1  0.63967200  0.87173000  0.66758200  1
  S  S24  1  0.72826200  0.04334600  0.95551600  1
  S  S25  1  0.27173800  0.95665400  0.04448400  1
  S  S26  1  0.51628600  0.68386800  0.11801700  1
  S  S27  1  0.48371400  0.31613200  0.88198300  1
  S  S28  1  0.72928600  0.39652000  0.88636200  1
  S  S29  1  0.27071400  0.60348000  0.11363800  1
  S  S30  1  0.95771000  0.13685400  0.74780100  1
  S  S31  1  0.04229000  0.86314600  0.25219900  1
  S  S32  1  0.58026500  0.06996400  0.25572100  1
  S  S33  1  0.41973500  0.93003600  0.74427900  1
