# generated using pymatgen
data_Tm2Mo4O15
_symmetry_space_group_name_H-M   'P 1'
_cell_length_a   9.64805300
_cell_length_b   6.86343200
_cell_length_c   10.63517913
_cell_angle_alpha   74.90758379
_cell_angle_beta   90.00000000
_cell_angle_gamma   90.00000000
_symmetry_Int_Tables_number   1
_chemical_formula_structural   Tm2Mo4O15
_chemical_formula_sum   'Tm4 Mo8 O30'
_cell_volume   679.95676410
_cell_formula_units_Z   2
loop_
 _symmetry_equiv_pos_site_id
 _symmetry_equiv_pos_as_xyz
  1  'x, y, z'
loop_
 _atom_site_type_symbol
 _atom_site_label
 _atom_site_symmetry_multiplicity
 _atom_site_fract_x
 _atom_site_fract_y
 _atom_site_fract_z
 _atom_site_occupancy
  Tm  Tm0  1  0.52304000  0.71029100  0.22423800  1
  Tm  Tm1  1  0.47696000  0.28970900  0.77576200  1
  Tm  Tm2  1  0.02304000  0.28970900  0.27576200  1
  Tm  Tm3  1  0.97696000  0.71029100  0.72423800  1
  Mo  Mo4  1  0.74296300  0.41871600  0.01081300  1
  Mo  Mo5  1  0.25703700  0.58128400  0.98918700  1
  Mo  Mo6  1  0.24296300  0.58128400  0.48918700  1
  Mo  Mo7  1  0.75703700  0.41871600  0.51081300  1
  Mo  Mo8  1  0.90403300  0.87851500  0.15681300  1
  Mo  Mo9  1  0.09596700  0.12148500  0.84318700  1
  Mo  Mo10  1  0.40403300  0.12148500  0.34318700  1
  Mo  Mo11  1  0.59596700  0.87851500  0.65681300  1
  O  O12  1  0.72033600  0.88540100  0.14811300  1
  O  O13  1  0.27966400  0.11459900  0.85188700  1
  O  O14  1  0.22033600  0.11459900  0.35188700  1
  O  O15  1  0.77966400  0.88540100  0.64811300  1
  O  O16  1  0.62558400  0.52499900  0.10412000  1
  O  O17  1  0.37441600  0.47500100  0.89588000  1
  O  O18  1  0.12558400  0.47500100  0.39588000  1
  O  O19  1  0.87441600  0.52499900  0.60412000  1
  O  O20  1  0.35028000  0.72134100  0.08233800  1
  O  O21  1  0.64972000  0.27865900  0.91766200  1
  O  O22  1  0.85028000  0.27865900  0.41766200  1
  O  O23  1  0.14972000  0.72134100  0.58233800  1
  O  O24  1  0.00000000  0.00000000  0.00000000  1
  O  O25  1  0.50000000  0.00000000  0.50000000  1
  O  O26  1  0.66570700  0.61691900  0.39772200  1
  O  O27  1  0.33429300  0.38308100  0.60227800  1
  O  O28  1  0.16570700  0.38308100  0.10227800  1
  O  O29  1  0.83429300  0.61691900  0.89772200  1
  O  O30  1  0.97274700  0.95005900  0.29341100  1
  O  O31  1  0.02725300  0.04994100  0.70658900  1
  O  O32  1  0.47274700  0.04994100  0.20658900  1
  O  O33  1  0.52725300  0.95005900  0.79341100  1
  O  O34  1  0.94458800  0.61821200  0.18432800  1
  O  O35  1  0.05541200  0.38178800  0.81567200  1
  O  O36  1  0.44458800  0.38178800  0.31567200  1
  O  O37  1  0.55541200  0.61821200  0.68432800  1
  O  O38  1  0.86573300  0.25589500  0.11912600  1
  O  O39  1  0.13426700  0.74410500  0.88087400  1
  O  O40  1  0.36573300  0.74410500  0.38087400  1
  O  O41  1  0.63426700  0.25589500  0.61912600  1
