# generated using pymatgen
data_Ba3Tm(BO2)9
_symmetry_space_group_name_H-M   'P 1'
_cell_length_a   7.25559201
_cell_length_b   7.25559201
_cell_length_c   17.32963000
_cell_angle_alpha   90.00000000
_cell_angle_beta   90.00000000
_cell_angle_gamma   120.00000007
_symmetry_Int_Tables_number   1
_chemical_formula_structural   Ba3Tm(BO2)9
_chemical_formula_sum   'Ba6 Tm2 B18 O36'
_cell_volume   790.07010512
_cell_formula_units_Z   2
loop_
 _symmetry_equiv_pos_site_id
 _symmetry_equiv_pos_as_xyz
  1  'x, y, z'
loop_
 _atom_site_type_symbol
 _atom_site_label
 _atom_site_symmetry_multiplicity
 _atom_site_fract_x
 _atom_site_fract_y
 _atom_site_fract_z
 _atom_site_occupancy
  Ba  Ba0  1  0.66666700  0.33333300  0.86820500  1
  Ba  Ba1  1  0.33333300  0.66666700  0.13179500  1
  Ba  Ba2  1  0.33333300  0.66666700  0.36820500  1
  Ba  Ba3  1  0.66666700  0.33333300  0.63179500  1
  Ba  Ba4  1  0.00000000  0.00000000  0.75000000  1
  Ba  Ba5  1  0.00000000  0.00000000  0.25000000  1
  Tm  Tm6  1  0.00000000  0.00000000  0.00000000  1
  Tm  Tm7  1  0.00000000  0.00000000  0.50000000  1
  B  B8  1  0.55157800  0.83470200  0.91857400  1
  B  B9  1  0.44842200  0.16529800  0.08142600  1
  B  B10  1  0.28312400  0.44842200  0.91857400  1
  B  B11  1  0.44842200  0.16529800  0.41857400  1
  B  B12  1  0.71687600  0.55157800  0.08142600  1
  B  B13  1  0.55157800  0.83470200  0.58142600  1
  B  B14  1  0.16529800  0.71687600  0.91857400  1
  B  B15  1  0.71687600  0.55157800  0.41857400  1
  B  B16  1  0.83470200  0.28312400  0.08142600  1
  B  B17  1  0.28312400  0.44842200  0.58142600  1
  B  B18  1  0.83470200  0.28312400  0.41857400  1
  B  B19  1  0.16529800  0.71687600  0.58142600  1
  B  B20  1  0.50522900  0.62192000  0.75000000  1
  B  B21  1  0.49477100  0.37808000  0.25000000  1
  B  B22  1  0.11669100  0.49477100  0.75000000  1
  B  B23  1  0.88330900  0.50522900  0.25000000  1
  B  B24  1  0.37808000  0.88330900  0.75000000  1
  B  B25  1  0.62192000  0.11669100  0.25000000  1
  O  O26  1  0.54243500  0.83326500  0.75000000  1
  O  O27  1  0.45756500  0.16673500  0.25000000  1
  O  O28  1  0.29083000  0.45756500  0.75000000  1
  O  O29  1  0.70917000  0.54243500  0.25000000  1
  O  O30  1  0.16673500  0.70917000  0.75000000  1
  O  O31  1  0.83326500  0.29083000  0.25000000  1
  O  O32  1  0.91864000  0.33188600  0.75000000  1
  O  O33  1  0.08136000  0.66811400  0.25000000  1
  O  O34  1  0.41324500  0.08136000  0.75000000  1
  O  O35  1  0.58675500  0.91864000  0.25000000  1
  O  O36  1  0.66811400  0.58675500  0.75000000  1
  O  O37  1  0.33188600  0.41324500  0.25000000  1
  O  O38  1  0.75214200  0.99449500  0.92035400  1
  O  O39  1  0.24785800  0.00550500  0.07964600  1
  O  O40  1  0.24235200  0.24785800  0.92035400  1
  O  O41  1  0.24785800  0.00550500  0.42035400  1
  O  O42  1  0.75764800  0.75214200  0.07964600  1
  O  O43  1  0.75214200  0.99449500  0.57964600  1
  O  O44  1  0.00550500  0.75764800  0.92035400  1
  O  O45  1  0.75764800  0.75214200  0.42035400  1
  O  O46  1  0.99449500  0.24235200  0.07964600  1
  O  O47  1  0.24235200  0.24785800  0.57964600  1
  O  O48  1  0.99449500  0.24235200  0.42035400  1
  O  O49  1  0.00550500  0.75764800  0.57964600  1
  O  O50  1  0.49597200  0.61841300  0.91800000  1
  O  O51  1  0.50402800  0.38158700  0.08200000  1
  O  O52  1  0.12244100  0.50402800  0.91800000  1
  O  O53  1  0.50402800  0.38158700  0.41800000  1
  O  O54  1  0.87755900  0.49597200  0.08200000  1
  O  O55  1  0.49597200  0.61841300  0.58200000  1
  O  O56  1  0.38158700  0.87755900  0.91800000  1
  O  O57  1  0.87755900  0.49597200  0.41800000  1
  O  O58  1  0.61841300  0.12244100  0.08200000  1
  O  O59  1  0.12244100  0.50402800  0.58200000  1
  O  O60  1  0.61841300  0.12244100  0.41800000  1
  O  O61  1  0.38158700  0.87755900  0.58200000  1
