# generated using pymatgen
data_Nb4P2S21
_symmetry_space_group_name_H-M   'P 1'
_cell_length_a   14.09341285
_cell_length_b   14.09341285
_cell_length_c   13.19404429
_cell_angle_alpha   78.06392435
_cell_angle_beta   78.06392435
_cell_angle_gamma   32.12662689
_symmetry_Int_Tables_number   1
_chemical_formula_structural   Nb4P2S21
_chemical_formula_sum   'Nb8 P4 S42'
_cell_volume   1360.98501609
_cell_formula_units_Z   2
loop_
 _symmetry_equiv_pos_site_id
 _symmetry_equiv_pos_as_xyz
  1  'x, y, z'
loop_
 _atom_site_type_symbol
 _atom_site_label
 _atom_site_symmetry_multiplicity
 _atom_site_fract_x
 _atom_site_fract_y
 _atom_site_fract_z
 _atom_site_occupancy
  Nb  Nb0  1  0.29738100  0.41876800  0.67853200  1
  Nb  Nb1  1  0.58123200  0.70261900  0.32146800  1
  Nb  Nb2  1  0.70161000  0.58273200  0.82140300  1
  Nb  Nb3  1  0.41726800  0.29839000  0.17859700  1
  Nb  Nb4  1  0.42148600  0.29566100  0.47006300  1
  Nb  Nb5  1  0.70433900  0.57851400  0.52993700  1
  Nb  Nb6  1  0.57993400  0.70350700  0.02980300  1
  Nb  Nb7  1  0.29649300  0.42006600  0.97019700  1
  P  P8  1  0.77243800  0.00986600  0.30846000  1
  P  P9  1  0.99013400  0.22756200  0.69154000  1
  P  P10  1  0.22758500  0.99032700  0.19025500  1
  P  P11  1  0.00967300  0.77241500  0.80974500  1
  S  S12  1  0.17125000  0.41024700  0.58082300  1
  S  S13  1  0.58975300  0.82875000  0.41917700  1
  S  S14  1  0.82945000  0.58991600  0.91877000  1
  S  S15  1  0.41008400  0.17055000  0.08123000  1
  S  S16  1  0.95431100  0.74558200  0.69901500  1
  S  S17  1  0.25441800  0.04568900  0.30098500  1
  S  S18  1  0.04063700  0.25787700  0.80350000  1
  S  S19  1  0.74212300  0.95936300  0.19650000  1
  S  S20  1  0.30060700  0.55047700  0.51725500  1
  S  S21  1  0.44952300  0.69939300  0.48274500  1
  S  S22  1  0.69922900  0.45009900  0.98285100  1
  S  S23  1  0.54990100  0.30077100  0.01714900  1
  S  S24  1  0.75288400  0.95392100  0.45764300  1
  S  S25  1  0.04607900  0.24711600  0.54235700  1
  S  S26  1  0.25130700  0.04115300  0.04059100  1
  S  S27  1  0.95884700  0.74869300  0.95940900  1
  S  S28  1  0.34453000  0.24070400  0.35364500  1
  S  S29  1  0.75929600  0.65547000  0.64635500  1
  S  S30  1  0.65593500  0.75889300  0.14703700  1
  S  S31  1  0.24110700  0.34406500  0.85296300  1
  S  S32  1  0.41921000  0.16366100  0.62721900  1
  S  S33  1  0.83633900  0.58079000  0.37278100  1
  S  S34  1  0.58138200  0.83674500  0.87290600  1
  S  S35  1  0.16325500  0.41861800  0.12709400  1
  S  S36  1  0.57042800  0.28106700  0.29334900  1
  S  S37  1  0.71893300  0.42957200  0.70665100  1
  S  S38  1  0.42898000  0.71932100  0.20616400  1
  S  S39  1  0.28067900  0.57102000  0.79383600  1
  S  S40  1  0.03436500  0.85625100  0.28459800  1
  S  S41  1  0.14374900  0.96563500  0.71540200  1
  S  S42  1  0.96438900  0.14542500  0.22137100  1
  S  S43  1  0.85457500  0.03561100  0.77862900  1
  S  S44  1  0.54708500  0.30619700  0.57125300  1
  S  S45  1  0.69380300  0.45291500  0.42874700  1
  S  S46  1  0.45317800  0.69419000  0.92847800  1
  S  S47  1  0.30581000  0.54682200  0.07152200  1
  S  S48  1  0.18961500  0.49316500  0.33253200  1
  S  S49  1  0.50683500  0.81038500  0.66746800  1
  S  S50  1  0.81030500  0.50670000  0.16745700  1
  S  S51  1  0.49330000  0.18969500  0.83254300  1
  S  S52  1  0.00368200  0.00173700  0.84257900  1
  S  S53  1  0.99826300  0.99631800  0.15742100  1
