# generated using pymatgen
data_SrZn2(AsO4)2
_symmetry_space_group_name_H-M   'P 1'
_cell_length_a   9.90813000
_cell_length_b   8.74396000
_cell_length_c   9.44062604
_cell_angle_alpha   88.17912553
_cell_angle_beta   90.00000000
_cell_angle_gamma   90.00000000
_symmetry_Int_Tables_number   1
_chemical_formula_structural   SrZn2(AsO4)2
_chemical_formula_sum   'Sr4 Zn8 As8 O32'
_cell_volume   817.48783932
_cell_formula_units_Z   4
loop_
 _symmetry_equiv_pos_site_id
 _symmetry_equiv_pos_as_xyz
  1  'x, y, z'
loop_
 _atom_site_type_symbol
 _atom_site_label
 _atom_site_symmetry_multiplicity
 _atom_site_fract_x
 _atom_site_fract_y
 _atom_site_fract_z
 _atom_site_occupancy
  Sr  Sr0  1  0.91680700  0.25003900  0.61512400  1
  Sr  Sr1  1  0.41680700  0.74996100  0.88487600  1
  Sr  Sr2  1  0.08319300  0.74996100  0.38487600  1
  Sr  Sr3  1  0.58319300  0.25003900  0.11512400  1
  Zn  Zn4  1  0.68606200  0.57763700  0.45040700  1
  Zn  Zn5  1  0.18606200  0.42236300  0.04959300  1
  Zn  Zn6  1  0.31393800  0.42236300  0.54959300  1
  Zn  Zn7  1  0.81393800  0.57763700  0.95040700  1
  Zn  Zn8  1  0.92638000  0.07400500  0.22066800  1
  Zn  Zn9  1  0.42638000  0.92599500  0.27933200  1
  Zn  Zn10  1  0.07362000  0.92599500  0.77933200  1
  Zn  Zn11  1  0.57362000  0.07400500  0.72066800  1
  As  As12  1  0.41654400  0.55835300  0.25043300  1
  As  As13  1  0.91654400  0.44164700  0.24956700  1
  As  As14  1  0.58345600  0.44164700  0.74956700  1
  As  As15  1  0.08345600  0.55835300  0.75043300  1
  As  As16  1  0.20406700  0.04922800  0.06290100  1
  As  As17  1  0.70406700  0.95077200  0.43709900  1
  As  As18  1  0.79593300  0.95077200  0.93709900  1
  As  As19  1  0.29593300  0.04922800  0.56290100  1
  O  O20  1  0.43092100  0.73673400  0.16741100  1
  O  O21  1  0.93092100  0.26326600  0.33258900  1
  O  O22  1  0.56907900  0.26326600  0.83258900  1
  O  O23  1  0.06907900  0.73673400  0.66741100  1
  O  O24  1  0.63320500  0.78343000  0.49915400  1
  O  O25  1  0.13320500  0.21657000  0.00084600  1
  O  O26  1  0.36679500  0.21657000  0.50084600  1
  O  O27  1  0.86679500  0.78343000  0.99915400  1
  O  O28  1  0.70160200  0.43121600  0.61697600  1
  O  O29  1  0.20160200  0.56878400  0.88302400  1
  O  O30  1  0.29839800  0.56878400  0.38302400  1
  O  O31  1  0.79839800  0.43121600  0.11697600  1
  O  O32  1  0.70699200  0.08434500  0.56785600  1
  O  O33  1  0.20699200  0.91565500  0.93214400  1
  O  O34  1  0.29300800  0.91565500  0.43214400  1
  O  O35  1  0.79300800  0.08434500  0.06785600  1
  O  O36  1  0.87518000  0.56457000  0.38272600  1
  O  O37  1  0.37518000  0.43543000  0.11727400  1
  O  O38  1  0.12482000  0.43543000  0.61727400  1
  O  O39  1  0.62482000  0.56457000  0.88272600  1
  O  O40  1  0.89718100  0.02576800  0.80236100  1
  O  O41  1  0.39718100  0.97423200  0.69763900  1
  O  O42  1  0.10281900  0.97423200  0.19763900  1
  O  O43  1  0.60281900  0.02576800  0.30236100  1
  O  O44  1  0.93494800  0.47970700  0.81235800  1
  O  O45  1  0.43494800  0.52029300  0.68764200  1
  O  O46  1  0.06505200  0.52029300  0.18764200  1
  O  O47  1  0.56505200  0.47970700  0.31235800  1
  O  O48  1  0.63153600  0.93026800  0.88044400  1
  O  O49  1  0.13153600  0.06973200  0.61955600  1
  O  O50  1  0.36846400  0.06973200  0.11955600  1
  O  O51  1  0.86846400  0.93026800  0.38044400  1
