# generated using pymatgen
data_Li3GaF6
_symmetry_space_group_name_H-M   'P 1'
_cell_length_a   8.50689691
_cell_length_b   8.50689691
_cell_length_c   10.18591916
_cell_angle_alpha   85.79336833
_cell_angle_beta   85.79336833
_cell_angle_gamma   61.63861574
_symmetry_Int_Tables_number   1
_chemical_formula_structural   Li3GaF6
_chemical_formula_sum   'Li18 Ga6 F36'
_cell_volume   646.27868993
_cell_formula_units_Z   6
loop_
 _symmetry_equiv_pos_site_id
 _symmetry_equiv_pos_as_xyz
  1  'x, y, z'
loop_
 _atom_site_type_symbol
 _atom_site_label
 _atom_site_symmetry_multiplicity
 _atom_site_fract_x
 _atom_site_fract_y
 _atom_site_fract_z
 _atom_site_occupancy
  Li  Li0  1  0.87718800  0.45914200  0.44756000  1
  Li  Li1  1  0.54085800  0.12281200  0.05244000  1
  Li  Li2  1  0.12281200  0.54085800  0.55244000  1
  Li  Li3  1  0.45914200  0.87718800  0.94756000  1
  Li  Li4  1  0.71279200  0.00743100  0.77017300  1
  Li  Li5  1  0.99256900  0.28720800  0.72982700  1
  Li  Li6  1  0.18824200  0.81175800  0.75000000  1
  Li  Li7  1  0.81175800  0.18824200  0.25000000  1
  Li  Li8  1  0.65558300  0.93862300  0.43124000  1
  Li  Li9  1  0.06137700  0.34441700  0.06876000  1
  Li  Li10  1  0.34441700  0.06137700  0.56876000  1
  Li  Li11  1  0.93862300  0.65558300  0.93124000  1
  Li  Li12  1  0.32567200  0.62890700  0.03830600  1
  Li  Li13  1  0.37109300  0.67432800  0.46169400  1
  Li  Li14  1  0.67432800  0.37109300  0.96169400  1
  Li  Li15  1  0.62890700  0.32567200  0.53830600  1
  Li  Li16  1  0.28720800  0.99256900  0.22982700  1
  Li  Li17  1  0.00743100  0.71279200  0.27017300  1
  Ga  Ga18  1  0.66528600  0.65913100  0.20371400  1
  Ga  Ga19  1  0.34086900  0.33471400  0.29628600  1
  Ga  Ga20  1  0.33471400  0.34086900  0.79628600  1
  Ga  Ga21  1  0.65913100  0.66528600  0.70371400  1
  Ga  Ga22  1  0.00000000  0.00000000  0.50000000  1
  Ga  Ga23  1  0.00000000  0.00000000  0.00000000  1
  F  F24  1  0.24064900  0.55564500  0.19450800  1
  F  F25  1  0.22629000  0.26926000  0.66482100  1
  F  F26  1  0.26926000  0.22629000  0.16482100  1
  F  F27  1  0.77371000  0.73074000  0.33517900  1
  F  F28  1  0.76106000  0.08694000  0.93811000  1
  F  F29  1  0.91306000  0.23894000  0.56189000  1
  F  F30  1  0.23894000  0.91306000  0.06189000  1
  F  F31  1  0.08694000  0.76106000  0.43811000  1
  F  F32  1  0.73074000  0.77371000  0.83517900  1
  F  F33  1  0.76335900  0.09007000  0.43441200  1
  F  F34  1  0.09007000  0.76335900  0.93441200  1
  F  F35  1  0.23664100  0.90993000  0.56558800  1
  F  F36  1  0.44435500  0.75935100  0.30549200  1
  F  F37  1  0.42885500  0.41417700  0.93204900  1
  F  F38  1  0.41417700  0.42885500  0.43204900  1
  F  F39  1  0.57114500  0.58582300  0.06795100  1
  F  F40  1  0.58422700  0.89090000  0.60610100  1
  F  F41  1  0.10910000  0.41577300  0.89389900  1
  F  F42  1  0.41577300  0.10910000  0.39389900  1
  F  F43  1  0.89090000  0.58422700  0.10610100  1
  F  F44  1  0.92378900  0.93434000  0.16471100  1
  F  F45  1  0.06566000  0.07621100  0.33528900  1
  F  F46  1  0.07621100  0.06566000  0.83528900  1
  F  F47  1  0.93434000  0.92378900  0.66471100  1
  F  F48  1  0.75935100  0.44435500  0.80549200  1
  F  F49  1  0.55564500  0.24064900  0.69450800  1
  F  F50  1  0.11097200  0.42921500  0.38975200  1
  F  F51  1  0.58582300  0.57114500  0.56795100  1
  F  F52  1  0.88902800  0.57078500  0.61024800  1
  F  F53  1  0.42921500  0.11097200  0.88975200  1
  F  F54  1  0.24555100  0.56507600  0.69809200  1
  F  F55  1  0.43492400  0.75444900  0.80190800  1
  F  F56  1  0.75444900  0.43492400  0.30190800  1
  F  F57  1  0.56507600  0.24555100  0.19809200  1
  F  F58  1  0.90993000  0.23664100  0.06558800  1
  F  F59  1  0.57078500  0.88902800  0.11024800  1
