# generated using pymatgen
data_TbCoO3
_symmetry_space_group_name_H-M   'P 1'
_cell_length_a   5.20259300
_cell_length_b   5.46816300
_cell_length_c   7.44666900
_cell_angle_alpha   90.00000000
_cell_angle_beta   90.00000000
_cell_angle_gamma   90.00000000
_symmetry_Int_Tables_number   1
_chemical_formula_structural   TbCoO3
_chemical_formula_sum   'Tb4 Co4 O12'
_cell_volume   211.84750540
_cell_formula_units_Z   4
loop_
 _symmetry_equiv_pos_site_id
 _symmetry_equiv_pos_as_xyz
  1  'x, y, z'
loop_
 _atom_site_type_symbol
 _atom_site_label
 _atom_site_symmetry_multiplicity
 _atom_site_fract_x
 _atom_site_fract_y
 _atom_site_fract_z
 _atom_site_occupancy
  Tb  Tb0  1  0.51759200  0.56850300  0.25000000  1
  Tb  Tb1  1  0.98240800  0.06850300  0.25000000  1
  Tb  Tb2  1  0.48240800  0.43149700  0.75000000  1
  Tb  Tb3  1  0.01759200  0.93149700  0.75000000  1
  Co  Co4  1  0.00000000  0.50000000  0.00000000  1
  Co  Co5  1  0.50000000  0.00000000  0.50000000  1
  Co  Co6  1  0.00000000  0.50000000  0.50000000  1
  Co  Co7  1  0.50000000  0.00000000  0.00000000  1
  O  O8  1  0.40253100  0.97344400  0.25000000  1
  O  O9  1  0.09746900  0.47344400  0.25000000  1
  O  O10  1  0.59746900  0.02655600  0.75000000  1
  O  O11  1  0.90253100  0.52655600  0.75000000  1
  O  O12  1  0.80376700  0.79913200  0.04996100  1
  O  O13  1  0.69623300  0.29913200  0.45003900  1
  O  O14  1  0.19623300  0.20086800  0.54996100  1
  O  O15  1  0.30376700  0.70086800  0.95003900  1
  O  O16  1  0.19623300  0.20086800  0.95003900  1
  O  O17  1  0.30376700  0.70086800  0.54996100  1
  O  O18  1  0.80376700  0.79913200  0.45003900  1
  O  O19  1  0.69623300  0.29913200  0.04996100  1
