# generated using pymatgen
data_Tm5Bi3
_symmetry_space_group_name_H-M   'P 1'
_cell_length_a   8.16319000
_cell_length_b   9.43673400
_cell_length_c   11.90823000
_cell_angle_alpha   90.00000000
_cell_angle_beta   90.00000000
_cell_angle_gamma   90.00000000
_symmetry_Int_Tables_number   1
_chemical_formula_structural   Tm5Bi3
_chemical_formula_sum   'Tm20 Bi12'
_cell_volume   917.33683480
_cell_formula_units_Z   4
loop_
 _symmetry_equiv_pos_site_id
 _symmetry_equiv_pos_as_xyz
  1  'x, y, z'
loop_
 _atom_site_type_symbol
 _atom_site_label
 _atom_site_symmetry_multiplicity
 _atom_site_fract_x
 _atom_site_fract_y
 _atom_site_fract_z
 _atom_site_occupancy
  Tm  Tm0  1  0.02652900  0.25000000  0.51109100  1
  Tm  Tm1  1  0.97347100  0.75000000  0.48890900  1
  Tm  Tm2  1  0.47347100  0.75000000  0.01109100  1
  Tm  Tm3  1  0.52652900  0.25000000  0.98890900  1
  Tm  Tm4  1  0.35554100  0.25000000  0.28322200  1
  Tm  Tm5  1  0.64445900  0.75000000  0.71677800  1
  Tm  Tm6  1  0.14445900  0.75000000  0.78322200  1
  Tm  Tm7  1  0.85554100  0.25000000  0.21677800  1
  Tm  Tm8  1  0.18804100  0.25000000  0.78115400  1
  Tm  Tm9  1  0.81195900  0.75000000  0.21884600  1
  Tm  Tm10  1  0.31195900  0.75000000  0.28115400  1
  Tm  Tm11  1  0.68804100  0.25000000  0.71884600  1
  Tm  Tm12  1  0.19394900  0.06585500  0.06052900  1
  Tm  Tm13  1  0.80605100  0.93414500  0.93947100  1
  Tm  Tm14  1  0.30605100  0.93414500  0.56052900  1
  Tm  Tm15  1  0.80605100  0.56585500  0.93947100  1
  Tm  Tm16  1  0.69394900  0.06585500  0.43947100  1
  Tm  Tm17  1  0.19394900  0.43414500  0.06052900  1
  Tm  Tm18  1  0.69394900  0.43414500  0.43947100  1
  Tm  Tm19  1  0.30605100  0.56585500  0.56052900  1
  Bi  Bi20  1  0.40830500  0.25000000  0.54244000  1
  Bi  Bi21  1  0.59169500  0.75000000  0.45756000  1
  Bi  Bi22  1  0.09169500  0.75000000  0.04244000  1
  Bi  Bi23  1  0.90830500  0.25000000  0.95756000  1
  Bi  Bi24  1  0.06681300  0.00349100  0.32596900  1
  Bi  Bi25  1  0.93318700  0.99650900  0.67403100  1
  Bi  Bi26  1  0.43318700  0.99650900  0.82596900  1
  Bi  Bi27  1  0.93318700  0.50349100  0.67403100  1
  Bi  Bi28  1  0.56681300  0.00349100  0.17403100  1
  Bi  Bi29  1  0.06681300  0.49650900  0.32596900  1
  Bi  Bi30  1  0.56681300  0.49650900  0.17403100  1
  Bi  Bi31  1  0.43318700  0.50349100  0.82596900  1
