# generated using pymatgen
data_CaNi(GeO3)2
_symmetry_space_group_name_H-M   'P 1'
_cell_length_a   5.47812896
_cell_length_b   10.23036242
_cell_length_c   9.05647501
_cell_angle_alpha   89.99965499
_cell_angle_beta   90.00086354
_cell_angle_gamma   105.52791280
_symmetry_Int_Tables_number   1
_chemical_formula_structural   CaNi(GeO3)2
_chemical_formula_sum   'Ca4 Ni4 Ge8 O24'
_cell_volume   489.02859002
_cell_formula_units_Z   4
loop_
 _symmetry_equiv_pos_site_id
 _symmetry_equiv_pos_as_xyz
  1  'x, y, z'
loop_
 _atom_site_type_symbol
 _atom_site_label
 _atom_site_symmetry_multiplicity
 _atom_site_fract_x
 _atom_site_fract_y
 _atom_site_fract_z
 _atom_site_occupancy
  Ca  Ca0  1  0.24999700  0.50000500  0.19831200  1
  Ca  Ca1  1  0.75000000  0.99999800  0.69832400  1
  Ca  Ca2  1  0.75000100  0.50000100  0.80169200  1
  Ca  Ca3  1  0.25001600  0.00000100  0.30167400  1
  Ni  Ni4  1  0.75001700  0.99999200  0.08929700  1
  Ni  Ni5  1  0.24998500  0.00001100  0.91070200  1
  Ni  Ni6  1  0.25001500  0.49999100  0.58927200  1
  Ni  Ni7  1  0.74998700  0.50000400  0.41073000  1
  Ge  Ge8  1  0.06506000  0.28474000  0.90137300  1
  Ge  Ge9  1  0.56506200  0.78473500  0.40137200  1
  Ge  Ge10  1  0.43493600  0.71525900  0.90136600  1
  Ge  Ge11  1  0.93493200  0.21526200  0.40136900  1
  Ge  Ge12  1  0.93494100  0.71526200  0.09862700  1
  Ge  Ge13  1  0.43493600  0.21526200  0.59862800  1
  Ge  Ge14  1  0.56506500  0.28474200  0.09863200  1
  Ge  Ge15  1  0.06506600  0.78473700  0.59863100  1
  O  O16  1  0.88279700  0.35969500  0.03100400  1
  O  O17  1  0.38279600  0.85969400  0.53099800  1
  O  O18  1  0.61720600  0.64030500  0.03099900  1
  O  O19  1  0.11720200  0.14030600  0.53099900  1
  O  O20  1  0.11720400  0.64030500  0.96899800  1
  O  O21  1  0.61720100  0.14030600  0.46900000  1
  O  O22  1  0.38279400  0.35969700  0.96900000  1
  O  O23  1  0.88279700  0.85969400  0.46900000  1
  O  O24  1  0.52408000  0.36403600  0.26242700  1
  O  O25  1  0.02409800  0.86402800  0.76243100  1
  O  O26  1  0.97591300  0.63596100  0.26242100  1
  O  O27  1  0.47589500  0.13596400  0.76242500  1
  O  O28  1  0.47591800  0.63596300  0.73757100  1
  O  O29  1  0.97590200  0.13596900  0.23757100  1
  O  O30  1  0.02408000  0.36404100  0.73758100  1
  O  O31  1  0.52410200  0.86403300  0.23757300  1
  O  O32  1  0.97487300  0.10739000  0.91002100  1
  O  O33  1  0.47488800  0.60738500  0.41001900  1
  O  O34  1  0.52511700  0.89260800  0.91002600  1
  O  O35  1  0.02510600  0.39261100  0.41002200  1
  O  O36  1  0.02512400  0.89261200  0.08997800  1
  O  O37  1  0.52511200  0.39261200  0.58998400  1
  O  O38  1  0.47488300  0.10739300  0.08997200  1
  O  O39  1  0.97489500  0.60738900  0.58998000  1
