# generated using pymatgen
data_ZnPdF6
_symmetry_space_group_name_H-M   'P 1'
_cell_length_a   5.47260207
_cell_length_b   5.47260207
_cell_length_c   5.47260273
_cell_angle_alpha   55.67146298
_cell_angle_beta   55.67146298
_cell_angle_gamma   55.67146353
_symmetry_Int_Tables_number   1
_chemical_formula_structural   ZnPdF6
_chemical_formula_sum   'Zn1 Pd1 F6'
_cell_volume   104.25659065
_cell_formula_units_Z   1
loop_
 _symmetry_equiv_pos_site_id
 _symmetry_equiv_pos_as_xyz
  1  'x, y, z'
loop_
 _atom_site_type_symbol
 _atom_site_label
 _atom_site_symmetry_multiplicity
 _atom_site_fract_x
 _atom_site_fract_y
 _atom_site_fract_z
 _atom_site_occupancy
  Zn  Zn0  1  0.50000000  0.50000000  0.50000000  1
  Pd  Pd1  1  0.00000000  0.00000000  0.00000000  1
  F  F2  1  0.89569900  0.24090900  0.61714600  1
  F  F3  1  0.24090900  0.61714600  0.89569900  1
  F  F4  1  0.38285400  0.10430100  0.75909100  1
  F  F5  1  0.75909100  0.38285400  0.10430100  1
  F  F6  1  0.10430100  0.75909100  0.38285400  1
  F  F7  1  0.61714600  0.89569900  0.24090900  1
