# generated using pymatgen
data_MgMnGeO4
_symmetry_space_group_name_H-M   'P 1'
_cell_length_a   5.01230100
_cell_length_b   6.23672200
_cell_length_c   10.83272400
_cell_angle_alpha   90.00000000
_cell_angle_beta   90.00000000
_cell_angle_gamma   90.00000000
_symmetry_Int_Tables_number   1
_chemical_formula_structural   MgMnGeO4
_chemical_formula_sum   'Mg4 Mn4 Ge4 O16'
_cell_volume   338.63450448
_cell_formula_units_Z   4
loop_
 _symmetry_equiv_pos_site_id
 _symmetry_equiv_pos_as_xyz
  1  'x, y, z'
loop_
 _atom_site_type_symbol
 _atom_site_label
 _atom_site_symmetry_multiplicity
 _atom_site_fract_x
 _atom_site_fract_y
 _atom_site_fract_z
 _atom_site_occupancy
  Mg  Mg0  1  0.50000000  0.00000000  0.50000000  1
  Mg  Mg1  1  0.00000000  0.50000000  0.00000000  1
  Mg  Mg2  1  0.50000000  0.50000000  0.50000000  1
  Mg  Mg3  1  0.00000000  0.00000000  0.00000000  1
  Mn  Mn4  1  0.49964800  0.75000000  0.22216700  1
  Mn  Mn5  1  0.00035200  0.75000000  0.72216700  1
  Mn  Mn6  1  0.50035200  0.25000000  0.77783300  1
  Mn  Mn7  1  0.99964800  0.25000000  0.27783300  1
  Ge  Ge8  1  0.93365000  0.75000000  0.40938300  1
  Ge  Ge9  1  0.56635000  0.75000000  0.90938300  1
  Ge  Ge10  1  0.06635000  0.25000000  0.59061700  1
  Ge  Ge11  1  0.43365000  0.25000000  0.09061700  1
  O  O12  1  0.74137200  0.75000000  0.05603200  1
  O  O13  1  0.75862800  0.75000000  0.55603200  1
  O  O14  1  0.25862800  0.25000000  0.94396800  1
  O  O15  1  0.24137200  0.25000000  0.44396800  1
  O  O16  1  0.28377500  0.75000000  0.41398700  1
  O  O17  1  0.21622500  0.75000000  0.91398700  1
  O  O18  1  0.71622500  0.25000000  0.58601300  1
  O  O19  1  0.78377500  0.25000000  0.08601300  1
  O  O20  1  0.77032400  0.97544400  0.34116100  1
  O  O21  1  0.72967600  0.52455600  0.84116100  1
  O  O22  1  0.22967600  0.47544400  0.65883900  1
  O  O23  1  0.27032400  0.02455600  0.15883900  1
  O  O24  1  0.22967600  0.02455600  0.65883900  1
  O  O25  1  0.27032400  0.47544400  0.15883900  1
  O  O26  1  0.77032400  0.52455600  0.34116100  1
  O  O27  1  0.72967600  0.97544400  0.84116100  1
