# generated using pymatgen
data_Ba2SmGaSe5
_symmetry_space_group_name_H-M   'P 1'
_cell_length_a   7.43316100
_cell_length_b   8.87665356
_cell_length_c   9.61789038
_cell_angle_alpha   103.71251383
_cell_angle_beta   103.00362202
_cell_angle_gamma   107.52342382
_symmetry_Int_Tables_number   1
_chemical_formula_structural   Ba2SmGaSe5
_chemical_formula_sum   'Ba4 Sm2 Ga2 Se10'
_cell_volume   557.00619593
_cell_formula_units_Z   2
loop_
 _symmetry_equiv_pos_site_id
 _symmetry_equiv_pos_as_xyz
  1  'x, y, z'
loop_
 _atom_site_type_symbol
 _atom_site_label
 _atom_site_symmetry_multiplicity
 _atom_site_fract_x
 _atom_site_fract_y
 _atom_site_fract_z
 _atom_site_occupancy
  Ba  Ba0  1  0.63427300  0.97840800  0.29271700  1
  Ba  Ba1  1  0.36572700  0.02159200  0.70728300  1
  Ba  Ba2  1  0.34006500  0.50960100  0.70508400  1
  Ba  Ba3  1  0.65993500  0.49039900  0.29491600  1
  Sm  Sm4  1  0.99723800  0.73071800  0.99757000  1
  Sm  Sm5  1  0.00276200  0.26928200  0.00243000  1
  Ga  Ga6  1  0.80436900  0.87108900  0.68695100  1
  Ga  Ga7  1  0.19563100  0.12891100  0.31304900  1
  Se  Se8  1  0.98843600  0.68565200  0.68131000  1
  Se  Se9  1  0.01156400  0.31434800  0.31869000  1
  Se  Se10  1  0.98286300  0.14954200  0.68525100  1
  Se  Se11  1  0.01713700  0.85045800  0.31474900  1
  Se  Se12  1  0.70723500  0.90605900  0.92258800  1
  Se  Se13  1  0.29276500  0.09394100  0.07741200  1
  Se  Se14  1  0.70203800  0.40966600  0.94509800  1
  Se  Se15  1  0.29796200  0.59033400  0.05490200  1
  Se  Se16  1  0.48881500  0.74042600  0.49223600  1
  Se  Se17  1  0.51118500  0.25957400  0.50776400  1
