# generated using pymatgen
data_Yb2Ge6Pd
_symmetry_space_group_name_H-M   'P 1'
_cell_length_a   5.75326783
_cell_length_b   5.75326783
_cell_length_c   22.55508100
_cell_angle_alpha   90.00000000
_cell_angle_beta   90.00000000
_cell_angle_gamma   91.49928838
_symmetry_Int_Tables_number   1
_chemical_formula_structural   Yb2Ge6Pd
_chemical_formula_sum   'Yb8 Ge24 Pd4'
_cell_volume   746.31963854
_cell_formula_units_Z   4
loop_
 _symmetry_equiv_pos_site_id
 _symmetry_equiv_pos_as_xyz
  1  'x, y, z'
loop_
 _atom_site_type_symbol
 _atom_site_label
 _atom_site_symmetry_multiplicity
 _atom_site_fract_x
 _atom_site_fract_y
 _atom_site_fract_z
 _atom_site_occupancy
  Yb  Yb0  1  0.62503100  0.12597500  0.08493200  1
  Yb  Yb1  1  0.87496900  0.37402500  0.58493200  1
  Yb  Yb2  1  0.62597500  0.12503100  0.41506800  1
  Yb  Yb3  1  0.87402500  0.37496900  0.91506800  1
  Yb  Yb4  1  0.37496900  0.87402500  0.91506800  1
  Yb  Yb5  1  0.12503100  0.62597500  0.41506800  1
  Yb  Yb6  1  0.37402500  0.87496900  0.58493200  1
  Yb  Yb7  1  0.12597500  0.62503100  0.08493200  1
  Ge  Ge8  1  0.59629900  0.59629900  0.80547600  1
  Ge  Ge9  1  0.90370100  0.90370100  0.30547600  1
  Ge  Ge10  1  0.09629900  0.09629900  0.69452400  1
  Ge  Ge11  1  0.40370100  0.40370100  0.19452400  1
  Ge  Ge12  1  0.65214200  0.65214200  0.69426500  1
  Ge  Ge13  1  0.84785800  0.84785800  0.19426500  1
  Ge  Ge14  1  0.15214200  0.15214200  0.80573500  1
  Ge  Ge15  1  0.34785800  0.34785800  0.30573500  1
  Ge  Ge16  1  0.87066600  0.87066600  0.96974900  1
  Ge  Ge17  1  0.62933400  0.62933400  0.46974900  1
  Ge  Ge18  1  0.37066600  0.37066600  0.53025100  1
  Ge  Ge19  1  0.12933400  0.12933400  0.03025100  1
  Ge  Ge20  1  0.85156600  0.39968900  0.19492800  1
  Ge  Ge21  1  0.64843400  0.10031100  0.69492800  1
  Ge  Ge22  1  0.89968900  0.35156600  0.30507200  1
  Ge  Ge23  1  0.60031100  0.14843400  0.80507200  1
  Ge  Ge24  1  0.14843400  0.60031100  0.80507200  1
  Ge  Ge25  1  0.35156600  0.89968900  0.30507200  1
  Ge  Ge26  1  0.10031100  0.64843400  0.69492800  1
  Ge  Ge27  1  0.39968900  0.85156600  0.19492800  1
  Ge  Ge28  1  0.12170700  0.12170700  0.46431200  1
  Ge  Ge29  1  0.37829300  0.37829300  0.96431200  1
  Ge  Ge30  1  0.62170700  0.62170700  0.03568800  1
  Ge  Ge31  1  0.87829300  0.87829300  0.53568800  1
  Pd  Pd32  1  0.87427300  0.87427300  0.85944800  1
  Pd  Pd33  1  0.62572700  0.62572700  0.35944800  1
  Pd  Pd34  1  0.37427300  0.37427300  0.64055200  1
  Pd  Pd35  1  0.12572700  0.12572700  0.14055200  1
