# generated using pymatgen
data_Bi4BPO10
_symmetry_space_group_name_H-M   'P 1'
_cell_length_a   5.59864200
_cell_length_b   14.45066000
_cell_length_c   22.64914200
_cell_angle_alpha   90.00000000
_cell_angle_beta   90.00000000
_cell_angle_gamma   90.00000000
_symmetry_Int_Tables_number   1
_chemical_formula_structural   Bi4BPO10
_chemical_formula_sum   'Bi32 B8 P8 O80'
_cell_volume   1832.40781519
_cell_formula_units_Z   8
loop_
 _symmetry_equiv_pos_site_id
 _symmetry_equiv_pos_as_xyz
  1  'x, y, z'
loop_
 _atom_site_type_symbol
 _atom_site_label
 _atom_site_symmetry_multiplicity
 _atom_site_fract_x
 _atom_site_fract_y
 _atom_site_fract_z
 _atom_site_occupancy
  Bi  Bi0  1  0.07169200  0.78613800  0.30844600  1
  Bi  Bi1  1  0.42830800  0.21386200  0.80844600  1
  Bi  Bi2  1  0.57169200  0.71386200  0.69155400  1
  Bi  Bi3  1  0.92830800  0.28613800  0.19155400  1
  Bi  Bi4  1  0.92830800  0.21386200  0.69155400  1
  Bi  Bi5  1  0.57169200  0.78613800  0.19155400  1
  Bi  Bi6  1  0.42830800  0.28613800  0.30844600  1
  Bi  Bi7  1  0.07169200  0.71386200  0.80844600  1
  Bi  Bi8  1  0.56669700  0.76244900  0.41572600  1
  Bi  Bi9  1  0.93330300  0.23755100  0.91572600  1
  Bi  Bi10  1  0.06669700  0.73755100  0.58427400  1
  Bi  Bi11  1  0.43330300  0.26244900  0.08427400  1
  Bi  Bi12  1  0.43330300  0.23755100  0.58427400  1
  Bi  Bi13  1  0.06669700  0.76244900  0.08427400  1
  Bi  Bi14  1  0.93330300  0.26244900  0.41572600  1
  Bi  Bi15  1  0.56669700  0.73755100  0.91572600  1
  Bi  Bi16  1  0.45204700  0.45594600  0.42591100  1
  Bi  Bi17  1  0.04795300  0.54405400  0.92591100  1
  Bi  Bi18  1  0.95204700  0.04405400  0.57408900  1
  Bi  Bi19  1  0.54795300  0.95594600  0.07408900  1
  Bi  Bi20  1  0.54795300  0.54405400  0.57408900  1
  Bi  Bi21  1  0.95204700  0.45594600  0.07408900  1
  Bi  Bi22  1  0.04795300  0.95594600  0.42591100  1
  Bi  Bi23  1  0.45204700  0.04405400  0.92591100  1
  Bi  Bi24  1  0.92661200  0.47445100  0.30603400  1
  Bi  Bi25  1  0.57338800  0.52554900  0.80603400  1
  Bi  Bi26  1  0.42661200  0.02554900  0.69396600  1
  Bi  Bi27  1  0.07338800  0.97445100  0.19396600  1
  Bi  Bi28  1  0.07338800  0.52554900  0.69396600  1
  Bi  Bi29  1  0.42661200  0.47445100  0.19396600  1
  Bi  Bi30  1  0.57338800  0.97445100  0.30603400  1
  Bi  Bi31  1  0.92661200  0.02554900  0.80603400  1
  B  B32  1  0.42955600  0.60654900  0.31357300  1
  B  B33  1  0.07044400  0.39345100  0.81357300  1
  B  B34  1  0.92955600  0.89345100  0.68642700  1
  B  B35  1  0.57044400  0.10654900  0.18642700  1
  B  B36  1  0.57044400  0.39345100  0.68642700  1
  B  B37  1  0.92955600  0.60654900  0.18642700  1
  B  B38  1  0.07044400  0.10654900  0.31357300  1
  B  B39  1  0.42955600  0.89345100  0.81357300  1
  P  P40  1  0.99982300  0.62144100  0.45242900  1
  P  P41  1  0.50017700  0.37855900  0.95242900  1
  P  P42  1  0.49982300  0.87855900  0.54757100  1
  P  P43  1  0.00017700  0.12144100  0.04757100  1
  P  P44  1  0.00017700  0.37855900  0.54757100  1
  P  P45  1  0.49982300  0.62144100  0.04757100  1
  P  P46  1  0.50017700  0.12144100  0.45242900  1
  P  P47  1  0.99982300  0.87855900  0.95242900  1
  O  O48  1  0.22202200  0.36624200  0.37404500  1
  O  O49  1  0.27797800  0.63375800  0.87404500  1
  O  O50  1  0.72202200  0.13375800  0.62595500  1
  O  O51  1  0.77797800  0.86624200  0.12595500  1
  O  O52  1  0.77797800  0.63375800  0.62595500  1
  O  O53  1  0.72202200  0.36624200  0.12595500  1
  O  O54  1  0.27797800  0.86624200  0.37404500  1
  O  O55  1  0.22202200  0.13375800  0.87404500  1
  O  O56  1  0.71660400  0.36459700  0.36957600  1
  O  O57  1  0.78339600  0.63540300  0.86957600  1
  O  O58  1  0.21660400  0.13540300  0.63042400  1
  O  O59  1  0.28339600  0.86459700  0.13042400  1
  O  O60  1  0.28339600  0.63540300  0.63042400  1
  O  O61  1  0.21660400  0.36459700  0.13042400  1
  O  O62  1  0.78339600  0.86459700  0.36957600  1
  O  O63  1  0.71660400  0.13540300  0.86957600  1
  O  O64  1  0.31230900  0.87866600  0.25136600  1
  O  O65  1  0.18769100  0.12133400  0.75136600  1
  O  O66  1  0.81230900  0.62133400  0.74863400  1
  O  O67  1  0.68769100  0.37866600  0.24863400  1
  O  O68  1  0.68769100  0.12133400  0.74863400  1
  O  O69  1  0.81230900  0.87866600  0.24863400  1
  O  O70  1  0.18769100  0.37866600  0.25136600  1
  O  O71  1  0.31230900  0.62133400  0.75136600  1
  O  O72  1  0.75438800  0.60782600  0.48282400  1
  O  O73  1  0.74561200  0.39217400  0.98282400  1
  O  O74  1  0.25438800  0.89217400  0.51717600  1
  O  O75  1  0.24561200  0.10782600  0.01717600  1
  O  O76  1  0.24561200  0.39217400  0.51717600  1
  O  O77  1  0.25438800  0.60782600  0.01717600  1
  O  O78  1  0.74561200  0.10782600  0.48282400  1
  O  O79  1  0.75438800  0.89217400  0.98282400  1
  O  O80  1  0.95950300  0.70337700  0.40733100  1
  O  O81  1  0.54049700  0.29662300  0.90733100  1
  O  O82  1  0.45950300  0.79662300  0.59266900  1
  O  O83  1  0.04049700  0.20337700  0.09266900  1
  O  O84  1  0.04049700  0.29662300  0.59266900  1
  O  O85  1  0.45950300  0.70337700  0.09266900  1
  O  O86  1  0.54049700  0.20337700  0.40733100  1
  O  O87  1  0.95950300  0.79662300  0.90733100  1
  O  O88  1  0.08279800  0.53510400  0.41690600  1
  O  O89  1  0.41720200  0.46489600  0.91690600  1
  O  O90  1  0.58279800  0.96489600  0.58309400  1
  O  O91  1  0.91720200  0.03510400  0.08309400  1
  O  O92  1  0.91720200  0.46489600  0.58309400  1
  O  O93  1  0.58279800  0.53510400  0.08309400  1
  O  O94  1  0.41720200  0.03510400  0.41690600  1
  O  O95  1  0.08279800  0.96489600  0.91690600  1
  O  O96  1  0.19789700  0.64831700  0.49756600  1
  O  O97  1  0.30210300  0.35168300  0.99756600  1
  O  O98  1  0.69789700  0.85168300  0.50243400  1
  O  O99  1  0.80210300  0.14831700  0.00243400  1
  O  O100  1  0.80210300  0.35168300  0.50243400  1
  O  O101  1  0.69789700  0.64831700  0.00243400  1
  O  O102  1  0.30210300  0.14831700  0.49756600  1
  O  O103  1  0.19789700  0.85168300  0.99756600  1
  O  O104  1  0.27874400  0.57420700  0.27044500  1
  O  O105  1  0.22125600  0.42579300  0.77044500  1
  O  O106  1  0.77874400  0.92579300  0.72955500  1
  O  O107  1  0.72125600  0.07420700  0.22955500  1
  O  O108  1  0.72125600  0.42579300  0.72955500  1
  O  O109  1  0.77874400  0.57420700  0.22955500  1
  O  O110  1  0.22125600  0.07420700  0.27044500  1
  O  O111  1  0.27874400  0.92579300  0.77044500  1
  O  O112  1  0.45084300  0.70191600  0.32340400  1
  O  O113  1  0.04915700  0.29808400  0.82340400  1
  O  O114  1  0.95084300  0.79808400  0.67659600  1
  O  O115  1  0.54915700  0.20191600  0.17659600  1
  O  O116  1  0.54915700  0.29808400  0.67659600  1
  O  O117  1  0.95084300  0.70191600  0.17659600  1
  O  O118  1  0.04915700  0.20191600  0.32340400  1
  O  O119  1  0.45084300  0.79808400  0.82340400  1
  O  O120  1  0.55887300  0.54611900  0.34976400  1
  O  O121  1  0.94112700  0.45388100  0.84976400  1
  O  O122  1  0.05887300  0.95388100  0.65023600  1
  O  O123  1  0.44112700  0.04611900  0.15023600  1
  O  O124  1  0.44112700  0.45388100  0.65023600  1
  O  O125  1  0.05887300  0.54611900  0.15023600  1
  O  O126  1  0.94112700  0.04611900  0.34976400  1
  O  O127  1  0.55887300  0.95388100  0.84976400  1
