# generated using pymatgen
data_Ba3Al3P5
_symmetry_space_group_name_H-M   'P 1'
_cell_length_a   12.93175962
_cell_length_b   12.93175962
_cell_length_c   12.93175905
_cell_angle_alpha   69.37520028
_cell_angle_beta   69.37520028
_cell_angle_gamma   69.37520167
_symmetry_Int_Tables_number   1
_chemical_formula_structural   Ba3Al3P5
_chemical_formula_sum   'Ba18 Al18 P30'
_cell_volume   1828.85855500
_cell_formula_units_Z   6
loop_
 _symmetry_equiv_pos_site_id
 _symmetry_equiv_pos_as_xyz
  1  'x, y, z'
loop_
 _atom_site_type_symbol
 _atom_site_label
 _atom_site_symmetry_multiplicity
 _atom_site_fract_x
 _atom_site_fract_y
 _atom_site_fract_z
 _atom_site_occupancy
  Ba  Ba0  1  0.14640300  0.22337700  0.65125100  1
  Ba  Ba1  1  0.65125100  0.14640300  0.22337700  1
  Ba  Ba2  1  0.22337700  0.65125100  0.14640300  1
  Ba  Ba3  1  0.15125100  0.72337700  0.64640300  1
  Ba  Ba4  1  0.64640300  0.15125100  0.72337700  1
  Ba  Ba5  1  0.72337700  0.64640300  0.15125100  1
  Ba  Ba6  1  0.85359700  0.77662300  0.34874900  1
  Ba  Ba7  1  0.34874900  0.85359700  0.77662300  1
  Ba  Ba8  1  0.77662300  0.34874900  0.85359700  1
  Ba  Ba9  1  0.84874900  0.27662300  0.35359700  1
  Ba  Ba10  1  0.35359700  0.84874900  0.27662300  1
  Ba  Ba11  1  0.27662300  0.35359700  0.84874900  1
  Ba  Ba12  1  0.39895000  0.39895000  0.39895000  1
  Ba  Ba13  1  0.89895000  0.89895000  0.89895000  1
  Ba  Ba14  1  0.60105000  0.60105000  0.60105000  1
  Ba  Ba15  1  0.10105000  0.10105000  0.10105000  1
  Ba  Ba16  1  0.25000000  0.25000000  0.25000000  1
  Ba  Ba17  1  0.75000000  0.75000000  0.75000000  1
  Al  Al18  1  0.07931200  0.57237400  0.49344500  1
  Al  Al19  1  0.49344500  0.07931200  0.57237400  1
  Al  Al20  1  0.57237400  0.49344500  0.07931200  1
  Al  Al21  1  0.99344500  0.07237400  0.57931200  1
  Al  Al22  1  0.57931200  0.99344500  0.07237400  1
  Al  Al23  1  0.07237400  0.57931200  0.99344500  1
  Al  Al24  1  0.92068800  0.42762600  0.50655500  1
  Al  Al25  1  0.50655500  0.92068800  0.42762600  1
  Al  Al26  1  0.42762600  0.50655500  0.92068800  1
  Al  Al27  1  0.00655500  0.92762600  0.42068800  1
  Al  Al28  1  0.42068800  0.00655500  0.92762600  1
  Al  Al29  1  0.92762600  0.42068800  0.00655500  1
  Al  Al30  1  0.97955900  0.52044100  0.25000000  1
  Al  Al31  1  0.25000000  0.97955900  0.52044100  1
  Al  Al32  1  0.52044100  0.25000000  0.97955900  1
  Al  Al33  1  0.75000000  0.02044100  0.47955900  1
  Al  Al34  1  0.47955900  0.75000000  0.02044100  1
  Al  Al35  1  0.02044100  0.47955900  0.75000000  1
  P  P36  1  0.10946400  0.44999600  0.37516200  1
  P  P37  1  0.37516200  0.10946400  0.44999600  1
  P  P38  1  0.44999600  0.37516200  0.10946400  1
  P  P39  1  0.87516200  0.94999600  0.60946400  1
  P  P40  1  0.60946400  0.87516200  0.94999600  1
  P  P41  1  0.94999600  0.60946400  0.87516200  1
  P  P42  1  0.89053600  0.55000400  0.62483800  1
  P  P43  1  0.62483800  0.89053600  0.55000400  1
  P  P44  1  0.55000400  0.62483800  0.89053600  1
  P  P45  1  0.12483800  0.05000400  0.39053600  1
  P  P46  1  0.39053600  0.12483800  0.05000400  1
  P  P47  1  0.05000400  0.39053600  0.12483800  1
  P  P48  1  0.20325200  0.47162600  0.61519000  1
  P  P49  1  0.61519000  0.20325200  0.47162600  1
  P  P50  1  0.47162600  0.61519000  0.20325200  1
  P  P51  1  0.11519000  0.97162600  0.70325200  1
  P  P52  1  0.70325200  0.11519000  0.97162600  1
  P  P53  1  0.97162600  0.70325200  0.11519000  1
  P  P54  1  0.79674800  0.52837400  0.38481000  1
  P  P55  1  0.38481000  0.79674800  0.52837400  1
  P  P56  1  0.52837400  0.38481000  0.79674800  1
  P  P57  1  0.88481000  0.02837400  0.29674800  1
  P  P58  1  0.29674800  0.88481000  0.02837400  1
  P  P59  1  0.02837400  0.29674800  0.88481000  1
  P  P60  1  0.61549400  0.88450600  0.25000000  1
  P  P61  1  0.25000000  0.61549400  0.88450600  1
  P  P62  1  0.88450600  0.25000000  0.61549400  1
  P  P63  1  0.75000000  0.38450600  0.11549400  1
  P  P64  1  0.11549400  0.75000000  0.38450600  1
  P  P65  1  0.38450600  0.11549400  0.75000000  1
