# generated using pymatgen
data_K2SbF5
_symmetry_space_group_name_H-M   'P 1'
_cell_length_a   6.58338700
_cell_length_b   7.78888400
_cell_length_c   12.84319193
_cell_angle_alpha   65.21896616
_cell_angle_beta   90.00000000
_cell_angle_gamma   90.00000000
_symmetry_Int_Tables_number   1
_chemical_formula_structural   K2SbF5
_chemical_formula_sum   'K8 Sb4 F20'
_cell_volume   597.92043477
_cell_formula_units_Z   4
loop_
 _symmetry_equiv_pos_site_id
 _symmetry_equiv_pos_as_xyz
  1  'x, y, z'
loop_
 _atom_site_type_symbol
 _atom_site_label
 _atom_site_symmetry_multiplicity
 _atom_site_fract_x
 _atom_site_fract_y
 _atom_site_fract_z
 _atom_site_occupancy
  K  K0  1  0.74549700  0.15107200  0.45518100  1
  K  K1  1  0.24549700  0.84892800  0.04481900  1
  K  K2  1  0.25450300  0.84892800  0.54481900  1
  K  K3  1  0.75450300  0.15107200  0.95518100  1
  K  K4  1  0.26198100  0.49242800  0.38049000  1
  K  K5  1  0.76198100  0.50757200  0.11951000  1
  K  K6  1  0.73801900  0.50757200  0.61951000  1
  K  K7  1  0.23801900  0.49242800  0.88049000  1
  Sb  Sb8  1  0.22761900  0.18299300  0.70201900  1
  Sb  Sb9  1  0.72761900  0.81700700  0.79798100  1
  Sb  Sb10  1  0.77238100  0.81700700  0.29798100  1
  Sb  Sb11  1  0.27238100  0.18299300  0.20201900  1
  F  F12  1  0.30125200  0.45340400  0.61138800  1
  F  F13  1  0.80125200  0.54659600  0.88861200  1
  F  F14  1  0.69874800  0.54659600  0.38861200  1
  F  F15  1  0.19874800  0.45340400  0.11138800  1
  F  F16  1  0.42440300  0.16154800  0.57345500  1
  F  F17  1  0.92440300  0.83845200  0.92654500  1
  F  F18  1  0.57559700  0.83845200  0.42654500  1
  F  F19  1  0.07559700  0.16154800  0.07345500  1
  F  F20  1  0.00594200  0.25339800  0.57362300  1
  F  F21  1  0.50594200  0.74660200  0.92637700  1
  F  F22  1  0.99405800  0.74660200  0.42637700  1
  F  F23  1  0.49405800  0.25339800  0.07362300  1
  F  F24  1  0.45377800  0.22286500  0.80957600  1
  F  F25  1  0.95377800  0.77713500  0.69042400  1
  F  F26  1  0.54622200  0.77713500  0.19042400  1
  F  F27  1  0.04622200  0.22286500  0.30957600  1
  F  F28  1  0.02163300  0.29759800  0.78044300  1
  F  F29  1  0.52163300  0.70240200  0.71955700  1
  F  F30  1  0.97836700  0.70240200  0.21955700  1
  F  F31  1  0.47836700  0.29759800  0.28044300  1
