# generated using pymatgen
data_ErNi3
_symmetry_space_group_name_H-M   'P 1'
_cell_length_a   8.55003029
_cell_length_b   8.55003029
_cell_length_c   8.55003014
_cell_angle_alpha   33.51209629
_cell_angle_beta   33.51209629
_cell_angle_gamma   33.51209551
_symmetry_Int_Tables_number   1
_chemical_formula_structural   ErNi3
_chemical_formula_sum   'Er3 Ni9'
_cell_volume   169.69521196
_cell_formula_units_Z   3
loop_
 _symmetry_equiv_pos_site_id
 _symmetry_equiv_pos_as_xyz
  1  'x, y, z'
loop_
 _atom_site_type_symbol
 _atom_site_label
 _atom_site_symmetry_multiplicity
 _atom_site_fract_x
 _atom_site_fract_y
 _atom_site_fract_z
 _atom_site_occupancy
  Er  Er0  1  0.00000000  0.00000000  0.00000000  1
  Er  Er1  1  0.86139100  0.86139100  0.86139100  1
  Er  Er2  1  0.13860900  0.13860900  0.13860900  1
  Ni  Ni3  1  0.50000000  0.50000000  0.50000000  1
  Ni  Ni4  1  0.66688700  0.66688700  0.66688700  1
  Ni  Ni5  1  0.33311300  0.33311300  0.33311300  1
  Ni  Ni6  1  0.41694000  0.91929500  0.41694000  1
  Ni  Ni7  1  0.41694000  0.41694000  0.91929500  1
  Ni  Ni8  1  0.91929500  0.41694000  0.41694000  1
  Ni  Ni9  1  0.58306000  0.08070500  0.58306000  1
  Ni  Ni10  1  0.58306000  0.58306000  0.08070500  1
  Ni  Ni11  1  0.08070500  0.58306000  0.58306000  1
