# generated using pymatgen
data_KErF4
_symmetry_space_group_name_H-M   'P 1'
_cell_length_a   14.15674269
_cell_length_b   14.15674269
_cell_length_c   10.28207300
_cell_angle_alpha   90.00000000
_cell_angle_beta   90.00000000
_cell_angle_gamma   120.00000321
_symmetry_Int_Tables_number   1
_chemical_formula_structural   KErF4
_chemical_formula_sum   'K18 Er18 F72'
_cell_volume   1784.58803696
_cell_formula_units_Z   18
loop_
 _symmetry_equiv_pos_site_id
 _symmetry_equiv_pos_as_xyz
  1  'x, y, z'
loop_
 _atom_site_type_symbol
 _atom_site_label
 _atom_site_symmetry_multiplicity
 _atom_site_fract_x
 _atom_site_fract_y
 _atom_site_fract_z
 _atom_site_occupancy
  K  K0  1  0.05390400  0.60511400  0.98570600  1
  K  K1  1  0.55121000  0.94609600  0.65237200  1
  K  K2  1  0.39488600  0.44879000  0.31903900  1
  K  K3  1  0.55340100  0.61978500  0.01469500  1
  K  K4  1  0.06638300  0.44659900  0.68136200  1
  K  K5  1  0.38021500  0.93361700  0.34802900  1
  K  K6  1  0.72815500  0.95724600  0.98159000  1
  K  K7  1  0.22909100  0.27184500  0.64825700  1
  K  K8  1  0.04275400  0.77090900  0.31492300  1
  K  K9  1  0.21117500  0.93425500  0.01187500  1
  K  K10  1  0.72308000  0.78882500  0.67854200  1
  K  K11  1  0.06574500  0.27692000  0.34520900  1
  K  K12  1  0.89572700  0.28050600  0.01123400  1
  K  K13  1  0.38477900  0.10427300  0.67790100  1
  K  K14  1  0.71949400  0.61522100  0.34456800  1
  K  K15  1  0.39872300  0.27619900  0.98086200  1
  K  K16  1  0.87747600  0.60127700  0.64752900  1
  K  K17  1  0.72380100  0.12252400  0.31419500  1
  Er  Er18  1  0.22268900  0.42569500  0.99635400  1
  Er  Er19  1  0.20300700  0.77731100  0.66302100  1
  Er  Er20  1  0.57430500  0.79699300  0.32968800  1
  Er  Er21  1  0.06454800  0.11631000  0.98597000  1
  Er  Er22  1  0.05176300  0.93545200  0.65263700  1
  Er  Er23  1  0.88369000  0.94823700  0.31930300  1
  Er  Er24  1  0.53920800  0.09323900  0.00367200  1
  Er  Er25  1  0.55403100  0.46079200  0.67033900  1
  Er  Er26  1  0.90676100  0.44596900  0.33700600  1
  Er  Er27  1  0.39222100  0.78360700  0.99190400  1
  Er  Er28  1  0.39138600  0.60777900  0.65857100  1
  Er  Er29  1  0.21639300  0.60861400  0.32523800  1
  Er  Er30  1  0.87816400  0.75862700  0.99073100  1
  Er  Er31  1  0.88046400  0.12183600  0.65739800  1
  Er  Er32  1  0.24137300  0.11953600  0.32406500  1
  Er  Er33  1  0.72084200  0.44956200  0.00988500  1
  Er  Er34  1  0.72872000  0.27915800  0.67655200  1
  Er  Er35  1  0.55043800  0.27128000  0.34321800  1
  F  F36  1  0.26989700  0.47162200  0.78066600  1
  F  F37  1  0.20172500  0.73010300  0.44733300  1
  F  F38  1  0.52837800  0.79827500  0.11399900  1
  F  F39  1  0.21094500  0.47594400  0.20477100  1
  F  F40  1  0.26499900  0.78905500  0.87143700  1
  F  F41  1  0.52405600  0.73500100  0.53810400  1
  F  F42  1  0.92881900  0.05149400  0.13492400  1
  F  F43  1  0.12267500  0.07118100  0.80159100  1
  F  F44  1  0.94850600  0.87732500  0.46825800  1
  F  F45  1  0.06270300  0.05892700  0.32157500  1
  F  F46  1  0.99622500  0.93729700  0.98824200  1
  F  F47  1  0.94107300  0.00377500  0.65490900  1
  F  F48  1  0.53686500  0.13444300  0.22032100  1
  F  F49  1  0.59757800  0.46313500  0.88698800  1
  F  F50  1  0.86555700  0.40242200  0.55365500  1
  F  F51  1  0.60256400  0.14690700  0.79664200  1
  F  F52  1  0.54434300  0.39743600  0.46330900  1
  F  F53  1  0.85309300  0.45565700  0.12997600  1
  F  F54  1  0.39392800  0.72520500  0.32948700  1
  F  F55  1  0.33127600  0.60607200  0.99615400  1
  F  F56  1  0.27479500  0.66872400  0.66282100  1
  F  F57  1  0.25799900  0.71397800  0.14329700  1
  F  F58  1  0.45597900  0.74200100  0.80996300  1
  F  F59  1  0.28602200  0.54402100  0.47663000  1
  F  F60  1  0.87150800  0.81374100  0.19841000  1
  F  F61  1  0.94223300  0.12849200  0.86507600  1
  F  F62  1  0.18625900  0.05776700  0.53174300  1
  F  F63  1  0.92509800  0.80076400  0.77464200  1
  F  F64  1  0.87566600  0.07490200  0.44130900  1
  F  F65  1  0.19923600  0.12433400  0.10797500  1
  F  F66  1  0.62223700  0.40915300  0.19698800  1
  F  F67  1  0.78691700  0.37776300  0.86365400  1
  F  F68  1  0.59084700  0.21308300  0.53032100  1
  F  F69  1  0.72815700  0.32861700  0.34017000  1
  F  F70  1  0.60046000  0.27184300  0.00683700  1
  F  F71  1  0.67138300  0.39954000  0.67350300  1
  F  F72  1  0.06387200  0.62944900  0.73056900  1
  F  F73  1  0.56557700  0.93612800  0.39723600  1
  F  F74  1  0.37055100  0.43442300  0.06390300  1
  F  F75  1  0.05666600  0.58146900  0.24045300  1
  F  F76  1  0.52480400  0.94333400  0.90712000  1
  F  F77  1  0.41853100  0.47519600  0.57378700  1
  F  F78  1  0.55712100  0.64267400  0.27224100  1
  F  F79  1  0.08555300  0.44287900  0.93890800  1
  F  F80  1  0.35732600  0.91444700  0.60557400  1
  F  F81  1  0.40858400  0.93352900  0.09569700  1
  F  F82  1  0.52494500  0.59141600  0.76236400  1
  F  F83  1  0.06647100  0.47505500  0.42903000  1
  F  F84  1  0.72666400  0.92854400  0.23365800  1
  F  F85  1  0.20188000  0.27333600  0.90032500  1
  F  F86  1  0.07145600  0.79812000  0.56699200  1
  F  F87  1  0.73737300  0.97771800  0.72698900  1
  F  F88  1  0.24034500  0.26262700  0.39365600  1
  F  F89  1  0.02228200  0.75965500  0.06032200  1
  F  F90  1  0.08900900  0.26903600  0.08976000  1
  F  F91  1  0.18002700  0.91099100  0.75642700  1
  F  F92  1  0.73096400  0.81997300  0.42309300  1
  F  F93  1  0.21681500  0.96249200  0.26950500  1
  F  F94  1  0.74567800  0.78318500  0.93617100  1
  F  F95  1  0.03750800  0.25432200  0.60283800  1
  F  F96  1  0.90776400  0.30475200  0.26606300  1
  F  F97  1  0.39698800  0.09223600  0.93272900  1
  F  F98  1  0.69524800  0.60301200  0.59939600  1
  F  F99  1  0.74503100  0.60978900  0.09115100  1
  F  F100  1  0.86475800  0.25496900  0.75781800  1
  F  F101  1  0.39021100  0.13524200  0.42448500  1
  F  F102  1  0.40143300  0.25106500  0.23491300  1
  F  F103  1  0.84963200  0.59856700  0.90158000  1
  F  F104  1  0.74893500  0.15036800  0.56824600  1
  F  F105  1  0.42024500  0.30194100  0.72389000  1
  F  F106  1  0.88169500  0.57975500  0.39055600  1
  F  F107  1  0.69805900  0.11830500  0.05722300  1
