# generated using pymatgen
data_La(Ge3Pt)4
_symmetry_space_group_name_H-M   'P 1'
_cell_length_a   7.59084430
_cell_length_b   7.59084430
_cell_length_c   7.59084430
_cell_angle_alpha   109.47122063
_cell_angle_beta   109.47122063
_cell_angle_gamma   109.47122063
_symmetry_Int_Tables_number   1
_chemical_formula_structural   La(Ge3Pt)4
_chemical_formula_sum   'La1 Ge12 Pt4'
_cell_volume   336.70406502
_cell_formula_units_Z   1
loop_
 _symmetry_equiv_pos_site_id
 _symmetry_equiv_pos_as_xyz
  1  'x, y, z'
loop_
 _atom_site_type_symbol
 _atom_site_label
 _atom_site_symmetry_multiplicity
 _atom_site_fract_x
 _atom_site_fract_y
 _atom_site_fract_z
 _atom_site_occupancy
  La  La0  1  0.00000000  0.00000000  0.00000000  1
  Ge  Ge1  1  0.35489300  0.20312100  0.84822900  1
  Ge  Ge2  1  0.64510700  0.79687900  0.15177100  1
  Ge  Ge3  1  0.64510700  0.49333600  0.84822900  1
  Ge  Ge4  1  0.35489300  0.50666400  0.15177100  1
  Ge  Ge5  1  0.20312100  0.84822800  0.35489300  1
  Ge  Ge6  1  0.79687900  0.15177100  0.64510700  1
  Ge  Ge7  1  0.49333600  0.84822900  0.64510700  1
  Ge  Ge8  1  0.50666400  0.15177100  0.35489300  1
  Ge  Ge9  1  0.84822900  0.35489300  0.20312100  1
  Ge  Ge10  1  0.15177200  0.64510700  0.79687900  1
  Ge  Ge11  1  0.84822800  0.64510700  0.49333600  1
  Ge  Ge12  1  0.15177100  0.35489300  0.50666400  1
  Pt  Pt13  1  0.00000000  0.00000000  0.50000000  1
  Pt  Pt14  1  0.50000000  0.00000000  0.00000000  1
  Pt  Pt15  1  0.00000000  0.50000000  0.00000000  1
  Pt  Pt16  1  0.50000000  0.50000000  0.50000000  1
