# generated using pymatgen
data_H7S2NO8
_symmetry_space_group_name_H-M   'P 1'
_cell_length_a   7.62497800
_cell_length_b   13.02201900
_cell_length_c   7.80805500
_cell_angle_alpha   90.00000000
_cell_angle_beta   91.42683756
_cell_angle_gamma   90.00000000
_symmetry_Int_Tables_number   1
_chemical_formula_structural   H7S2NO8
_chemical_formula_sum   'H28 S8 N4 O32'
_cell_volume   775.04176000
_cell_formula_units_Z   4
loop_
 _symmetry_equiv_pos_site_id
 _symmetry_equiv_pos_as_xyz
  1  'x, y, z'
loop_
 _atom_site_type_symbol
 _atom_site_label
 _atom_site_symmetry_multiplicity
 _atom_site_fract_x
 _atom_site_fract_y
 _atom_site_fract_z
 _atom_site_occupancy
  H  H0  1  0.66497000  0.23994400  0.66656200  1
  H  H1  1  0.33503000  0.73994400  0.83343800  1
  H  H2  1  0.33503000  0.76005600  0.33343800  1
  H  H3  1  0.66497000  0.26005600  0.16656200  1
  H  H4  1  0.96787800  0.82535100  0.19462300  1
  H  H5  1  0.03212200  0.32535100  0.30537700  1
  H  H6  1  0.03212200  0.17464900  0.80537700  1
  H  H7  1  0.96787800  0.67464900  0.69462300  1
  H  H8  1  0.83891000  0.04377300  0.13460800  1
  H  H9  1  0.16109000  0.54377300  0.36539200  1
  H  H10  1  0.16109000  0.95622700  0.86539200  1
  H  H11  1  0.83891000  0.45622700  0.63460800  1
  H  H12  1  0.66125500  0.61397600  0.03505500  1
  H  H13  1  0.33874500  0.11397600  0.46494500  1
  H  H14  1  0.33874500  0.38602400  0.96494500  1
  H  H15  1  0.66125500  0.88602400  0.53505500  1
  H  H16  1  0.84442400  0.59409400  0.15796900  1
  H  H17  1  0.15557600  0.09409400  0.34203100  1
  H  H18  1  0.15557600  0.40590600  0.84203100  1
  H  H19  1  0.84442400  0.90590600  0.65796900  1
  H  H20  1  0.68669300  0.50272700  0.13982200  1
  H  H21  1  0.31330700  0.00272700  0.36017800  1
  H  H22  1  0.31330700  0.49727300  0.86017800  1
  H  H23  1  0.68669300  0.99727300  0.63982200  1
  H  H24  1  0.64783700  0.61171300  0.25048100  1
  H  H25  1  0.35216300  0.11171300  0.24951900  1
  H  H26  1  0.35216300  0.38828700  0.74951900  1
  H  H27  1  0.64783700  0.88828700  0.75048100  1
  S  S28  1  0.79855800  0.31481100  0.87917800  1
  S  S29  1  0.20144200  0.81481100  0.62082200  1
  S  S30  1  0.20144200  0.68518900  0.12082200  1
  S  S31  1  0.79855800  0.18518900  0.37917800  1
  S  S32  1  0.71332900  0.89723000  0.14577000  1
  S  S33  1  0.28667100  0.39723000  0.35423000  1
  S  S34  1  0.28667100  0.10277000  0.85423000  1
  S  S35  1  0.71332900  0.60277000  0.64577000  1
  N  N36  1  0.70985900  0.58084800  0.14626200  1
  N  N37  1  0.29014100  0.08084800  0.35373800  1
  N  N38  1  0.29014100  0.41915200  0.85373800  1
  N  N39  1  0.70985900  0.91915200  0.64626200  1
  O  O40  1  0.91452100  0.39120800  0.79903600  1
  O  O41  1  0.08547900  0.89120800  0.70096400  1
  O  O42  1  0.08547900  0.60879200  0.20096400  1
  O  O43  1  0.91452100  0.10879200  0.29903600  1
  O  O44  1  0.71838700  0.35405100  0.03522000  1
  O  O45  1  0.28161300  0.85405100  0.46478000  1
  O  O46  1  0.28161300  0.64594900  0.96478000  1
  O  O47  1  0.71838700  0.14594900  0.53522000  1
  O  O48  1  0.88609400  0.21573200  0.90823300  1
  O  O49  1  0.11390600  0.71573200  0.59176700  1
  O  O50  1  0.11390600  0.78426800  0.09176700  1
  O  O51  1  0.88609400  0.28426800  0.40823300  1
  O  O52  1  0.63846500  0.29692200  0.75118800  1
  O  O53  1  0.36153500  0.79692200  0.74881200  1
  O  O54  1  0.36153500  0.70307800  0.24881200  1
  O  O55  1  0.63846500  0.20307800  0.25118800  1
  O  O56  1  0.66823100  0.82385000  0.01403000  1
  O  O57  1  0.33176900  0.32385000  0.48597000  1
  O  O58  1  0.33176900  0.17615000  0.98597000  1
  O  O59  1  0.66823100  0.67615000  0.51403000  1
  O  O60  1  0.58009000  0.93129800  0.26133300  1
  O  O61  1  0.41991000  0.43129800  0.23866700  1
  O  O62  1  0.41991000  0.06870200  0.73866700  1
  O  O63  1  0.58009000  0.56870200  0.76133300  1
  O  O64  1  0.86626900  0.85694600  0.26418000  1
  O  O65  1  0.13373100  0.35694600  0.23582000  1
  O  O66  1  0.13373100  0.14305400  0.73582000  1
  O  O67  1  0.86626900  0.64305400  0.76418000  1
  O  O68  1  0.79311100  0.99113900  0.04817700  1
  O  O69  1  0.20688900  0.49113900  0.45182300  1
  O  O70  1  0.20688900  0.00886100  0.95182300  1
  O  O71  1  0.79311100  0.50886100  0.54817700  1
