# generated using pymatgen
data_NaMn16O32
_symmetry_space_group_name_H-M   'P 1'
_cell_length_a   9.93758400
_cell_length_b   9.93758400
_cell_length_c   5.87949100
_cell_angle_alpha   90.00000000
_cell_angle_beta   90.00000000
_cell_angle_gamma   90.00000000
_symmetry_Int_Tables_number   1
_chemical_formula_structural   NaMn16O32
_chemical_formula_sum   'Na1 Mn16 O32'
_cell_volume   580.63251886
_cell_formula_units_Z   1
loop_
 _symmetry_equiv_pos_site_id
 _symmetry_equiv_pos_as_xyz
  1  'x, y, z'
loop_
 _atom_site_type_symbol
 _atom_site_label
 _atom_site_symmetry_multiplicity
 _atom_site_fract_x
 _atom_site_fract_y
 _atom_site_fract_z
 _atom_site_occupancy
  Na  Na0  1  0.50000000  0.50000000  0.00000000  1
  Mn  Mn1  1  0.34938500  0.16625100  0.25066400  1
  Mn  Mn2  1  0.34938500  0.16625100  0.74933600  1
  Mn  Mn3  1  0.83374900  0.34938500  0.25066400  1
  Mn  Mn4  1  0.83374900  0.34938500  0.74933600  1
  Mn  Mn5  1  0.16625100  0.65061500  0.74933600  1
  Mn  Mn6  1  0.16625100  0.65061500  0.25066400  1
  Mn  Mn7  1  0.65061500  0.83374900  0.74933600  1
  Mn  Mn8  1  0.65061500  0.83374900  0.25066400  1
  Mn  Mn9  1  0.84812500  0.66698900  0.50000000  1
  Mn  Mn10  1  0.84915200  0.66685200  0.00000000  1
  Mn  Mn11  1  0.33301100  0.84812500  0.50000000  1
  Mn  Mn12  1  0.33314800  0.84915200  0.00000000  1
  Mn  Mn13  1  0.66698900  0.15187500  0.50000000  1
  Mn  Mn14  1  0.66685200  0.15084800  0.00000000  1
  Mn  Mn15  1  0.15187500  0.33301100  0.50000000  1
  Mn  Mn16  1  0.15084800  0.33314800  0.00000000  1
  O  O17  1  0.66255100  0.95780500  0.50000000  1
  O  O18  1  0.66258400  0.95751300  0.00000000  1
  O  O19  1  0.04219500  0.66255100  0.50000000  1
  O  O20  1  0.04248700  0.66258400  0.00000000  1
  O  O21  1  0.95780500  0.33744900  0.50000000  1
  O  O22  1  0.95751300  0.33741600  0.00000000  1
  O  O23  1  0.33744900  0.04219500  0.50000000  1
  O  O24  1  0.33741600  0.04248700  0.00000000  1
  O  O25  1  0.16794500  0.45684300  0.75017500  1
  O  O26  1  0.16794500  0.45684300  0.24982500  1
  O  O27  1  0.54315700  0.16794500  0.75017500  1
  O  O28  1  0.54315700  0.16794500  0.24982500  1
  O  O29  1  0.45684300  0.83205500  0.24982500  1
  O  O30  1  0.45684300  0.83205500  0.75017500  1
  O  O31  1  0.83205500  0.54315700  0.24982500  1
  O  O32  1  0.83205500  0.54315700  0.75017500  1
  O  O33  1  0.84302100  0.79569200  0.24963100  1
  O  O34  1  0.84302100  0.79569200  0.75036900  1
  O  O35  1  0.20430800  0.84302100  0.75036900  1
  O  O36  1  0.20430800  0.84302100  0.24963100  1
  O  O37  1  0.15697900  0.20430800  0.75036900  1
  O  O38  1  0.15697900  0.20430800  0.24963100  1
  O  O39  1  0.79569200  0.15697900  0.24963100  1
  O  O40  1  0.79569200  0.15697900  0.75036900  1
  O  O41  1  0.34519700  0.29585600  0.50000000  1
  O  O42  1  0.34639200  0.29830700  0.00000000  1
  O  O43  1  0.70414400  0.34519700  0.50000000  1
  O  O44  1  0.70169300  0.34639200  0.00000000  1
  O  O45  1  0.65480300  0.70414400  0.50000000  1
  O  O46  1  0.65360800  0.70169300  0.00000000  1
  O  O47  1  0.29585600  0.65480300  0.50000000  1
  O  O48  1  0.29830700  0.65360800  0.00000000  1
