# generated using pymatgen
data_Ba4InAgS6
_symmetry_space_group_name_H-M   'P 1'
_cell_length_a   9.00526600
_cell_length_b   8.83255200
_cell_length_c   18.00228567
_cell_angle_alpha   76.06118947
_cell_angle_beta   90.00000000
_cell_angle_gamma   90.00000000
_symmetry_Int_Tables_number   1
_chemical_formula_structural   Ba4InAgS6
_chemical_formula_sum   'Ba16 In4 Ag4 S24'
_cell_volume   1389.72827457
_cell_formula_units_Z   4
loop_
 _symmetry_equiv_pos_site_id
 _symmetry_equiv_pos_as_xyz
  1  'x, y, z'
loop_
 _atom_site_type_symbol
 _atom_site_label
 _atom_site_symmetry_multiplicity
 _atom_site_fract_x
 _atom_site_fract_y
 _atom_site_fract_z
 _atom_site_occupancy
  Ba  Ba0  1  0.58042300  0.78261300  0.71432000  1
  Ba  Ba1  1  0.08042300  0.21738700  0.78568000  1
  Ba  Ba2  1  0.41957700  0.21738700  0.28568000  1
  Ba  Ba3  1  0.91957700  0.78261300  0.21432000  1
  Ba  Ba4  1  0.57710100  0.25423200  0.71463200  1
  Ba  Ba5  1  0.07710100  0.74576800  0.78536800  1
  Ba  Ba6  1  0.42289900  0.74576800  0.28536800  1
  Ba  Ba7  1  0.92289900  0.25423200  0.21463200  1
  Ba  Ba8  1  0.75829400  0.90324500  0.95884800  1
  Ba  Ba9  1  0.25829400  0.09675500  0.54115200  1
  Ba  Ba10  1  0.24170600  0.09675500  0.04115200  1
  Ba  Ba11  1  0.74170600  0.90324500  0.45884800  1
  Ba  Ba12  1  0.26559200  0.60990700  0.54025500  1
  Ba  Ba13  1  0.76559200  0.39009300  0.95974500  1
  Ba  Ba14  1  0.73440800  0.39009300  0.45974500  1
  Ba  Ba15  1  0.23440800  0.60990700  0.04025500  1
  In  In16  1  0.88067600  0.55637800  0.63230700  1
  In  In17  1  0.38067600  0.44362200  0.86769300  1
  In  In18  1  0.11932400  0.44362200  0.36769300  1
  In  In19  1  0.61932400  0.55637800  0.13230700  1
  Ag  Ag20  1  0.37189600  0.93815300  0.86649400  1
  Ag  Ag21  1  0.87189600  0.06184700  0.63350600  1
  Ag  Ag22  1  0.62810400  0.06184700  0.13350600  1
  Ag  Ag23  1  0.12810400  0.93815300  0.36649400  1
  S  S24  1  0.01431000  0.33611800  0.59734900  1
  S  S25  1  0.51431000  0.66388200  0.90265100  1
  S  S26  1  0.98569000  0.66388200  0.40265100  1
  S  S27  1  0.48569000  0.33611800  0.09734900  1
  S  S28  1  0.82021700  0.48769000  0.77142400  1
  S  S29  1  0.32021700  0.51231000  0.72857600  1
  S  S30  1  0.17978300  0.51231000  0.22857600  1
  S  S31  1  0.67978300  0.48769000  0.27142400  1
  S  S32  1  0.62911800  0.58983500  0.57354700  1
  S  S33  1  0.12911800  0.41016500  0.92645300  1
  S  S34  1  0.37088200  0.41016500  0.42645300  1
  S  S35  1  0.87088200  0.58983500  0.07354700  1
  S  S36  1  0.00963900  0.81503000  0.59813300  1
  S  S37  1  0.50963900  0.18497000  0.90186700  1
  S  S38  1  0.99036100  0.18497000  0.40186700  1
  S  S39  1  0.49036100  0.81503000  0.09813300  1
  S  S40  1  0.81174000  0.98721800  0.77896600  1
  S  S41  1  0.31174000  0.01278200  0.72103400  1
  S  S42  1  0.18826000  0.01278200  0.22103400  1
  S  S43  1  0.68826000  0.98721800  0.27896600  1
  S  S44  1  0.61421800  0.09491900  0.56973100  1
  S  S45  1  0.11421800  0.90508100  0.93026900  1
  S  S46  1  0.38578200  0.90508100  0.43026900  1
  S  S47  1  0.88578200  0.09491900  0.06973100  1
