# generated using pymatgen
data_Yb2VO5
_symmetry_space_group_name_H-M   'P 1'
_cell_length_a   8.34547428
_cell_length_b   8.34547428
_cell_length_c   10.32988400
_cell_angle_alpha   61.46377965
_cell_angle_beta   61.46377965
_cell_angle_gamma   49.81853661
_symmetry_Int_Tables_number   1
_chemical_formula_structural   Yb2VO5
_chemical_formula_sum   'Yb8 V4 O20'
_cell_volume   467.23481063
_cell_formula_units_Z   4
loop_
 _symmetry_equiv_pos_site_id
 _symmetry_equiv_pos_as_xyz
  1  'x, y, z'
loop_
 _atom_site_type_symbol
 _atom_site_label
 _atom_site_symmetry_multiplicity
 _atom_site_fract_x
 _atom_site_fract_y
 _atom_site_fract_z
 _atom_site_occupancy
  Yb  Yb0  1  0.76024500  0.52533000  0.16079300  1
  Yb  Yb1  1  0.47467000  0.23975500  0.33920700  1
  Yb  Yb2  1  0.23975500  0.47467000  0.83920700  1
  Yb  Yb3  1  0.52533000  0.76024500  0.66079300  1
  Yb  Yb4  1  0.79883800  0.28207100  0.54224200  1
  Yb  Yb5  1  0.71792900  0.20116200  0.95775800  1
  Yb  Yb6  1  0.20116200  0.71792900  0.45775800  1
  Yb  Yb7  1  0.28207100  0.79883800  0.04224200  1
  V  V8  1  0.90968900  0.72649200  0.30712900  1
  V  V9  1  0.27350800  0.09031100  0.19287100  1
  V  V10  1  0.09031100  0.27350800  0.69287100  1
  V  V11  1  0.72649200  0.90968900  0.80712900  1
  O  O12  1  0.84694300  0.55444300  0.32449800  1
  O  O13  1  0.44555700  0.15305700  0.17550200  1
  O  O14  1  0.15305700  0.44555700  0.67550200  1
  O  O15  1  0.55444300  0.84694300  0.82449800  1
  O  O16  1  0.87687000  0.72840900  0.94329900  1
  O  O17  1  0.27159100  0.12313000  0.55670100  1
  O  O18  1  0.12313000  0.27159100  0.05670100  1
  O  O19  1  0.72840900  0.87687000  0.44329900  1
  O  O20  1  0.41039500  0.82286600  0.18319000  1
  O  O21  1  0.17713400  0.58960500  0.31681000  1
  O  O22  1  0.58960500  0.17713400  0.81681000  1
  O  O23  1  0.82286600  0.41039500  0.68319000  1
  O  O24  1  0.09202300  0.08886200  0.36767900  1
  O  O25  1  0.91113800  0.90797700  0.13232100  1
  O  O26  1  0.90797700  0.91113800  0.63232100  1
  O  O27  1  0.08886200  0.09202300  0.86767900  1
  O  O28  1  0.55927100  0.41442900  0.41298900  1
  O  O29  1  0.58557100  0.44072900  0.08701100  1
  O  O30  1  0.44072900  0.58557100  0.58701100  1
  O  O31  1  0.41442900  0.55927100  0.91298900  1
