# generated using pymatgen
data_Pr2Si2PbS8
_symmetry_space_group_name_H-M   'P 1'
_cell_length_a   9.08159716
_cell_length_b   9.08159716
_cell_length_c   10.28212634
_cell_angle_alpha   65.24340252
_cell_angle_beta   65.24340252
_cell_angle_gamma   60.29462671
_symmetry_Int_Tables_number   1
_chemical_formula_structural   Pr2Si2PbS8
_chemical_formula_sum   'Pr4 Si4 Pb2 S16'
_cell_volume   644.44817701
_cell_formula_units_Z   2
loop_
 _symmetry_equiv_pos_site_id
 _symmetry_equiv_pos_as_xyz
  1  'x, y, z'
loop_
 _atom_site_type_symbol
 _atom_site_label
 _atom_site_symmetry_multiplicity
 _atom_site_fract_x
 _atom_site_fract_y
 _atom_site_fract_z
 _atom_site_occupancy
  Pr  Pr0  1  0.06124300  0.25195300  0.74817800  1
  Pr  Pr1  1  0.44004600  0.55702400  0.75323100  1
  Pr  Pr2  1  0.25195300  0.06124300  0.24817800  1
  Pr  Pr3  1  0.55702400  0.44004600  0.25323100  1
  Si  Si4  1  0.65241900  0.16950700  0.02122100  1
  Si  Si5  1  0.16950700  0.65241900  0.52122100  1
  Si  Si6  1  0.33291200  0.84599800  0.97801700  1
  Si  Si7  1  0.84599800  0.33291200  0.47801700  1
  Pb  Pb8  1  0.74991300  0.92929800  0.74952000  1
  Pb  Pb9  1  0.92929800  0.74991300  0.24952000  1
  S  S10  1  0.88492200  0.97595700  0.92683300  1
  S  S11  1  0.71284600  0.39743400  0.94627000  1
  S  S12  1  0.43854300  0.22568300  0.94749400  1
  S  S13  1  0.39743400  0.71284600  0.44627000  1
  S  S14  1  0.97595700  0.88492200  0.42683300  1
  S  S15  1  0.22568300  0.43854300  0.44749400  1
  S  S16  1  0.11109900  0.06677300  0.04574700  1
  S  S17  1  0.28102800  0.61331700  0.06482800  1
  S  S18  1  0.53385700  0.79032000  0.06891600  1
  S  S19  1  0.61331700  0.28102800  0.56482800  1
  S  S20  1  0.06677300  0.11109900  0.54574700  1
  S  S21  1  0.79032000  0.53385700  0.56891600  1
  S  S22  1  0.56773000  0.09769500  0.25815000  1
  S  S23  1  0.09769500  0.56773000  0.75815000  1
  S  S24  1  0.40052700  0.91195600  0.74159500  1
  S  S25  1  0.91195600  0.40052700  0.24159500  1
