# generated using pymatgen
data_K3Sn2P5S18
_symmetry_space_group_name_H-M   'P 1'
_cell_length_a   12.26733034
_cell_length_b   12.26733034
_cell_length_c   21.30873539
_cell_angle_alpha   74.21978400
_cell_angle_beta   74.21978400
_cell_angle_gamma   29.12233881
_symmetry_Int_Tables_number   1
_chemical_formula_structural   K3Sn2P5S18
_chemical_formula_sum   'K6 Sn4 P10 S36'
_cell_volume   1497.75349418
_cell_formula_units_Z   2
loop_
 _symmetry_equiv_pos_site_id
 _symmetry_equiv_pos_as_xyz
  1  'x, y, z'
loop_
 _atom_site_type_symbol
 _atom_site_label
 _atom_site_symmetry_multiplicity
 _atom_site_fract_x
 _atom_site_fract_y
 _atom_site_fract_z
 _atom_site_occupancy
  K  K0  1  0.73512400  0.95465000  0.67422800  1
  K  K1  1  0.26487600  0.04535000  0.32577200  1
  K  K2  1  0.04535000  0.26487600  0.82577200  1
  K  K3  1  0.95465000  0.73512400  0.17422800  1
  K  K4  1  0.00000000  0.00000000  0.50000000  1
  K  K5  1  0.00000000  0.00000000  0.00000000  1
  Sn  Sn6  1  0.62521100  0.13591700  0.87382000  1
  Sn  Sn7  1  0.37478900  0.86408300  0.12618000  1
  Sn  Sn8  1  0.86408300  0.37478900  0.62618000  1
  Sn  Sn9  1  0.13591700  0.62521100  0.37382000  1
  P  P10  1  0.74898200  0.25101800  0.75000000  1
  P  P11  1  0.25101800  0.74898200  0.25000000  1
  P  P12  1  0.31432700  0.44220500  0.51913700  1
  P  P13  1  0.68567300  0.55779500  0.48086300  1
  P  P14  1  0.55779500  0.68567300  0.98086300  1
  P  P15  1  0.44220500  0.31432700  0.01913700  1
  P  P16  1  0.65620700  0.85116300  0.85977800  1
  P  P17  1  0.34379300  0.14883700  0.14022200  1
  P  P18  1  0.14883700  0.34379300  0.64022200  1
  P  P19  1  0.85116300  0.65620700  0.35977800  1
  S  S20  1  0.37690600  0.20856200  0.55443000  1
  S  S21  1  0.62309400  0.79143800  0.44557000  1
  S  S22  1  0.79143800  0.62309400  0.94557000  1
  S  S23  1  0.20856200  0.37690600  0.05443000  1
  S  S24  1  0.75039700  0.98278500  0.99370100  1
  S  S25  1  0.24960300  0.01721500  0.00629900  1
  S  S26  1  0.01721500  0.24960300  0.50629900  1
  S  S27  1  0.98278500  0.75039700  0.49370100  1
  S  S28  1  0.91983200  0.04430500  0.83371400  1
  S  S29  1  0.08016800  0.95569500  0.16628600  1
  S  S30  1  0.95569500  0.08016800  0.66628600  1
  S  S31  1  0.04430500  0.91983200  0.33371400  1
  S  S32  1  0.60290400  0.81847700  0.79341000  1
  S  S33  1  0.39709600  0.18152300  0.20659000  1
  S  S34  1  0.18152300  0.39709600  0.70659000  1
  S  S35  1  0.81847700  0.60290400  0.29341000  1
  S  S36  1  0.24077200  0.09367400  0.66524300  1
  S  S37  1  0.75922800  0.90632600  0.33475700  1
  S  S38  1  0.90632600  0.75922800  0.83475700  1
  S  S39  1  0.09367400  0.24077200  0.16524300  1
  S  S40  1  0.37795700  0.17578100  0.88739400  1
  S  S41  1  0.62204300  0.82421900  0.11260600  1
  S  S42  1  0.82421900  0.62204300  0.61260600  1
  S  S43  1  0.17578100  0.37795700  0.38739400  1
  S  S44  1  0.49946600  0.68186400  0.57026400  1
  S  S45  1  0.50053400  0.31813600  0.42973600  1
  S  S46  1  0.31813600  0.50053400  0.92973600  1
  S  S47  1  0.68186400  0.49946600  0.07026400  1
  S  S48  1  0.40013700  0.45522800  0.57862100  1
  S  S49  1  0.59986300  0.54477200  0.42137900  1
  S  S50  1  0.54477200  0.59986300  0.92137900  1
  S  S51  1  0.45522800  0.40013700  0.07862100  1
  S  S52  1  0.49111200  0.35900700  0.76038500  1
  S  S53  1  0.50888800  0.64099300  0.23961500  1
  S  S54  1  0.64099300  0.50888800  0.73961500  1
  S  S55  1  0.35900700  0.49111200  0.26038500  1
