# generated using pymatgen
data_LiFeF6
_symmetry_space_group_name_H-M   'P 1'
_cell_length_a   4.73833200
_cell_length_b   4.73833200
_cell_length_c   8.72165800
_cell_angle_alpha   90.00000000
_cell_angle_beta   90.00000000
_cell_angle_gamma   90.00000000
_symmetry_Int_Tables_number   1
_chemical_formula_structural   LiFeF6
_chemical_formula_sum   'Li2 Fe2 F12'
_cell_volume   195.81683511
_cell_formula_units_Z   2
loop_
 _symmetry_equiv_pos_site_id
 _symmetry_equiv_pos_as_xyz
  1  'x, y, z'
loop_
 _atom_site_type_symbol
 _atom_site_label
 _atom_site_symmetry_multiplicity
 _atom_site_fract_x
 _atom_site_fract_y
 _atom_site_fract_z
 _atom_site_occupancy
  Li  Li0  1  0.50000000  0.50000000  0.51038700  1
  Li  Li1  1  0.00000000  0.00000000  0.01038700  1
  Fe  Fe2  1  0.50000000  0.50000000  0.16363700  1
  Fe  Fe3  1  0.00000000  0.00000000  0.66363700  1
  F  F4  1  0.23224100  0.76775900  0.16360600  1
  F  F5  1  0.76775900  0.23224100  0.16360600  1
  F  F6  1  0.26775900  0.26775900  0.66360600  1
  F  F7  1  0.73224100  0.73224100  0.66360600  1
  F  F8  1  0.81614900  0.18385100  0.81316300  1
  F  F9  1  0.18385100  0.81614900  0.81316300  1
  F  F10  1  0.68385100  0.68385100  0.31316300  1
  F  F11  1  0.31614900  0.31614900  0.31316300  1
  F  F12  1  0.18995300  0.81004700  0.51956900  1
  F  F13  1  0.81004700  0.18995300  0.51956900  1
  F  F14  1  0.31004700  0.31004700  0.01956900  1
  F  F15  1  0.68995300  0.68995300  0.01956900  1
