# generated using pymatgen
data_LaTlGeSe4
_symmetry_space_group_name_H-M   'P 1'
_cell_length_a   7.24108500
_cell_length_b   11.60909900
_cell_length_c   19.55947700
_cell_angle_alpha   90.00000000
_cell_angle_beta   90.00000000
_cell_angle_gamma   90.00000000
_symmetry_Int_Tables_number   1
_chemical_formula_structural   LaTlGeSe4
_chemical_formula_sum   'La8 Tl8 Ge8 Se32'
_cell_volume   1644.21800002
_cell_formula_units_Z   8
loop_
 _symmetry_equiv_pos_site_id
 _symmetry_equiv_pos_as_xyz
  1  'x, y, z'
loop_
 _atom_site_type_symbol
 _atom_site_label
 _atom_site_symmetry_multiplicity
 _atom_site_fract_x
 _atom_site_fract_y
 _atom_site_fract_z
 _atom_site_occupancy
  La  La0  1  0.77084600  0.39325400  0.56595800  1
  La  La1  1  0.72915400  0.89325400  0.43404200  1
  La  La2  1  0.27084600  0.60674600  0.93404200  1
  La  La3  1  0.22915400  0.10674600  0.06595800  1
  La  La4  1  0.22915400  0.60674600  0.43404200  1
  La  La5  1  0.27084600  0.10674600  0.56595800  1
  La  La6  1  0.72915400  0.39325400  0.06595800  1
  La  La7  1  0.77084600  0.89325400  0.93404200  1
  Tl  Tl8  1  0.83028200  0.24525800  0.80185200  1
  Tl  Tl9  1  0.66971800  0.74525800  0.19814800  1
  Tl  Tl10  1  0.33028200  0.75474200  0.69814800  1
  Tl  Tl11  1  0.16971800  0.25474200  0.30185200  1
  Tl  Tl12  1  0.16971800  0.75474200  0.19814800  1
  Tl  Tl13  1  0.33028200  0.25474200  0.80185200  1
  Tl  Tl14  1  0.66971800  0.24525800  0.30185200  1
  Tl  Tl15  1  0.83028200  0.74525800  0.69814800  1
  Ge  Ge16  1  0.78372000  0.55596400  0.88727200  1
  Ge  Ge17  1  0.71628000  0.05596400  0.11272800  1
  Ge  Ge18  1  0.28372000  0.44403600  0.61272800  1
  Ge  Ge19  1  0.21628000  0.94403600  0.38727200  1
  Ge  Ge20  1  0.21628000  0.44403600  0.11272800  1
  Ge  Ge21  1  0.28372000  0.94403600  0.88727200  1
  Ge  Ge22  1  0.71628000  0.55596400  0.38727200  1
  Ge  Ge23  1  0.78372000  0.05596400  0.61272800  1
  Se  Se24  1  0.09212400  0.29535100  0.65883700  1
  Se  Se25  1  0.40787600  0.79535100  0.34116300  1
  Se  Se26  1  0.59212400  0.70464900  0.84116300  1
  Se  Se27  1  0.90787600  0.20464900  0.15883700  1
  Se  Se28  1  0.90787600  0.70464900  0.34116300  1
  Se  Se29  1  0.59212400  0.20464900  0.65883700  1
  Se  Se30  1  0.40787600  0.29535100  0.15883700  1
  Se  Se31  1  0.09212400  0.79535100  0.84116300  1
  Se  Se32  1  0.07103800  0.09383100  0.91709000  1
  Se  Se33  1  0.42896200  0.59383100  0.08291000  1
  Se  Se34  1  0.57103800  0.90616900  0.58291000  1
  Se  Se35  1  0.92896200  0.40616900  0.41709000  1
  Se  Se36  1  0.92896200  0.90616900  0.08291000  1
  Se  Se37  1  0.57103800  0.40616900  0.91709000  1
  Se  Se38  1  0.42896200  0.09383100  0.41709000  1
  Se  Se39  1  0.07103800  0.59383100  0.58291000  1
  Se  Se40  1  0.87802800  0.14084200  0.50550200  1
  Se  Se41  1  0.62197200  0.64084200  0.49449800  1
  Se  Se42  1  0.37802800  0.85915800  0.99449800  1
  Se  Se43  1  0.12197200  0.35915800  0.00550200  1
  Se  Se44  1  0.12197200  0.85915800  0.49449800  1
  Se  Se45  1  0.37802800  0.35915800  0.50550200  1
  Se  Se46  1  0.62197200  0.14084200  0.00550200  1
  Se  Se47  1  0.87802800  0.64084200  0.99449800  1
  Se  Se48  1  0.03415500  0.49875300  0.81691300  1
  Se  Se49  1  0.46584500  0.99875300  0.18308700  1
  Se  Se50  1  0.53415500  0.50124700  0.68308700  1
  Se  Se51  1  0.96584500  0.00124700  0.31691300  1
  Se  Se52  1  0.96584500  0.50124700  0.18308700  1
  Se  Se53  1  0.53415500  0.00124700  0.81691300  1
  Se  Se54  1  0.46584500  0.49875300  0.31691300  1
  Se  Se55  1  0.03415500  0.99875300  0.68308700  1
