# generated using pymatgen
data_DyNi3
_symmetry_space_group_name_H-M   'P 1'
_cell_length_a   4.95444282
_cell_length_b   4.95444282
_cell_length_c   8.58990962
_cell_angle_alpha   73.23856615
_cell_angle_beta   73.23856615
_cell_angle_gamma   60.00001579
_symmetry_Int_Tables_number   1
_chemical_formula_structural   DyNi3
_chemical_formula_sum   'Dy3 Ni9'
_cell_volume   172.18160623
_cell_formula_units_Z   3
loop_
 _symmetry_equiv_pos_site_id
 _symmetry_equiv_pos_as_xyz
  1  'x, y, z'
loop_
 _atom_site_type_symbol
 _atom_site_label
 _atom_site_symmetry_multiplicity
 _atom_site_fract_x
 _atom_site_fract_y
 _atom_site_fract_z
 _atom_site_occupancy
  Dy  Dy0  1  0.13931100  0.13931100  0.58206700  1
  Dy  Dy1  1  0.86068900  0.86068900  0.41793300  1
  Dy  Dy2  1  0.00000000  0.00000000  0.00000000  1
  Ni  Ni3  1  0.08159800  0.58225800  0.75388700  1
  Ni  Ni4  1  0.58225800  0.58225800  0.75388700  1
  Ni  Ni5  1  0.58225800  0.08159800  0.75388700  1
  Ni  Ni6  1  0.91840200  0.41774200  0.24611300  1
  Ni  Ni7  1  0.41774200  0.41774200  0.24611300  1
  Ni  Ni8  1  0.41774200  0.91840200  0.24611300  1
  Ni  Ni9  1  0.33323000  0.33323000  0.00030900  1
  Ni  Ni10  1  0.66677000  0.66677000  0.99969100  1
  Ni  Ni11  1  0.50000000  0.50000000  0.50000000  1
