# generated using pymatgen
data_YAgGe
_symmetry_space_group_name_H-M   'P 1'
_cell_length_a   7.22632300
_cell_length_b   7.22632300
_cell_length_c   4.19694700
_cell_angle_alpha   90.00000000
_cell_angle_beta   90.00000000
_cell_angle_gamma   119.99999080
_symmetry_Int_Tables_number   1
_chemical_formula_structural   YAgGe
_chemical_formula_sum   'Y3 Ag3 Ge3'
_cell_volume   189.80117450
_cell_formula_units_Z   3
loop_
 _symmetry_equiv_pos_site_id
 _symmetry_equiv_pos_as_xyz
  1  'x, y, z'
loop_
 _atom_site_type_symbol
 _atom_site_label
 _atom_site_symmetry_multiplicity
 _atom_site_fract_x
 _atom_site_fract_y
 _atom_site_fract_z
 _atom_site_occupancy
  Y  Y0  1  0.58612300  0.00000000  0.00000000  1
  Y  Y1  1  0.00000000  0.58612300  0.00000000  1
  Y  Y2  1  0.41387700  0.41387700  0.00000000  1
  Ag  Ag3  1  0.25270500  0.00000000  0.50000000  1
  Ag  Ag4  1  0.00000000  0.25270500  0.50000000  1
  Ag  Ag5  1  0.74729500  0.74729500  0.50000000  1
  Ge  Ge6  1  0.33333300  0.66666700  0.50000000  1
  Ge  Ge7  1  0.66666700  0.33333300  0.50000000  1
  Ge  Ge8  1  0.00000000  0.00000000  0.00000000  1
