# generated using pymatgen
data_Cs2Sb2Pd
_symmetry_space_group_name_H-M   'P 1'
_cell_length_a   8.64799237
_cell_length_b   8.64799237
_cell_length_c   6.89233300
_cell_angle_alpha   90.00000000
_cell_angle_beta   90.00000000
_cell_angle_gamma   125.80638376
_symmetry_Int_Tables_number   1
_chemical_formula_structural   Cs2Sb2Pd
_chemical_formula_sum   'Cs4 Sb4 Pd2'
_cell_volume   418.03916678
_cell_formula_units_Z   2
loop_
 _symmetry_equiv_pos_site_id
 _symmetry_equiv_pos_as_xyz
  1  'x, y, z'
loop_
 _atom_site_type_symbol
 _atom_site_label
 _atom_site_symmetry_multiplicity
 _atom_site_fract_x
 _atom_site_fract_y
 _atom_site_fract_z
 _atom_site_occupancy
  Cs  Cs0  1  0.58880900  0.41119100  0.75000000  1
  Cs  Cs1  1  0.41119100  0.58880900  0.25000000  1
  Cs  Cs2  1  0.20196300  0.79803700  0.75000000  1
  Cs  Cs3  1  0.79803700  0.20196300  0.25000000  1
  Sb  Sb4  1  0.72216500  0.92202700  0.75000000  1
  Sb  Sb5  1  0.92202700  0.72216500  0.25000000  1
  Sb  Sb6  1  0.27783500  0.07797300  0.25000000  1
  Sb  Sb7  1  0.07797300  0.27783500  0.75000000  1
  Pd  Pd8  1  0.00000000  0.00000000  0.00000000  1
  Pd  Pd9  1  0.00000000  0.00000000  0.50000000  1
