# generated using pymatgen
data_Gd2TeO6
_symmetry_space_group_name_H-M   'P 1'
_cell_length_a   5.37822300
_cell_length_b   9.26555100
_cell_length_c   10.15650100
_cell_angle_alpha   90.00000000
_cell_angle_beta   90.00000000
_cell_angle_gamma   90.00000000
_symmetry_Int_Tables_number   1
_chemical_formula_structural   Gd2TeO6
_chemical_formula_sum   'Gd8 Te4 O24'
_cell_volume   506.12078401
_cell_formula_units_Z   4
loop_
 _symmetry_equiv_pos_site_id
 _symmetry_equiv_pos_as_xyz
  1  'x, y, z'
loop_
 _atom_site_type_symbol
 _atom_site_label
 _atom_site_symmetry_multiplicity
 _atom_site_fract_x
 _atom_site_fract_y
 _atom_site_fract_z
 _atom_site_occupancy
  Gd  Gd0  1  0.47948300  0.89636600  0.03909600  1
  Gd  Gd1  1  0.97948300  0.60363400  0.96090400  1
  Gd  Gd2  1  0.52051700  0.39636600  0.46090400  1
  Gd  Gd3  1  0.02051700  0.10363400  0.53909600  1
  Gd  Gd4  1  0.46323300  0.78316000  0.63633300  1
  Gd  Gd5  1  0.96323300  0.71684000  0.36366700  1
  Gd  Gd6  1  0.53676700  0.28316000  0.86366700  1
  Gd  Gd7  1  0.03676700  0.21684000  0.13633300  1
  Te  Te8  1  0.96135400  0.99535400  0.85331400  1
  Te  Te9  1  0.46135400  0.50464600  0.14668600  1
  Te  Te10  1  0.03864600  0.49535400  0.64668600  1
  Te  Te11  1  0.53864600  0.00464600  0.35331400  1
  O  O12  1  0.24336700  0.58524900  0.50632500  1
  O  O13  1  0.74336700  0.91475100  0.49367500  1
  O  O14  1  0.75663300  0.08524900  0.99367500  1
  O  O15  1  0.25663300  0.41475100  0.00632500  1
  O  O16  1  0.27038600  0.88637600  0.43199400  1
  O  O17  1  0.77038600  0.61362400  0.56800600  1
  O  O18  1  0.72961400  0.38637600  0.06800600  1
  O  O19  1  0.22961400  0.11362400  0.93199400  1
  O  O20  1  0.18534500  0.63930900  0.17781200  1
  O  O21  1  0.68534500  0.86069100  0.82218800  1
  O  O22  1  0.81465500  0.13930900  0.32218800  1
  O  O23  1  0.31465500  0.36069100  0.67781200  1
  O  O24  1  0.31534200  0.36023300  0.25987100  1
  O  O25  1  0.81534200  0.13976700  0.74012900  1
  O  O26  1  0.68465800  0.86023300  0.24012900  1
  O  O27  1  0.18465800  0.63976700  0.75987100  1
  O  O28  1  0.33211700  0.05119200  0.20421000  1
  O  O29  1  0.83211700  0.44880800  0.79579000  1
  O  O30  1  0.66788300  0.55119200  0.29579000  1
  O  O31  1  0.16788300  0.94880800  0.70421000  1
  O  O32  1  0.41548600  0.15379000  0.47145600  1
  O  O33  1  0.91548600  0.34621000  0.52854400  1
  O  O34  1  0.58451400  0.65379000  0.02854400  1
  O  O35  1  0.08451400  0.84621000  0.97145600  1
