# generated using pymatgen
data_La6Sb4(SO4)3
_symmetry_space_group_name_H-M   'P 1'
_cell_length_a   10.92362943
_cell_length_b   10.92362943
_cell_length_c   10.92362943
_cell_angle_alpha   119.92868607
_cell_angle_beta   119.92868607
_cell_angle_gamma   90.12356380
_symmetry_Int_Tables_number   1
_chemical_formula_structural   La6Sb4(SO4)3
_chemical_formula_sum   'La12 Sb8 S6 O24'
_cell_volume   922.68330555
_cell_formula_units_Z   2
loop_
 _symmetry_equiv_pos_site_id
 _symmetry_equiv_pos_as_xyz
  1  'x, y, z'
loop_
 _atom_site_type_symbol
 _atom_site_label
 _atom_site_symmetry_multiplicity
 _atom_site_fract_x
 _atom_site_fract_y
 _atom_site_fract_z
 _atom_site_occupancy
  La  La0  1  0.80093800  0.80347800  0.60572100  1
  La  La1  1  0.80478300  0.19906200  0.00253900  1
  La  La2  1  0.55347800  0.05093800  0.10572100  1
  La  La3  1  0.55224300  0.44652200  0.49746100  1
  La  La4  1  0.19652200  0.80224300  0.99746100  1
  La  La5  1  0.19775700  0.19521700  0.39427900  1
  La  La6  1  0.94906200  0.05478300  0.50253900  1
  La  La7  1  0.94521700  0.44775700  0.89427900  1
  La  La8  1  0.94703500  0.44703500  0.50000000  1
  La  La9  1  0.19703500  0.19703500  0.00000000  1
  La  La10  1  0.80296500  0.80296500  0.00000000  1
  La  La11  1  0.55296500  0.05296500  0.50000000  1
  Sb  Sb12  1  0.58818500  0.41428100  0.17805000  1
  Sb  Sb13  1  0.16428100  0.83818500  0.67805000  1
  Sb  Sb14  1  0.16013500  0.48623100  0.32195000  1
  Sb  Sb15  1  0.23623100  0.41013500  0.82195000  1
  Sb  Sb16  1  0.16181500  0.83986500  0.32609600  1
  Sb  Sb17  1  0.58986500  0.41181500  0.82609600  1
  Sb  Sb18  1  0.58571900  0.76376900  0.17390400  1
  Sb  Sb19  1  0.51376900  0.83571900  0.67390400  1
  S  S20  1  0.75000000  0.25000000  0.50000000  1
  S  S21  1  0.00000000  0.00000000  0.00000000  1
  S  S22  1  0.40663900  0.62500000  0.28163900  1
  S  S23  1  0.37500000  0.65663900  0.78163900  1
  S  S24  1  0.34336100  0.12500000  0.71836100  1
  S  S25  1  0.87500000  0.59336100  0.21836100  1
  O  O26  1  0.02880500  0.71623200  0.68456100  1
  O  O27  1  0.03167200  0.34424400  0.31543900  1
  O  O28  1  0.46623200  0.27880500  0.18456100  1
  O  O29  1  0.09424400  0.28167200  0.81543900  1
  O  O30  1  0.71832800  0.53376800  0.81257200  1
  O  O31  1  0.72119500  0.90575600  0.18742800  1
  O  O32  1  0.28376800  0.96832800  0.31257200  1
  O  O33  1  0.65575600  0.97119500  0.68742800  1
  O  O34  1  0.72241800  0.53356000  0.43990900  1
  O  O35  1  0.71889200  0.27887300  0.18501600  1
  O  O36  1  0.28356000  0.97241800  0.93990900  1
  O  O37  1  0.28387600  0.34385700  0.31498400  1
  O  O38  1  0.09385700  0.53387600  0.81498400  1
  O  O39  1  0.09365100  0.28250900  0.56009100  1
  O  O40  1  0.02887300  0.96889200  0.68501600  1
  O  O41  1  0.03250900  0.34365100  0.06009100  1
  O  O42  1  0.03110800  0.71612400  0.05998100  1
  O  O43  1  0.02758200  0.96749100  0.31114200  1
  O  O44  1  0.46612400  0.28110800  0.55998100  1
  O  O45  1  0.46644000  0.90634900  0.18885800  1
  O  O46  1  0.65634900  0.71644000  0.68885800  1
  O  O47  1  0.65614300  0.97112700  0.94001900  1
  O  O48  1  0.71749100  0.27758200  0.81114200  1
  O  O49  1  0.72112700  0.90614300  0.44001900  1
