# generated using pymatgen
data_Na2U2O7
_symmetry_space_group_name_H-M   'P 1'
_cell_length_a   7.68008741
_cell_length_b   7.68008741
_cell_length_c   6.91855614
_cell_angle_alpha   72.54803204
_cell_angle_beta   72.54803204
_cell_angle_gamma   61.78795521
_symmetry_Int_Tables_number   1
_chemical_formula_structural   Na2U2O7
_chemical_formula_sum   'Na4 U4 O14'
_cell_volume   336.92689455
_cell_formula_units_Z   2
loop_
 _symmetry_equiv_pos_site_id
 _symmetry_equiv_pos_as_xyz
  1  'x, y, z'
loop_
 _atom_site_type_symbol
 _atom_site_label
 _atom_site_symmetry_multiplicity
 _atom_site_fract_x
 _atom_site_fract_y
 _atom_site_fract_z
 _atom_site_occupancy
  Na  Na0  1  0.00000000  0.00000000  0.00000000  1
  Na  Na1  1  0.50000000  0.50000000  0.00000000  1
  Na  Na2  1  0.74142300  0.25857700  0.50000000  1
  Na  Na3  1  0.25857700  0.74142300  0.50000000  1
  U  U4  1  0.00000000  0.50000000  0.00000000  1
  U  U5  1  0.50000000  0.00000000  0.00000000  1
  U  U6  1  0.24350400  0.24350400  0.53914800  1
  U  U7  1  0.75649600  0.75649600  0.46085200  1
  O  O8  1  0.22893900  0.22893900  0.88357500  1
  O  O9  1  0.77106100  0.77106100  0.11642500  1
  O  O10  1  0.96111000  0.55830600  0.67974100  1
  O  O11  1  0.55830600  0.96111000  0.67974100  1
  O  O12  1  0.03889000  0.44169400  0.32025900  1
  O  O13  1  0.44169400  0.03889000  0.32025900  1
  O  O14  1  0.17846000  0.62697600  0.90402500  1
  O  O15  1  0.62697600  0.17846000  0.90402500  1
  O  O16  1  0.82154000  0.37302400  0.09597500  1
  O  O17  1  0.37302400  0.82154000  0.09597500  1
  O  O18  1  0.90899400  0.90899400  0.36263300  1
  O  O19  1  0.09100600  0.09100600  0.63736700  1
  O  O20  1  0.39513500  0.39513500  0.44067900  1
  O  O21  1  0.60486500  0.60486500  0.55932100  1
