# generated using pymatgen
data_PrAl2Ni
_symmetry_space_group_name_H-M   'P 1'
_cell_length_a   5.83424581
_cell_length_b   5.83424581
_cell_length_c   6.90650400
_cell_angle_alpha   90.00000000
_cell_angle_beta   90.00000000
_cell_angle_gamma   138.95298249
_symmetry_Int_Tables_number   1
_chemical_formula_structural   PrAl2Ni
_chemical_formula_sum   'Pr2 Al4 Ni2'
_cell_volume   154.37617158
_cell_formula_units_Z   2
loop_
 _symmetry_equiv_pos_site_id
 _symmetry_equiv_pos_as_xyz
  1  'x, y, z'
loop_
 _atom_site_type_symbol
 _atom_site_label
 _atom_site_symmetry_multiplicity
 _atom_site_fract_x
 _atom_site_fract_y
 _atom_site_fract_z
 _atom_site_occupancy
  Pr  Pr0  1  0.55653700  0.44346300  0.25000000  1
  Pr  Pr1  1  0.44346300  0.55653700  0.75000000  1
  Al  Al2  1  0.83310100  0.16689900  0.05647600  1
  Al  Al3  1  0.16689900  0.83310100  0.94352400  1
  Al  Al4  1  0.16689900  0.83310100  0.55647600  1
  Al  Al5  1  0.83310100  0.16689900  0.44352400  1
  Ni  Ni6  1  0.28266300  0.71733700  0.25000000  1
  Ni  Ni7  1  0.71733700  0.28266300  0.75000000  1
