# generated using pymatgen
data_La2H5
_symmetry_space_group_name_H-M   'P 1'
_cell_length_a   6.90493772
_cell_length_b   6.90493772
_cell_length_c   6.90493772
_cell_angle_alpha   132.40954296
_cell_angle_beta   132.40954296
_cell_angle_gamma   69.58296236
_symmetry_Int_Tables_number   1
_chemical_formula_structural   La2H5
_chemical_formula_sum   'La4 H10'
_cell_volume   176.04625691
_cell_formula_units_Z   2
loop_
 _symmetry_equiv_pos_site_id
 _symmetry_equiv_pos_as_xyz
  1  'x, y, z'
loop_
 _atom_site_type_symbol
 _atom_site_label
 _atom_site_symmetry_multiplicity
 _atom_site_fract_x
 _atom_site_fract_y
 _atom_site_fract_z
 _atom_site_occupancy
  La  La0  1  0.50471000  0.00471000  0.50000000  1
  La  La1  1  0.24529000  0.24529000  0.00000000  1
  La  La2  1  0.99529000  0.49529000  0.50000000  1
  La  La3  1  0.75471000  0.75471000  0.00000000  1
  H  H4  1  0.60606100  0.62500000  0.48106100  1
  H  H5  1  0.14393900  0.12500000  0.51893900  1
  H  H6  1  0.60606100  0.12500000  0.98106100  1
  H  H7  1  0.14393900  0.62500000  0.01893900  1
  H  H8  1  0.37500000  0.39393900  0.51893900  1
  H  H9  1  0.87500000  0.85606100  0.48106100  1
  H  H10  1  0.87500000  0.39393900  0.01893900  1
  H  H11  1  0.37500000  0.85606100  0.98106100  1
  H  H12  1  0.75000000  0.25000000  0.50000000  1
  H  H13  1  0.00000000  0.00000000  0.00000000  1
