# generated using pymatgen
data_Mn2ZnO4
_symmetry_space_group_name_H-M   'P 1'
_cell_length_a   5.80359443
_cell_length_b   5.80359243
_cell_length_c   6.23523538
_cell_angle_alpha   117.67059116
_cell_angle_beta   117.66893906
_cell_angle_gamma   90.12464979
_symmetry_Int_Tables_number   1
_chemical_formula_structural   Mn2ZnO4
_chemical_formula_sum   'Mn4 Zn2 O8'
_cell_volume   158.24598763
_cell_formula_units_Z   2
loop_
 _symmetry_equiv_pos_site_id
 _symmetry_equiv_pos_as_xyz
  1  'x, y, z'
loop_
 _atom_site_type_symbol
 _atom_site_label
 _atom_site_symmetry_multiplicity
 _atom_site_fract_x
 _atom_site_fract_y
 _atom_site_fract_z
 _atom_site_occupancy
  Mn  Mn0  1  0.37499900  0.62500000  0.25000000  1
  Mn  Mn1  1  0.37500000  0.12499900  0.75000000  1
  Mn  Mn2  1  0.87500100  0.62500100  0.25000100  1
  Mn  Mn3  1  0.37500000  0.62500000  0.75000000  1
  Zn  Zn4  1  0.75000000  0.25000000  0.50000000  1
  Zn  Zn5  1  0.00000000  0.00000000  0.00000000  1
  O  O6  1  0.14131800  0.86865200  0.73705000  1
  O  O7  1  0.59573200  0.86840100  0.73705000  1
  O  O8  1  0.15426800  0.38159900  0.76295000  1
  O  O9  1  0.60868200  0.38134800  0.76295000  1
  O  O10  1  0.13160300  0.40426800  0.26295000  1
  O  O11  1  0.13135200  0.85868200  0.26295000  1
  O  O12  1  0.61864800  0.39131800  0.23705000  1
  O  O13  1  0.61839700  0.84573200  0.23705000  1
