# generated using pymatgen
data_DyCd6
_symmetry_space_group_name_H-M   'P 1'
_cell_length_a   13.66906646
_cell_length_b   13.66906646
_cell_length_c   13.66906703
_cell_angle_alpha   110.23068888
_cell_angle_beta   109.67167366
_cell_angle_gamma   108.51599474
_symmetry_Int_Tables_number   1
_chemical_formula_structural   DyCd6
_chemical_formula_sum   'Dy12 Cd72'
_cell_volume   1965.59400868
_cell_formula_units_Z   12
loop_
 _symmetry_equiv_pos_site_id
 _symmetry_equiv_pos_as_xyz
  1  'x, y, z'
loop_
 _atom_site_type_symbol
 _atom_site_label
 _atom_site_symmetry_multiplicity
 _atom_site_fract_x
 _atom_site_fract_y
 _atom_site_fract_z
 _atom_site_occupancy
  Dy  Dy0  1  0.80745000  0.50951700  0.70206700  1
  Dy  Dy1  1  0.19255000  0.49048300  0.29793300  1
  Dy  Dy2  1  0.19255000  0.89461700  0.70206700  1
  Dy  Dy3  1  0.80745000  0.10538300  0.29793300  1
  Dy  Dy4  1  0.10845700  0.30190700  0.80654900  1
  Dy  Dy5  1  0.89154300  0.69809300  0.19345100  1
  Dy  Dy6  1  0.49535800  0.30190700  0.19345100  1
  Dy  Dy7  1  0.50464200  0.69809300  0.80654900  1
  Dy  Dy8  1  0.30108900  0.18959800  0.49068700  1
  Dy  Dy9  1  0.69891100  0.81040200  0.50931300  1
  Dy  Dy10  1  0.30108900  0.81040200  0.11149200  1
  Dy  Dy11  1  0.69891100  0.18959800  0.88850800  1
  Cd  Cd12  1  0.99999200  0.67856200  0.00199600  1
  Cd  Cd13  1  0.32343300  0.32143800  0.32143000  1
  Cd  Cd14  1  0.00000800  0.00200300  0.67857000  1
  Cd  Cd15  1  0.67656700  0.99799700  0.99800400  1
  Cd  Cd16  1  0.00000800  0.32143800  0.99800500  1
  Cd  Cd17  1  0.67656700  0.67856200  0.67857000  1
  Cd  Cd18  1  0.99999200  0.99799700  0.32143000  1
  Cd  Cd19  1  0.32343300  0.00200300  0.00199600  1
  Cd  Cd20  1  0.74161700  0.64717500  0.90555900  1
  Cd  Cd21  1  0.25838300  0.35282500  0.09444100  1
  Cd  Cd22  1  0.25838300  0.16394200  0.90555900  1
  Cd  Cd23  1  0.74161700  0.83605800  0.09444100  1
  Cd  Cd24  1  0.85611400  0.09067800  0.76543600  1
  Cd  Cd25  1  0.14388600  0.90932200  0.23456400  1
  Cd  Cd26  1  0.32524100  0.09067800  0.23456400  1
  Cd  Cd27  1  0.67475900  0.90932200  0.76543600  1
  Cd  Cd28  1  0.09534000  0.24122000  0.33656000  1
  Cd  Cd29  1  0.90466000  0.75878000  0.66344000  1
  Cd  Cd30  1  0.09534000  0.75878000  0.85412100  1
  Cd  Cd31  1  0.90466000  0.24122000  0.14587900  1
  Cd  Cd32  1  0.59601400  0.24877500  0.65276100  1
  Cd  Cd33  1  0.40398600  0.75122500  0.34723900  1
  Cd  Cd34  1  0.40398600  0.05674700  0.65276100  1
  Cd  Cd35  1  0.59601400  0.94325300  0.34723900  1
  Cd  Cd36  1  0.94185000  0.34726900  0.59458100  1
  Cd  Cd37  1  0.05815000  0.65273100  0.40541900  1
  Cd  Cd38  1  0.75268800  0.34726900  0.40541900  1
  Cd  Cd39  1  0.24731200  0.65273100  0.59458100  1
  Cd  Cd40  1  0.34559800  0.40421400  0.74981100  1
  Cd  Cd41  1  0.65440200  0.59578600  0.25018900  1
  Cd  Cd42  1  0.34559800  0.59578600  0.94138400  1
  Cd  Cd43  1  0.65440200  0.40421400  0.05861600  1
  Cd  Cd44  1  0.58943500  0.58943500  0.00000000  1
  Cd  Cd45  1  0.41056500  0.41056500  0.00000000  1
  Cd  Cd46  1  0.59485600  0.00000000  0.59485600  1
  Cd  Cd47  1  0.40514400  0.00000000  0.40514400  1
  Cd  Cd48  1  0.00000000  0.40428700  0.40428700  1
  Cd  Cd49  1  0.00000000  0.59571300  0.59571300  1
  Cd  Cd50  1  0.77853700  0.45532200  0.91897700  1
  Cd  Cd51  1  0.46365500  0.54467800  0.32321500  1
  Cd  Cd52  1  0.22146300  0.14044000  0.67678500  1
  Cd  Cd53  1  0.53634500  0.85956000  0.08102300  1
  Cd  Cd54  1  0.86028400  0.08372800  0.54237700  1
  Cd  Cd55  1  0.13971600  0.68209300  0.22344400  1
  Cd  Cd56  1  0.54135100  0.31790700  0.45762300  1
  Cd  Cd57  1  0.45864900  0.91627200  0.77655600  1
  Cd  Cd58  1  0.31873900  0.45948600  0.54035600  1
  Cd  Cd59  1  0.91913100  0.77838400  0.45964400  1
  Cd  Cd60  1  0.08086900  0.54051400  0.85925300  1
  Cd  Cd61  1  0.68126100  0.22161600  0.14074700  1
  Cd  Cd62  1  0.22146300  0.54467800  0.08102300  1
  Cd  Cd63  1  0.53634500  0.45532200  0.67678500  1
  Cd  Cd64  1  0.77853700  0.85956000  0.32321500  1
  Cd  Cd65  1  0.46365500  0.14044000  0.91897700  1
  Cd  Cd66  1  0.13971600  0.91627200  0.45762300  1
  Cd  Cd67  1  0.86028400  0.31790700  0.77655600  1
  Cd  Cd68  1  0.45864900  0.68209300  0.54237700  1
  Cd  Cd69  1  0.54135100  0.08372800  0.22344400  1
  Cd  Cd70  1  0.68126100  0.54051400  0.45964400  1
  Cd  Cd71  1  0.08086900  0.22161600  0.54035600  1
  Cd  Cd72  1  0.91913100  0.45948600  0.14074700  1
  Cd  Cd73  1  0.31873900  0.77838400  0.85925300  1
  Cd  Cd74  1  0.50000000  0.30871900  0.80871900  1
  Cd  Cd75  1  0.50000000  0.69128100  0.19128100  1
  Cd  Cd76  1  0.69228000  0.19228000  0.50000000  1
  Cd  Cd77  1  0.30772000  0.80772000  0.50000000  1
  Cd  Cd78  1  0.18906400  0.50000000  0.68906400  1
  Cd  Cd79  1  0.81093600  0.50000000  0.31093600  1
  Cd  Cd80  1  0.91466800  0.82378400  0.90911600  1
  Cd  Cd81  1  0.08533200  0.17621600  0.09088400  1
  Cd  Cd82  1  0.08533200  0.99444800  0.90911600  1
  Cd  Cd83  1  0.91466800  0.00555200  0.09088400  1
