# generated using pymatgen
data_Y3Sb4Au3
_symmetry_space_group_name_H-M   'P 1'
_cell_length_a   8.62886928
_cell_length_b   8.62886928
_cell_length_c   8.62886928
_cell_angle_alpha   109.47122063
_cell_angle_beta   109.47122063
_cell_angle_gamma   109.47122063
_symmetry_Int_Tables_number   1
_chemical_formula_structural   Y3Sb4Au3
_chemical_formula_sum   'Y6 Sb8 Au6'
_cell_volume   494.58367627
_cell_formula_units_Z   2
loop_
 _symmetry_equiv_pos_site_id
 _symmetry_equiv_pos_as_xyz
  1  'x, y, z'
loop_
 _atom_site_type_symbol
 _atom_site_label
 _atom_site_symmetry_multiplicity
 _atom_site_fract_x
 _atom_site_fract_y
 _atom_site_fract_z
 _atom_site_occupancy
  Y  Y0  1  0.62500000  0.75000000  0.37500000  1
  Y  Y1  1  0.75000000  0.37500000  0.62500000  1
  Y  Y2  1  0.25000000  0.12500000  0.87500000  1
  Y  Y3  1  0.37500000  0.62500000  0.75000000  1
  Y  Y4  1  0.12500000  0.87500000  0.25000000  1
  Y  Y5  1  0.87500000  0.25000000  0.12500000  1
  Sb  Sb6  1  0.17757800  0.50000000  0.00000000  1
  Sb  Sb7  1  0.32242200  0.32242200  0.32242200  1
  Sb  Sb8  1  0.00000000  0.17757800  0.50000000  1
  Sb  Sb9  1  0.82242200  0.82242200  0.82242200  1
  Sb  Sb10  1  0.50000000  0.00000000  0.67757800  1
  Sb  Sb11  1  0.00000000  0.67757800  0.50000000  1
  Sb  Sb12  1  0.50000000  0.00000000  0.17757800  1
  Sb  Sb13  1  0.67757800  0.50000000  0.00000000  1
  Au  Au14  1  0.37500000  0.25000000  0.62500000  1
  Au  Au15  1  0.87500000  0.12500000  0.75000000  1
  Au  Au16  1  0.25000000  0.62500000  0.37500000  1
  Au  Au17  1  0.75000000  0.87500000  0.12500000  1
  Au  Au18  1  0.12500000  0.75000000  0.87500000  1
  Au  Au19  1  0.62500000  0.37500000  0.25000000  1
