# generated using pymatgen
data_B5H4NO8
_symmetry_space_group_name_H-M   'P 1'
_cell_length_a   7.71545500
_cell_length_b   12.11338800
_cell_length_c   14.97056600
_cell_angle_alpha   90.00000000
_cell_angle_beta   90.00000000
_cell_angle_gamma   90.00000000
_symmetry_Int_Tables_number   1
_chemical_formula_structural   B5H4NO8
_chemical_formula_sum   'B40 H32 N8 O64'
_cell_volume   1399.15358970
_cell_formula_units_Z   8
loop_
 _symmetry_equiv_pos_site_id
 _symmetry_equiv_pos_as_xyz
  1  'x, y, z'
loop_
 _atom_site_type_symbol
 _atom_site_label
 _atom_site_symmetry_multiplicity
 _atom_site_fract_x
 _atom_site_fract_y
 _atom_site_fract_z
 _atom_site_occupancy
  B  B0  1  0.05186900  0.27890200  0.37084700  1
  B  B1  1  0.55186900  0.22109800  0.62915300  1
  B  B2  1  0.94813100  0.77890200  0.12915300  1
  B  B3  1  0.44813100  0.72109800  0.87084700  1
  B  B4  1  0.94813100  0.72109800  0.62915300  1
  B  B5  1  0.44813100  0.77890200  0.37084700  1
  B  B6  1  0.05186900  0.22109800  0.87084700  1
  B  B7  1  0.55186900  0.27890200  0.12915300  1
  B  B8  1  0.91133700  0.10051200  0.41775400  1
  B  B9  1  0.41133700  0.39948800  0.58224600  1
  B  B10  1  0.08866300  0.60051200  0.08224600  1
  B  B11  1  0.58866300  0.89948800  0.91775400  1
  B  B12  1  0.08866300  0.89948800  0.58224600  1
  B  B13  1  0.58866300  0.60051200  0.41775400  1
  B  B14  1  0.91133700  0.39948800  0.91775400  1
  B  B15  1  0.41133700  0.10051200  0.08224600  1
  B  B16  1  0.98946000  0.47863800  0.34668500  1
  B  B17  1  0.48946000  0.02136200  0.65331500  1
  B  B18  1  0.01054000  0.97863800  0.15331500  1
  B  B19  1  0.51054000  0.52136200  0.84668500  1
  B  B20  1  0.01054000  0.52136200  0.65331500  1
  B  B21  1  0.51054000  0.97863800  0.34668500  1
  B  B22  1  0.98946000  0.02136200  0.84668500  1
  B  B23  1  0.48946000  0.47863800  0.15331500  1
  B  B24  1  0.20163000  0.42902800  0.45533900  1
  B  B25  1  0.70163000  0.07097200  0.54466100  1
  B  B26  1  0.79837000  0.92902800  0.04466100  1
  B  B27  1  0.29837000  0.57097200  0.95533900  1
  B  B28  1  0.79837000  0.57097200  0.54466100  1
  B  B29  1  0.29837000  0.92902800  0.45533900  1
  B  B30  1  0.20163000  0.07097200  0.95533900  1
  B  B31  1  0.70163000  0.42902800  0.04466100  1
  B  B32  1  0.07421500  0.10585100  0.28319500  1
  B  B33  1  0.57421500  0.39414900  0.71680500  1
  B  B34  1  0.92578500  0.60585100  0.21680500  1
  B  B35  1  0.42578500  0.89414900  0.78319500  1
  B  B36  1  0.92578500  0.89414900  0.71680500  1
  B  B37  1  0.42578500  0.60585100  0.28319500  1
  B  B38  1  0.07421500  0.39414900  0.78319500  1
  B  B39  1  0.57421500  0.10585100  0.21680500  1
  H  H40  1  0.63508700  0.35202300  0.33995300  1
  H  H41  1  0.13508700  0.14797700  0.66004700  1
  H  H42  1  0.36491300  0.85202300  0.16004700  1
  H  H43  1  0.86491300  0.64797700  0.83995300  1
  H  H44  1  0.36491300  0.64797700  0.66004700  1
  H  H45  1  0.86491300  0.85202300  0.33995300  1
  H  H46  1  0.63508700  0.14797700  0.83995300  1
  H  H47  1  0.13508700  0.35202300  0.16004700  1
  H  H48  1  0.51393600  0.23836400  0.33968800  1
  H  H49  1  0.01393600  0.26163600  0.66031200  1
  H  H50  1  0.48606400  0.73836400  0.16031200  1
  H  H51  1  0.98606400  0.76163600  0.83968800  1
  H  H52  1  0.48606400  0.76163600  0.66031200  1
  H  H53  1  0.98606400  0.73836400  0.33968800  1
  H  H54  1  0.51393600  0.26163600  0.83968800  1
  H  H55  1  0.01393600  0.23836400  0.16031200  1
  H  H56  1  0.48120800  0.33198700  0.41929700  1
  H  H57  1  0.98120800  0.16801300  0.58070300  1
  H  H58  1  0.51879200  0.83198700  0.08070300  1
  H  H59  1  0.01879200  0.66801300  0.91929700  1
  H  H60  1  0.51879200  0.66801300  0.58070300  1
  H  H61  1  0.01879200  0.83198700  0.41929700  1
  H  H62  1  0.48120800  0.16801300  0.91929700  1
  H  H63  1  0.98120800  0.33198700  0.08070300  1
  H  H64  1  0.66578000  0.25739500  0.41950400  1
  H  H65  1  0.16578000  0.24260500  0.58049600  1
  H  H66  1  0.33422000  0.75739500  0.08049600  1
  H  H67  1  0.83422000  0.74260500  0.91950400  1
  H  H68  1  0.33422000  0.74260500  0.58049600  1
  H  H69  1  0.83422000  0.75739500  0.41950400  1
  H  H70  1  0.66578000  0.24260500  0.91950400  1
  H  H71  1  0.16578000  0.25739500  0.08049600  1
  N  N72  1  0.57331500  0.29551100  0.38016000  1
  N  N73  1  0.07331500  0.20448900  0.61984000  1
  N  N74  1  0.42668500  0.79551100  0.11984000  1
  N  N75  1  0.92668500  0.70448900  0.88016000  1
  N  N76  1  0.42668500  0.70448900  0.61984000  1
  N  N77  1  0.92668500  0.79551100  0.38016000  1
  N  N78  1  0.57331500  0.20448900  0.88016000  1
  N  N79  1  0.07331500  0.29551100  0.11984000  1
  O  O80  1  0.81416600  0.03778800  0.47718200  1
  O  O81  1  0.31416600  0.46221200  0.52281800  1
  O  O82  1  0.18583400  0.53778800  0.02281800  1
  O  O83  1  0.68583400  0.96221200  0.97718200  1
  O  O84  1  0.18583400  0.96221200  0.52281800  1
  O  O85  1  0.68583400  0.53778800  0.47718200  1
  O  O86  1  0.81416600  0.46221200  0.97718200  1
  O  O87  1  0.31416600  0.03778800  0.02281800  1
  O  O88  1  0.92820100  0.21209100  0.42543700  1
  O  O89  1  0.42820100  0.28790900  0.57456300  1
  O  O90  1  0.07179900  0.71209100  0.07456300  1
  O  O91  1  0.57179900  0.78790900  0.92543700  1
  O  O92  1  0.07179900  0.78790900  0.57456300  1
  O  O93  1  0.57179900  0.71209100  0.42543700  1
  O  O94  1  0.92820100  0.28790900  0.92543700  1
  O  O95  1  0.42820100  0.21209100  0.07456300  1
  O  O96  1  0.12880600  0.21059200  0.29966800  1
  O  O97  1  0.62880600  0.28940800  0.70033200  1
  O  O98  1  0.87119400  0.71059200  0.20033200  1
  O  O99  1  0.37119400  0.78940800  0.79966800  1
  O  O100  1  0.87119400  0.78940800  0.70033200  1
  O  O101  1  0.37119400  0.71059200  0.29966800  1
  O  O102  1  0.12880600  0.28940800  0.79966800  1
  O  O103  1  0.62880600  0.21059200  0.20033200  1
  O  O104  1  0.95575600  0.37137900  0.32797700  1
  O  O105  1  0.45575600  0.12862100  0.67202300  1
  O  O106  1  0.04424400  0.87137900  0.17202300  1
  O  O107  1  0.54424400  0.62862100  0.82797700  1
  O  O108  1  0.04424400  0.62862100  0.67202300  1
  O  O109  1  0.54424400  0.87137900  0.32797700  1
  O  O110  1  0.95575600  0.12862100  0.82797700  1
  O  O111  1  0.45575600  0.37137900  0.17202300  1
  O  O112  1  0.18866000  0.32115300  0.43079300  1
  O  O113  1  0.68866000  0.17884700  0.56920700  1
  O  O114  1  0.81134000  0.82115300  0.06920700  1
  O  O115  1  0.31134000  0.67884700  0.93079300  1
  O  O116  1  0.81134000  0.67884700  0.56920700  1
  O  O117  1  0.31134000  0.82115300  0.43079300  1
  O  O118  1  0.18866000  0.17884700  0.93079300  1
  O  O119  1  0.68866000  0.32115300  0.06920700  1
  O  O120  1  0.59337500  0.06478100  0.30197200  1
  O  O121  1  0.09337500  0.43521900  0.69802800  1
  O  O122  1  0.40662500  0.56478100  0.19802800  1
  O  O123  1  0.90662500  0.93521900  0.80197200  1
  O  O124  1  0.40662500  0.93521900  0.69802800  1
  O  O125  1  0.90662500  0.56478100  0.30197200  1
  O  O126  1  0.59337500  0.43521900  0.80197200  1
  O  O127  1  0.09337500  0.06478100  0.19802800  1
  O  O128  1  0.98863100  0.04280600  0.34773000  1
  O  O129  1  0.48863100  0.45719400  0.65227000  1
  O  O130  1  0.01136900  0.54280600  0.15227000  1
  O  O131  1  0.51136900  0.95719400  0.84773000  1
  O  O132  1  0.01136900  0.95719400  0.65227000  1
  O  O133  1  0.51136900  0.54280600  0.34773000  1
  O  O134  1  0.98863100  0.45719400  0.84773000  1
  O  O135  1  0.48863100  0.04280600  0.15227000  1
  O  O136  1  0.39353700  0.01102500  0.41270500  1
  O  O137  1  0.89353700  0.48897500  0.58729500  1
  O  O138  1  0.60646300  0.51102500  0.08729500  1
  O  O139  1  0.10646300  0.98897500  0.91270500  1
  O  O140  1  0.60646300  0.98897500  0.58729500  1
  O  O141  1  0.10646300  0.51102500  0.41270500  1
  O  O142  1  0.39353700  0.48897500  0.91270500  1
  O  O143  1  0.89353700  0.01102500  0.08729500  1
