# generated using pymatgen
data_CsLu(TaBr3)6
_symmetry_space_group_name_H-M   'P 1'
_cell_length_a   9.90203624
_cell_length_b   9.90203624
_cell_length_c   18.48478800
_cell_angle_alpha   90.00000000
_cell_angle_beta   90.00000000
_cell_angle_gamma   120.00000159
_symmetry_Int_Tables_number   1
_chemical_formula_structural   CsLu(TaBr3)6
_chemical_formula_sum   'Cs2 Lu2 Ta12 Br36'
_cell_volume   1569.61854603
_cell_formula_units_Z   2
loop_
 _symmetry_equiv_pos_site_id
 _symmetry_equiv_pos_as_xyz
  1  'x, y, z'
loop_
 _atom_site_type_symbol
 _atom_site_label
 _atom_site_symmetry_multiplicity
 _atom_site_fract_x
 _atom_site_fract_y
 _atom_site_fract_z
 _atom_site_occupancy
  Cs  Cs0  1  0.33333300  0.66666700  0.75000000  1
  Cs  Cs1  1  0.66666700  0.33333300  0.25000000  1
  Lu  Lu2  1  0.66666700  0.33333300  0.75000000  1
  Lu  Lu3  1  0.33333300  0.66666700  0.25000000  1
  Ta  Ta4  1  0.85268300  0.03845700  0.56411100  1
  Ta  Ta5  1  0.14731700  0.96154300  0.43588900  1
  Ta  Ta6  1  0.96154300  0.81422600  0.56411100  1
  Ta  Ta7  1  0.85268300  0.81422600  0.93588900  1
  Ta  Ta8  1  0.03845700  0.18577400  0.43588900  1
  Ta  Ta9  1  0.14731700  0.18577400  0.06411100  1
  Ta  Ta10  1  0.18577400  0.14731700  0.56411100  1
  Ta  Ta11  1  0.96154300  0.14731700  0.93588900  1
  Ta  Ta12  1  0.81422600  0.85268300  0.43588900  1
  Ta  Ta13  1  0.03845700  0.85268300  0.06411100  1
  Ta  Ta14  1  0.18577400  0.03845700  0.93588900  1
  Ta  Ta15  1  0.81422600  0.96154300  0.06411100  1
  Br  Br16  1  0.63809900  0.08821500  0.66229000  1
  Br  Br17  1  0.36190100  0.91178500  0.33771000  1
  Br  Br18  1  0.91178500  0.54988400  0.66229000  1
  Br  Br19  1  0.63809900  0.54988400  0.83771000  1
  Br  Br20  1  0.08821500  0.45011600  0.33771000  1
  Br  Br21  1  0.36190100  0.45011600  0.16229000  1
  Br  Br22  1  0.45011600  0.36190100  0.66229000  1
  Br  Br23  1  0.91178500  0.36190100  0.83771000  1
  Br  Br24  1  0.54988400  0.63809900  0.33771000  1
  Br  Br25  1  0.08821500  0.63809900  0.16229000  1
  Br  Br26  1  0.45011600  0.08821500  0.83771000  1
  Br  Br27  1  0.54988400  0.91178500  0.16229000  1
  Br  Br28  1  0.04691100  0.23216600  0.65936500  1
  Br  Br29  1  0.95308900  0.76783400  0.34063500  1
  Br  Br30  1  0.76783400  0.81474500  0.65936500  1
  Br  Br31  1  0.04691100  0.81474500  0.84063500  1
  Br  Br32  1  0.23216600  0.18525500  0.34063500  1
  Br  Br33  1  0.95308900  0.18525500  0.15936500  1
  Br  Br34  1  0.18525500  0.95308900  0.65936500  1
  Br  Br35  1  0.76783400  0.95308900  0.84063500  1
  Br  Br36  1  0.81474500  0.04691100  0.34063500  1
  Br  Br37  1  0.23216600  0.04691100  0.15936500  1
  Br  Br38  1  0.18525500  0.23216600  0.84063500  1
  Br  Br39  1  0.81474500  0.76783400  0.15936500  1
  Br  Br40  1  0.27704800  0.41581800  0.50111600  1
  Br  Br41  1  0.72295200  0.58418200  0.49888400  1
  Br  Br42  1  0.58418200  0.86123000  0.50111600  1
  Br  Br43  1  0.27704800  0.86123000  0.99888400  1
  Br  Br44  1  0.41581800  0.13877000  0.49888400  1
  Br  Br45  1  0.72295200  0.13877000  0.00111600  1
  Br  Br46  1  0.13877000  0.72295200  0.50111600  1
  Br  Br47  1  0.58418200  0.72295200  0.99888400  1
  Br  Br48  1  0.86123000  0.27704800  0.49888400  1
  Br  Br49  1  0.41581800  0.27704800  0.00111600  1
  Br  Br50  1  0.13877000  0.41581800  0.99888400  1
  Br  Br51  1  0.86123000  0.58418200  0.00111600  1
