# generated using pymatgen
data_Li3AuS2
_symmetry_space_group_name_H-M   'P 1'
_cell_length_a   7.11514333
_cell_length_b   7.11514333
_cell_length_c   7.11514333
_cell_angle_alpha   131.82139592
_cell_angle_beta   126.90603036
_cell_angle_gamma   74.49543244
_symmetry_Int_Tables_number   1
_chemical_formula_structural   Li3AuS2
_chemical_formula_sum   'Li6 Au2 S4'
_cell_volume   209.22315096
_cell_formula_units_Z   2
loop_
 _symmetry_equiv_pos_site_id
 _symmetry_equiv_pos_as_xyz
  1  'x, y, z'
loop_
 _atom_site_type_symbol
 _atom_site_label
 _atom_site_symmetry_multiplicity
 _atom_site_fract_x
 _atom_site_fract_y
 _atom_site_fract_z
 _atom_site_occupancy
  Li  Li0  1  0.02363100  0.77363100  0.25000000  1
  Li  Li1  1  0.47636900  0.22636900  0.25000000  1
  Li  Li2  1  0.97636900  0.22636900  0.75000000  1
  Li  Li3  1  0.52363100  0.77363100  0.75000000  1
  Li  Li4  1  0.25000000  0.50000000  0.75000000  1
  Li  Li5  1  0.75000000  0.50000000  0.25000000  1
  Au  Au6  1  0.50000000  0.00000000  0.50000000  1
  Au  Au7  1  0.00000000  0.00000000  0.00000000  1
  S  S8  1  0.35847100  0.15323800  0.79476700  1
  S  S9  1  0.14152900  0.43629500  0.29476700  1
  S  S10  1  0.85847100  0.56370500  0.70523300  1
  S  S11  1  0.64152900  0.84676200  0.20523300  1
