# generated using pymatgen
data_EuBiAu
_symmetry_space_group_name_H-M   'P 1'
_cell_length_a   4.91516856
_cell_length_b   4.91516856
_cell_length_c   8.07299400
_cell_angle_alpha   90.00000000
_cell_angle_beta   90.00000000
_cell_angle_gamma   120.00000756
_symmetry_Int_Tables_number   1
_chemical_formula_structural   EuBiAu
_chemical_formula_sum   'Eu2 Bi2 Au2'
_cell_volume   168.90482683
_cell_formula_units_Z   2
loop_
 _symmetry_equiv_pos_site_id
 _symmetry_equiv_pos_as_xyz
  1  'x, y, z'
loop_
 _atom_site_type_symbol
 _atom_site_label
 _atom_site_symmetry_multiplicity
 _atom_site_fract_x
 _atom_site_fract_y
 _atom_site_fract_z
 _atom_site_occupancy
  Eu  Eu0  1  0.00000000  0.00000000  0.73943400  1
  Eu  Eu1  1  0.00000000  0.00000000  0.23943400  1
  Bi  Bi2  1  0.66666700  0.33333300  0.96369700  1
  Bi  Bi3  1  0.33333300  0.66666700  0.46369700  1
  Au  Au4  1  0.66666700  0.33333300  0.55586900  1
  Au  Au5  1  0.33333300  0.66666700  0.05586900  1
