# generated using pymatgen
data_Cs2Li3B3P6(PbO12)2
_symmetry_space_group_name_H-M   'P 1'
_cell_length_a   12.95485000
_cell_length_b   12.95485000
_cell_length_c   12.95485000
_cell_angle_alpha   90.00000000
_cell_angle_beta   90.00000000
_cell_angle_gamma   90.00000000
_symmetry_Int_Tables_number   1
_chemical_formula_structural   Cs2Li3B3P6(PbO12)2
_chemical_formula_sum   'Cs8 Li12 B12 P24 Pb8 O96'
_cell_volume   2174.18836034
_cell_formula_units_Z   4
loop_
 _symmetry_equiv_pos_site_id
 _symmetry_equiv_pos_as_xyz
  1  'x, y, z'
loop_
 _atom_site_type_symbol
 _atom_site_label
 _atom_site_symmetry_multiplicity
 _atom_site_fract_x
 _atom_site_fract_y
 _atom_site_fract_z
 _atom_site_occupancy
  Cs  Cs0  1  0.64866400  0.35133600  0.85133600  1
  Cs  Cs1  1  0.14866400  0.14866400  0.14866400  1
  Cs  Cs2  1  0.85133600  0.64866400  0.35133600  1
  Cs  Cs3  1  0.35133600  0.85133600  0.64866400  1
  Cs  Cs4  1  0.65190200  0.84809800  0.15190200  1
  Cs  Cs5  1  0.84809800  0.15190200  0.65190200  1
  Cs  Cs6  1  0.34809800  0.34809800  0.34809800  1
  Cs  Cs7  1  0.15190200  0.65190200  0.84809800  1
  Li  Li8  1  0.69614600  0.56190900  0.09978600  1
  Li  Li9  1  0.90021400  0.19614600  0.93809100  1
  Li  Li10  1  0.06190900  0.40021400  0.30385400  1
  Li  Li11  1  0.19614600  0.93809100  0.90021400  1
  Li  Li12  1  0.40021400  0.30385400  0.06190900  1
  Li  Li13  1  0.56190900  0.09978600  0.69614600  1
  Li  Li14  1  0.30385400  0.06190900  0.40021400  1
  Li  Li15  1  0.09978600  0.69614600  0.56190900  1
  Li  Li16  1  0.93809100  0.90021400  0.19614600  1
  Li  Li17  1  0.80385400  0.43809100  0.59978600  1
  Li  Li18  1  0.59978600  0.80385400  0.43809100  1
  Li  Li19  1  0.43809100  0.59978600  0.80385400  1
  B  B20  1  0.64668100  0.13205400  0.11846900  1
  B  B21  1  0.88153100  0.14668100  0.36794600  1
  B  B22  1  0.63205400  0.38153100  0.35331900  1
  B  B23  1  0.14668100  0.36794600  0.88153100  1
  B  B24  1  0.38153100  0.35331900  0.63205400  1
  B  B25  1  0.13205400  0.11846900  0.64668100  1
  B  B26  1  0.35331900  0.63205400  0.38153100  1
  B  B27  1  0.11846900  0.64668100  0.13205400  1
  B  B28  1  0.36794600  0.88153100  0.14668100  1
  B  B29  1  0.85331900  0.86794600  0.61846900  1
  B  B30  1  0.61846900  0.85331900  0.86794600  1
  B  B31  1  0.86794600  0.61846900  0.85331900  1
  P  P32  1  0.94606300  0.41449800  0.81669800  1
  P  P33  1  0.18330200  0.44606300  0.08550200  1
  P  P34  1  0.91449800  0.68330200  0.05393700  1
  P  P35  1  0.44606300  0.08550200  0.18330200  1
  P  P36  1  0.68330200  0.05393700  0.91449800  1
  P  P37  1  0.41449800  0.81669800  0.94606300  1
  P  P38  1  0.05393700  0.91449800  0.68330200  1
  P  P39  1  0.81669800  0.94606300  0.41449800  1
  P  P40  1  0.08550200  0.18330200  0.44606300  1
  P  P41  1  0.55393700  0.58550200  0.31669800  1
  P  P42  1  0.31669800  0.55393700  0.58550200  1
  P  P43  1  0.58550200  0.31669800  0.55393700  1
  P  P44  1  0.62158500  0.34620800  0.13757800  1
  P  P45  1  0.86242200  0.12158500  0.15379200  1
  P  P46  1  0.84620800  0.36242200  0.37841500  1
  P  P47  1  0.12158500  0.15379200  0.86242200  1
  P  P48  1  0.36242200  0.37841500  0.84620800  1
  P  P49  1  0.34620800  0.13757800  0.62158500  1
  P  P50  1  0.37841500  0.84620800  0.36242200  1
  P  P51  1  0.13757800  0.62158500  0.34620800  1
  P  P52  1  0.15379200  0.86242200  0.12158500  1
  P  P53  1  0.87841500  0.65379200  0.63757800  1
  P  P54  1  0.63757800  0.87841500  0.65379200  1
  P  P55  1  0.65379200  0.63757800  0.87841500  1
  Pb  Pb56  1  0.59617900  0.59617900  0.59617900  1
  Pb  Pb57  1  0.40382100  0.09617900  0.90382100  1
  Pb  Pb58  1  0.09617900  0.90382100  0.40382100  1
  Pb  Pb59  1  0.90382100  0.40382100  0.09617900  1
  Pb  Pb60  1  0.44001600  0.55998400  0.05998400  1
  Pb  Pb61  1  0.94001600  0.94001600  0.94001600  1
  Pb  Pb62  1  0.05998400  0.44001600  0.55998400  1
  Pb  Pb63  1  0.55998400  0.05998400  0.44001600  1
  O  O64  1  0.59694700  0.59724300  0.20774400  1
  O  O65  1  0.79225600  0.09694700  0.90275700  1
  O  O66  1  0.09724300  0.29225600  0.40305300  1
  O  O67  1  0.09694700  0.90275700  0.79225600  1
  O  O68  1  0.29225600  0.40305300  0.09724300  1
  O  O69  1  0.59724300  0.20774400  0.59694700  1
  O  O70  1  0.40305300  0.09724300  0.29225600  1
  O  O71  1  0.20774400  0.59694700  0.59724300  1
  O  O72  1  0.90275700  0.79225600  0.09694700  1
  O  O73  1  0.90305300  0.40275700  0.70774400  1
  O  O74  1  0.70774400  0.90305300  0.40275700  1
  O  O75  1  0.40275700  0.70774400  0.90305300  1
  O  O76  1  0.06704400  0.40046000  0.80673200  1
  O  O77  1  0.19326800  0.56704400  0.09954000  1
  O  O78  1  0.90046000  0.69326800  0.93295600  1
  O  O79  1  0.56704400  0.09954000  0.19326800  1
  O  O80  1  0.69326800  0.93295600  0.90046000  1
  O  O81  1  0.40046000  0.80673200  0.06704400  1
  O  O82  1  0.93295600  0.90046000  0.69326800  1
  O  O83  1  0.80673200  0.06704400  0.40046000  1
  O  O84  1  0.09954000  0.19326800  0.56704400  1
  O  O85  1  0.43295600  0.59954000  0.30673200  1
  O  O86  1  0.30673200  0.43295600  0.59954000  1
  O  O87  1  0.59954000  0.30673200  0.43295600  1
  O  O88  1  0.71383000  0.41359400  0.10629000  1
  O  O89  1  0.89371000  0.21383000  0.08640600  1
  O  O90  1  0.91359400  0.39371000  0.28617000  1
  O  O91  1  0.21383000  0.08640600  0.89371000  1
  O  O92  1  0.39371000  0.28617000  0.91359400  1
  O  O93  1  0.41359400  0.10629000  0.71383000  1
  O  O94  1  0.28617000  0.91359400  0.39371000  1
  O  O95  1  0.10629000  0.71383000  0.41359400  1
  O  O96  1  0.08640600  0.89371000  0.21383000  1
  O  O97  1  0.78617000  0.58640600  0.60629000  1
  O  O98  1  0.60629000  0.78617000  0.58640600  1
  O  O99  1  0.58640600  0.60629000  0.78617000  1
  O  O100  1  0.93690700  0.52833900  0.85987400  1
  O  O101  1  0.14012600  0.43690700  0.97166100  1
  O  O102  1  0.02833900  0.64012600  0.06309300  1
  O  O103  1  0.43690700  0.97166100  0.14012600  1
  O  O104  1  0.64012600  0.06309300  0.02833900  1
  O  O105  1  0.52833900  0.85987400  0.93690700  1
  O  O106  1  0.06309300  0.02833900  0.64012600  1
  O  O107  1  0.85987400  0.93690700  0.52833900  1
  O  O108  1  0.97166100  0.14012600  0.43690700  1
  O  O109  1  0.56309300  0.47166100  0.35987400  1
  O  O110  1  0.35987400  0.56309300  0.47166100  1
  O  O111  1  0.47166100  0.35987400  0.56309300  1
  O  O112  1  0.89821800  0.34053500  0.89534700  1
  O  O113  1  0.10465300  0.39821800  0.15946500  1
  O  O114  1  0.84053500  0.60465300  0.10178200  1
  O  O115  1  0.39821800  0.15946500  0.10465300  1
  O  O116  1  0.60465300  0.10178200  0.84053500  1
  O  O117  1  0.34053500  0.89534700  0.89821800  1
  O  O118  1  0.10178200  0.84053500  0.60465300  1
  O  O119  1  0.89534700  0.89821800  0.34053500  1
  O  O120  1  0.15946500  0.10465300  0.39821800  1
  O  O121  1  0.60178200  0.65946500  0.39534700  1
  O  O122  1  0.39534700  0.60178200  0.65946500  1
  O  O123  1  0.65946500  0.39534700  0.60178200  1
  O  O124  1  0.63312300  0.23888500  0.08196600  1
  O  O125  1  0.91803400  0.13312300  0.26111500  1
  O  O126  1  0.73888500  0.41803400  0.36687700  1
  O  O127  1  0.13312300  0.26111500  0.91803400  1
  O  O128  1  0.41803400  0.36687700  0.73888500  1
  O  O129  1  0.23888500  0.08196600  0.63312300  1
  O  O130  1  0.36687700  0.73888500  0.41803400  1
  O  O131  1  0.08196600  0.63312300  0.23888500  1
  O  O132  1  0.26111500  0.91803400  0.13312300  1
  O  O133  1  0.86687700  0.76111500  0.58196600  1
  O  O134  1  0.58196600  0.86687700  0.76111500  1
  O  O135  1  0.76111500  0.58196600  0.86687700  1
  O  O136  1  0.61847100  0.32367400  0.25584700  1
  O  O137  1  0.74415300  0.11847100  0.17632600  1
  O  O138  1  0.82367400  0.24415300  0.38152900  1
  O  O139  1  0.11847100  0.17632600  0.74415300  1
  O  O140  1  0.24415300  0.38152900  0.82367400  1
  O  O141  1  0.32367400  0.25584700  0.61847100  1
  O  O142  1  0.38152900  0.82367400  0.24415300  1
  O  O143  1  0.25584700  0.61847100  0.32367400  1
  O  O144  1  0.17632600  0.74415300  0.11847100  1
  O  O145  1  0.88152900  0.67632600  0.75584700  1
  O  O146  1  0.75584700  0.88152900  0.67632600  1
  O  O147  1  0.67632600  0.75584700  0.88152900  1
  O  O148  1  0.51862400  0.39206300  0.10078000  1
  O  O149  1  0.89922000  0.01862400  0.10793700  1
  O  O150  1  0.89206300  0.39922000  0.48137600  1
  O  O151  1  0.01862400  0.10793700  0.89922000  1
  O  O152  1  0.39922000  0.48137600  0.89206300  1
  O  O153  1  0.39206300  0.10078000  0.51862400  1
  O  O154  1  0.48137600  0.89206300  0.39922000  1
  O  O155  1  0.10078000  0.51862400  0.39206300  1
  O  O156  1  0.10793700  0.89922000  0.01862400  1
  O  O157  1  0.98137600  0.60793700  0.60078000  1
  O  O158  1  0.60078000  0.98137600  0.60793700  1
  O  O159  1  0.60793700  0.60078000  0.98137600  1
