# generated using pymatgen
data_CeIn2Ru
_symmetry_space_group_name_H-M   'P 1'
_cell_length_a   4.79529100
_cell_length_b   5.48800534
_cell_length_c   7.74291700
_cell_angle_alpha   90.00000000
_cell_angle_beta   90.00000000
_cell_angle_gamma   115.90551818
_symmetry_Int_Tables_number   1
_chemical_formula_structural   CeIn2Ru
_chemical_formula_sum   'Ce2 In4 Ru2'
_cell_volume   183.29172030
_cell_formula_units_Z   2
loop_
 _symmetry_equiv_pos_site_id
 _symmetry_equiv_pos_as_xyz
  1  'x, y, z'
loop_
 _atom_site_type_symbol
 _atom_site_label
 _atom_site_symmetry_multiplicity
 _atom_site_fract_x
 _atom_site_fract_y
 _atom_site_fract_z
 _atom_site_occupancy
  Ce  Ce0  1  0.44302900  0.88605900  0.25000000  1
  Ce  Ce1  1  0.55697100  0.11394100  0.75000000  1
  In  In2  1  0.14893100  0.29786200  0.04635100  1
  In  In3  1  0.85106900  0.70213800  0.95364900  1
  In  In4  1  0.85106900  0.70213800  0.54635100  1
  In  In5  1  0.14893100  0.29786200  0.45364900  1
  Ru  Ru6  1  0.67401700  0.34803500  0.25000000  1
  Ru  Ru7  1  0.32598300  0.65196500  0.75000000  1
