# generated using pymatgen
data_Sm5Pb4
_symmetry_space_group_name_H-M   'P 1'
_cell_length_a   8.37797800
_cell_length_b   8.48656300
_cell_length_c   16.06057100
_cell_angle_alpha   90.00000000
_cell_angle_beta   90.00000000
_cell_angle_gamma   90.00000000
_symmetry_Int_Tables_number   1
_chemical_formula_structural   Sm5Pb4
_chemical_formula_sum   'Sm20 Pb16'
_cell_volume   1141.91042228
_cell_formula_units_Z   4
loop_
 _symmetry_equiv_pos_site_id
 _symmetry_equiv_pos_as_xyz
  1  'x, y, z'
loop_
 _atom_site_type_symbol
 _atom_site_label
 _atom_site_symmetry_multiplicity
 _atom_site_fract_x
 _atom_site_fract_y
 _atom_site_fract_z
 _atom_site_occupancy
  Sm  Sm0  1  0.62239000  0.15979500  0.61910300  1
  Sm  Sm1  1  0.12239000  0.34020500  0.88089700  1
  Sm  Sm2  1  0.37761000  0.84020500  0.11910300  1
  Sm  Sm3  1  0.87761000  0.65979500  0.38089700  1
  Sm  Sm4  1  0.37761000  0.84020500  0.38089700  1
  Sm  Sm5  1  0.87761000  0.65979500  0.11910300  1
  Sm  Sm6  1  0.62239000  0.15979500  0.88089700  1
  Sm  Sm7  1  0.12239000  0.34020500  0.61910300  1
  Sm  Sm8  1  0.46853800  0.67850900  0.60095600  1
  Sm  Sm9  1  0.96853800  0.82149100  0.89904400  1
  Sm  Sm10  1  0.53146200  0.32149100  0.10095600  1
  Sm  Sm11  1  0.03146200  0.17850900  0.39904400  1
  Sm  Sm12  1  0.53146200  0.32149100  0.39904400  1
  Sm  Sm13  1  0.03146200  0.17850900  0.10095600  1
  Sm  Sm14  1  0.46853800  0.67850900  0.89904400  1
  Sm  Sm15  1  0.96853800  0.82149100  0.60095600  1
  Sm  Sm16  1  0.79170800  0.49689300  0.75000000  1
  Sm  Sm17  1  0.29170800  0.00310700  0.75000000  1
  Sm  Sm18  1  0.20829200  0.50310700  0.25000000  1
  Sm  Sm19  1  0.70829200  0.99689300  0.25000000  1
  Pb  Pb20  1  0.71943000  0.96806100  0.45701800  1
  Pb  Pb21  1  0.21943000  0.53193900  0.04298200  1
  Pb  Pb22  1  0.28057000  0.03193900  0.95701800  1
  Pb  Pb23  1  0.78057000  0.46806100  0.54298200  1
  Pb  Pb24  1  0.28057000  0.03193900  0.54298200  1
  Pb  Pb25  1  0.78057000  0.46806100  0.95701800  1
  Pb  Pb26  1  0.71943000  0.96806100  0.04298200  1
  Pb  Pb27  1  0.21943000  0.53193900  0.45701800  1
  Pb  Pb28  1  0.42675000  0.37351500  0.75000000  1
  Pb  Pb29  1  0.92675000  0.12648500  0.75000000  1
  Pb  Pb30  1  0.57325000  0.62648500  0.25000000  1
  Pb  Pb31  1  0.07325000  0.87351500  0.25000000  1
  Pb  Pb32  1  0.65949400  0.85164700  0.75000000  1
  Pb  Pb33  1  0.15949400  0.64835300  0.75000000  1
  Pb  Pb34  1  0.34050600  0.14835300  0.25000000  1
  Pb  Pb35  1  0.84050600  0.35164700  0.25000000  1
