# generated using pymatgen
data_RbFeP2O7
_symmetry_space_group_name_H-M   'P 1'
_cell_length_a   10.15807000
_cell_length_b   7.62999500
_cell_length_c   8.41297227
_cell_angle_alpha   74.09137695
_cell_angle_beta   90.00000000
_cell_angle_gamma   90.00000000
_symmetry_Int_Tables_number   1
_chemical_formula_structural   RbFeP2O7
_chemical_formula_sum   'Rb4 Fe4 P8 O28'
_cell_volume   627.08232313
_cell_formula_units_Z   4
loop_
 _symmetry_equiv_pos_site_id
 _symmetry_equiv_pos_as_xyz
  1  'x, y, z'
loop_
 _atom_site_type_symbol
 _atom_site_label
 _atom_site_symmetry_multiplicity
 _atom_site_fract_x
 _atom_site_fract_y
 _atom_site_fract_z
 _atom_site_occupancy
  Rb  Rb0  1  0.68667100  0.18689000  0.94821700  1
  Rb  Rb1  1  0.18667100  0.81311000  0.55178300  1
  Rb  Rb2  1  0.31332900  0.81311000  0.05178300  1
  Rb  Rb3  1  0.81332900  0.18689000  0.44821700  1
  Fe  Fe4  1  0.39954700  0.23851800  0.24146400  1
  Fe  Fe5  1  0.89954700  0.76148200  0.25853600  1
  Fe  Fe6  1  0.60045300  0.76148200  0.75853600  1
  Fe  Fe7  1  0.10045300  0.23851800  0.74146400  1
  P  P8  1  0.40420100  0.13030200  0.66919800  1
  P  P9  1  0.90420100  0.86969800  0.83080200  1
  P  P10  1  0.59579900  0.86969800  0.33080200  1
  P  P11  1  0.09579900  0.13030200  0.16919800  1
  P  P12  1  0.13134400  0.43171700  0.31375700  1
  P  P13  1  0.63134400  0.56828300  0.18624300  1
  P  P14  1  0.86865600  0.56828300  0.68624300  1
  P  P15  1  0.36865600  0.43171700  0.81375700  1
  O  O16  1  0.27708500  0.44216600  0.26235200  1
  O  O17  1  0.77708500  0.55783400  0.23764800  1
  O  O18  1  0.72291500  0.55783400  0.73764800  1
  O  O19  1  0.22291500  0.44216600  0.76235200  1
  O  O20  1  0.99825300  0.99134000  0.27219900  1
  O  O21  1  0.49825300  0.00866000  0.22780100  1
  O  O22  1  0.00174700  0.00866000  0.72780100  1
  O  O23  1  0.50174700  0.99134000  0.77219900  1
  O  O24  1  0.10398800  0.32170600  0.49101000  1
  O  O25  1  0.60398800  0.67829400  0.00899000  1
  O  O26  1  0.89601200  0.67829400  0.50899000  1
  O  O27  1  0.39601200  0.32170600  0.99101000  1
  O  O28  1  0.08750800  0.15108900  0.98572600  1
  O  O29  1  0.58750800  0.84891100  0.51427400  1
  O  O30  1  0.91249200  0.84891100  0.01427400  1
  O  O31  1  0.41249200  0.15108900  0.48572600  1
  O  O32  1  0.05327500  0.32558900  0.19725600  1
  O  O33  1  0.55327500  0.67441100  0.30274400  1
  O  O34  1  0.94672500  0.67441100  0.80274400  1
  O  O35  1  0.44672500  0.32558900  0.69725600  1
  O  O36  1  0.26476200  0.08516600  0.73994300  1
  O  O37  1  0.76476200  0.91483400  0.76005700  1
  O  O38  1  0.73523800  0.91483400  0.26005700  1
  O  O39  1  0.23523800  0.08516600  0.23994300  1
  O  O40  1  0.42716400  0.62384300  0.76770100  1
  O  O41  1  0.92716400  0.37615700  0.73229900  1
  O  O42  1  0.57283600  0.37615700  0.23229900  1
  O  O43  1  0.07283600  0.62384300  0.26770100  1
