# generated using pymatgen
data_DyNiO3
_symmetry_space_group_name_H-M   'P 1'
_cell_length_a   5.21173600
_cell_length_b   5.62269700
_cell_length_c   7.45341500
_cell_angle_alpha   90.00000000
_cell_angle_beta   90.00000000
_cell_angle_gamma   90.00000000
_symmetry_Int_Tables_number   1
_chemical_formula_structural   DyNiO3
_chemical_formula_sum   'Dy4 Ni4 O12'
_cell_volume   218.41496537
_cell_formula_units_Z   4
loop_
 _symmetry_equiv_pos_site_id
 _symmetry_equiv_pos_as_xyz
  1  'x, y, z'
loop_
 _atom_site_type_symbol
 _atom_site_label
 _atom_site_symmetry_multiplicity
 _atom_site_fract_x
 _atom_site_fract_y
 _atom_site_fract_z
 _atom_site_occupancy
  Dy  Dy0  1  0.02119300  0.92244700  0.75000000  1
  Dy  Dy1  1  0.52119300  0.57755300  0.25000000  1
  Dy  Dy2  1  0.47880700  0.42244700  0.75000000  1
  Dy  Dy3  1  0.97880700  0.07755300  0.25000000  1
  Ni  Ni4  1  0.50000000  0.00000000  0.50000000  1
  Ni  Ni5  1  0.00000000  0.50000000  0.50000000  1
  Ni  Ni6  1  0.00000000  0.50000000  0.00000000  1
  Ni  Ni7  1  0.50000000  0.00000000  0.00000000  1
  O  O8  1  0.69695900  0.30768800  0.44799800  1
  O  O9  1  0.19695900  0.19231200  0.55200200  1
  O  O10  1  0.80304100  0.80768800  0.05200200  1
  O  O11  1  0.30304100  0.69231200  0.94799800  1
  O  O12  1  0.30304100  0.69231200  0.55200200  1
  O  O13  1  0.80304100  0.80768800  0.44799800  1
  O  O14  1  0.19695900  0.19231200  0.94799800  1
  O  O15  1  0.69695900  0.30768800  0.05200200  1
  O  O16  1  0.10459600  0.46945900  0.25000000  1
  O  O17  1  0.60459600  0.03054100  0.75000000  1
  O  O18  1  0.39540400  0.96945900  0.25000000  1
  O  O19  1  0.89540400  0.53054100  0.75000000  1
