# generated using pymatgen
data_RbNbV2O8
_symmetry_space_group_name_H-M   'P 1'
_cell_length_a   5.69328900
_cell_length_b   9.21428100
_cell_length_c   15.23257500
_cell_angle_alpha   90.00000000
_cell_angle_beta   90.00000000
_cell_angle_gamma   90.00000000
_symmetry_Int_Tables_number   1
_chemical_formula_structural   RbNbV2O8
_chemical_formula_sum   'Rb4 Nb4 V8 O32'
_cell_volume   799.09425315
_cell_formula_units_Z   4
loop_
 _symmetry_equiv_pos_site_id
 _symmetry_equiv_pos_as_xyz
  1  'x, y, z'
loop_
 _atom_site_type_symbol
 _atom_site_label
 _atom_site_symmetry_multiplicity
 _atom_site_fract_x
 _atom_site_fract_y
 _atom_site_fract_z
 _atom_site_occupancy
  Rb  Rb0  1  0.25000000  0.44812100  0.61580700  1
  Rb  Rb1  1  0.25000000  0.05187900  0.11580700  1
  Rb  Rb2  1  0.75000000  0.55187900  0.38419300  1
  Rb  Rb3  1  0.75000000  0.94812100  0.88419300  1
  Nb  Nb4  1  0.25000000  0.99553300  0.65985400  1
  Nb  Nb5  1  0.25000000  0.50446700  0.15985400  1
  Nb  Nb6  1  0.75000000  0.00446700  0.34014600  1
  Nb  Nb7  1  0.75000000  0.49553300  0.84014600  1
  V  V8  1  0.25000000  0.24566600  0.83953400  1
  V  V9  1  0.25000000  0.25433400  0.33953400  1
  V  V10  1  0.75000000  0.75433400  0.16046600  1
  V  V11  1  0.75000000  0.74566600  0.66046600  1
  V  V12  1  0.25000000  0.81927000  0.43840600  1
  V  V13  1  0.25000000  0.68073000  0.93840600  1
  V  V14  1  0.75000000  0.18073000  0.56159400  1
  V  V15  1  0.75000000  0.31927000  0.06159400  1
  O  O16  1  0.99784100  0.34708600  0.80943300  1
  O  O17  1  0.50215900  0.15291400  0.30943300  1
  O  O18  1  0.49784100  0.65291400  0.19056700  1
  O  O19  1  0.00215900  0.84708600  0.69056700  1
  O  O20  1  0.00215900  0.65291400  0.19056700  1
  O  O21  1  0.49784100  0.84708600  0.69056700  1
  O  O22  1  0.50215900  0.34708600  0.80943300  1
  O  O23  1  0.99784100  0.15291400  0.30943300  1
  O  O24  1  0.99692700  0.86261600  0.37443800  1
  O  O25  1  0.50307300  0.63738400  0.87443800  1
  O  O26  1  0.49692700  0.13738400  0.62556200  1
  O  O27  1  0.00307300  0.36261600  0.12556200  1
  O  O28  1  0.00307300  0.13738400  0.62556200  1
  O  O29  1  0.49692700  0.36261600  0.12556200  1
  O  O30  1  0.50307300  0.86261600  0.37443800  1
  O  O31  1  0.99692700  0.63738400  0.87443800  1
  O  O32  1  0.25000000  0.07511700  0.78194700  1
  O  O33  1  0.25000000  0.42488300  0.28194700  1
  O  O34  1  0.75000000  0.92488300  0.21805300  1
  O  O35  1  0.75000000  0.57511700  0.71805300  1
  O  O36  1  0.25000000  0.91927200  0.53650400  1
  O  O37  1  0.25000000  0.58072800  0.03650400  1
  O  O38  1  0.75000000  0.08072800  0.46349600  1
  O  O39  1  0.75000000  0.41927200  0.96349600  1
  O  O40  1  0.25000000  0.21505600  0.94582500  1
  O  O41  1  0.25000000  0.28494400  0.44582500  1
  O  O42  1  0.75000000  0.78494400  0.05417500  1
  O  O43  1  0.75000000  0.71505600  0.55417500  1
  O  O44  1  0.25000000  0.64286700  0.45838000  1
  O  O45  1  0.25000000  0.85713300  0.95838000  1
  O  O46  1  0.75000000  0.35713300  0.54162000  1
  O  O47  1  0.75000000  0.14286700  0.04162000  1
