# generated using pymatgen
data_KNa4FeO4
_symmetry_space_group_name_H-M   'P 1'
_cell_length_a   6.07157900
_cell_length_b   10.63873400
_cell_length_c   18.97363100
_cell_angle_alpha   90.00000000
_cell_angle_beta   90.00000000
_cell_angle_gamma   90.00000000
_symmetry_Int_Tables_number   1
_chemical_formula_structural   KNa4FeO4
_chemical_formula_sum   'K8 Na32 Fe8 O32'
_cell_volume   1225.58108796
_cell_formula_units_Z   8
loop_
 _symmetry_equiv_pos_site_id
 _symmetry_equiv_pos_as_xyz
  1  'x, y, z'
loop_
 _atom_site_type_symbol
 _atom_site_label
 _atom_site_symmetry_multiplicity
 _atom_site_fract_x
 _atom_site_fract_y
 _atom_site_fract_z
 _atom_site_occupancy
  K  K0  1  0.90963500  0.15695400  0.49662300  1
  K  K1  1  0.59036500  0.65695400  0.50337700  1
  K  K2  1  0.40963500  0.84304600  0.00337700  1
  K  K3  1  0.09036500  0.34304600  0.99662300  1
  K  K4  1  0.09036500  0.84304600  0.50337700  1
  K  K5  1  0.40963500  0.34304600  0.49662300  1
  K  K6  1  0.59036500  0.15695400  0.99662300  1
  K  K7  1  0.90963500  0.65695400  0.00337700  1
  Na  Na8  1  0.89976600  0.19623600  0.14302800  1
  Na  Na9  1  0.60023400  0.69623600  0.85697200  1
  Na  Na10  1  0.39976600  0.80376400  0.35697200  1
  Na  Na11  1  0.10023400  0.30376400  0.64302800  1
  Na  Na12  1  0.10023400  0.80376400  0.85697200  1
  Na  Na13  1  0.39976600  0.30376400  0.14302800  1
  Na  Na14  1  0.60023400  0.19623600  0.64302800  1
  Na  Na15  1  0.89976600  0.69623600  0.35697200  1
  Na  Na16  1  0.58298300  0.32567500  0.32308600  1
  Na  Na17  1  0.91701700  0.82567500  0.67691400  1
  Na  Na18  1  0.08298300  0.67432500  0.17691400  1
  Na  Na19  1  0.41701700  0.17432500  0.82308600  1
  Na  Na20  1  0.41701700  0.67432500  0.67691400  1
  Na  Na21  1  0.08298300  0.17432500  0.32308600  1
  Na  Na22  1  0.91701700  0.32567500  0.82308600  1
  Na  Na23  1  0.58298300  0.82567500  0.17691400  1
  Na  Na24  1  0.57518800  0.07711900  0.25125800  1
  Na  Na25  1  0.92481200  0.57711900  0.74874200  1
  Na  Na26  1  0.07518800  0.92288100  0.24874200  1
  Na  Na27  1  0.42481200  0.42288100  0.75125800  1
  Na  Na28  1  0.42481200  0.92288100  0.74874200  1
  Na  Na29  1  0.07518800  0.42288100  0.25125800  1
  Na  Na30  1  0.92481200  0.07711900  0.75125800  1
  Na  Na31  1  0.57518800  0.57711900  0.24874200  1
  Na  Na32  1  0.90555200  0.44280600  0.43332300  1
  Na  Na33  1  0.59444800  0.94280600  0.56667700  1
  Na  Na34  1  0.40555200  0.55719400  0.06667700  1
  Na  Na35  1  0.09444800  0.05719400  0.93332300  1
  Na  Na36  1  0.09444800  0.55719400  0.56667700  1
  Na  Na37  1  0.40555200  0.05719400  0.43332300  1
  Na  Na38  1  0.59444800  0.44280600  0.93332300  1
  Na  Na39  1  0.90555200  0.94280600  0.06667700  1
  Fe  Fe40  1  0.80347300  0.46232100  0.12784400  1
  Fe  Fe41  1  0.69652700  0.96232100  0.87215600  1
  Fe  Fe42  1  0.30347300  0.53767900  0.37215600  1
  Fe  Fe43  1  0.19652700  0.03767900  0.62784400  1
  Fe  Fe44  1  0.19652700  0.53767900  0.87215600  1
  Fe  Fe45  1  0.30347300  0.03767900  0.12784400  1
  Fe  Fe46  1  0.69652700  0.46232100  0.62784400  1
  Fe  Fe47  1  0.80347300  0.96232100  0.37215600  1
  O  O48  1  0.61819400  0.03948300  0.12463500  1
  O  O49  1  0.88180600  0.53948300  0.87536500  1
  O  O50  1  0.11819400  0.96051700  0.37536500  1
  O  O51  1  0.38180600  0.46051700  0.62463500  1
  O  O52  1  0.38180600  0.96051700  0.87536500  1
  O  O53  1  0.11819400  0.46051700  0.12463500  1
  O  O54  1  0.88180600  0.03948300  0.62463500  1
  O  O55  1  0.61819400  0.53948300  0.37536500  1
  O  O56  1  0.67005400  0.38296300  0.04849300  1
  O  O57  1  0.82994600  0.88296300  0.95150700  1
  O  O58  1  0.17005400  0.61703700  0.45150700  1
  O  O59  1  0.32994600  0.11703700  0.54849300  1
  O  O60  1  0.32994600  0.61703700  0.95150700  1
  O  O61  1  0.17005400  0.11703700  0.04849300  1
  O  O62  1  0.82994600  0.38296300  0.54849300  1
  O  O63  1  0.67005400  0.88296300  0.45150700  1
  O  O64  1  0.71383000  0.37080600  0.21027600  1
  O  O65  1  0.78617000  0.87080600  0.78972400  1
  O  O66  1  0.21383000  0.62919400  0.28972400  1
  O  O67  1  0.28617000  0.12919400  0.71027600  1
  O  O68  1  0.28617000  0.62919400  0.78972400  1
  O  O69  1  0.21383000  0.12919400  0.21027600  1
  O  O70  1  0.78617000  0.37080600  0.71027600  1
  O  O71  1  0.71383000  0.87080600  0.28972400  1
  O  O72  1  0.70693900  0.13432700  0.36519200  1
  O  O73  1  0.79306100  0.63432700  0.63480800  1
  O  O74  1  0.20693900  0.86567300  0.13480800  1
  O  O75  1  0.29306100  0.36567300  0.86519200  1
  O  O76  1  0.29306100  0.86567300  0.63480800  1
  O  O77  1  0.20693900  0.36567300  0.36519200  1
  O  O78  1  0.79306100  0.13432700  0.86519200  1
  O  O79  1  0.70693900  0.63432700  0.13480800  1
