# generated using pymatgen
data_CsVP2S7
_symmetry_space_group_name_H-M   'P 1'
_cell_length_a   6.54141808
_cell_length_b   6.54141808
_cell_length_c   7.17018885
_cell_angle_alpha   85.08386592
_cell_angle_beta   85.08386592
_cell_angle_gamma   96.61383900
_symmetry_Int_Tables_number   1
_chemical_formula_structural   CsVP2S7
_chemical_formula_sum   'Cs1 V1 P2 S7'
_cell_volume   302.23140891
_cell_formula_units_Z   1
loop_
 _symmetry_equiv_pos_site_id
 _symmetry_equiv_pos_as_xyz
  1  'x, y, z'
loop_
 _atom_site_type_symbol
 _atom_site_label
 _atom_site_symmetry_multiplicity
 _atom_site_fract_x
 _atom_site_fract_y
 _atom_site_fract_z
 _atom_site_occupancy
  Cs  Cs0  1  0.10588700  0.89411300  0.00000000  1
  V  V1  1  0.50153000  0.49847000  0.50000000  1
  P  P2  1  0.65863300  0.94512600  0.57505100  1
  P  P3  1  0.05487400  0.34136700  0.42494900  1
  S  S4  1  0.63665500  0.68628000  0.75712000  1
  S  S5  1  0.31372000  0.36334500  0.24288000  1
  S  S6  1  0.52908300  0.84343300  0.34447300  1
  S  S7  1  0.15656700  0.47091700  0.65552700  1
  S  S8  1  0.54924900  0.18195500  0.70053700  1
  S  S9  1  0.81804500  0.45075100  0.29946300  1
  S  S10  1  0.98793800  0.01206200  0.50000000  1
