# generated using pymatgen
data_K3Zn(BO2)5
_symmetry_space_group_name_H-M   'P 1'
_cell_length_a   19.48901300
_cell_length_b   7.77167400
_cell_length_c   8.18119973
_cell_angle_alpha   58.55152786
_cell_angle_beta   90.00000000
_cell_angle_gamma   90.00000000
_symmetry_Int_Tables_number   1
_chemical_formula_structural   K3Zn(BO2)5
_chemical_formula_sum   'K12 Zn4 B20 O40'
_cell_volume   1057.12490606
_cell_formula_units_Z   4
loop_
 _symmetry_equiv_pos_site_id
 _symmetry_equiv_pos_as_xyz
  1  'x, y, z'
loop_
 _atom_site_type_symbol
 _atom_site_label
 _atom_site_symmetry_multiplicity
 _atom_site_fract_x
 _atom_site_fract_y
 _atom_site_fract_z
 _atom_site_occupancy
  K  K0  1  0.57911600  0.33777000  0.01307700  1
  K  K1  1  0.92088400  0.33777000  0.51307700  1
  K  K2  1  0.42088400  0.66223000  0.98692300  1
  K  K3  1  0.07911600  0.66223000  0.48692300  1
  K  K4  1  0.56266100  0.31997900  0.46984900  1
  K  K5  1  0.93733900  0.31997900  0.96984900  1
  K  K6  1  0.43733900  0.68002100  0.53015100  1
  K  K7  1  0.06266100  0.68002100  0.03015100  1
  K  K8  1  0.75370900  0.75893600  0.77712800  1
  K  K9  1  0.74629100  0.75893600  0.27712800  1
  K  K10  1  0.24629100  0.24106400  0.22287200  1
  K  K11  1  0.25370900  0.24106400  0.72287200  1
  Zn  Zn12  1  0.60699600  0.82719300  0.49495400  1
  Zn  Zn13  1  0.89300400  0.82719300  0.99495400  1
  Zn  Zn14  1  0.39300400  0.17280700  0.50504600  1
  Zn  Zn15  1  0.10699600  0.17280700  0.00504600  1
  B  B16  1  0.57871900  0.82582400  0.14411500  1
  B  B17  1  0.92128100  0.82582400  0.64411500  1
  B  B18  1  0.42128100  0.17417600  0.85588500  1
  B  B19  1  0.07871900  0.17417600  0.35588500  1
  B  B20  1  0.66148300  0.05343800  0.87487900  1
  B  B21  1  0.83851700  0.05343800  0.37487900  1
  B  B22  1  0.33851700  0.94656200  0.12512100  1
  B  B23  1  0.16148300  0.94656200  0.62512100  1
  B  B24  1  0.71217100  0.15798800  0.32779600  1
  B  B25  1  0.78782900  0.15798800  0.82779600  1
  B  B26  1  0.28782900  0.84201200  0.67220400  1
  B  B27  1  0.21217100  0.84201200  0.17220400  1
  B  B28  1  0.57752900  0.82447000  0.84040500  1
  B  B29  1  0.92247100  0.82447000  0.34040500  1
  B  B30  1  0.42247100  0.17553000  0.15959500  1
  B  B31  1  0.07752900  0.17553000  0.65959500  1
  B  B32  1  0.69670700  0.42094800  0.69481100  1
  B  B33  1  0.80329300  0.42094800  0.19481100  1
  B  B34  1  0.30329300  0.57905200  0.30518900  1
  B  B35  1  0.19670700  0.57905200  0.80518900  1
  O  O36  1  0.64487600  0.10883400  0.35354400  1
  O  O37  1  0.85512400  0.10883400  0.85354400  1
  O  O38  1  0.35512400  0.89116600  0.64645600  1
  O  O39  1  0.14487600  0.89116600  0.14645600  1
  O  O40  1  0.55550900  0.75298500  0.32449300  1
  O  O41  1  0.94449100  0.75298500  0.82449300  1
  O  O42  1  0.44449100  0.24701500  0.67550700  1
  O  O43  1  0.05550900  0.24701500  0.17550700  1
  O  O44  1  0.68027000  0.61697000  0.60668800  1
  O  O45  1  0.81973000  0.61697000  0.10668800  1
  O  O46  1  0.31973000  0.38303000  0.39331200  1
  O  O47  1  0.18027000  0.38303000  0.89331200  1
  O  O48  1  0.86997500  0.96924700  0.56632400  1
  O  O49  1  0.63002500  0.96924700  0.06632400  1
  O  O50  1  0.13002500  0.03075300  0.43367600  1
  O  O51  1  0.36997500  0.03075300  0.93367600  1
  O  O52  1  0.54955200  0.75867600  0.73075500  1
  O  O53  1  0.95044800  0.75867600  0.23075500  1
  O  O54  1  0.45044800  0.24132400  0.26924500  1
  O  O55  1  0.04955200  0.24132400  0.76924500  1
  O  O56  1  0.73256800  0.36479100  0.22320200  1
  O  O57  1  0.76743200  0.36479100  0.72320200  1
  O  O58  1  0.26743200  0.63520900  0.77679800  1
  O  O59  1  0.23256800  0.63520900  0.27679800  1
  O  O60  1  0.64685700  0.27218500  0.76063500  1
  O  O61  1  0.85314300  0.27218500  0.26063500  1
  O  O62  1  0.35314300  0.72781500  0.23936500  1
  O  O63  1  0.14685700  0.72781500  0.73936500  1
  O  O64  1  0.73599000  0.01505700  0.89794100  1
  O  O65  1  0.76401000  0.01505700  0.39794100  1
  O  O66  1  0.26401000  0.98494300  0.10205900  1
  O  O67  1  0.23599000  0.98494300  0.60205900  1
  O  O68  1  0.44785600  0.24966900  0.96992300  1
  O  O69  1  0.05214400  0.24966900  0.46992300  1
  O  O70  1  0.55214400  0.75033100  0.03007700  1
  O  O71  1  0.94785600  0.75033100  0.53007700  1
  O  O72  1  0.63187900  0.95719300  0.77615300  1
  O  O73  1  0.86812100  0.95719300  0.27615300  1
  O  O74  1  0.36812100  0.04280700  0.22384700  1
  O  O75  1  0.13187900  0.04280700  0.72384700  1
