# generated using pymatgen
data_EuAs
_symmetry_space_group_name_H-M   'P 1'
_cell_length_a   8.00021352
_cell_length_b   8.00021352
_cell_length_c   6.20900600
_cell_angle_alpha   90.00000000
_cell_angle_beta   90.00000000
_cell_angle_gamma   119.99999599
_symmetry_Int_Tables_number   1
_chemical_formula_structural   EuAs
_chemical_formula_sum   'Eu6 As6'
_cell_volume   344.15642724
_cell_formula_units_Z   6
loop_
 _symmetry_equiv_pos_site_id
 _symmetry_equiv_pos_as_xyz
  1  'x, y, z'
loop_
 _atom_site_type_symbol
 _atom_site_label
 _atom_site_symmetry_multiplicity
 _atom_site_fract_x
 _atom_site_fract_y
 _atom_site_fract_z
 _atom_site_occupancy
  Eu  Eu0  1  0.34176900  0.34176900  0.50000000  1
  Eu  Eu1  1  0.65823100  0.00000000  0.50000000  1
  Eu  Eu2  1  0.00000000  0.65823100  0.50000000  1
  Eu  Eu3  1  0.67464700  0.67464700  0.00000000  1
  Eu  Eu4  1  0.32535300  0.00000000  0.00000000  1
  Eu  Eu5  1  0.00000000  0.32535300  0.00000000  1
  As  As6  1  0.00000000  0.00000000  0.72778900  1
  As  As7  1  0.00000000  0.00000000  0.27221100  1
  As  As8  1  0.66666700  0.33333300  0.76665500  1
  As  As9  1  0.66666700  0.33333300  0.23334500  1
  As  As10  1  0.33333300  0.66666700  0.76665500  1
  As  As11  1  0.33333300  0.66666700  0.23334500  1
