# generated using pymatgen
data_Tb2Pt
_symmetry_space_group_name_H-M   'P 1'
_cell_length_a   4.80274800
_cell_length_b   7.20805700
_cell_length_c   8.85233800
_cell_angle_alpha   90.00000000
_cell_angle_beta   90.00000000
_cell_angle_gamma   90.00000000
_symmetry_Int_Tables_number   1
_chemical_formula_structural   Tb2Pt
_chemical_formula_sum   'Tb8 Pt4'
_cell_volume   306.45449787
_cell_formula_units_Z   4
loop_
 _symmetry_equiv_pos_site_id
 _symmetry_equiv_pos_as_xyz
  1  'x, y, z'
loop_
 _atom_site_type_symbol
 _atom_site_label
 _atom_site_symmetry_multiplicity
 _atom_site_fract_x
 _atom_site_fract_y
 _atom_site_fract_z
 _atom_site_occupancy
  Tb  Tb0  1  0.75000000  0.64274700  0.41751700  1
  Tb  Tb1  1  0.25000000  0.35725300  0.58248300  1
  Tb  Tb2  1  0.75000000  0.14274700  0.08248300  1
  Tb  Tb3  1  0.25000000  0.85725300  0.91751700  1
  Tb  Tb4  1  0.75000000  0.50858200  0.83387300  1
  Tb  Tb5  1  0.25000000  0.49141800  0.16612700  1
  Tb  Tb6  1  0.75000000  0.00858200  0.66612700  1
  Tb  Tb7  1  0.25000000  0.99141800  0.33387300  1
  Pt  Pt8  1  0.75000000  0.24095400  0.40853400  1
  Pt  Pt9  1  0.25000000  0.75904600  0.59146600  1
  Pt  Pt10  1  0.75000000  0.74095400  0.09146600  1
  Pt  Pt11  1  0.25000000  0.25904600  0.90853400  1
