# generated using pymatgen
data_LiRhF6
_symmetry_space_group_name_H-M   'P 1'
_cell_length_a   5.46280828
_cell_length_b   5.46280828
_cell_length_c   5.46280804
_cell_angle_alpha   56.43069711
_cell_angle_beta   56.43069711
_cell_angle_gamma   56.43070117
_symmetry_Int_Tables_number   1
_chemical_formula_structural   LiRhF6
_chemical_formula_sum   'Li1 Rh1 F6'
_cell_volume   105.76123225
_cell_formula_units_Z   1
loop_
 _symmetry_equiv_pos_site_id
 _symmetry_equiv_pos_as_xyz
  1  'x, y, z'
loop_
 _atom_site_type_symbol
 _atom_site_label
 _atom_site_symmetry_multiplicity
 _atom_site_fract_x
 _atom_site_fract_y
 _atom_site_fract_z
 _atom_site_occupancy
  Li  Li0  1  0.50000000  0.50000000  0.50000000  1
  Rh  Rh1  1  0.00000000  0.00000000  0.00000000  1
  F  F2  1  0.36024300  0.76161800  0.11846200  1
  F  F3  1  0.76161800  0.11846200  0.36024300  1
  F  F4  1  0.88153800  0.63975700  0.23838200  1
  F  F5  1  0.11846200  0.36024300  0.76161800  1
  F  F6  1  0.23838200  0.88153800  0.63975700  1
  F  F7  1  0.63975700  0.23838200  0.88153800  1
