# generated using pymatgen
data_Lu11Ge10
_symmetry_space_group_name_H-M   'P 1'
_cell_length_a   11.02184068
_cell_length_b   11.02184068
_cell_length_c   11.02184068
_cell_angle_alpha   121.85777303
_cell_angle_beta   121.85777303
_cell_angle_gamma   86.81127650
_symmetry_Int_Tables_number   1
_chemical_formula_structural   Lu11Ge10
_chemical_formula_sum   'Lu22 Ge20'
_cell_volume   918.64286137
_cell_formula_units_Z   2
loop_
 _symmetry_equiv_pos_site_id
 _symmetry_equiv_pos_as_xyz
  1  'x, y, z'
loop_
 _atom_site_type_symbol
 _atom_site_label
 _atom_site_symmetry_multiplicity
 _atom_site_fract_x
 _atom_site_fract_y
 _atom_site_fract_z
 _atom_site_occupancy
  Lu  Lu0  1  0.81011400  0.06273500  0.25262000  1
  Lu  Lu1  1  0.81011400  0.55749400  0.74738000  1
  Lu  Lu2  1  0.06273500  0.81011400  0.25262000  1
  Lu  Lu3  1  0.55749400  0.81011400  0.74738000  1
  Lu  Lu4  1  0.18988600  0.93726500  0.74738000  1
  Lu  Lu5  1  0.18988600  0.44250600  0.25262000  1
  Lu  Lu6  1  0.93726500  0.18988600  0.74738000  1
  Lu  Lu7  1  0.44250600  0.18988600  0.25262000  1
  Lu  Lu8  1  0.17690500  0.17690500  0.35380900  1
  Lu  Lu9  1  0.82309500  0.82309500  0.64619100  1
  Lu  Lu10  1  0.17690500  0.82309500  0.00000000  1
  Lu  Lu11  1  0.82309500  0.17690500  0.00000000  1
  Lu  Lu12  1  0.66045500  0.66045500  0.00000000  1
  Lu  Lu13  1  0.33954500  0.33954500  0.00000000  1
  Lu  Lu14  1  0.60283100  0.92719900  0.32436800  1
  Lu  Lu15  1  0.60283100  0.27846200  0.67563200  1
  Lu  Lu16  1  0.92719900  0.60283100  0.32436800  1
  Lu  Lu17  1  0.27846200  0.60283100  0.67563200  1
  Lu  Lu18  1  0.39716900  0.07280100  0.67563200  1
  Lu  Lu19  1  0.39716900  0.72153800  0.32436800  1
  Lu  Lu20  1  0.07280100  0.39716900  0.67563200  1
  Lu  Lu21  1  0.72153800  0.39716900  0.32436800  1
  Ge  Ge22  1  0.35939700  0.00000000  0.35939700  1
  Ge  Ge23  1  0.64060300  0.00000000  0.64060300  1
  Ge  Ge24  1  0.00000000  0.64060300  0.64060300  1
  Ge  Ge25  1  0.00000000  0.35939700  0.35939700  1
  Ge  Ge26  1  0.88417600  0.88417600  0.00000000  1
  Ge  Ge27  1  0.11582400  0.11582400  0.00000000  1
  Ge  Ge28  1  0.37882900  0.37882900  0.75765800  1
  Ge  Ge29  1  0.62117100  0.62117100  0.24234200  1
  Ge  Ge30  1  0.37882900  0.62117100  0.00000000  1
  Ge  Ge31  1  0.62117100  0.37882900  0.00000000  1
  Ge  Ge32  1  0.75000000  0.25000000  0.50000000  1
  Ge  Ge33  1  0.25000000  0.75000000  0.50000000  1
  Ge  Ge34  1  0.88977600  0.88977600  0.41936300  1
  Ge  Ge35  1  0.47041400  0.47041400  0.58063700  1
  Ge  Ge36  1  0.88977600  0.47041400  0.00000000  1
  Ge  Ge37  1  0.47041400  0.88977600  0.00000000  1
  Ge  Ge38  1  0.11022400  0.11022400  0.58063700  1
  Ge  Ge39  1  0.52958600  0.52958600  0.41936300  1
  Ge  Ge40  1  0.11022400  0.52958600  0.00000000  1
  Ge  Ge41  1  0.52958600  0.11022400  0.00000000  1
