# generated using pymatgen
data_Rb4Ge(PSe3)4
_symmetry_space_group_name_H-M   'P 1'
_cell_length_a   7.54793300
_cell_length_b   14.60121900
_cell_length_c   24.78143000
_cell_angle_alpha   90.00000000
_cell_angle_beta   90.00000000
_cell_angle_gamma   90.00000000
_symmetry_Int_Tables_number   1
_chemical_formula_structural   Rb4Ge(PSe3)4
_chemical_formula_sum   'Rb16 Ge4 P16 Se48'
_cell_volume   2731.13718216
_cell_formula_units_Z   4
loop_
 _symmetry_equiv_pos_site_id
 _symmetry_equiv_pos_as_xyz
  1  'x, y, z'
loop_
 _atom_site_type_symbol
 _atom_site_label
 _atom_site_symmetry_multiplicity
 _atom_site_fract_x
 _atom_site_fract_y
 _atom_site_fract_z
 _atom_site_occupancy
  Rb  Rb0  1  0.71034900  0.52988900  0.93854100  1
  Rb  Rb1  1  0.28965100  0.47011100  0.43854100  1
  Rb  Rb2  1  0.71034900  0.97011100  0.43854100  1
  Rb  Rb3  1  0.28965100  0.02988900  0.93854100  1
  Rb  Rb4  1  0.80735000  0.87627300  0.83824200  1
  Rb  Rb5  1  0.19265000  0.12372700  0.33824200  1
  Rb  Rb6  1  0.80735000  0.62372700  0.33824200  1
  Rb  Rb7  1  0.19265000  0.37627300  0.83824200  1
  Rb  Rb8  1  0.81218600  0.17612900  0.71310300  1
  Rb  Rb9  1  0.18781400  0.82387100  0.21310300  1
  Rb  Rb10  1  0.81218600  0.32387100  0.21310300  1
  Rb  Rb11  1  0.18781400  0.67612900  0.71310300  1
  Rb  Rb12  1  0.80512100  0.33443000  0.56428700  1
  Rb  Rb13  1  0.19487900  0.66557000  0.06428700  1
  Rb  Rb14  1  0.80512100  0.16557000  0.06428700  1
  Rb  Rb15  1  0.19487900  0.83443000  0.56428700  1
  Ge  Ge16  1  0.65703600  0.58007900  0.63226100  1
  Ge  Ge17  1  0.34296400  0.41992100  0.13226100  1
  Ge  Ge18  1  0.65703600  0.91992100  0.13226100  1
  Ge  Ge19  1  0.34296400  0.08007900  0.63226100  1
  P  P20  1  0.69752100  0.59514000  0.77947400  1
  P  P21  1  0.30247900  0.40486000  0.27947400  1
  P  P22  1  0.69752100  0.90486000  0.27947400  1
  P  P23  1  0.30247900  0.09514000  0.77947400  1
  P  P24  1  0.24899900  0.95131400  0.74411600  1
  P  P25  1  0.75100100  0.04868600  0.24411600  1
  P  P26  1  0.24899900  0.54868600  0.24411600  1
  P  P27  1  0.75100100  0.45131400  0.74411600  1
  P  P28  1  0.85392500  0.60788000  0.50023900  1
  P  P29  1  0.14607500  0.39212000  0.00023900  1
  P  P30  1  0.85392500  0.89212000  0.00023900  1
  P  P31  1  0.14607500  0.10788000  0.50023900  1
  P  P32  1  0.62904800  0.71062100  0.51617200  1
  P  P33  1  0.37095200  0.28937900  0.01617200  1
  P  P34  1  0.62904800  0.78937900  0.01617200  1
  P  P35  1  0.37095200  0.21062100  0.51617200  1
  Se  Se36  1  0.44428500  0.59486300  0.81927200  1
  Se  Se37  1  0.55571500  0.40513700  0.31927200  1
  Se  Se38  1  0.44428500  0.90513700  0.31927200  1
  Se  Se39  1  0.55571500  0.09486300  0.81927200  1
  Se  Se40  1  0.92778600  0.63251800  0.82654200  1
  Se  Se41  1  0.07221400  0.36748200  0.32654200  1
  Se  Se42  1  0.92778600  0.86748200  0.32654200  1
  Se  Se43  1  0.07221400  0.13251800  0.82654200  1
  Se  Se44  1  0.69544900  0.69145600  0.70291300  1
  Se  Se45  1  0.30455100  0.30854400  0.20291300  1
  Se  Se46  1  0.69544900  0.80854400  0.20291300  1
  Se  Se47  1  0.30455100  0.19145600  0.70291300  1
  Se  Se48  1  0.31584000  0.85245700  0.80499100  1
  Se  Se49  1  0.68416000  0.14754300  0.30499100  1
  Se  Se50  1  0.31584000  0.64754300  0.30499100  1
  Se  Se51  1  0.68416000  0.35245700  0.80499100  1
  Se  Se52  1  0.98963100  0.94067900  0.70677900  1
  Se  Se53  1  0.01036900  0.05932100  0.20677900  1
  Se  Se54  1  0.98963100  0.55932100  0.20677900  1
  Se  Se55  1  0.01036900  0.44067900  0.70677900  1
  Se  Se56  1  0.45973100  0.94539000  0.67565100  1
  Se  Se57  1  0.54026900  0.05461000  0.17565100  1
  Se  Se58  1  0.45973100  0.55461000  0.17565100  1
  Se  Se59  1  0.54026900  0.44539000  0.67565100  1
  Se  Se60  1  0.94085500  0.56685300  0.58756100  1
  Se  Se61  1  0.05914500  0.43314700  0.08756100  1
  Se  Se62  1  0.94085500  0.93314700  0.08756100  1
  Se  Se63  1  0.05914500  0.06685300  0.58756100  1
  Se  Se64  1  0.76209000  0.01238600  0.95754500  1
  Se  Se65  1  0.23791000  0.98761400  0.45754500  1
  Se  Se66  1  0.76209000  0.48761400  0.45754500  1
  Se  Se67  1  0.23791000  0.51238600  0.95754500  1
  Se  Se68  1  0.92820500  0.31776400  0.96414000  1
  Se  Se69  1  0.07179500  0.68223600  0.46414000  1
  Se  Se70  1  0.92820500  0.18223600  0.46414000  1
  Se  Se71  1  0.07179500  0.81776400  0.96414000  1
  Se  Se72  1  0.43586100  0.61490700  0.56556400  1
  Se  Se73  1  0.56413900  0.38509300  0.06556400  1
  Se  Se74  1  0.43586100  0.88509300  0.06556400  1
  Se  Se75  1  0.56413900  0.11490700  0.56556400  1
  Se  Se76  1  0.51229300  0.75515800  0.93985200  1
  Se  Se77  1  0.48770700  0.24484200  0.43985200  1
  Se  Se78  1  0.51229300  0.74484200  0.43985200  1
  Se  Se79  1  0.48770700  0.25515800  0.93985200  1
  Se  Se80  1  0.71489700  0.82006800  0.56884600  1
  Se  Se81  1  0.28510300  0.17993200  0.06884600  1
  Se  Se82  1  0.71489700  0.67993200  0.06884600  1
  Se  Se83  1  0.28510300  0.32006800  0.56884600  1
