# generated using pymatgen
data_Mg149Au
_symmetry_space_group_name_H-M   'P 1'
_cell_length_a   15.87246352
_cell_length_b   15.87246893
_cell_length_c   15.57582258
_cell_angle_alpha   90.00000000
_cell_angle_beta   90.00000000
_cell_angle_gamma   120.00001566
_symmetry_Int_Tables_number   1
_chemical_formula_structural   Mg149Au
_chemical_formula_sum   'Mg149 Au1'
_cell_volume   3398.36778371
_cell_formula_units_Z   1
loop_
 _symmetry_equiv_pos_site_id
 _symmetry_equiv_pos_as_xyz
  1  'x, y, z'
loop_
 _atom_site_type_symbol
 _atom_site_label
 _atom_site_symmetry_multiplicity
 _atom_site_fract_x
 _atom_site_fract_y
 _atom_site_fract_z
 _atom_site_occupancy
  Mg  Mg0  1  0.39902303  0.00003263  -0.00000000  1
  Mg  Mg1  1  0.60100960  0.00003263  0.00000000  1
  Mg  Mg2  1  0.19530960  0.00156771  -0.00000000  1
  Mg  Mg3  1  0.80625911  0.00156771  -0.00000000  1
  Mg  Mg4  1  0.99843229  0.19374189  0.00000000  1
  Mg  Mg5  1  0.19530960  0.19374189  0.00000000  1
  Mg  Mg6  1  0.80076175  0.19923825  -0.00000000  1
  Mg  Mg7  1  0.39847649  0.19923825  -0.00000000  1
  Mg  Mg8  1  0.59983590  0.19967280  -0.00000000  1
  Mg  Mg9  1  0.19874742  0.39749485  0.00000000  1
  Mg  Mg10  1  0.39902303  0.39898940  -0.00000000  1
  Mg  Mg11  1  0.99996737  0.39899040  -0.00000000  1
  Mg  Mg12  1  0.80032720  0.40016410  0.00000000  1
  Mg  Mg13  1  0.59983590  0.40016410  0.00000000  1
  Mg  Mg14  1  0.19975768  0.59987884  0.00000000  1
  Mg  Mg15  1  0.40012116  0.59987884  0.00000000  1
  Mg  Mg16  1  0.99996737  0.60097797  0.00000000  1
  Mg  Mg17  1  0.60100960  0.60097697  0.00000000  1
  Mg  Mg18  1  0.80076175  0.60152351  -0.00000000  1
  Mg  Mg19  1  0.40012116  0.80024232  -0.00000000  1
  Mg  Mg20  1  0.60250515  0.80125258  -0.00000000  1
  Mg  Mg21  1  0.19874742  0.80125258  -0.00000000  1
  Mg  Mg22  1  0.99843229  0.80469040  0.00000000  1
  Mg  Mg23  1  0.80625911  0.80469040  0.00000000  1
  Mg  Mg24  1  0.06486190  0.12972381  0.16193636  1
  Mg  Mg25  1  0.87027619  0.93513810  0.16193636  1
  Mg  Mg26  1  0.06486190  0.93513810  0.16193636  1
  Mg  Mg27  1  0.06602265  0.33151416  0.16578243  1
  Mg  Mg28  1  0.26549152  0.33151416  0.16578243  1
  Mg  Mg29  1  0.06602265  0.73450848  0.16578243  1
  Mg  Mg30  1  0.66848584  0.73450848  0.16578243  1
  Mg  Mg31  1  0.26549152  0.93397735  0.16578243  1
  Mg  Mg32  1  0.66848584  0.93397735  0.16578243  1
  Mg  Mg33  1  0.26630987  0.53261973  0.16622337  1
  Mg  Mg34  1  0.26630987  0.73368913  0.16622337  1
  Mg  Mg35  1  0.46738027  0.73369013  0.16622337  1
  Mg  Mg36  1  0.06661613  0.53330806  0.16627923  1
  Mg  Mg37  1  0.46669194  0.53330806  0.16627923  1
  Mg  Mg38  1  0.46669194  0.93338287  0.16627923  1
  Mg  Mg39  1  0.46704659  0.13348997  0.16659280  1
  Mg  Mg40  1  0.66644338  0.13348997  0.16659280  1
  Mg  Mg41  1  0.46704659  0.33355662  0.16659280  1
  Mg  Mg42  1  0.86651103  0.33355762  0.16659280  1
  Mg  Mg43  1  0.86651103  0.53295341  0.16659280  1
  Mg  Mg44  1  0.66644338  0.53295341  0.16659280  1
  Mg  Mg45  1  0.66666700  0.33333300  0.16669361  1
  Mg  Mg46  1  0.26799883  0.13399992  0.16738901  1
  Mg  Mg47  1  0.86600108  0.13399992  0.16738901  1
  Mg  Mg48  1  0.86600108  0.73200117  0.16738901  1
  Mg  Mg49  1  0.00000000  -0.00000000  0.33162246  1
  Mg  Mg50  1  0.80058705  0.99976300  0.33248376  1
  Mg  Mg51  1  0.19917595  0.99976300  0.33248376  1
  Mg  Mg52  1  0.19917595  0.19941295  0.33248376  1
  Mg  Mg53  1  0.00023700  0.19941395  0.33248376  1
  Mg  Mg54  1  0.00023700  0.80082305  0.33248376  1
  Mg  Mg55  1  0.80058705  0.80082405  0.33248376  1
  Mg  Mg56  1  0.60027672  0.99987135  0.33289718  1
  Mg  Mg57  1  0.39959463  0.99987135  0.33289718  1
  Mg  Mg58  1  0.39959463  0.39972228  0.33289718  1
  Mg  Mg59  1  0.00012865  0.39972328  0.33289718  1
  Mg  Mg60  1  0.60027672  0.60040437  0.33289718  1
  Mg  Mg61  1  0.00012865  0.60040537  0.33289718  1
  Mg  Mg62  1  0.19988072  0.39976244  0.33291636  1
  Mg  Mg63  1  0.60023756  0.80011828  0.33291636  1
  Mg  Mg64  1  0.19988072  0.80011928  0.33291636  1
  Mg  Mg65  1  0.20001614  0.60000757  0.33317832  1
  Mg  Mg66  1  0.39999143  0.60000857  0.33317832  1
  Mg  Mg67  1  0.39999143  0.79998386  0.33317832  1
  Mg  Mg68  1  0.59991920  0.19983741  0.33335446  1
  Mg  Mg69  1  0.80016259  0.40008180  0.33335446  1
  Mg  Mg70  1  0.59991920  0.40008180  0.33335446  1
  Mg  Mg71  1  0.39988094  0.19993997  0.33354319  1
  Mg  Mg72  1  0.80005903  0.19994097  0.33354319  1
  Mg  Mg73  1  0.80005903  0.60011906  0.33354319  1
  Mg  Mg74  1  0.06654975  0.13309950  0.50000000  1
  Mg  Mg75  1  0.26634097  0.13317049  0.50000000  1
  Mg  Mg76  1  0.86682951  0.13317049  0.50000000  1
  Mg  Mg77  1  0.46670156  0.13324701  0.50000000  1
  Mg  Mg78  1  0.66654545  0.13324701  0.50000000  1
  Mg  Mg79  1  0.26652437  0.33295462  0.50000000  1
  Mg  Mg80  1  0.06642925  0.33295462  0.50000000  1
  Mg  Mg81  1  0.66666700  0.33333300  0.50000000  1
  Mg  Mg82  1  0.46670156  0.33345455  0.50000000  1
  Mg  Mg83  1  0.86675299  0.33345555  0.50000000  1
  Mg  Mg84  1  0.26652038  0.53304176  0.50000000  1
  Mg  Mg85  1  0.06652364  0.53326182  0.50000000  1
  Mg  Mg86  1  0.46673818  0.53326182  0.50000000  1
  Mg  Mg87  1  0.66654545  0.53329844  0.50000000  1
  Mg  Mg88  1  0.86675299  0.53329844  0.50000000  1
  Mg  Mg89  1  0.46695824  0.73347862  0.50000000  1
  Mg  Mg90  1  0.26652038  0.73347862  0.50000000  1
  Mg  Mg91  1  0.06642925  0.73347463  0.50000000  1
  Mg  Mg92  1  0.66704538  0.73347463  0.50000000  1
  Mg  Mg93  1  0.86682951  0.73365903  0.50000000  1
  Mg  Mg94  1  0.46673818  0.93347636  0.50000000  1
  Mg  Mg95  1  0.86690050  0.93345025  0.50000000  1
  Mg  Mg96  1  0.06654975  0.93345025  0.50000000  1
  Mg  Mg97  1  0.66704538  0.93357075  0.50000000  1
  Mg  Mg98  1  0.26652437  0.93357075  0.50000000  1
  Mg  Mg99  1  0.39988094  0.19993997  0.66645681  1
  Mg  Mg100  1  0.80005903  0.19994097  0.66645681  1
  Mg  Mg101  1  0.80005903  0.60011906  0.66645681  1
  Mg  Mg102  1  0.59991920  0.19983741  0.66664554  1
  Mg  Mg103  1  0.80016259  0.40008180  0.66664554  1
  Mg  Mg104  1  0.59991920  0.40008180  0.66664554  1
  Mg  Mg105  1  0.20001614  0.60000757  0.66682168  1
  Mg  Mg106  1  0.39999143  0.60000857  0.66682168  1
  Mg  Mg107  1  0.39999143  0.79998386  0.66682168  1
  Mg  Mg108  1  0.19988072  0.39976244  0.66708364  1
  Mg  Mg109  1  0.60023756  0.80011828  0.66708364  1
  Mg  Mg110  1  0.19988072  0.80011928  0.66708364  1
  Mg  Mg111  1  0.60027672  0.99987135  0.66710282  1
  Mg  Mg112  1  0.39959463  0.99987135  0.66710282  1
  Mg  Mg113  1  0.39959463  0.39972228  0.66710282  1
  Mg  Mg114  1  0.00012865  0.39972328  0.66710282  1
  Mg  Mg115  1  0.60027672  0.60040437  0.66710282  1
  Mg  Mg116  1  0.00012865  0.60040537  0.66710282  1
  Mg  Mg117  1  0.80058705  0.99976300  0.66751624  1
  Mg  Mg118  1  0.19917595  0.99976300  0.66751624  1
  Mg  Mg119  1  0.19917595  0.19941295  0.66751624  1
  Mg  Mg120  1  0.00023700  0.19941395  0.66751624  1
  Mg  Mg121  1  0.00023700  0.80082305  0.66751624  1
  Mg  Mg122  1  0.80058705  0.80082405  0.66751624  1
  Mg  Mg123  1  0.00000000  -0.00000000  0.66837754  1
  Mg  Mg124  1  0.26799883  0.13399992  0.83261099  1
  Mg  Mg125  1  0.86600108  0.13399992  0.83261099  1
  Mg  Mg126  1  0.86600108  0.73200117  0.83261099  1
  Mg  Mg127  1  0.66666700  0.33333300  0.83330639  1
  Mg  Mg128  1  0.46704659  0.13348997  0.83340720  1
  Mg  Mg129  1  0.66644338  0.13348997  0.83340720  1
  Mg  Mg130  1  0.46704659  0.33355662  0.83340720  1
  Mg  Mg131  1  0.86651103  0.33355762  0.83340720  1
  Mg  Mg132  1  0.86651103  0.53295341  0.83340720  1
  Mg  Mg133  1  0.66644338  0.53295341  0.83340720  1
  Mg  Mg134  1  0.06661613  0.53330806  0.83372077  1
  Mg  Mg135  1  0.46669194  0.53330806  0.83372077  1
  Mg  Mg136  1  0.46669194  0.93338287  0.83372077  1
  Mg  Mg137  1  0.26630987  0.53261973  0.83377663  1
  Mg  Mg138  1  0.26630987  0.73368913  0.83377663  1
  Mg  Mg139  1  0.46738027  0.73369013  0.83377663  1
  Mg  Mg140  1  0.06602265  0.33151416  0.83421757  1
  Mg  Mg141  1  0.26549152  0.33151416  0.83421757  1
  Mg  Mg142  1  0.06602265  0.73450848  0.83421757  1
  Mg  Mg143  1  0.66848584  0.73450848  0.83421757  1
  Mg  Mg144  1  0.26549152  0.93397735  0.83421757  1
  Mg  Mg145  1  0.66848584  0.93397735  0.83421757  1
  Mg  Mg146  1  0.06486190  0.12972381  0.83806364  1
  Mg  Mg147  1  0.87027619  0.93513810  0.83806364  1
  Mg  Mg148  1  0.06486190  0.93513810  0.83806364  1
  Au  Au149  1  0.00000000  -0.00000000  -0.00000000  1
