# generated using pymatgen
data_Pr23Cd4Ru7
_symmetry_space_group_name_H-M   'P 1'
_cell_length_a   10.04929546
_cell_length_b   10.04929546
_cell_length_c   22.59618300
_cell_angle_alpha   90.00000000
_cell_angle_beta   90.00000000
_cell_angle_gamma   119.99999643
_symmetry_Int_Tables_number   1
_chemical_formula_structural   Pr23Cd4Ru7
_chemical_formula_sum   'Pr46 Cd8 Ru14'
_cell_volume   1976.22760153
_cell_formula_units_Z   2
loop_
 _symmetry_equiv_pos_site_id
 _symmetry_equiv_pos_as_xyz
  1  'x, y, z'
loop_
 _atom_site_type_symbol
 _atom_site_label
 _atom_site_symmetry_multiplicity
 _atom_site_fract_x
 _atom_site_fract_y
 _atom_site_fract_z
 _atom_site_occupancy
  Pr  Pr0  1  0.12630700  0.87369300  0.36446400  1
  Pr  Pr1  1  0.74738600  0.87369300  0.36446400  1
  Pr  Pr2  1  0.12630700  0.25261400  0.36446400  1
  Pr  Pr3  1  0.87369300  0.12630700  0.86446400  1
  Pr  Pr4  1  0.25261400  0.12630700  0.86446400  1
  Pr  Pr5  1  0.87369300  0.74738600  0.86446400  1
  Pr  Pr6  1  0.20501900  0.79498100  0.21799000  1
  Pr  Pr7  1  0.58996100  0.79498100  0.21799000  1
  Pr  Pr8  1  0.20501900  0.41003900  0.21799000  1
  Pr  Pr9  1  0.79498100  0.20501900  0.71799000  1
  Pr  Pr10  1  0.41003900  0.20501900  0.71799000  1
  Pr  Pr11  1  0.79498100  0.58996100  0.71799000  1
  Pr  Pr12  1  0.20715500  0.79284500  0.05250700  1
  Pr  Pr13  1  0.58569000  0.79284500  0.05250700  1
  Pr  Pr14  1  0.20715500  0.41431000  0.05250700  1
  Pr  Pr15  1  0.79284500  0.20715500  0.55250700  1
  Pr  Pr16  1  0.41431000  0.20715500  0.55250700  1
  Pr  Pr17  1  0.79284500  0.58569000  0.55250700  1
  Pr  Pr18  1  0.20716100  0.79283900  0.50916100  1
  Pr  Pr19  1  0.58567800  0.79283900  0.50916100  1
  Pr  Pr20  1  0.20716100  0.41432200  0.50916100  1
  Pr  Pr21  1  0.79283900  0.20716100  0.00916100  1
  Pr  Pr22  1  0.41432200  0.20716100  0.00916100  1
  Pr  Pr23  1  0.79283900  0.58567800  0.00916100  1
  Pr  Pr24  1  0.54129600  0.45870400  0.41451300  1
  Pr  Pr25  1  0.91740800  0.45870400  0.41451300  1
  Pr  Pr26  1  0.54129600  0.08259200  0.41451300  1
  Pr  Pr27  1  0.45870400  0.54129600  0.91451300  1
  Pr  Pr28  1  0.08259200  0.54129600  0.91451300  1
  Pr  Pr29  1  0.45870400  0.91740800  0.91451300  1
  Pr  Pr30  1  0.53997100  0.46002900  0.14525200  1
  Pr  Pr31  1  0.92005700  0.46002900  0.14525200  1
  Pr  Pr32  1  0.53997100  0.07994300  0.14525200  1
  Pr  Pr33  1  0.46002900  0.53997100  0.64525200  1
  Pr  Pr34  1  0.07994300  0.53997100  0.64525200  1
  Pr  Pr35  1  0.46002900  0.92005700  0.64525200  1
  Pr  Pr36  1  0.33333300  0.66666700  0.35317300  1
  Pr  Pr37  1  0.66666700  0.33333300  0.85317300  1
  Pr  Pr38  1  0.00000000  0.00000000  0.50069000  1
  Pr  Pr39  1  0.00000000  0.00000000  0.00069000  1
  Pr  Pr40  1  0.79302900  0.20697100  0.28040900  1
  Pr  Pr41  1  0.41394300  0.20697100  0.28040900  1
  Pr  Pr42  1  0.79302900  0.58605700  0.28040900  1
  Pr  Pr43  1  0.20697100  0.79302900  0.78040900  1
  Pr  Pr44  1  0.58605700  0.79302900  0.78040900  1
  Pr  Pr45  1  0.20697100  0.41394300  0.78040900  1
  Cd  Cd46  1  0.89428600  0.10571400  0.13713100  1
  Cd  Cd47  1  0.21142800  0.10571400  0.13713100  1
  Cd  Cd48  1  0.89428600  0.78857200  0.13713100  1
  Cd  Cd49  1  0.10571400  0.89428600  0.63713100  1
  Cd  Cd50  1  0.78857200  0.89428600  0.63713100  1
  Cd  Cd51  1  0.10571400  0.21142800  0.63713100  1
  Cd  Cd52  1  0.00000000  0.00000000  0.24934400  1
  Cd  Cd53  1  0.00000000  0.00000000  0.74934400  1
  Ru  Ru54  1  0.48310000  0.51690000  0.28916000  1
  Ru  Ru55  1  0.03380000  0.51690000  0.28916000  1
  Ru  Ru56  1  0.48310000  0.96620000  0.28916000  1
  Ru  Ru57  1  0.51690000  0.48310000  0.78916000  1
  Ru  Ru58  1  0.96620000  0.48310000  0.78916000  1
  Ru  Ru59  1  0.51690000  0.03380000  0.78916000  1
  Ru  Ru60  1  0.85373000  0.14627000  0.43891600  1
  Ru  Ru61  1  0.29254000  0.14627000  0.43891600  1
  Ru  Ru62  1  0.85373000  0.70746000  0.43891600  1
  Ru  Ru63  1  0.14627000  0.85373000  0.93891600  1
  Ru  Ru64  1  0.70746000  0.85373000  0.93891600  1
  Ru  Ru65  1  0.14627000  0.29254000  0.93891600  1
  Ru  Ru66  1  0.33333300  0.66666700  0.13178400  1
  Ru  Ru67  1  0.66666700  0.33333300  0.63178400  1
