# generated using pymatgen
data_Zr5Ge4
_symmetry_space_group_name_H-M   'P 1'
_cell_length_a   7.30477500
_cell_length_b   7.30477500
_cell_length_c   13.24265500
_cell_angle_alpha   90.00000000
_cell_angle_beta   90.00000000
_cell_angle_gamma   90.00000000
_symmetry_Int_Tables_number   1
_chemical_formula_structural   Zr5Ge4
_chemical_formula_sum   'Zr20 Ge16'
_cell_volume   706.62459858
_cell_formula_units_Z   4
loop_
 _symmetry_equiv_pos_site_id
 _symmetry_equiv_pos_as_xyz
  1  'x, y, z'
loop_
 _atom_site_type_symbol
 _atom_site_label
 _atom_site_symmetry_multiplicity
 _atom_site_fract_x
 _atom_site_fract_y
 _atom_site_fract_z
 _atom_site_occupancy
  Zr  Zr0  1  0.82890100  0.17109900  0.75000000  1
  Zr  Zr1  1  0.17109900  0.82890100  0.25000000  1
  Zr  Zr2  1  0.67109900  0.67109900  0.50000000  1
  Zr  Zr3  1  0.32890100  0.32890100  0.00000000  1
  Zr  Zr4  1  0.99781900  0.34367400  0.52993300  1
  Zr  Zr5  1  0.00218100  0.65632600  0.02993300  1
  Zr  Zr6  1  0.84367400  0.50218100  0.27993300  1
  Zr  Zr7  1  0.15632600  0.49781900  0.77993300  1
  Zr  Zr8  1  0.65632600  0.00218100  0.97006700  1
  Zr  Zr9  1  0.34367400  0.99781900  0.47006700  1
  Zr  Zr10  1  0.50218100  0.84367400  0.72006700  1
  Zr  Zr11  1  0.49781900  0.15632600  0.22006700  1
  Zr  Zr12  1  0.50236500  0.34473100  0.62183300  1
  Zr  Zr13  1  0.49763500  0.65526900  0.12183300  1
  Zr  Zr14  1  0.84473100  0.99763500  0.37183300  1
  Zr  Zr15  1  0.15526900  0.00236500  0.87183300  1
  Zr  Zr16  1  0.65526900  0.49763500  0.87816700  1
  Zr  Zr17  1  0.34473100  0.50236500  0.37816700  1
  Zr  Zr18  1  0.99763500  0.84473100  0.62816700  1
  Zr  Zr19  1  0.00236500  0.15526900  0.12816700  1
  Ge  Ge20  1  0.63993800  0.29928600  0.42051500  1
  Ge  Ge21  1  0.36006200  0.70071400  0.92051500  1
  Ge  Ge22  1  0.79928600  0.86006200  0.17051500  1
  Ge  Ge23  1  0.20071400  0.13993800  0.67051500  1
  Ge  Ge24  1  0.70071400  0.36006200  0.07948500  1
  Ge  Ge25  1  0.29928600  0.63993800  0.57948500  1
  Ge  Ge26  1  0.86006200  0.79928600  0.82948500  1
  Ge  Ge27  1  0.13993800  0.20071400  0.32948500  1
  Ge  Ge28  1  0.69778700  0.03755300  0.56630500  1
  Ge  Ge29  1  0.30221300  0.96244700  0.06630500  1
  Ge  Ge30  1  0.53755300  0.80221300  0.31630500  1
  Ge  Ge31  1  0.46244700  0.19778700  0.81630500  1
  Ge  Ge32  1  0.96244700  0.30221300  0.93369500  1
  Ge  Ge33  1  0.03755300  0.69778700  0.43369500  1
  Ge  Ge34  1  0.80221300  0.53755300  0.68369500  1
  Ge  Ge35  1  0.19778700  0.46244700  0.18369500  1
