# generated using pymatgen
data_Al8(Pb3O7)3
_symmetry_space_group_name_H-M   'P 1'
_cell_length_a   13.47031800
_cell_length_b   13.47031800
_cell_length_c   13.47031800
_cell_angle_alpha   90.00000000
_cell_angle_beta   90.00000000
_cell_angle_gamma   90.00000000
_symmetry_Int_Tables_number   1
_chemical_formula_structural   Al8(Pb3O7)3
_chemical_formula_sum   'Al32 Pb36 O84'
_cell_volume   2444.18202171
_cell_formula_units_Z   4
loop_
 _symmetry_equiv_pos_site_id
 _symmetry_equiv_pos_as_xyz
  1  'x, y, z'
loop_
 _atom_site_type_symbol
 _atom_site_label
 _atom_site_symmetry_multiplicity
 _atom_site_fract_x
 _atom_site_fract_y
 _atom_site_fract_z
 _atom_site_occupancy
  Al  Al0  1  0.21838000  0.45458500  0.10696000  1
  Al  Al1  1  0.10696000  0.21838000  0.45458500  1
  Al  Al2  1  0.45458500  0.10696000  0.21838000  1
  Al  Al3  1  0.04541500  0.89304000  0.71838000  1
  Al  Al4  1  0.60696000  0.28162000  0.54541500  1
  Al  Al5  1  0.54541500  0.60696000  0.28162000  1
  Al  Al6  1  0.39304000  0.78162000  0.95458500  1
  Al  Al7  1  0.89304000  0.71838000  0.04541500  1
  Al  Al8  1  0.95458500  0.39304000  0.78162000  1
  Al  Al9  1  0.71838000  0.04541500  0.89304000  1
  Al  Al10  1  0.78162000  0.95458500  0.39304000  1
  Al  Al11  1  0.28162000  0.54541500  0.60696000  1
  Al  Al12  1  0.78162000  0.54541500  0.89304000  1
  Al  Al13  1  0.89304000  0.78162000  0.54541500  1
  Al  Al14  1  0.54541500  0.89304000  0.78162000  1
  Al  Al15  1  0.95458500  0.10696000  0.28162000  1
  Al  Al16  1  0.39304000  0.71838000  0.45458500  1
  Al  Al17  1  0.45458500  0.39304000  0.71838000  1
  Al  Al18  1  0.60696000  0.21838000  0.04541500  1
  Al  Al19  1  0.10696000  0.28162000  0.95458500  1
  Al  Al20  1  0.04541500  0.60696000  0.21838000  1
  Al  Al21  1  0.28162000  0.95458500  0.10696000  1
  Al  Al22  1  0.21838000  0.04541500  0.60696000  1
  Al  Al23  1  0.71838000  0.45458500  0.39304000  1
  Al  Al24  1  0.07454100  0.07454100  0.07454100  1
  Al  Al25  1  0.42545900  0.92545900  0.57454100  1
  Al  Al26  1  0.57454100  0.42545900  0.92545900  1
  Al  Al27  1  0.92545900  0.57454100  0.42545900  1
  Al  Al28  1  0.92545900  0.92545900  0.92545900  1
  Al  Al29  1  0.57454100  0.07454100  0.42545900  1
  Al  Al30  1  0.42545900  0.57454100  0.07454100  1
  Al  Al31  1  0.07454100  0.42545900  0.57454100  1
  Pb  Pb32  1  0.26537100  0.95682400  0.37654900  1
  Pb  Pb33  1  0.37654900  0.26537100  0.95682400  1
  Pb  Pb34  1  0.95682400  0.37654900  0.26537100  1
  Pb  Pb35  1  0.54317600  0.62345100  0.76537100  1
  Pb  Pb36  1  0.87654900  0.23462900  0.04317600  1
  Pb  Pb37  1  0.04317600  0.87654900  0.23462900  1
  Pb  Pb38  1  0.12345100  0.73462900  0.45682400  1
  Pb  Pb39  1  0.62345100  0.76537100  0.54317600  1
  Pb  Pb40  1  0.45682400  0.12345100  0.73462900  1
  Pb  Pb41  1  0.76537100  0.54317600  0.62345100  1
  Pb  Pb42  1  0.73462900  0.45682400  0.12345100  1
  Pb  Pb43  1  0.23462900  0.04317600  0.87654900  1
  Pb  Pb44  1  0.73462900  0.04317600  0.62345100  1
  Pb  Pb45  1  0.62345100  0.73462900  0.04317600  1
  Pb  Pb46  1  0.04317600  0.62345100  0.73462900  1
  Pb  Pb47  1  0.45682400  0.37654900  0.23462900  1
  Pb  Pb48  1  0.12345100  0.76537100  0.95682400  1
  Pb  Pb49  1  0.95682400  0.12345100  0.76537100  1
  Pb  Pb50  1  0.87654900  0.26537100  0.54317600  1
  Pb  Pb51  1  0.37654900  0.23462900  0.45682400  1
  Pb  Pb52  1  0.54317600  0.87654900  0.26537100  1
  Pb  Pb53  1  0.23462900  0.45682400  0.37654900  1
  Pb  Pb54  1  0.26537100  0.54317600  0.87654900  1
  Pb  Pb55  1  0.76537100  0.95682400  0.12345100  1
  Pb  Pb56  1  0.50000000  0.50000000  0.50000000  1
  Pb  Pb57  1  0.00000000  0.50000000  0.00000000  1
  Pb  Pb58  1  0.00000000  0.00000000  0.50000000  1
  Pb  Pb59  1  0.50000000  0.00000000  0.00000000  1
  Pb  Pb60  1  0.22448200  0.22448200  0.22448200  1
  Pb  Pb61  1  0.27551800  0.77551800  0.72448200  1
  Pb  Pb62  1  0.72448200  0.27551800  0.77551800  1
  Pb  Pb63  1  0.77551800  0.72448200  0.27551800  1
  Pb  Pb64  1  0.77551800  0.77551800  0.77551800  1
  Pb  Pb65  1  0.72448200  0.22448200  0.27551800  1
  Pb  Pb66  1  0.27551800  0.72448200  0.22448200  1
  Pb  Pb67  1  0.22448200  0.27551800  0.72448200  1
  O  O68  1  0.04717100  0.05407400  0.20306400  1
  O  O69  1  0.20306400  0.04717100  0.05407400  1
  O  O70  1  0.05407400  0.20306400  0.04717100  1
  O  O71  1  0.44592600  0.79693600  0.54717100  1
  O  O72  1  0.70306400  0.45282900  0.94592600  1
  O  O73  1  0.94592600  0.70306400  0.45282900  1
  O  O74  1  0.29693600  0.95282900  0.55407400  1
  O  O75  1  0.79693600  0.54717100  0.44592600  1
  O  O76  1  0.55407400  0.29693600  0.95282900  1
  O  O77  1  0.54717100  0.44592600  0.79693600  1
  O  O78  1  0.95282900  0.55407400  0.29693600  1
  O  O79  1  0.45282900  0.94592600  0.70306400  1
  O  O80  1  0.95282900  0.94592600  0.79693600  1
  O  O81  1  0.79693600  0.95282900  0.94592600  1
  O  O82  1  0.94592600  0.79693600  0.95282900  1
  O  O83  1  0.55407400  0.20306400  0.45282900  1
  O  O84  1  0.29693600  0.54717100  0.05407400  1
  O  O85  1  0.05407400  0.29693600  0.54717100  1
  O  O86  1  0.70306400  0.04717100  0.44592600  1
  O  O87  1  0.20306400  0.45282900  0.55407400  1
  O  O88  1  0.44592600  0.70306400  0.04717100  1
  O  O89  1  0.45282900  0.55407400  0.20306400  1
  O  O90  1  0.04717100  0.44592600  0.70306400  1
  O  O91  1  0.54717100  0.05407400  0.29693600  1
  O  O92  1  0.71180900  0.62102900  0.80956200  1
  O  O93  1  0.80956200  0.71180900  0.62102900  1
  O  O94  1  0.62102900  0.80956200  0.71180900  1
  O  O95  1  0.87897100  0.19043800  0.21180900  1
  O  O96  1  0.30956200  0.78819100  0.37897100  1
  O  O97  1  0.37897100  0.30956200  0.78819100  1
  O  O98  1  0.69043800  0.28819100  0.12102900  1
  O  O99  1  0.19043800  0.21180900  0.87897100  1
  O  O100  1  0.12102900  0.69043800  0.28819100  1
  O  O101  1  0.21180900  0.87897100  0.19043800  1
  O  O102  1  0.28819100  0.12102900  0.69043800  1
  O  O103  1  0.78819100  0.37897100  0.30956200  1
  O  O104  1  0.28819100  0.37897100  0.19043800  1
  O  O105  1  0.19043800  0.28819100  0.37897100  1
  O  O106  1  0.37897100  0.19043800  0.28819100  1
  O  O107  1  0.12102900  0.80956200  0.78819100  1
  O  O108  1  0.69043800  0.21180900  0.62102900  1
  O  O109  1  0.62102900  0.69043800  0.21180900  1
  O  O110  1  0.30956200  0.71180900  0.87897100  1
  O  O111  1  0.80956200  0.78819100  0.12102900  1
  O  O112  1  0.87897100  0.30956200  0.71180900  1
  O  O113  1  0.78819100  0.12102900  0.80956200  1
  O  O114  1  0.71180900  0.87897100  0.30956200  1
  O  O115  1  0.21180900  0.62102900  0.69043800  1
  O  O116  1  0.00000000  0.00000000  0.00000000  1
  O  O117  1  0.50000000  0.00000000  0.50000000  1
  O  O118  1  0.50000000  0.50000000  0.00000000  1
  O  O119  1  0.00000000  0.50000000  0.50000000  1
  O  O120  1  0.38484100  0.49334600  0.66961500  1
  O  O121  1  0.66961500  0.38484100  0.49334600  1
  O  O122  1  0.49334600  0.66961500  0.38484100  1
  O  O123  1  0.00665400  0.33038500  0.88484100  1
  O  O124  1  0.16961500  0.11515900  0.50665400  1
  O  O125  1  0.50665400  0.16961500  0.11515900  1
  O  O126  1  0.83038500  0.61515900  0.99334600  1
  O  O127  1  0.33038500  0.88484100  0.00665400  1
  O  O128  1  0.99334600  0.83038500  0.61515900  1
  O  O129  1  0.88484100  0.00665400  0.33038500  1
  O  O130  1  0.61515900  0.99334600  0.83038500  1
  O  O131  1  0.11515900  0.50665400  0.16961500  1
  O  O132  1  0.61515900  0.50665400  0.33038500  1
  O  O133  1  0.33038500  0.61515900  0.50665400  1
  O  O134  1  0.50665400  0.33038500  0.61515900  1
  O  O135  1  0.99334600  0.66961500  0.11515900  1
  O  O136  1  0.83038500  0.88484100  0.49334600  1
  O  O137  1  0.49334600  0.83038500  0.88484100  1
  O  O138  1  0.16961500  0.38484100  0.00665400  1
  O  O139  1  0.66961500  0.11515900  0.99334600  1
  O  O140  1  0.00665400  0.16961500  0.38484100  1
  O  O141  1  0.11515900  0.99334600  0.66961500  1
  O  O142  1  0.38484100  0.00665400  0.16961500  1
  O  O143  1  0.88484100  0.49334600  0.83038500  1
  O  O144  1  0.39219800  0.39219800  0.39219800  1
  O  O145  1  0.10780200  0.60780200  0.89219800  1
  O  O146  1  0.89219800  0.10780200  0.60780200  1
  O  O147  1  0.60780200  0.89219800  0.10780200  1
  O  O148  1  0.60780200  0.60780200  0.60780200  1
  O  O149  1  0.89219800  0.39219800  0.10780200  1
  O  O150  1  0.10780200  0.89219800  0.39219800  1
  O  O151  1  0.39219800  0.10780200  0.89219800  1
