# generated using pymatgen
data_Tb3(P3Pd10)2
_symmetry_space_group_name_H-M   'P 1'
_cell_length_a   8.70646579
_cell_length_b   8.70646579
_cell_length_c   8.70646579
_cell_angle_alpha   60.00000000
_cell_angle_beta   60.00000000
_cell_angle_gamma   60.00000000
_symmetry_Int_Tables_number   1
_chemical_formula_structural   Tb3(P3Pd10)2
_chemical_formula_sum   'Tb3 P6 Pd20'
_cell_volume   466.67087336
_cell_formula_units_Z   1
loop_
 _symmetry_equiv_pos_site_id
 _symmetry_equiv_pos_as_xyz
  1  'x, y, z'
loop_
 _atom_site_type_symbol
 _atom_site_label
 _atom_site_symmetry_multiplicity
 _atom_site_fract_x
 _atom_site_fract_y
 _atom_site_fract_z
 _atom_site_occupancy
  Tb  Tb0  1  0.25000000  0.25000000  0.25000000  1
  Tb  Tb1  1  0.75000000  0.75000000  0.75000000  1
  Tb  Tb2  1  0.00000000  0.00000000  0.00000000  1
  P  P3  1  0.73672900  0.26327100  0.26327100  1
  P  P4  1  0.26327100  0.73672900  0.73672900  1
  P  P5  1  0.26327100  0.73672900  0.26327100  1
  P  P6  1  0.73672900  0.26327100  0.73672900  1
  P  P7  1  0.26327100  0.26327100  0.73672900  1
  P  P8  1  0.73672900  0.73672900  0.26327100  1
  Pd  Pd9  1  0.38474900  0.38474900  0.38474900  1
  Pd  Pd10  1  0.61525100  0.61525100  0.61525100  1
  Pd  Pd11  1  0.38474900  0.38474900  0.84575300  1
  Pd  Pd12  1  0.38474900  0.84575300  0.38474900  1
  Pd  Pd13  1  0.61525100  0.61525100  0.15424700  1
  Pd  Pd14  1  0.61525100  0.15424700  0.61525100  1
  Pd  Pd15  1  0.84575300  0.38474900  0.38474900  1
  Pd  Pd16  1  0.15424700  0.61525100  0.61525100  1
  Pd  Pd17  1  0.34599300  0.00000000  0.00000000  1
  Pd  Pd18  1  0.65400700  0.00000000  0.00000000  1
  Pd  Pd19  1  0.00000000  0.34599300  0.65400700  1
  Pd  Pd20  1  0.00000000  0.65400700  0.34599300  1
  Pd  Pd21  1  0.00000000  0.34599300  0.00000000  1
  Pd  Pd22  1  0.65400700  0.00000000  0.34599300  1
  Pd  Pd23  1  0.00000000  0.65400700  0.00000000  1
  Pd  Pd24  1  0.34599300  0.00000000  0.65400700  1
  Pd  Pd25  1  0.00000000  0.00000000  0.34599300  1
  Pd  Pd26  1  0.00000000  0.00000000  0.65400700  1
  Pd  Pd27  1  0.65400700  0.34599300  0.00000000  1
  Pd  Pd28  1  0.34599300  0.65400700  0.00000000  1
