# generated using pymatgen
data_K2LuF5
_symmetry_space_group_name_H-M   'P 1'
_cell_length_a   6.60975900
_cell_length_b   7.15648400
_cell_length_c   11.06002900
_cell_angle_alpha   90.00000000
_cell_angle_beta   90.00000000
_cell_angle_gamma   90.00000000
_symmetry_Int_Tables_number   1
_chemical_formula_structural   K2LuF5
_chemical_formula_sum   'K8 Lu4 F20'
_cell_volume   523.16850965
_cell_formula_units_Z   4
loop_
 _symmetry_equiv_pos_site_id
 _symmetry_equiv_pos_as_xyz
  1  'x, y, z'
loop_
 _atom_site_type_symbol
 _atom_site_label
 _atom_site_symmetry_multiplicity
 _atom_site_fract_x
 _atom_site_fract_y
 _atom_site_fract_z
 _atom_site_occupancy
  K  K0  1  0.52621600  0.49782800  0.82670600  1
  K  K1  1  0.47378400  0.50217200  0.17329400  1
  K  K2  1  0.02621600  0.50217200  0.67329400  1
  K  K3  1  0.47378400  0.99782800  0.17329400  1
  K  K4  1  0.97378400  0.49782800  0.32670600  1
  K  K5  1  0.52621600  0.00217200  0.82670600  1
  K  K6  1  0.97378400  0.00217200  0.32670600  1
  K  K7  1  0.02621600  0.99782800  0.67329400  1
  Lu  Lu8  1  0.56528200  0.75000000  0.50004900  1
  Lu  Lu9  1  0.43471800  0.25000000  0.49995100  1
  Lu  Lu10  1  0.06528200  0.25000000  0.99995100  1
  Lu  Lu11  1  0.93471800  0.75000000  0.00004900  1
  F  F12  1  0.83417700  0.75000000  0.81248200  1
  F  F13  1  0.16582300  0.25000000  0.18751800  1
  F  F14  1  0.33417700  0.25000000  0.68751800  1
  F  F15  1  0.66582300  0.75000000  0.31248200  1
  F  F16  1  0.37054100  0.75000000  0.65716900  1
  F  F17  1  0.62945900  0.25000000  0.34283100  1
  F  F18  1  0.87054100  0.25000000  0.84283100  1
  F  F19  1  0.12945900  0.75000000  0.15716900  1
  F  F20  1  0.89049000  0.75000000  0.51330200  1
  F  F21  1  0.10951000  0.25000000  0.48669800  1
  F  F22  1  0.39049000  0.25000000  0.98669800  1
  F  F23  1  0.60951000  0.75000000  0.01330200  1
  F  F24  1  0.63994600  0.03390800  0.57727800  1
  F  F25  1  0.36005400  0.96609200  0.42272200  1
  F  F26  1  0.13994600  0.96609200  0.92272200  1
  F  F27  1  0.36005400  0.53390800  0.42272200  1
  F  F28  1  0.86005400  0.03390800  0.07727800  1
  F  F29  1  0.63994600  0.46609200  0.57727800  1
  F  F30  1  0.86005400  0.46609200  0.07727800  1
  F  F31  1  0.13994600  0.53390800  0.92272200  1
