# generated using pymatgen
data_SrGe3Ir
_symmetry_space_group_name_H-M   'P 1'
_cell_length_a   6.02670732
_cell_length_b   6.02670732
_cell_length_c   6.02670732
_cell_angle_alpha   135.91314477
_cell_angle_beta   135.91314477
_cell_angle_gamma   64.11464336
_symmetry_Int_Tables_number   1
_chemical_formula_structural   SrGe3Ir
_chemical_formula_sum   'Sr1 Ge3 Ir1'
_cell_volume   104.52676521
_cell_formula_units_Z   1
loop_
 _symmetry_equiv_pos_site_id
 _symmetry_equiv_pos_as_xyz
  1  'x, y, z'
loop_
 _atom_site_type_symbol
 _atom_site_label
 _atom_site_symmetry_multiplicity
 _atom_site_fract_x
 _atom_site_fract_y
 _atom_site_fract_z
 _atom_site_occupancy
  Sr  Sr0  1  0.00024500  0.00024500  0.00000000  1
  Ge  Ge1  1  0.25313800  0.75313800  0.50000000  1
  Ge  Ge2  1  0.75313800  0.25313800  0.50000000  1
  Ge  Ge3  1  0.41260800  0.41260800  0.00000000  1
  Ir  Ir4  1  0.64987000  0.64987000  0.00000000  1
