# generated using pymatgen
data_Ce5Cu19P12
_symmetry_space_group_name_H-M   'P 1'
_cell_length_a   12.58755001
_cell_length_b   12.58755001
_cell_length_c   3.88898401
_cell_angle_alpha   89.82090763
_cell_angle_beta   89.82090763
_cell_angle_gamma   120.00828326
_symmetry_Int_Tables_number   1
_chemical_formula_structural   Ce5Cu19P12
_chemical_formula_sum   'Ce5 Cu19 P12'
_cell_volume   533.58604573
_cell_formula_units_Z   1
loop_
 _symmetry_equiv_pos_site_id
 _symmetry_equiv_pos_as_xyz
  1  'x, y, z'
loop_
 _atom_site_type_symbol
 _atom_site_label
 _atom_site_symmetry_multiplicity
 _atom_site_fract_x
 _atom_site_fract_y
 _atom_site_fract_z
 _atom_site_occupancy
  Ce  Ce0  1  0.33354300  0.66673400  0.00031300  1
  Ce  Ce1  1  0.66673400  0.33354300  0.00031300  1
  Ce  Ce2  1  0.18628900  0.00011400  0.50047800  1
  Ce  Ce3  1  0.81372500  0.81372500  0.50171900  1
  Ce  Ce4  1  0.00011400  0.18628900  0.50047800  1
  Cu  Cu5  1  0.36037200  0.88182800  0.49139400  1
  Cu  Cu6  1  0.52140300  0.63955600  0.51278900  1
  Cu  Cu7  1  0.11803600  0.47838400  0.48802900  1
  Cu  Cu8  1  0.63955600  0.52140300  0.51278900  1
  Cu  Cu9  1  0.47838400  0.11803600  0.48802900  1
  Cu  Cu10  1  0.88182800  0.36037200  0.49139400  1
  Cu  Cu11  1  0.17359000  0.79356200  0.00507800  1
  Cu  Cu12  1  0.62058000  0.82734500  0.00498200  1
  Cu  Cu13  1  0.20644800  0.38004800  0.99516900  1
  Cu  Cu14  1  0.82734500  0.62058000  0.00498200  1
  Cu  Cu15  1  0.38004800  0.20644800  0.99516900  1
  Cu  Cu16  1  0.79356200  0.17359000  0.00507800  1
  Cu  Cu17  1  0.00007700  0.00007700  0.00127400  1
  Cu  Cu18  1  0.99999600  0.71166800  0.49602600  1
  Cu  Cu19  1  0.71166800  0.99999600  0.49602600  1
  Cu  Cu20  1  0.28807200  0.28807200  0.50358600  1
  Cu  Cu21  1  0.99955800  0.54488400  0.92150700  1
  Cu  Cu22  1  0.54488400  0.99955800  0.92150700  1
  Cu  Cu23  1  0.45469900  0.45469900  0.08045300  1
  P  P24  1  0.17557300  0.17557300  0.00224900  1
  P  P25  1  0.99994600  0.82457500  0.99841100  1
  P  P26  1  0.82457500  0.99994600  0.99841100  1
  P  P27  1  0.31162400  0.48498800  0.49626800  1
  P  P28  1  0.17337100  0.68822900  0.50577200  1
  P  P29  1  0.51528200  0.82674900  0.50317600  1
  P  P30  1  0.68822900  0.17337100  0.50577200  1
  P  P31  1  0.82674900  0.51528200  0.50317600  1
  P  P32  1  0.48498800  0.31162400  0.49626800  1
  P  P33  1  0.36149900  0.99992000  0.99765000  1
  P  P34  1  0.63856900  0.63856900  0.00524100  1
  P  P35  1  0.99992000  0.36149900  0.99765000  1
