# generated using pymatgen
data_Y5(GeSb)2
_symmetry_space_group_name_H-M   'P 1'
_cell_length_a   8.56985708
_cell_length_b   8.56985708
_cell_length_c   7.94436100
_cell_angle_alpha   90.00000000
_cell_angle_beta   90.00000000
_cell_angle_gamma   124.85032647
_symmetry_Int_Tables_number   1
_chemical_formula_structural   Y5(GeSb)2
_chemical_formula_sum   'Y10 Ge4 Sb4'
_cell_volume   478.80958108
_cell_formula_units_Z   2
loop_
 _symmetry_equiv_pos_site_id
 _symmetry_equiv_pos_as_xyz
  1  'x, y, z'
loop_
 _atom_site_type_symbol
 _atom_site_label
 _atom_site_symmetry_multiplicity
 _atom_site_fract_x
 _atom_site_fract_y
 _atom_site_fract_z
 _atom_site_occupancy
  Y  Y0  1  0.03683100  0.29218800  0.33628600  1
  Y  Y1  1  0.96316900  0.70781200  0.66371400  1
  Y  Y2  1  0.46316900  0.20781200  0.83628600  1
  Y  Y3  1  0.79218800  0.53683100  0.16371400  1
  Y  Y4  1  0.53683100  0.79218800  0.16371400  1
  Y  Y5  1  0.20781200  0.46316900  0.83628600  1
  Y  Y6  1  0.70781200  0.96316900  0.66371400  1
  Y  Y7  1  0.29218800  0.03683100  0.33628600  1
  Y  Y8  1  0.00000000  0.00000000  0.00000000  1
  Y  Y9  1  0.50000000  0.50000000  0.50000000  1
  Ge  Ge10  1  0.36172200  0.36172200  0.13704500  1
  Ge  Ge11  1  0.63827800  0.63827800  0.86295500  1
  Ge  Ge12  1  0.13827800  0.13827800  0.63704500  1
  Ge  Ge13  1  0.86172200  0.86172200  0.36295500  1
  Sb  Sb14  1  0.79515300  0.20484700  0.00000000  1
  Sb  Sb15  1  0.20484700  0.79515300  0.00000000  1
  Sb  Sb16  1  0.70484700  0.29515300  0.50000000  1
  Sb  Sb17  1  0.29515300  0.70484700  0.50000000  1
