# generated using pymatgen
data_Na4Sr2TiAs4
_symmetry_space_group_name_H-M   'P 1'
_cell_length_a   9.64395328
_cell_length_b   9.64395328
_cell_length_c   7.62299773
_cell_angle_alpha   89.91494680
_cell_angle_beta   89.91494680
_cell_angle_gamma   120.12822572
_symmetry_Int_Tables_number   1
_chemical_formula_structural   Na4Sr2TiAs4
_chemical_formula_sum   'Na8 Sr4 Ti2 As8'
_cell_volume   613.19993220
_cell_formula_units_Z   2
loop_
 _symmetry_equiv_pos_site_id
 _symmetry_equiv_pos_as_xyz
  1  'x, y, z'
loop_
 _atom_site_type_symbol
 _atom_site_label
 _atom_site_symmetry_multiplicity
 _atom_site_fract_x
 _atom_site_fract_y
 _atom_site_fract_z
 _atom_site_occupancy
  Na  Na0  1  0.47199100  0.94152100  0.38397900  1
  Na  Na1  1  0.94152100  0.47199100  0.88397900  1
  Na  Na2  1  0.86620100  0.72821800  0.20924300  1
  Na  Na3  1  0.27632700  0.13116400  0.22313600  1
  Na  Na4  1  0.85538100  0.13339800  0.21872300  1
  Na  Na5  1  0.13116400  0.27632700  0.72313600  1
  Na  Na6  1  0.72821800  0.86620100  0.70924300  1
  Na  Na7  1  0.13339800  0.85538100  0.71872300  1
  Sr  Sr8  1  0.05543000  0.53263800  0.38822900  1
  Sr  Sr9  1  0.47772200  0.53531500  0.38701200  1
  Sr  Sr10  1  0.53263800  0.05543000  0.88822900  1
  Sr  Sr11  1  0.53531500  0.47772200  0.88701200  1
  Ti  Ti12  1  0.66360000  0.32712500  0.49789300  1
  Ti  Ti13  1  0.32712500  0.66360000  0.99789300  1
  As  As14  1  0.19385000  0.38285200  0.10669100  1
  As  As15  1  0.61579500  0.80668700  0.09608100  1
  As  As16  1  0.19291600  0.80962700  0.10035800  1
  As  As17  1  0.80668700  0.61579500  0.59608100  1
  As  As18  1  0.38285200  0.19385000  0.60669100  1
  As  As19  1  0.80962700  0.19291600  0.60035800  1
  As  As20  1  0.66533200  0.33692400  0.17095300  1
  As  As21  1  0.33692400  0.66533200  0.67095300  1
