# generated using pymatgen
data_PrSn2
_symmetry_space_group_name_H-M   'P 1'
_cell_length_a   8.30860105
_cell_length_b   8.30860105
_cell_length_c   4.70114200
_cell_angle_alpha   90.00000000
_cell_angle_beta   90.00000000
_cell_angle_gamma   148.17067036
_symmetry_Int_Tables_number   1
_chemical_formula_structural   PrSn2
_chemical_formula_sum   'Pr2 Sn4'
_cell_volume   171.15583903
_cell_formula_units_Z   2
loop_
 _symmetry_equiv_pos_site_id
 _symmetry_equiv_pos_as_xyz
  1  'x, y, z'
loop_
 _atom_site_type_symbol
 _atom_site_label
 _atom_site_symmetry_multiplicity
 _atom_site_fract_x
 _atom_site_fract_y
 _atom_site_fract_z
 _atom_site_occupancy
  Pr  Pr0  1  0.85416100  0.14583900  0.50000000  1
  Pr  Pr1  1  0.14583900  0.85416100  0.50000000  1
  Sn  Sn2  1  0.68196200  0.31803800  0.00000000  1
  Sn  Sn3  1  0.31803800  0.68196200  0.00000000  1
  Sn  Sn4  1  0.50000000  0.50000000  0.50000000  1
  Sn  Sn5  1  0.00000000  0.00000000  0.00000000  1
