# generated using pymatgen
data_YFeCo
_symmetry_space_group_name_H-M   'P 1'
_cell_length_a   5.11866107
_cell_length_b   5.11866107
_cell_length_c   5.11866107
_cell_angle_alpha   88.70830664
_cell_angle_beta   61.68949859
_cell_angle_gamma   120.21246942
_symmetry_Int_Tables_number   1
_chemical_formula_structural   YFeCo
_chemical_formula_sum   'Y2 Fe2 Co2'
_cell_volume   95.83191875
_cell_formula_units_Z   2
loop_
 _symmetry_equiv_pos_site_id
 _symmetry_equiv_pos_as_xyz
  1  'x, y, z'
loop_
 _atom_site_type_symbol
 _atom_site_label
 _atom_site_symmetry_multiplicity
 _atom_site_fract_x
 _atom_site_fract_y
 _atom_site_fract_z
 _atom_site_occupancy
  Y  Y0  1  0.50000000  0.74935100  0.75064900  1
  Y  Y1  1  0.00000000  0.00064900  0.99935100  1
  Fe  Fe2  1  0.25000000  0.87500000  0.37500000  1
  Fe  Fe3  1  0.75000000  0.37500000  0.37500000  1
  Co  Co4  1  0.75000000  0.37500000  0.87500000  1
  Co  Co5  1  0.25000000  0.37500000  0.37500000  1
