# generated using pymatgen
data_Sm3Si6N11
_symmetry_space_group_name_H-M   'P 1'
_cell_length_a   10.07025800
_cell_length_b   10.07025800
_cell_length_c   4.89353900
_cell_angle_alpha   90.00000000
_cell_angle_beta   90.00000000
_cell_angle_gamma   90.00000000
_symmetry_Int_Tables_number   1
_chemical_formula_structural   Sm3Si6N11
_chemical_formula_sum   'Sm6 Si12 N22'
_cell_volume   496.25426068
_cell_formula_units_Z   2
loop_
 _symmetry_equiv_pos_site_id
 _symmetry_equiv_pos_as_xyz
  1  'x, y, z'
loop_
 _atom_site_type_symbol
 _atom_site_label
 _atom_site_symmetry_multiplicity
 _atom_site_fract_x
 _atom_site_fract_y
 _atom_site_fract_z
 _atom_site_occupancy
  Sm  Sm0  1  0.50000000  0.50000000  0.98164500  1
  Sm  Sm1  1  0.00000000  0.00000000  0.98164500  1
  Sm  Sm2  1  0.81756900  0.31756900  0.99500700  1
  Sm  Sm3  1  0.31756900  0.18243100  0.99500700  1
  Sm  Sm4  1  0.68243100  0.81756900  0.99500700  1
  Sm  Sm5  1  0.18243100  0.68243100  0.99500700  1
  Si  Si6  1  0.38180900  0.88180900  0.04414800  1
  Si  Si7  1  0.88180900  0.61819100  0.04414800  1
  Si  Si8  1  0.11819100  0.38180900  0.04414800  1
  Si  Si9  1  0.61819100  0.11819100  0.04414800  1
  Si  Si10  1  0.70832700  0.57983800  0.53238800  1
  Si  Si11  1  0.29167300  0.42016200  0.53238800  1
  Si  Si12  1  0.42016200  0.70832700  0.53238800  1
  Si  Si13  1  0.57983800  0.29167300  0.53238800  1
  Si  Si14  1  0.92016200  0.79167300  0.53238800  1
  Si  Si15  1  0.79167300  0.07983800  0.53238800  1
  Si  Si16  1  0.20832700  0.92016200  0.53238800  1
  Si  Si17  1  0.07983800  0.20832700  0.53238800  1
  N  N18  1  0.50000000  0.00000000  0.07195600  1
  N  N19  1  0.00000000  0.50000000  0.07195600  1
  N  N20  1  0.34620500  0.84620500  0.69764700  1
  N  N21  1  0.84620500  0.65379500  0.69764700  1
  N  N22  1  0.15379500  0.34620500  0.69764700  1
  N  N23  1  0.65379500  0.15379500  0.69764700  1
  N  N24  1  0.72661500  0.57780000  0.17897700  1
  N  N25  1  0.27338500  0.42220000  0.17897700  1
  N  N26  1  0.42220000  0.72661500  0.17897700  1
  N  N27  1  0.57780000  0.27338500  0.17897700  1
  N  N28  1  0.92220000  0.77338500  0.17897700  1
  N  N29  1  0.77338500  0.07780000  0.17897700  1
  N  N30  1  0.22661500  0.92220000  0.17897700  1
  N  N31  1  0.07780000  0.22661500  0.17897700  1
  N  N32  1  0.57901400  0.68034300  0.64896900  1
  N  N33  1  0.42098600  0.31965700  0.64896900  1
  N  N34  1  0.31965700  0.57901400  0.64896900  1
  N  N35  1  0.68034300  0.42098600  0.64896900  1
  N  N36  1  0.18034300  0.07901400  0.64896900  1
  N  N37  1  0.07901400  0.81965700  0.64896900  1
  N  N38  1  0.92098600  0.18034300  0.64896900  1
  N  N39  1  0.81965700  0.92098600  0.64896900  1
