# generated using pymatgen
data_SrU2S5
_symmetry_space_group_name_H-M   'P 1'
_cell_length_a   7.42338500
_cell_length_b   8.25206400
_cell_length_c   11.62675401
_cell_angle_alpha   89.69846376
_cell_angle_beta   90.00000000
_cell_angle_gamma   90.00000000
_symmetry_Int_Tables_number   1
_chemical_formula_structural   SrU2S5
_chemical_formula_sum   'Sr4 U8 S20'
_cell_volume   712.22471875
_cell_formula_units_Z   4
loop_
 _symmetry_equiv_pos_site_id
 _symmetry_equiv_pos_as_xyz
  1  'x, y, z'
loop_
 _atom_site_type_symbol
 _atom_site_label
 _atom_site_symmetry_multiplicity
 _atom_site_fract_x
 _atom_site_fract_y
 _atom_site_fract_z
 _atom_site_occupancy
  Sr  Sr0  1  0.04724100  0.49190800  0.32941400  1
  Sr  Sr1  1  0.54724100  0.50809200  0.17058600  1
  Sr  Sr2  1  0.95275900  0.50809200  0.67058600  1
  Sr  Sr3  1  0.45275900  0.49190800  0.82941400  1
  U  U4  1  0.01924000  0.00077300  0.31856800  1
  U  U5  1  0.51924000  0.99922700  0.18143200  1
  U  U6  1  0.98076000  0.99922700  0.68143200  1
  U  U7  1  0.48076000  0.00077300  0.81856800  1
  U  U8  1  0.07118800  0.75447200  0.00885500  1
  U  U9  1  0.57118800  0.24552800  0.49114500  1
  U  U10  1  0.92881200  0.24552800  0.99114500  1
  U  U11  1  0.42881200  0.75447200  0.50885500  1
  S  S12  1  0.66276600  0.95523200  0.40218000  1
  S  S13  1  0.16276600  0.04476800  0.09782000  1
  S  S14  1  0.33723400  0.04476800  0.59782000  1
  S  S15  1  0.83723400  0.95523200  0.90218000  1
  S  S16  1  0.45336900  0.78461800  0.00136500  1
  S  S17  1  0.95336900  0.21538200  0.49863500  1
  S  S18  1  0.54663100  0.21538200  0.99863500  1
  S  S19  1  0.04663100  0.78461800  0.50136500  1
  S  S20  1  0.83590700  0.77695500  0.18819400  1
  S  S21  1  0.33590700  0.22304500  0.31180600  1
  S  S22  1  0.16409300  0.22304500  0.81180600  1
  S  S23  1  0.66409300  0.77695500  0.68819400  1
  S  S24  1  0.30789200  0.76672900  0.28385600  1
  S  S25  1  0.80789200  0.23327100  0.21614400  1
  S  S26  1  0.69210800  0.23327100  0.71614400  1
  S  S27  1  0.19210800  0.76672900  0.78385600  1
  S  S28  1  0.17494000  0.46035300  0.07799100  1
  S  S29  1  0.67494000  0.53964700  0.42200900  1
  S  S30  1  0.82506000  0.53964700  0.92200900  1
  S  S31  1  0.32506000  0.46035300  0.57799100  1
