# generated using pymatgen
data_GdReB4
_symmetry_space_group_name_H-M   'P 1'
_cell_length_a   3.63174500
_cell_length_b   5.99425900
_cell_length_c   11.60624000
_cell_angle_alpha   90.00000000
_cell_angle_beta   90.00000000
_cell_angle_gamma   90.00000000
_symmetry_Int_Tables_number   1
_chemical_formula_structural   GdReB4
_chemical_formula_sum   'Gd4 Re4 B16'
_cell_volume   252.66343619
_cell_formula_units_Z   4
loop_
 _symmetry_equiv_pos_site_id
 _symmetry_equiv_pos_as_xyz
  1  'x, y, z'
loop_
 _atom_site_type_symbol
 _atom_site_label
 _atom_site_symmetry_multiplicity
 _atom_site_fract_x
 _atom_site_fract_y
 _atom_site_fract_z
 _atom_site_occupancy
  Gd  Gd0  1  0.00000000  0.62609300  0.34936600  1
  Gd  Gd1  1  0.00000000  0.37390700  0.65063400  1
  Gd  Gd2  1  0.00000000  0.12609300  0.15063400  1
  Gd  Gd3  1  0.00000000  0.87390700  0.84936600  1
  Re  Re4  1  0.00000000  0.63233500  0.08691600  1
  Re  Re5  1  0.00000000  0.36766500  0.91308400  1
  Re  Re6  1  0.00000000  0.13233500  0.41308400  1
  Re  Re7  1  0.00000000  0.86766500  0.58691600  1
  B  B8  1  0.50000000  0.78663300  0.18433100  1
  B  B9  1  0.50000000  0.21336700  0.81566900  1
  B  B10  1  0.50000000  0.28663300  0.31566900  1
  B  B11  1  0.50000000  0.71336700  0.68433100  1
  B  B12  1  0.50000000  0.86292200  0.03151200  1
  B  B13  1  0.50000000  0.13707800  0.96848800  1
  B  B14  1  0.50000000  0.36292200  0.46848800  1
  B  B15  1  0.50000000  0.63707800  0.53151200  1
  B  B16  1  0.50000000  0.88655700  0.45305700  1
  B  B17  1  0.50000000  0.11344300  0.54694300  1
  B  B18  1  0.50000000  0.38655700  0.04694300  1
  B  B19  1  0.50000000  0.61344300  0.95305700  1
  B  B20  1  0.50000000  0.97745400  0.30866200  1
  B  B21  1  0.50000000  0.02254600  0.69133800  1
  B  B22  1  0.50000000  0.47745400  0.19133800  1
  B  B23  1  0.50000000  0.52254600  0.80866200  1
