# generated using pymatgen
data_Rb3Cd(BO2)5
_symmetry_space_group_name_H-M   'P 1'
_cell_length_a   20.49062500
_cell_length_b   8.02796800
_cell_length_c   8.47821773
_cell_angle_alpha   58.92346931
_cell_angle_beta   90.00000000
_cell_angle_gamma   90.00000000
_symmetry_Int_Tables_number   1
_chemical_formula_structural   Rb3Cd(BO2)5
_chemical_formula_sum   'Rb12 Cd4 B20 O40'
_cell_volume   1194.48834516
_cell_formula_units_Z   4
loop_
 _symmetry_equiv_pos_site_id
 _symmetry_equiv_pos_as_xyz
  1  'x, y, z'
loop_
 _atom_site_type_symbol
 _atom_site_label
 _atom_site_symmetry_multiplicity
 _atom_site_fract_x
 _atom_site_fract_y
 _atom_site_fract_z
 _atom_site_occupancy
  Rb  Rb0  1  0.57880700  0.67168800  0.98304500  1
  Rb  Rb1  1  0.92119300  0.67168800  0.48304500  1
  Rb  Rb2  1  0.42119300  0.32831200  0.01695500  1
  Rb  Rb3  1  0.07880700  0.32831200  0.51695500  1
  Rb  Rb4  1  0.56403100  0.68653000  0.52311000  1
  Rb  Rb5  1  0.93596900  0.68653000  0.02311000  1
  Rb  Rb6  1  0.43596900  0.31347000  0.47689000  1
  Rb  Rb7  1  0.06403100  0.31347000  0.97689000  1
  Rb  Rb8  1  0.75385600  0.28861800  0.20366700  1
  Rb  Rb9  1  0.74614400  0.28861800  0.70366700  1
  Rb  Rb10  1  0.24614400  0.71138200  0.79633300  1
  Rb  Rb11  1  0.25385600  0.71138200  0.29633300  1
  Cd  Cd12  1  0.60793500  0.17210700  0.50540600  1
  Cd  Cd13  1  0.89206500  0.17210700  0.00540600  1
  Cd  Cd14  1  0.39206500  0.82789300  0.49459400  1
  Cd  Cd15  1  0.10793500  0.82789300  0.99459400  1
  B  B16  1  0.58073300  0.18278900  0.85915900  1
  B  B17  1  0.91926700  0.18278900  0.35915900  1
  B  B18  1  0.41926700  0.81721100  0.14084100  1
  B  B19  1  0.08073300  0.81721100  0.64084100  1
  B  B20  1  0.57824000  0.18230100  0.15211600  1
  B  B21  1  0.92176000  0.18230100  0.65211600  1
  B  B22  1  0.42176000  0.81769900  0.84788400  1
  B  B23  1  0.07824000  0.81769900  0.34788400  1
  B  B24  1  0.71860700  0.85536600  0.66752400  1
  B  B25  1  0.78139300  0.85536600  0.16752400  1
  B  B26  1  0.28139300  0.14463400  0.33247600  1
  B  B27  1  0.21860700  0.14463400  0.83247600  1
  B  B28  1  0.66376000  0.97863000  0.11142600  1
  B  B29  1  0.83624000  0.97863000  0.61142600  1
  B  B30  1  0.33624000  0.02137000  0.88857400  1
  B  B31  1  0.16376000  0.02137000  0.38857400  1
  B  B32  1  0.69084600  0.61808100  0.28764400  1
  B  B33  1  0.80915400  0.61808100  0.78764400  1
  B  B34  1  0.30915400  0.38191900  0.71235600  1
  B  B35  1  0.19084600  0.38191900  0.21235600  1
  O  O36  1  0.55438200  0.24470900  0.69174900  1
  O  O37  1  0.94561800  0.24470900  0.19174900  1
  O  O38  1  0.44561800  0.75529100  0.30825100  1
  O  O39  1  0.05438200  0.75529100  0.80825100  1
  O  O40  1  0.65349700  0.88448900  0.64904800  1
  O  O41  1  0.84650300  0.88448900  0.14904800  1
  O  O42  1  0.34650300  0.11551100  0.35095200  1
  O  O43  1  0.15349700  0.11551100  0.85095200  1
  O  O44  1  0.64640200  0.77027300  0.21892200  1
  O  O45  1  0.85359800  0.77027300  0.71892200  1
  O  O46  1  0.35359800  0.22972700  0.78107800  1
  O  O47  1  0.14640200  0.22972700  0.28107800  1
  O  O48  1  0.75845000  0.66045300  0.26565200  1
  O  O49  1  0.74155000  0.66045300  0.76565200  1
  O  O50  1  0.24155000  0.33954700  0.73434800  1
  O  O51  1  0.25845000  0.33954700  0.23434800  1
  O  O52  1  0.54642700  0.23213500  0.26188500  1
  O  O53  1  0.95357300  0.23213500  0.76188500  1
  O  O54  1  0.45357300  0.76786500  0.73811500  1
  O  O55  1  0.04642700  0.76786500  0.23811500  1
  O  O56  1  0.44694600  0.75309100  0.02685400  1
  O  O57  1  0.05305400  0.75309100  0.52685400  1
  O  O58  1  0.55305400  0.24690900  0.97314600  1
  O  O59  1  0.94694600  0.24690900  0.47314600  1
  O  O60  1  0.73542800  0.00465300  0.09686500  1
  O  O61  1  0.76457200  0.00465300  0.59686500  1
  O  O62  1  0.26457200  0.99534700  0.90313500  1
  O  O63  1  0.23542800  0.99534700  0.40313500  1
  O  O64  1  0.86483300  0.06338400  0.42400400  1
  O  O65  1  0.63516700  0.06338400  0.92400400  1
  O  O66  1  0.13516700  0.93661600  0.57599600  1
  O  O67  1  0.36483300  0.93661600  0.07599600  1
  O  O68  1  0.67160600  0.43190900  0.37225000  1
  O  O69  1  0.82839400  0.43190900  0.87225000  1
  O  O70  1  0.32839400  0.56809100  0.62775000  1
  O  O71  1  0.17160600  0.56809100  0.12775000  1
  O  O72  1  0.63568600  0.07621100  0.20482100  1
  O  O73  1  0.86431400  0.07621100  0.70482100  1
  O  O74  1  0.36431400  0.92378900  0.79517900  1
  O  O75  1  0.13568600  0.92378900  0.29517900  1
