# generated using pymatgen
data_Tb5(Ge5Ir2)2
_symmetry_space_group_name_H-M   'P 1'
_cell_length_a   13.04759400
_cell_length_b   13.04759400
_cell_length_c   4.36635200
_cell_angle_alpha   90.00000000
_cell_angle_beta   90.00000000
_cell_angle_gamma   90.00000000
_symmetry_Int_Tables_number   1
_chemical_formula_structural   Tb5(Ge5Ir2)2
_chemical_formula_sum   'Tb10 Ge20 Ir8'
_cell_volume   743.32649470
_cell_formula_units_Z   2
loop_
 _symmetry_equiv_pos_site_id
 _symmetry_equiv_pos_as_xyz
  1  'x, y, z'
loop_
 _atom_site_type_symbol
 _atom_site_label
 _atom_site_symmetry_multiplicity
 _atom_site_fract_x
 _atom_site_fract_y
 _atom_site_fract_z
 _atom_site_occupancy
  Tb  Tb0  1  0.50000000  0.50000000  0.00000000  1
  Tb  Tb1  1  0.00000000  0.00000000  0.00000000  1
  Tb  Tb2  1  0.67467100  0.17467100  0.50000000  1
  Tb  Tb3  1  0.32532900  0.82532900  0.50000000  1
  Tb  Tb4  1  0.17467100  0.32532900  0.50000000  1
  Tb  Tb5  1  0.82532900  0.67467100  0.50000000  1
  Tb  Tb6  1  0.88385900  0.38385900  0.50000000  1
  Tb  Tb7  1  0.11614100  0.61614100  0.50000000  1
  Tb  Tb8  1  0.38385900  0.11614100  0.50000000  1
  Tb  Tb9  1  0.61614100  0.88385900  0.50000000  1
  Ge  Ge10  1  0.56672000  0.06672000  0.00000000  1
  Ge  Ge11  1  0.43328000  0.93328000  0.00000000  1
  Ge  Ge12  1  0.06672000  0.43328000  0.00000000  1
  Ge  Ge13  1  0.93328000  0.56672000  0.00000000  1
  Ge  Ge14  1  0.66258400  0.70044400  0.00000000  1
  Ge  Ge15  1  0.33741600  0.29955600  0.00000000  1
  Ge  Ge16  1  0.16258400  0.79955600  0.00000000  1
  Ge  Ge17  1  0.83741600  0.20044400  0.00000000  1
  Ge  Ge18  1  0.29955600  0.66258400  0.00000000  1
  Ge  Ge19  1  0.70044400  0.33741600  0.00000000  1
  Ge  Ge20  1  0.20044400  0.16258400  0.00000000  1
  Ge  Ge21  1  0.79955600  0.83741600  0.00000000  1
  Ge  Ge22  1  0.65737800  0.50808800  0.50000000  1
  Ge  Ge23  1  0.34262200  0.49191200  0.50000000  1
  Ge  Ge24  1  0.15737800  0.99191200  0.50000000  1
  Ge  Ge25  1  0.84262200  0.00808800  0.50000000  1
  Ge  Ge26  1  0.49191200  0.65737800  0.50000000  1
  Ge  Ge27  1  0.50808800  0.34262200  0.50000000  1
  Ge  Ge28  1  0.00808800  0.15737800  0.50000000  1
  Ge  Ge29  1  0.99191200  0.84262200  0.50000000  1
  Ir  Ir30  1  0.74591700  0.52158400  0.00000000  1
  Ir  Ir31  1  0.25408300  0.47841600  0.00000000  1
  Ir  Ir32  1  0.24591700  0.97841600  0.00000000  1
  Ir  Ir33  1  0.75408300  0.02158400  0.00000000  1
  Ir  Ir34  1  0.47841600  0.74591700  0.00000000  1
  Ir  Ir35  1  0.52158400  0.25408300  0.00000000  1
  Ir  Ir36  1  0.02158400  0.24591700  0.00000000  1
  Ir  Ir37  1  0.97841600  0.75408300  0.00000000  1
