# generated using pymatgen
data_RbCr(SO4)2
_symmetry_space_group_name_H-M   'P 1'
_cell_length_a   4.90082033
_cell_length_b   4.90082000
_cell_length_c   34.33077800
_cell_angle_alpha   90.00000000
_cell_angle_beta   90.00000000
_cell_angle_gamma   60.00000222
_symmetry_Int_Tables_number   1
_chemical_formula_structural   RbCr(SO4)2
_chemical_formula_sum   'Rb4 Cr4 S8 O32'
_cell_volume   714.08813934
_cell_formula_units_Z   4
loop_
 _symmetry_equiv_pos_site_id
 _symmetry_equiv_pos_as_xyz
  1  'x, y, z'
loop_
 _atom_site_type_symbol
 _atom_site_label
 _atom_site_symmetry_multiplicity
 _atom_site_fract_x
 _atom_site_fract_y
 _atom_site_fract_z
 _atom_site_occupancy
  Rb  Rb0  1  0.00000000  0.00000000  0.00000000  1
  Rb  Rb1  1  0.00000000  0.00000000  0.50000000  1
  Rb  Rb2  1  0.00000000  0.00000000  0.25000000  1
  Rb  Rb3  1  0.00000000  0.00000000  0.75000000  1
  Cr  Cr4  1  0.00000000  0.00000000  0.87500000  1
  Cr  Cr5  1  0.00000000  0.00000000  0.62500000  1
  Cr  Cr6  1  0.00000000  0.00000000  0.37500000  1
  Cr  Cr7  1  0.00000000  0.00000000  0.12500000  1
  S  S8  1  0.33333400  0.33333300  0.42453500  1
  S  S9  1  0.33333400  0.33333300  0.92453500  1
  S  S10  1  0.66666600  0.66666700  0.07546500  1
  S  S11  1  0.66666600  0.66666700  0.57546500  1
  S  S12  1  0.33333400  0.33333300  0.17453500  1
  S  S13  1  0.33333400  0.33333300  0.67453500  1
  S  S14  1  0.66666600  0.66666700  0.32546500  1
  S  S15  1  0.66666600  0.66666700  0.82546500  1
  O  O16  1  0.33333400  0.33333300  0.46713600  1
  O  O17  1  0.33333400  0.33333300  0.96713600  1
  O  O18  1  0.66666600  0.66666700  0.03286400  1
  O  O19  1  0.66666600  0.66666700  0.53286400  1
  O  O20  1  0.33333400  0.33333300  0.21713600  1
  O  O21  1  0.33333400  0.33333300  0.71713600  1
  O  O22  1  0.66666600  0.66666700  0.28286400  1
  O  O23  1  0.66666600  0.66666700  0.78286400  1
  O  O24  1  0.71190400  0.92973700  0.33994100  1
  O  O25  1  0.71190400  0.92973700  0.83994100  1
  O  O26  1  0.92973700  0.35835900  0.33994100  1
  O  O27  1  0.92973700  0.35835900  0.83994100  1
  O  O28  1  0.64164100  0.07026300  0.16005900  1
  O  O29  1  0.64164100  0.07026300  0.66005900  1
  O  O30  1  0.35835900  0.71190400  0.33994100  1
  O  O31  1  0.35835900  0.71190400  0.83994100  1
  O  O32  1  0.28809600  0.64164100  0.16005900  1
  O  O33  1  0.28809600  0.64164100  0.66005900  1
  O  O34  1  0.07026300  0.28809600  0.16005900  1
  O  O35  1  0.07026300  0.28809600  0.66005900  1
  O  O36  1  0.64164100  0.28809600  0.41005900  1
  O  O37  1  0.64164100  0.28809600  0.91005900  1
  O  O38  1  0.28809600  0.07026300  0.41005900  1
  O  O39  1  0.28809600  0.07026300  0.91005900  1
  O  O40  1  0.92973700  0.71190400  0.08994100  1
  O  O41  1  0.92973700  0.71190400  0.58994100  1
  O  O42  1  0.07026300  0.64164100  0.41005900  1
  O  O43  1  0.07026300  0.64164100  0.91005900  1
  O  O44  1  0.35835900  0.92973700  0.08994100  1
  O  O45  1  0.35835900  0.92973700  0.58994100  1
  O  O46  1  0.71190400  0.35835900  0.08994100  1
  O  O47  1  0.71190400  0.35835900  0.58994100  1
