# generated using pymatgen
data_Pr3(NiGe)4
_symmetry_space_group_name_H-M   'P 1'
_cell_length_a   4.16747200
_cell_length_b   4.17389200
_cell_length_c   12.38237659
_cell_angle_alpha   80.29696253
_cell_angle_beta   80.31203108
_cell_angle_gamma   90.00000000
_symmetry_Int_Tables_number   1
_chemical_formula_structural   Pr3(NiGe)4
_chemical_formula_sum   'Pr3 Ni4 Ge4'
_cell_volume   209.18811743
_cell_formula_units_Z   1
loop_
 _symmetry_equiv_pos_site_id
 _symmetry_equiv_pos_as_xyz
  1  'x, y, z'
loop_
 _atom_site_type_symbol
 _atom_site_label
 _atom_site_symmetry_multiplicity
 _atom_site_fract_x
 _atom_site_fract_y
 _atom_site_fract_z
 _atom_site_occupancy
  Pr  Pr0  1  0.34925600  0.84925600  0.30148800  1
  Pr  Pr1  1  0.65074400  0.15074400  0.69851200  1
  Pr  Pr2  1  0.00000000  0.00000000  0.00000000  1
  Ni  Ni3  1  0.24850600  0.24850600  0.50298900  1
  Ni  Ni4  1  0.75149400  0.75149400  0.49701100  1
  Ni  Ni5  1  0.09922800  0.59922800  0.80154400  1
  Ni  Ni6  1  0.90077200  0.40077200  0.19845600  1
  Ge  Ge7  1  0.19858500  0.69858500  0.60283000  1
  Ge  Ge8  1  0.80141500  0.30141500  0.39717000  1
  Ge  Ge9  1  0.44664900  0.44664900  0.10670100  1
  Ge  Ge10  1  0.55335100  0.55335100  0.89329900  1
