# generated using pymatgen
data_Rb2MoO4
_symmetry_space_group_name_H-M   'P 1'
_cell_length_a   7.28569477
_cell_length_b   7.28569477
_cell_length_c   8.03918948
_cell_angle_alpha   66.92580853
_cell_angle_beta   66.92580853
_cell_angle_gamma   52.34766551
_symmetry_Int_Tables_number   1
_chemical_formula_structural   Rb2MoO4
_chemical_formula_sum   'Rb4 Mo2 O8'
_cell_volume   303.93786406
_cell_formula_units_Z   2
loop_
 _symmetry_equiv_pos_site_id
 _symmetry_equiv_pos_as_xyz
  1  'x, y, z'
loop_
 _atom_site_type_symbol
 _atom_site_label
 _atom_site_symmetry_multiplicity
 _atom_site_fract_x
 _atom_site_fract_y
 _atom_site_fract_z
 _atom_site_occupancy
  Rb  Rb0  1  0.15646200  0.15646200  0.25210600  1
  Rb  Rb1  1  0.84353800  0.84353800  0.74789400  1
  Rb  Rb2  1  0.51334400  0.51334400  0.76154000  1
  Rb  Rb3  1  0.48665600  0.48665600  0.23846000  1
  Mo  Mo4  1  0.82399600  0.82399600  0.22488400  1
  Mo  Mo5  1  0.17600400  0.17600400  0.77511600  1
  O  O6  1  0.62851300  0.08520700  0.08245600  1
  O  O7  1  0.91479300  0.37148700  0.91754400  1
  O  O8  1  0.37148700  0.91479300  0.91754400  1
  O  O9  1  0.08520700  0.62851300  0.08245600  1
  O  O10  1  0.32644000  0.32644000  0.62791000  1
  O  O11  1  0.67356000  0.67356000  0.37209000  1
  O  O12  1  0.90566800  0.90566800  0.35584100  1
  O  O13  1  0.09433200  0.09433200  0.64415900  1
