# generated using pymatgen
data_LuGaPt
_symmetry_space_group_name_H-M   'P 1'
_cell_length_a   4.35475200
_cell_length_b   6.74963100
_cell_length_c   7.77443700
_cell_angle_alpha   90.00000000
_cell_angle_beta   90.00000000
_cell_angle_gamma   90.00000000
_symmetry_Int_Tables_number   1
_chemical_formula_structural   LuGaPt
_chemical_formula_sum   'Lu4 Ga4 Pt4'
_cell_volume   228.51378648
_cell_formula_units_Z   4
loop_
 _symmetry_equiv_pos_site_id
 _symmetry_equiv_pos_as_xyz
  1  'x, y, z'
loop_
 _atom_site_type_symbol
 _atom_site_label
 _atom_site_symmetry_multiplicity
 _atom_site_fract_x
 _atom_site_fract_y
 _atom_site_fract_z
 _atom_site_occupancy
  Lu  Lu0  1  0.25000000  0.96699500  0.31942500  1
  Lu  Lu1  1  0.25000000  0.46699500  0.18057500  1
  Lu  Lu2  1  0.75000000  0.03300500  0.68057500  1
  Lu  Lu3  1  0.75000000  0.53300500  0.81942500  1
  Ga  Ga4  1  0.25000000  0.35246300  0.55839000  1
  Ga  Ga5  1  0.25000000  0.85246300  0.94161000  1
  Ga  Ga6  1  0.75000000  0.64753700  0.44161000  1
  Ga  Ga7  1  0.75000000  0.14753700  0.05839000  1
  Pt  Pt8  1  0.25000000  0.23652100  0.87584000  1
  Pt  Pt9  1  0.25000000  0.73652100  0.62416000  1
  Pt  Pt10  1  0.75000000  0.76347900  0.12416000  1
  Pt  Pt11  1  0.75000000  0.26347900  0.37584000  1
