# generated using pymatgen
data_U3(Al3Fe)4
_symmetry_space_group_name_H-M   'P 1'
_cell_length_a   8.69099212
_cell_length_b   8.69099212
_cell_length_c   9.24189800
_cell_angle_alpha   90.00000000
_cell_angle_beta   90.00000000
_cell_angle_gamma   120.00000095
_symmetry_Int_Tables_number   1
_chemical_formula_structural   U3(Al3Fe)4
_chemical_formula_sum   'U6 Al24 Fe8'
_cell_volume   604.54761385
_cell_formula_units_Z   2
loop_
 _symmetry_equiv_pos_site_id
 _symmetry_equiv_pos_as_xyz
  1  'x, y, z'
loop_
 _atom_site_type_symbol
 _atom_site_label
 _atom_site_symmetry_multiplicity
 _atom_site_fract_x
 _atom_site_fract_y
 _atom_site_fract_z
 _atom_site_occupancy
  U  U0  1  0.79795800  0.20204200  0.75000000  1
  U  U1  1  0.20204200  0.79795800  0.25000000  1
  U  U2  1  0.40408400  0.20204200  0.75000000  1
  U  U3  1  0.59591600  0.79795800  0.25000000  1
  U  U4  1  0.79795800  0.59591600  0.75000000  1
  U  U5  1  0.20204200  0.40408400  0.25000000  1
  Al  Al6  1  0.66666700  0.33333300  0.99070500  1
  Al  Al7  1  0.33333300  0.66666700  0.00929500  1
  Al  Al8  1  0.33333300  0.66666700  0.49070500  1
  Al  Al9  1  0.66666700  0.33333300  0.50929500  1
  Al  Al10  1  0.84103000  0.15897000  0.42207700  1
  Al  Al11  1  0.15897000  0.84103000  0.57792300  1
  Al  Al12  1  0.31794000  0.15897000  0.42207700  1
  Al  Al13  1  0.15897000  0.84103000  0.92207700  1
  Al  Al14  1  0.68206000  0.84103000  0.57792300  1
  Al  Al15  1  0.84103000  0.15897000  0.07792300  1
  Al  Al16  1  0.84103000  0.68206000  0.42207700  1
  Al  Al17  1  0.68206000  0.84103000  0.92207700  1
  Al  Al18  1  0.15897000  0.31794000  0.57792300  1
  Al  Al19  1  0.31794000  0.15897000  0.07792300  1
  Al  Al20  1  0.15897000  0.31794000  0.92207700  1
  Al  Al21  1  0.84103000  0.68206000  0.07792300  1
  Al  Al22  1  0.43933600  0.56066400  0.75000000  1
  Al  Al23  1  0.56066400  0.43933600  0.25000000  1
  Al  Al24  1  0.12132800  0.56066400  0.75000000  1
  Al  Al25  1  0.87867200  0.43933600  0.25000000  1
  Al  Al26  1  0.43933600  0.87867200  0.75000000  1
  Al  Al27  1  0.56066400  0.12132800  0.25000000  1
  Al  Al28  1  0.00000000  0.00000000  0.75000000  1
  Al  Al29  1  0.00000000  0.00000000  0.25000000  1
  Fe  Fe30  1  0.50000000  0.50000000  0.00000000  1
  Fe  Fe31  1  0.00000000  0.50000000  0.00000000  1
  Fe  Fe32  1  0.50000000  0.50000000  0.50000000  1
  Fe  Fe33  1  0.50000000  0.00000000  0.00000000  1
  Fe  Fe34  1  0.00000000  0.50000000  0.50000000  1
  Fe  Fe35  1  0.50000000  0.00000000  0.50000000  1
  Fe  Fe36  1  0.00000000  0.00000000  0.00000000  1
  Fe  Fe37  1  0.00000000  0.00000000  0.50000000  1
