# generated using pymatgen
data_Cs3SbO4
_symmetry_space_group_name_H-M   'P 1'
_cell_length_a   6.96410100
_cell_length_b   9.46303500
_cell_length_c   13.15372500
_cell_angle_alpha   90.00000000
_cell_angle_beta   90.00000000
_cell_angle_gamma   90.00000000
_symmetry_Int_Tables_number   1
_chemical_formula_structural   Cs3SbO4
_chemical_formula_sum   'Cs12 Sb4 O16'
_cell_volume   866.85062252
_cell_formula_units_Z   4
loop_
 _symmetry_equiv_pos_site_id
 _symmetry_equiv_pos_as_xyz
  1  'x, y, z'
loop_
 _atom_site_type_symbol
 _atom_site_label
 _atom_site_symmetry_multiplicity
 _atom_site_fract_x
 _atom_site_fract_y
 _atom_site_fract_z
 _atom_site_occupancy
  Cs  Cs0  1  0.70274000  0.00688100  0.14406100  1
  Cs  Cs1  1  0.79726000  0.49311900  0.64406100  1
  Cs  Cs2  1  0.29726000  0.50688100  0.85593900  1
  Cs  Cs3  1  0.20274000  0.99311900  0.35593900  1
  Cs  Cs4  1  0.29726000  0.99311900  0.85593900  1
  Cs  Cs5  1  0.20274000  0.50688100  0.35593900  1
  Cs  Cs6  1  0.70274000  0.49311900  0.14406100  1
  Cs  Cs7  1  0.79726000  0.00688100  0.64406100  1
  Cs  Cs8  1  0.15510700  0.25000000  0.08191000  1
  Cs  Cs9  1  0.34489300  0.25000000  0.58191000  1
  Cs  Cs10  1  0.84489300  0.75000000  0.91809000  1
  Cs  Cs11  1  0.65510700  0.75000000  0.41809000  1
  Sb  Sb12  1  0.27812300  0.75000000  0.11416800  1
  Sb  Sb13  1  0.22187700  0.75000000  0.61416800  1
  Sb  Sb14  1  0.72187700  0.25000000  0.88583200  1
  Sb  Sb15  1  0.77812300  0.25000000  0.38583200  1
  O  O16  1  0.43218400  0.75000000  0.23544500  1
  O  O17  1  0.06781600  0.75000000  0.73544500  1
  O  O18  1  0.56781600  0.25000000  0.76455500  1
  O  O19  1  0.93218400  0.25000000  0.26455500  1
  O  O20  1  0.44930300  0.75000000  0.99913100  1
  O  O21  1  0.05069700  0.75000000  0.49913100  1
  O  O22  1  0.55069700  0.25000000  0.00086900  1
  O  O23  1  0.94930300  0.25000000  0.50086900  1
  O  O24  1  0.12374700  0.58247600  0.11222700  1
  O  O25  1  0.37625300  0.91752400  0.61222700  1
  O  O26  1  0.87625300  0.08247600  0.88777300  1
  O  O27  1  0.62374700  0.41752400  0.38777300  1
  O  O28  1  0.87625300  0.41752400  0.88777300  1
  O  O29  1  0.62374700  0.08247600  0.38777300  1
  O  O30  1  0.12374700  0.91752400  0.11222700  1
  O  O31  1  0.37625300  0.58247600  0.61222700  1
