# generated using pymatgen
data_KMnBP2H2O9
_symmetry_space_group_name_H-M   'P 1'
_cell_length_a   6.70923751
_cell_length_b   9.94567305
_cell_length_c   12.32136800
_cell_angle_alpha   90.00000000
_cell_angle_beta   90.00000000
_cell_angle_gamma   108.52059541
_symmetry_Int_Tables_number   1
_chemical_formula_structural   KMnBP2H2O9
_chemical_formula_sum   'K4 Mn4 B4 P8 H8 O36'
_cell_volume   779.59777723
_cell_formula_units_Z   4
loop_
 _symmetry_equiv_pos_site_id
 _symmetry_equiv_pos_as_xyz
  1  'x, y, z'
loop_
 _atom_site_type_symbol
 _atom_site_label
 _atom_site_symmetry_multiplicity
 _atom_site_fract_x
 _atom_site_fract_y
 _atom_site_fract_z
 _atom_site_occupancy
  K  K0  1  0.35063200  0.87862700  0.82957900  1
  K  K1  1  0.64936800  0.62137300  0.32957900  1
  K  K2  1  0.64936800  0.12137300  0.17042100  1
  K  K3  1  0.35063200  0.37862700  0.67042100  1
  Mn  Mn4  1  0.10379900  0.90678200  0.58579600  1
  Mn  Mn5  1  0.89620100  0.59321800  0.08579600  1
  Mn  Mn6  1  0.89620100  0.09321800  0.41420400  1
  Mn  Mn7  1  0.10379900  0.40678200  0.91420400  1
  B  B8  1  0.22737600  0.65184200  0.46897700  1
  B  B9  1  0.77262400  0.84815800  0.96897700  1
  B  B10  1  0.77262400  0.34815800  0.53102300  1
  B  B11  1  0.22737600  0.15184200  0.03102300  1
  P  P12  1  0.99992700  0.56313100  0.66348300  1
  P  P13  1  0.00007300  0.93686900  0.16348300  1
  P  P14  1  0.00007300  0.43686900  0.33651700  1
  P  P15  1  0.99992700  0.06313100  0.83651700  1
  P  P16  1  0.56577800  0.83271600  0.57068700  1
  P  P17  1  0.43422200  0.66728400  0.07068700  1
  P  P18  1  0.43422200  0.16728400  0.42931300  1
  P  P19  1  0.56577800  0.33271600  0.92931300  1
  H  H20  1  0.13244200  0.79150800  0.38067500  1
  H  H21  1  0.86755800  0.70849200  0.88067500  1
  H  H22  1  0.86755800  0.20849200  0.61932500  1
  H  H23  1  0.13244200  0.29150800  0.11932500  1
  H  H24  1  0.72728700  0.71406500  0.67105100  1
  H  H25  1  0.27271300  0.78593500  0.17105100  1
  H  H26  1  0.27271300  0.28593500  0.32894900  1
  H  H27  1  0.72728700  0.21406500  0.82894900  1
  O  O28  1  0.95690800  0.70510900  0.67859600  1
  O  O29  1  0.04309200  0.79489100  0.17859600  1
  O  O30  1  0.04309200  0.29489100  0.32140400  1
  O  O31  1  0.95690800  0.20510900  0.82140400  1
  O  O32  1  0.42777200  0.91637800  0.61247700  1
  O  O33  1  0.57222800  0.58362200  0.11247700  1
  O  O34  1  0.57222800  0.08362200  0.38752300  1
  O  O35  1  0.42777200  0.41637800  0.88752300  1
  O  O36  1  0.09694500  0.74456300  0.45099300  1
  O  O37  1  0.90305500  0.75543700  0.95099300  1
  O  O38  1  0.90305500  0.25543700  0.54900700  1
  O  O39  1  0.09694500  0.24456300  0.04900700  1
  O  O40  1  0.08058100  0.01374400  0.73408600  1
  O  O41  1  0.91941900  0.48625600  0.23408600  1
  O  O42  1  0.91941900  0.98625600  0.26591400  1
  O  O43  1  0.08058100  0.51374400  0.76591400  1
  O  O44  1  0.78819400  0.91758800  0.53196600  1
  O  O45  1  0.21180600  0.58241200  0.03196600  1
  O  O46  1  0.21180600  0.08241200  0.46803400  1
  O  O47  1  0.78819400  0.41758800  0.96803400  1
  O  O48  1  0.17023300  0.57532600  0.57274000  1
  O  O49  1  0.82976700  0.92467400  0.07274000  1
  O  O50  1  0.82976700  0.42467400  0.42726000  1
  O  O51  1  0.17023300  0.07532600  0.92726000  1
  O  O52  1  0.21038900  0.54977000  0.37844500  1
  O  O53  1  0.78961100  0.95023000  0.87844500  1
  O  O54  1  0.78961100  0.45023000  0.62155500  1
  O  O55  1  0.21038900  0.04977000  0.12155500  1
  O  O56  1  0.45572700  0.73444700  0.47235300  1
  O  O57  1  0.54427300  0.76555300  0.97235300  1
  O  O58  1  0.54427300  0.26555300  0.52764700  1
  O  O59  1  0.45572700  0.23444700  0.02764700  1
  O  O60  1  0.58560600  0.73097400  0.66689800  1
  O  O61  1  0.41439400  0.76902600  0.16689800  1
  O  O62  1  0.41439400  0.26902600  0.33310200  1
  O  O63  1  0.58560600  0.23097400  0.83310200  1
