# generated using pymatgen
data_Lu(SiOs)2
_symmetry_space_group_name_H-M   'P 1'
_cell_length_a   5.59653169
_cell_length_b   5.59653169
_cell_length_c   5.59653169
_cell_angle_alpha   136.17784166
_cell_angle_beta   136.17784166
_cell_angle_gamma   63.70550878
_symmetry_Int_Tables_number   1
_chemical_formula_structural   Lu(SiOs)2
_chemical_formula_sum   'Lu1 Si2 Os2'
_cell_volume   82.93535447
_cell_formula_units_Z   1
loop_
 _symmetry_equiv_pos_site_id
 _symmetry_equiv_pos_as_xyz
  1  'x, y, z'
loop_
 _atom_site_type_symbol
 _atom_site_label
 _atom_site_symmetry_multiplicity
 _atom_site_fract_x
 _atom_site_fract_y
 _atom_site_fract_z
 _atom_site_occupancy
  Lu  Lu0  1  0.00000000  0.00000000  0.00000000  1
  Si  Si1  1  0.62724400  0.62724400  0.00000000  1
  Si  Si2  1  0.37275600  0.37275600  0.00000000  1
  Os  Os3  1  0.75000000  0.25000000  0.50000000  1
  Os  Os4  1  0.25000000  0.75000000  0.50000000  1
