# generated using pymatgen
data_SCl4
_symmetry_space_group_name_H-M   'P 1'
_cell_length_a   16.93319940
_cell_length_b   16.93319940
_cell_length_c   16.93319940
_cell_angle_alpha   90.00000000
_cell_angle_beta   90.00000000
_cell_angle_gamma   90.00000000
_symmetry_Int_Tables_number   1
_chemical_formula_structural   SCl4
_chemical_formula_sum   'S32 Cl128'
_cell_volume   4855.31116004
_cell_formula_units_Z   32
loop_
 _symmetry_equiv_pos_site_id
 _symmetry_equiv_pos_as_xyz
  1  'x, y, z'
loop_
 _atom_site_type_symbol
 _atom_site_label
 _atom_site_symmetry_multiplicity
 _atom_site_fract_x
 _atom_site_fract_y
 _atom_site_fract_z
 _atom_site_occupancy
  S  S0  1  0.08734832  0.08734832  0.08734832  1
  S  S1  1  0.91265168  0.91265168  0.08734832  1
  S  S2  1  0.91265168  0.08734832  0.91265168  1
  S  S3  1  0.58734832  0.58734832  0.58734832  1
  S  S4  1  0.08734832  0.91265168  0.91265168  1
  S  S5  1  0.41265168  0.41265168  0.58734832  1
  S  S6  1  0.58734832  0.41265168  0.41265168  1
  S  S7  1  0.41265168  0.58734832  0.41265168  1
  S  S8  1  0.08965535  0.40268311  0.32883199  1
  S  S9  1  0.91034465  0.59731689  0.32883199  1
  S  S10  1  0.91034465  0.40268311  0.67116801  1
  S  S11  1  0.32883199  0.08965535  0.40268311  1
  S  S12  1  0.90268311  0.58965535  0.82883199  1
  S  S13  1  0.08965535  0.59731689  0.67116801  1
  S  S14  1  0.32883199  0.91034465  0.59731689  1
  S  S15  1  0.09731689  0.41034465  0.82883199  1
  S  S16  1  0.67116801  0.91034465  0.40268311  1
  S  S17  1  0.90268311  0.41034465  0.17116801  1
  S  S18  1  0.67116801  0.08965535  0.59731689  1
  S  S19  1  0.09731689  0.58965535  0.17116801  1
  S  S20  1  0.40268311  0.32883199  0.08965535  1
  S  S21  1  0.58965535  0.82883199  0.90268311  1
  S  S22  1  0.40268311  0.67116801  0.91034465  1
  S  S23  1  0.41034465  0.17116801  0.90268311  1
  S  S24  1  0.59731689  0.67116801  0.08965535  1
  S  S25  1  0.58965535  0.17116801  0.09731689  1
  S  S26  1  0.59731689  0.32883199  0.91034465  1
  S  S27  1  0.41034465  0.82883199  0.09731689  1
  S  S28  1  0.82883199  0.90268311  0.58965535  1
  S  S29  1  0.82883199  0.09731689  0.41034465  1
  S  S30  1  0.17116801  0.09731689  0.58965535  1
  S  S31  1  0.17116801  0.90268311  0.41034465  1
  Cl  Cl32  1  0.07449886  0.28155746  0.31745195  1
  Cl  Cl33  1  0.92550114  0.71844254  0.31745195  1
  Cl  Cl34  1  0.92550114  0.28155746  0.68254805  1
  Cl  Cl35  1  0.31745195  0.07449886  0.28155746  1
  Cl  Cl36  1  0.78155746  0.57449886  0.81745195  1
  Cl  Cl37  1  0.07449886  0.71844254  0.68254805  1
  Cl  Cl38  1  0.31745195  0.92550114  0.71844254  1
  Cl  Cl39  1  0.21844254  0.42550114  0.81745195  1
  Cl  Cl40  1  0.68254805  0.92550114  0.28155746  1
  Cl  Cl41  1  0.78155746  0.42550114  0.18254805  1
  Cl  Cl42  1  0.68254805  0.07449886  0.71844254  1
  Cl  Cl43  1  0.21844254  0.57449886  0.18254805  1
  Cl  Cl44  1  0.28155746  0.31745195  0.07449886  1
  Cl  Cl45  1  0.57449886  0.81745195  0.78155746  1
  Cl  Cl46  1  0.28155746  0.68254805  0.92550114  1
  Cl  Cl47  1  0.42550114  0.18254805  0.78155746  1
  Cl  Cl48  1  0.71844254  0.68254805  0.07449886  1
  Cl  Cl49  1  0.57449886  0.18254805  0.21844254  1
  Cl  Cl50  1  0.71844254  0.31745195  0.92550114  1
  Cl  Cl51  1  0.42550114  0.81745195  0.21844254  1
  Cl  Cl52  1  0.81745195  0.78155746  0.57449886  1
  Cl  Cl53  1  0.81745195  0.21844254  0.42550114  1
  Cl  Cl54  1  0.18254805  0.21844254  0.57449886  1
  Cl  Cl55  1  0.18254805  0.78155746  0.42550114  1
  Cl  Cl56  1  0.04741741  0.09546871  0.59224645  1
  Cl  Cl57  1  0.95258259  0.90453129  0.59224645  1
  Cl  Cl58  1  0.95258259  0.09546871  0.40775355  1
  Cl  Cl59  1  0.59224645  0.04741741  0.09546871  1
  Cl  Cl60  1  0.59546871  0.54741741  0.09224645  1
  Cl  Cl61  1  0.04741741  0.90453129  0.40775355  1
  Cl  Cl62  1  0.59224645  0.95258259  0.90453129  1
  Cl  Cl63  1  0.40453129  0.45258259  0.09224645  1
  Cl  Cl64  1  0.40775355  0.95258259  0.09546871  1
  Cl  Cl65  1  0.59546871  0.45258259  0.90775355  1
  Cl  Cl66  1  0.40775355  0.04741741  0.90453129  1
  Cl  Cl67  1  0.40453129  0.54741741  0.90775355  1
  Cl  Cl68  1  0.09546871  0.59224645  0.04741741  1
  Cl  Cl69  1  0.54741741  0.09224645  0.59546871  1
  Cl  Cl70  1  0.09546871  0.40775355  0.95258259  1
  Cl  Cl71  1  0.45258259  0.90775355  0.59546871  1
  Cl  Cl72  1  0.90453129  0.40775355  0.04741741  1
  Cl  Cl73  1  0.54741741  0.90775355  0.40453129  1
  Cl  Cl74  1  0.90453129  0.59224645  0.95258259  1
  Cl  Cl75  1  0.45258259  0.09224645  0.40453129  1
  Cl  Cl76  1  0.09224645  0.59546871  0.54741741  1
  Cl  Cl77  1  0.09224645  0.40453129  0.45258259  1
  Cl  Cl78  1  0.90775355  0.40453129  0.54741741  1
  Cl  Cl79  1  0.90775355  0.59546871  0.45258259  1
  Cl  Cl80  1  0.07831036  0.08110477  0.21009495  1
  Cl  Cl81  1  0.92168964  0.91889523  0.21009495  1
  Cl  Cl82  1  0.92168964  0.08110477  0.78990505  1
  Cl  Cl83  1  0.21009495  0.07831036  0.08110477  1
  Cl  Cl84  1  0.58110477  0.57831036  0.71009495  1
  Cl  Cl85  1  0.07831036  0.91889523  0.78990505  1
  Cl  Cl86  1  0.21009495  0.92168964  0.91889523  1
  Cl  Cl87  1  0.41889523  0.42168964  0.71009495  1
  Cl  Cl88  1  0.78990505  0.92168964  0.08110477  1
  Cl  Cl89  1  0.58110477  0.42168964  0.28990505  1
  Cl  Cl90  1  0.78990505  0.07831036  0.91889523  1
  Cl  Cl91  1  0.41889523  0.57831036  0.28990505  1
  Cl  Cl92  1  0.08110477  0.21009495  0.07831036  1
  Cl  Cl93  1  0.57831036  0.71009495  0.58110477  1
  Cl  Cl94  1  0.08110477  0.78990505  0.92168964  1
  Cl  Cl95  1  0.42168964  0.28990505  0.58110477  1
  Cl  Cl96  1  0.91889523  0.78990505  0.07831036  1
  Cl  Cl97  1  0.57831036  0.28990505  0.41889523  1
  Cl  Cl98  1  0.91889523  0.21009495  0.92168964  1
  Cl  Cl99  1  0.42168964  0.71009495  0.41889523  1
  Cl  Cl100  1  0.71009495  0.58110477  0.57831036  1
  Cl  Cl101  1  0.71009495  0.41889523  0.42168964  1
  Cl  Cl102  1  0.28990505  0.41889523  0.57831036  1
  Cl  Cl103  1  0.28990505  0.58110477  0.42168964  1
  Cl  Cl104  1  0.42422282  0.42422282  0.42422282  1
  Cl  Cl105  1  0.57577718  0.57577718  0.42422282  1
  Cl  Cl106  1  0.57577718  0.42422282  0.57577718  1
  Cl  Cl107  1  0.92422282  0.92422282  0.92422282  1
  Cl  Cl108  1  0.42422282  0.57577718  0.57577718  1
  Cl  Cl109  1  0.07577718  0.07577718  0.92422282  1
  Cl  Cl110  1  0.92422282  0.07577718  0.07577718  1
  Cl  Cl111  1  0.07577718  0.92422282  0.07577718  1
  Cl  Cl112  1  0.21065773  0.40587049  0.31182538  1
  Cl  Cl113  1  0.78934227  0.59412951  0.31182538  1
  Cl  Cl114  1  0.78934227  0.40587049  0.68817462  1
  Cl  Cl115  1  0.31182538  0.21065773  0.40587049  1
  Cl  Cl116  1  0.90587049  0.71065773  0.81182538  1
  Cl  Cl117  1  0.21065773  0.59412951  0.68817462  1
  Cl  Cl118  1  0.31182538  0.78934227  0.59412951  1
  Cl  Cl119  1  0.09412951  0.28934227  0.81182538  1
  Cl  Cl120  1  0.68817462  0.78934227  0.40587049  1
  Cl  Cl121  1  0.90587049  0.28934227  0.18817462  1
  Cl  Cl122  1  0.68817462  0.21065773  0.59412951  1
  Cl  Cl123  1  0.09412951  0.71065773  0.18817462  1
  Cl  Cl124  1  0.40587049  0.31182538  0.21065773  1
  Cl  Cl125  1  0.71065773  0.81182538  0.90587049  1
  Cl  Cl126  1  0.40587049  0.68817462  0.78934227  1
  Cl  Cl127  1  0.28934227  0.18817462  0.90587049  1
  Cl  Cl128  1  0.59412951  0.68817462  0.21065773  1
  Cl  Cl129  1  0.71065773  0.18817462  0.09412951  1
  Cl  Cl130  1  0.59412951  0.31182538  0.78934227  1
  Cl  Cl131  1  0.28934227  0.81182538  0.09412951  1
  Cl  Cl132  1  0.81182538  0.90587049  0.71065773  1
  Cl  Cl133  1  0.81182538  0.09412951  0.28934227  1
  Cl  Cl134  1  0.18817462  0.09412951  0.71065773  1
  Cl  Cl135  1  0.18817462  0.90587049  0.28934227  1
  Cl  Cl136  1  0.06938032  0.42066414  0.17180834  1
  Cl  Cl137  1  0.93061968  0.57933586  0.17180834  1
  Cl  Cl138  1  0.93061968  0.42066414  0.82819166  1
  Cl  Cl139  1  0.17180834  0.06938032  0.42066414  1
  Cl  Cl140  1  0.92066414  0.56938032  0.67180834  1
  Cl  Cl141  1  0.06938032  0.57933586  0.82819166  1
  Cl  Cl142  1  0.17180834  0.93061968  0.57933586  1
  Cl  Cl143  1  0.07933586  0.43061968  0.67180834  1
  Cl  Cl144  1  0.82819166  0.93061968  0.42066414  1
  Cl  Cl145  1  0.92066414  0.43061968  0.32819166  1
  Cl  Cl146  1  0.82819166  0.06938032  0.57933586  1
  Cl  Cl147  1  0.07933586  0.56938032  0.32819166  1
  Cl  Cl148  1  0.42066414  0.17180834  0.06938032  1
  Cl  Cl149  1  0.56938032  0.67180834  0.92066414  1
  Cl  Cl150  1  0.42066414  0.82819166  0.93061968  1
  Cl  Cl151  1  0.43061968  0.32819166  0.92066414  1
  Cl  Cl152  1  0.57933586  0.82819166  0.06938032  1
  Cl  Cl153  1  0.56938032  0.32819166  0.07933586  1
  Cl  Cl154  1  0.57933586  0.17180834  0.93061968  1
  Cl  Cl155  1  0.43061968  0.67180834  0.07933586  1
  Cl  Cl156  1  0.67180834  0.92066414  0.56938032  1
  Cl  Cl157  1  0.67180834  0.07933586  0.43061968  1
  Cl  Cl158  1  0.32819166  0.07933586  0.56938032  1
  Cl  Cl159  1  0.32819166  0.92066414  0.43061968  1
