# generated using pymatgen
data_K2LiB(PO4)2
_symmetry_space_group_name_H-M   'P 1'
_cell_length_a   8.90386600
_cell_length_b   8.46534300
_cell_length_c   12.51431387
_cell_angle_alpha   52.73425546
_cell_angle_beta   90.00000000
_cell_angle_gamma   90.00000000
_symmetry_Int_Tables_number   1
_chemical_formula_structural   K2LiB(PO4)2
_chemical_formula_sum   'K8 Li4 B4 P8 O32'
_cell_volume   750.67785282
_cell_formula_units_Z   4
loop_
 _symmetry_equiv_pos_site_id
 _symmetry_equiv_pos_as_xyz
  1  'x, y, z'
loop_
 _atom_site_type_symbol
 _atom_site_label
 _atom_site_symmetry_multiplicity
 _atom_site_fract_x
 _atom_site_fract_y
 _atom_site_fract_z
 _atom_site_occupancy
  K  K0  1  0.27542800  0.72181300  0.82200000  1
  K  K1  1  0.22457200  0.72181300  0.32200000  1
  K  K2  1  0.72457200  0.27818700  0.17800000  1
  K  K3  1  0.77542800  0.27818700  0.67800000  1
  K  K4  1  0.77657200  0.93710400  0.58689800  1
  K  K5  1  0.72342800  0.93710400  0.08689800  1
  K  K6  1  0.22342800  0.06289600  0.41310200  1
  K  K7  1  0.27657200  0.06289600  0.91310200  1
  Li  Li8  1  0.58351700  0.80835700  0.88026200  1
  Li  Li9  1  0.91648300  0.80835700  0.38026200  1
  Li  Li10  1  0.41648300  0.19164300  0.11973800  1
  Li  Li11  1  0.08351700  0.19164300  0.61973800  1
  B  B12  1  0.58643100  0.46676100  0.37426300  1
  B  B13  1  0.91356900  0.46676100  0.87426300  1
  B  B14  1  0.41356900  0.53323900  0.62573700  1
  B  B15  1  0.08643100  0.53323900  0.12573700  1
  P  P16  1  0.92281100  0.79116600  0.89218200  1
  P  P17  1  0.57718900  0.79116600  0.39218200  1
  P  P18  1  0.07718900  0.20883400  0.10781800  1
  P  P19  1  0.42281100  0.20883400  0.60781800  1
  P  P20  1  0.39504600  0.53075500  0.17001600  1
  P  P21  1  0.10495400  0.53075500  0.67001600  1
  P  P22  1  0.60495400  0.46924500  0.82998400  1
  P  P23  1  0.89504600  0.46924500  0.32998400  1
  O  O24  1  0.21962100  0.55225700  0.18883300  1
  O  O25  1  0.28037900  0.55225700  0.68883300  1
  O  O26  1  0.78037900  0.44774300  0.81116700  1
  O  O27  1  0.71962100  0.44774300  0.31116700  1
  O  O28  1  0.44354400  0.70527200  0.02951500  1
  O  O29  1  0.05645600  0.70527200  0.52951500  1
  O  O30  1  0.55645600  0.29472800  0.97048500  1
  O  O31  1  0.94354400  0.29472800  0.47048500  1
  O  O32  1  0.46157800  0.55680400  0.27687500  1
  O  O33  1  0.03842200  0.55680400  0.77687500  1
  O  O34  1  0.53842200  0.44319600  0.72312500  1
  O  O35  1  0.96157800  0.44319600  0.22312500  1
  O  O36  1  0.42927600  0.32643800  0.20853800  1
  O  O37  1  0.07072400  0.32643800  0.70853800  1
  O  O38  1  0.57072400  0.67356200  0.79146200  1
  O  O39  1  0.92927600  0.67356200  0.29146200  1
  O  O40  1  0.04786600  0.73528000  0.00188600  1
  O  O41  1  0.45213400  0.73528000  0.50188600  1
  O  O42  1  0.95213400  0.26472000  0.99811400  1
  O  O43  1  0.54786600  0.26472000  0.49811400  1
  O  O44  1  0.99384700  0.93443000  0.75490700  1
  O  O45  1  0.50615300  0.93443000  0.25490700  1
  O  O46  1  0.00615300  0.06557000  0.24509300  1
  O  O47  1  0.49384700  0.06557000  0.74509300  1
  O  O48  1  0.78228200  0.87093500  0.91363200  1
  O  O49  1  0.71771800  0.87093500  0.41363200  1
  O  O50  1  0.21771800  0.12906500  0.08636800  1
  O  O51  1  0.28228200  0.12906500  0.58636800  1
  O  O52  1  0.87443800  0.59084400  0.91733700  1
  O  O53  1  0.62556200  0.59084400  0.41733700  1
  O  O54  1  0.12556200  0.40915600  0.08266300  1
  O  O55  1  0.37443800  0.40915600  0.58266300  1
