# generated using pymatgen
data_CaMgPd
_symmetry_space_group_name_H-M   'P 1'
_cell_length_a   4.33441500
_cell_length_b   7.39533800
_cell_length_c   8.55324900
_cell_angle_alpha   90.00000000
_cell_angle_beta   90.00000000
_cell_angle_gamma   90.00000000
_symmetry_Int_Tables_number   1
_chemical_formula_structural   CaMgPd
_chemical_formula_sum   'Ca4 Mg4 Pd4'
_cell_volume   274.16981179
_cell_formula_units_Z   4
loop_
 _symmetry_equiv_pos_site_id
 _symmetry_equiv_pos_as_xyz
  1  'x, y, z'
loop_
 _atom_site_type_symbol
 _atom_site_label
 _atom_site_symmetry_multiplicity
 _atom_site_fract_x
 _atom_site_fract_y
 _atom_site_fract_z
 _atom_site_occupancy
  Ca  Ca0  1  0.25000000  0.02973100  0.32451700  1
  Ca  Ca1  1  0.25000000  0.52973100  0.17548300  1
  Ca  Ca2  1  0.75000000  0.97026900  0.67548300  1
  Ca  Ca3  1  0.75000000  0.47026900  0.82451700  1
  Mg  Mg4  1  0.25000000  0.14049800  0.93783500  1
  Mg  Mg5  1  0.25000000  0.64049800  0.56216500  1
  Mg  Mg6  1  0.75000000  0.85950200  0.06216500  1
  Mg  Mg7  1  0.75000000  0.35950200  0.43783500  1
  Pd  Pd8  1  0.25000000  0.27138900  0.62551900  1
  Pd  Pd9  1  0.25000000  0.77138900  0.87448100  1
  Pd  Pd10  1  0.75000000  0.72861100  0.37448100  1
  Pd  Pd11  1  0.75000000  0.22861100  0.12551900  1
