# generated using pymatgen
data_V2Se2O9
_symmetry_space_group_name_H-M   'P 1'
_cell_length_a   7.31759600
_cell_length_b   7.41259200
_cell_length_c   14.52036523
_cell_angle_alpha   76.66949179
_cell_angle_beta   90.00000000
_cell_angle_gamma   90.00000000
_symmetry_Int_Tables_number   1
_chemical_formula_structural   V2Se2O9
_chemical_formula_sum   'V8 Se8 O36'
_cell_volume   766.39737356
_cell_formula_units_Z   4
loop_
 _symmetry_equiv_pos_site_id
 _symmetry_equiv_pos_as_xyz
  1  'x, y, z'
loop_
 _atom_site_type_symbol
 _atom_site_label
 _atom_site_symmetry_multiplicity
 _atom_site_fract_x
 _atom_site_fract_y
 _atom_site_fract_z
 _atom_site_occupancy
  V  V0  1  0.66582200  0.03324300  0.07185200  1
  V  V1  1  0.16582200  0.96675700  0.42814800  1
  V  V2  1  0.33417800  0.96675700  0.92814800  1
  V  V3  1  0.83417800  0.03324300  0.57185200  1
  V  V4  1  0.37803400  0.61751000  0.13288700  1
  V  V5  1  0.87803400  0.38249000  0.36711300  1
  V  V6  1  0.62196600  0.38249000  0.86711300  1
  V  V7  1  0.12196600  0.61751000  0.63288700  1
  Se  Se8  1  0.81711300  0.60652700  0.12867100  1
  Se  Se9  1  0.31711300  0.39347300  0.37132900  1
  Se  Se10  1  0.18288700  0.39347300  0.87132900  1
  Se  Se11  1  0.68288700  0.60652700  0.62867100  1
  Se  Se12  1  0.23150100  0.03403200  0.13942000  1
  Se  Se13  1  0.73150100  0.96596800  0.36058000  1
  Se  Se14  1  0.76849900  0.96596800  0.86058000  1
  Se  Se15  1  0.26849900  0.03403200  0.63942000  1
  O  O16  1  0.20223400  0.08638000  0.01738000  1
  O  O17  1  0.70223400  0.91362000  0.48262000  1
  O  O18  1  0.79776600  0.91362000  0.98262000  1
  O  O19  1  0.29776600  0.08638000  0.51738000  1
  O  O20  1  0.60589800  0.50319200  0.11671500  1
  O  O21  1  0.10589800  0.49680800  0.38328500  1
  O  O22  1  0.39410200  0.49680800  0.88328500  1
  O  O23  1  0.89410200  0.50319200  0.61671500  1
  O  O24  1  0.44192300  0.81704000  0.03225700  1
  O  O25  1  0.94192300  0.18296000  0.46774300  1
  O  O26  1  0.55807700  0.18296000  0.96774300  1
  O  O27  1  0.05807700  0.81704000  0.53225700  1
  O  O28  1  0.82030300  0.16390600  0.10297800  1
  O  O29  1  0.32030300  0.83609400  0.39702200  1
  O  O30  1  0.17969700  0.83609400  0.89702200  1
  O  O31  1  0.67969700  0.16390600  0.60297800  1
  O  O32  1  0.73417300  0.79985700  0.16386700  1
  O  O33  1  0.23417300  0.20014300  0.33613300  1
  O  O34  1  0.26582700  0.20014300  0.83613300  1
  O  O35  1  0.76582700  0.79985700  0.66386700  1
  O  O36  1  0.46629700  0.05865000  0.15471600  1
  O  O37  1  0.96629700  0.94135000  0.34528400  1
  O  O38  1  0.53370300  0.94135000  0.84528400  1
  O  O39  1  0.03370300  0.05865000  0.65471600  1
  O  O40  1  0.90036500  0.47472000  0.23341100  1
  O  O41  1  0.40036500  0.52528000  0.26658900  1
  O  O42  1  0.09963500  0.52528000  0.76658900  1
  O  O43  1  0.59963500  0.47472000  0.73341100  1
  O  O44  1  0.20588800  0.79530600  0.16664500  1
  O  O45  1  0.70588800  0.20469400  0.33335500  1
  O  O46  1  0.79411200  0.20469400  0.83335500  1
  O  O47  1  0.29411200  0.79530600  0.66664500  1
  O  O48  1  0.23916900  0.48199300  0.09498100  1
  O  O49  1  0.73916900  0.51800700  0.40501900  1
  O  O50  1  0.76083100  0.51800700  0.90501900  1
  O  O51  1  0.26083100  0.48199300  0.59498100  1
