# generated using pymatgen
data_ZrSc2
_symmetry_space_group_name_H-M   'P 1'
_cell_length_a   6.15068482
_cell_length_b   6.15068482
_cell_length_c   7.64783187
_cell_angle_alpha   77.22760804
_cell_angle_beta   77.22760804
_cell_angle_gamma   30.90247170
_symmetry_Int_Tables_number   1
_chemical_formula_structural   ZrSc2
_chemical_formula_sum   'Zr2 Sc4'
_cell_volume   144.62931586
_cell_formula_units_Z   2
loop_
 _symmetry_equiv_pos_site_id
 _symmetry_equiv_pos_as_xyz
  1  'x, y, z'
loop_
 _atom_site_type_symbol
 _atom_site_label
 _atom_site_symmetry_multiplicity
 _atom_site_fract_x
 _atom_site_fract_y
 _atom_site_fract_z
 _atom_site_occupancy
  Zr  Zr0  1  0.52609900  0.52609900  0.19286300  1
  Zr  Zr1  1  0.47390100  0.47390100  0.80713700  1
  Sc  Sc2  1  0.19112900  0.19112900  0.86310900  1
  Sc  Sc3  1  0.80887100  0.80887100  0.13689100  1
  Sc  Sc4  1  0.13318200  0.13318200  0.47384800  1
  Sc  Sc5  1  0.86681800  0.86681800  0.52615200  1
