# generated using pymatgen
data_Rb4B2S4O17
_symmetry_space_group_name_H-M   'P 1'
_cell_length_a   8.19588700
_cell_length_b   10.81275300
_cell_length_c   20.77285900
_cell_angle_alpha   90.00000000
_cell_angle_beta   90.00000000
_cell_angle_gamma   90.00000000
_symmetry_Int_Tables_number   1
_chemical_formula_structural   Rb4B2S4O17
_chemical_formula_sum   'Rb16 B8 S16 O68'
_cell_volume   1840.89287815
_cell_formula_units_Z   4
loop_
 _symmetry_equiv_pos_site_id
 _symmetry_equiv_pos_as_xyz
  1  'x, y, z'
loop_
 _atom_site_type_symbol
 _atom_site_label
 _atom_site_symmetry_multiplicity
 _atom_site_fract_x
 _atom_site_fract_y
 _atom_site_fract_z
 _atom_site_occupancy
  Rb  Rb0  1  0.75000000  0.00000000  0.96167600  1
  Rb  Rb1  1  0.75000000  0.50000000  0.53832400  1
  Rb  Rb2  1  0.25000000  0.00000000  0.03832400  1
  Rb  Rb3  1  0.25000000  0.50000000  0.46167600  1
  Rb  Rb4  1  0.50384400  0.62356600  0.90692200  1
  Rb  Rb5  1  0.99615600  0.37643400  0.90692200  1
  Rb  Rb6  1  0.50384400  0.87643400  0.59307800  1
  Rb  Rb7  1  0.99615600  0.12356600  0.59307800  1
  Rb  Rb8  1  0.49615600  0.37643400  0.09307800  1
  Rb  Rb9  1  0.00384400  0.62356600  0.09307800  1
  Rb  Rb10  1  0.49615600  0.12356600  0.40692200  1
  Rb  Rb11  1  0.00384400  0.87643400  0.40692200  1
  Rb  Rb12  1  0.65658500  0.25000000  0.75000000  1
  Rb  Rb13  1  0.84341500  0.75000000  0.75000000  1
  Rb  Rb14  1  0.34341500  0.75000000  0.25000000  1
  Rb  Rb15  1  0.15658500  0.25000000  0.25000000  1
  B  B16  1  0.19773200  0.89786900  0.85407800  1
  B  B17  1  0.30226800  0.10213100  0.85407800  1
  B  B18  1  0.19773200  0.60213100  0.64592200  1
  B  B19  1  0.30226800  0.39786900  0.64592200  1
  B  B20  1  0.80226800  0.10213100  0.14592200  1
  B  B21  1  0.69773200  0.89786900  0.14592200  1
  B  B22  1  0.80226800  0.39786900  0.35407800  1
  B  B23  1  0.69773200  0.60213100  0.35407800  1
  S  S24  1  0.45666800  0.27628800  0.93040100  1
  S  S25  1  0.04333200  0.72371200  0.93040100  1
  S  S26  1  0.45666800  0.22371200  0.56959900  1
  S  S27  1  0.04333200  0.77628800  0.56959900  1
  S  S28  1  0.54333200  0.72371200  0.06959900  1
  S  S29  1  0.95666800  0.27628800  0.06959900  1
  S  S30  1  0.54333200  0.77628800  0.43040100  1
  S  S31  1  0.95666800  0.22371200  0.43040100  1
  S  S32  1  0.49026600  0.93361600  0.79775800  1
  S  S33  1  0.00973400  0.06638400  0.79775800  1
  S  S34  1  0.49026600  0.56638400  0.70224200  1
  S  S35  1  0.00973400  0.43361600  0.70224200  1
  S  S36  1  0.50973400  0.06638400  0.20224200  1
  S  S37  1  0.99026600  0.93361600  0.20224200  1
  S  S38  1  0.50973400  0.43361600  0.29775800  1
  S  S39  1  0.99026600  0.56638400  0.29775800  1
  O  O40  1  0.75000000  0.00000000  0.10794900  1
  O  O41  1  0.75000000  0.50000000  0.39205100  1
  O  O42  1  0.25000000  0.00000000  0.89205100  1
  O  O43  1  0.25000000  0.50000000  0.60794900  1
  O  O44  1  0.18465200  0.77806200  0.88457200  1
  O  O45  1  0.31534800  0.22193800  0.88457200  1
  O  O46  1  0.18465200  0.72193800  0.61542800  1
  O  O47  1  0.31534800  0.27806200  0.61542800  1
  O  O48  1  0.81534800  0.22193800  0.11542800  1
  O  O49  1  0.68465200  0.77806200  0.11542800  1
  O  O50  1  0.81534800  0.27806200  0.38457200  1
  O  O51  1  0.68465200  0.72193800  0.38457200  1
  O  O52  1  0.46234800  0.07037300  0.81967400  1
  O  O53  1  0.03765200  0.92962700  0.81967400  1
  O  O54  1  0.46234800  0.42962700  0.68032600  1
  O  O55  1  0.03765200  0.57037300  0.68032600  1
  O  O56  1  0.53765200  0.92962700  0.18032600  1
  O  O57  1  0.96234800  0.07037300  0.18032600  1
  O  O58  1  0.53765200  0.57037300  0.31967400  1
  O  O59  1  0.96234800  0.42962700  0.31967400  1
  O  O60  1  0.31934500  0.87497700  0.79752800  1
  O  O61  1  0.18065500  0.12502300  0.79752800  1
  O  O62  1  0.31934500  0.62502300  0.70247200  1
  O  O63  1  0.18065500  0.37497700  0.70247200  1
  O  O64  1  0.68065500  0.12502300  0.20247200  1
  O  O65  1  0.81934500  0.87497700  0.20247200  1
  O  O66  1  0.68065500  0.37497700  0.29752800  1
  O  O67  1  0.81934500  0.62502300  0.29752800  1
  O  O68  1  0.62212400  0.61346000  0.04263700  1
  O  O69  1  0.87787600  0.38654000  0.04263700  1
  O  O70  1  0.62212400  0.88654000  0.45736300  1
  O  O71  1  0.87787600  0.11346000  0.45736300  1
  O  O72  1  0.37787600  0.38654000  0.95736300  1
  O  O73  1  0.12212400  0.61346000  0.95736300  1
  O  O74  1  0.37787600  0.11346000  0.54263700  1
  O  O75  1  0.12212400  0.88654000  0.54263700  1
  O  O76  1  0.50855600  0.81864000  0.02080400  1
  O  O77  1  0.99144400  0.18136000  0.02080400  1
  O  O78  1  0.50855600  0.68136000  0.47919600  1
  O  O79  1  0.99144400  0.31864000  0.47919600  1
  O  O80  1  0.49144400  0.18136000  0.97919600  1
  O  O81  1  0.00855600  0.81864000  0.97919600  1
  O  O82  1  0.49144400  0.31864000  0.52080400  1
  O  O83  1  0.00855600  0.68136000  0.52080400  1
  O  O84  1  0.59678100  0.30527000  0.88924900  1
  O  O85  1  0.90321900  0.69473000  0.88924900  1
  O  O86  1  0.59678100  0.19473000  0.61075100  1
  O  O87  1  0.90321900  0.80527000  0.61075100  1
  O  O88  1  0.40321900  0.69473000  0.11075100  1
  O  O89  1  0.09678100  0.30527000  0.11075100  1
  O  O90  1  0.40321900  0.80527000  0.38924900  1
  O  O91  1  0.09678100  0.19473000  0.38924900  1
  O  O92  1  0.59561000  0.87227200  0.84416200  1
  O  O93  1  0.90439000  0.12772800  0.84416200  1
  O  O94  1  0.59561000  0.62772800  0.65583800  1
  O  O95  1  0.90439000  0.37227200  0.65583800  1
  O  O96  1  0.40439000  0.12772800  0.15583800  1
  O  O97  1  0.09561000  0.87227200  0.15583800  1
  O  O98  1  0.40439000  0.37227200  0.34416200  1
  O  O99  1  0.09561000  0.62772800  0.34416200  1
  O  O100  1  0.55192000  0.56425900  0.76755000  1
  O  O101  1  0.94808000  0.43574100  0.76755000  1
  O  O102  1  0.55192000  0.93574100  0.73245000  1
  O  O103  1  0.94808000  0.06425900  0.73245000  1
  O  O104  1  0.44808000  0.43574100  0.23245000  1
  O  O105  1  0.05192000  0.56425900  0.23245000  1
  O  O106  1  0.44808000  0.06425900  0.26755000  1
  O  O107  1  0.05192000  0.93574100  0.26755000  1
