# generated using pymatgen
data_LuZnSn
_symmetry_space_group_name_H-M   'P 1'
_cell_length_a   4.50722445
_cell_length_b   4.50722445
_cell_length_c   15.15197000
_cell_angle_alpha   90.00000000
_cell_angle_beta   90.00000000
_cell_angle_gamma   120.00000655
_symmetry_Int_Tables_number   1
_chemical_formula_structural   LuZnSn
_chemical_formula_sum   'Lu4 Zn4 Sn4'
_cell_volume   266.57417583
_cell_formula_units_Z   4
loop_
 _symmetry_equiv_pos_site_id
 _symmetry_equiv_pos_as_xyz
  1  'x, y, z'
loop_
 _atom_site_type_symbol
 _atom_site_label
 _atom_site_symmetry_multiplicity
 _atom_site_fract_x
 _atom_site_fract_y
 _atom_site_fract_z
 _atom_site_occupancy
  Lu  Lu0  1  0.00000000  0.00000000  0.25000000  1
  Lu  Lu1  1  0.00000000  0.00000000  0.75000000  1
  Lu  Lu2  1  0.00000000  0.00000000  0.00000000  1
  Lu  Lu3  1  0.00000000  0.00000000  0.50000000  1
  Zn  Zn4  1  0.33333300  0.66666700  0.15731200  1
  Zn  Zn5  1  0.66666700  0.33333300  0.84268800  1
  Zn  Zn6  1  0.66666700  0.33333300  0.65731200  1
  Zn  Zn7  1  0.33333300  0.66666700  0.34268800  1
  Sn  Sn8  1  0.33333300  0.66666700  0.61116600  1
  Sn  Sn9  1  0.66666700  0.33333300  0.38883400  1
  Sn  Sn10  1  0.66666700  0.33333300  0.11116600  1
  Sn  Sn11  1  0.33333300  0.66666700  0.88883400  1
