# generated using pymatgen
data_Er8In3Co
_symmetry_space_group_name_H-M   'P 1'
_cell_length_a   10.29824767
_cell_length_b   10.29824767
_cell_length_c   6.91103800
_cell_angle_alpha   90.00000000
_cell_angle_beta   90.00000000
_cell_angle_gamma   119.99999787
_symmetry_Int_Tables_number   1
_chemical_formula_structural   Er8In3Co
_chemical_formula_sum   'Er16 In6 Co2'
_cell_volume   634.74689687
_cell_formula_units_Z   2
loop_
 _symmetry_equiv_pos_site_id
 _symmetry_equiv_pos_as_xyz
  1  'x, y, z'
loop_
 _atom_site_type_symbol
 _atom_site_label
 _atom_site_symmetry_multiplicity
 _atom_site_fract_x
 _atom_site_fract_y
 _atom_site_fract_z
 _atom_site_occupancy
  Er  Er0  1  0.53413200  0.06826400  0.79147000  1
  Er  Er1  1  0.93173600  0.46586800  0.79147000  1
  Er  Er2  1  0.53413200  0.46586800  0.79147000  1
  Er  Er3  1  0.46586800  0.93173600  0.29147000  1
  Er  Er4  1  0.06826400  0.53413200  0.29147000  1
  Er  Er5  1  0.46586800  0.53413200  0.29147000  1
  Er  Er6  1  0.82164300  0.64328600  0.50066600  1
  Er  Er7  1  0.35671400  0.17835700  0.50066600  1
  Er  Er8  1  0.82164300  0.17835700  0.50066600  1
  Er  Er9  1  0.17835700  0.35671400  0.00066600  1
  Er  Er10  1  0.64328600  0.82164300  0.00066600  1
  Er  Er11  1  0.17835700  0.82164300  0.00066600  1
  Er  Er12  1  0.66666700  0.33333300  0.18203500  1
  Er  Er13  1  0.33333300  0.66666700  0.68203500  1
  Er  Er14  1  0.00000000  0.00000000  0.77908000  1
  Er  Er15  1  0.00000000  0.00000000  0.27908000  1
  In  In16  1  0.83674600  0.67349300  0.03691800  1
  In  In17  1  0.32650700  0.16325400  0.03691800  1
  In  In18  1  0.83674600  0.16325400  0.03691800  1
  In  In19  1  0.16325400  0.32650700  0.53691800  1
  In  In20  1  0.67349300  0.83674600  0.53691800  1
  In  In21  1  0.16325400  0.83674600  0.53691800  1
  Co  Co22  1  0.66666700  0.33333300  0.56967600  1
  Co  Co23  1  0.33333300  0.66666700  0.06967600  1
