# generated using pymatgen
data_UCrO4
_symmetry_space_group_name_H-M   'P 1'
_cell_length_a   4.89517000
_cell_length_b   5.16414900
_cell_length_c   11.96907400
_cell_angle_alpha   90.00000000
_cell_angle_beta   90.00000000
_cell_angle_gamma   90.00000000
_symmetry_Int_Tables_number   1
_chemical_formula_structural   UCrO4
_chemical_formula_sum   'U4 Cr4 O16'
_cell_volume   302.57085679
_cell_formula_units_Z   4
loop_
 _symmetry_equiv_pos_site_id
 _symmetry_equiv_pos_as_xyz
  1  'x, y, z'
loop_
 _atom_site_type_symbol
 _atom_site_label
 _atom_site_symmetry_multiplicity
 _atom_site_fract_x
 _atom_site_fract_y
 _atom_site_fract_z
 _atom_site_occupancy
  U  U0  1  0.50000000  0.75000000  0.33068500  1
  U  U1  1  0.50000000  0.25000000  0.66931500  1
  U  U2  1  0.00000000  0.75000000  0.83068500  1
  U  U3  1  0.00000000  0.25000000  0.16931500  1
  Cr  Cr4  1  0.00000000  0.75000000  0.56248100  1
  Cr  Cr5  1  0.50000000  0.75000000  0.06248100  1
  Cr  Cr6  1  0.50000000  0.25000000  0.93751900  1
  Cr  Cr7  1  0.00000000  0.25000000  0.43751900  1
  O  O8  1  0.71957400  0.09125500  0.81085500  1
  O  O9  1  0.22846000  0.42711200  0.55403200  1
  O  O10  1  0.78042600  0.09125500  0.31085500  1
  O  O11  1  0.78042600  0.59125500  0.68914500  1
  O  O12  1  0.28042600  0.40874500  0.81085500  1
  O  O13  1  0.72846000  0.07288800  0.05403200  1
  O  O14  1  0.72846000  0.57288800  0.94596800  1
  O  O15  1  0.27154000  0.92711200  0.94596800  1
  O  O16  1  0.28042600  0.90874500  0.18914500  1
  O  O17  1  0.27154000  0.42711200  0.05403200  1
  O  O18  1  0.77154000  0.07288800  0.55403200  1
  O  O19  1  0.21957400  0.40874500  0.31085500  1
  O  O20  1  0.22846000  0.92711200  0.44596800  1
  O  O21  1  0.21957400  0.90874500  0.68914500  1
  O  O22  1  0.71957400  0.59125500  0.18914500  1
  O  O23  1  0.77154000  0.57288800  0.44596800  1
