# generated using pymatgen
data_PrCoSi
_symmetry_space_group_name_H-M   'P 1'
_cell_length_a   4.02596700
_cell_length_b   4.02596700
_cell_length_c   7.13418100
_cell_angle_alpha   90.00000000
_cell_angle_beta   90.00000000
_cell_angle_gamma   90.00000000
_symmetry_Int_Tables_number   1
_chemical_formula_structural   PrCoSi
_chemical_formula_sum   'Pr2 Co2 Si2'
_cell_volume   115.63373270
_cell_formula_units_Z   2
loop_
 _symmetry_equiv_pos_site_id
 _symmetry_equiv_pos_as_xyz
  1  'x, y, z'
loop_
 _atom_site_type_symbol
 _atom_site_label
 _atom_site_symmetry_multiplicity
 _atom_site_fract_x
 _atom_site_fract_y
 _atom_site_fract_z
 _atom_site_occupancy
  Pr  Pr0  1  0.00000000  0.50000000  0.31479700  1
  Pr  Pr1  1  0.50000000  0.00000000  0.68520300  1
  Co  Co2  1  0.00000000  0.00000000  0.00000000  1
  Co  Co3  1  0.50000000  0.50000000  0.00000000  1
  Si  Si4  1  0.00000000  0.50000000  0.83514100  1
  Si  Si5  1  0.50000000  0.00000000  0.16485900  1
