# generated using pymatgen
data_SrSn
_symmetry_space_group_name_H-M   'P 1'
_cell_length_a   6.62508015
_cell_length_b   6.62508015
_cell_length_c   4.53656200
_cell_angle_alpha   90.00000000
_cell_angle_beta   90.00000000
_cell_angle_gamma   134.79033830
_symmetry_Int_Tables_number   1
_chemical_formula_structural   SrSn
_chemical_formula_sum   'Sr2 Sn2'
_cell_volume   141.31150876
_cell_formula_units_Z   2
loop_
 _symmetry_equiv_pos_site_id
 _symmetry_equiv_pos_as_xyz
  1  'x, y, z'
loop_
 _atom_site_type_symbol
 _atom_site_label
 _atom_site_symmetry_multiplicity
 _atom_site_fract_x
 _atom_site_fract_y
 _atom_site_fract_z
 _atom_site_occupancy
  Sr  Sr0  1  0.13626600  0.86373400  0.25000000  1
  Sr  Sr1  1  0.86373400  0.13626600  0.75000000  1
  Sn  Sn2  1  0.42040900  0.57959100  0.25000000  1
  Sn  Sn3  1  0.57959100  0.42040900  0.75000000  1
