# generated using pymatgen
data_TbTl(MoO4)2
_symmetry_space_group_name_H-M   'P 1'
_cell_length_a   5.15809300
_cell_length_b   8.17990800
_cell_length_c   18.80718600
_cell_angle_alpha   90.00000000
_cell_angle_beta   90.00000000
_cell_angle_gamma   90.00000000
_symmetry_Int_Tables_number   1
_chemical_formula_structural   TbTl(MoO4)2
_chemical_formula_sum   'Tb4 Tl4 Mo8 O32'
_cell_volume   793.52644940
_cell_formula_units_Z   4
loop_
 _symmetry_equiv_pos_site_id
 _symmetry_equiv_pos_as_xyz
  1  'x, y, z'
loop_
 _atom_site_type_symbol
 _atom_site_label
 _atom_site_symmetry_multiplicity
 _atom_site_fract_x
 _atom_site_fract_y
 _atom_site_fract_z
 _atom_site_occupancy
  Tb  Tb0  1  0.00000000  0.75000000  0.00642100  1
  Tb  Tb1  1  0.00000000  0.25000000  0.99357900  1
  Tb  Tb2  1  0.50000000  0.25000000  0.49357900  1
  Tb  Tb3  1  0.50000000  0.75000000  0.50642100  1
  Tl  Tl4  1  0.00000000  0.75000000  0.76976600  1
  Tl  Tl5  1  0.00000000  0.25000000  0.23023400  1
  Tl  Tl6  1  0.50000000  0.25000000  0.73023400  1
  Tl  Tl7  1  0.50000000  0.75000000  0.26976600  1
  Mo  Mo8  1  0.02266400  0.51628600  0.39994900  1
  Mo  Mo9  1  0.97733600  0.48371400  0.60005100  1
  Mo  Mo10  1  0.47733600  0.01628600  0.10005100  1
  Mo  Mo11  1  0.97733600  0.98371400  0.39994900  1
  Mo  Mo12  1  0.52266400  0.98371400  0.89994900  1
  Mo  Mo13  1  0.02266400  0.01628600  0.60005100  1
  Mo  Mo14  1  0.52266400  0.48371400  0.10005100  1
  Mo  Mo15  1  0.47733600  0.51628600  0.89994900  1
  O  O16  1  0.10081200  0.97541500  0.31271100  1
  O  O17  1  0.89918800  0.02458500  0.68728900  1
  O  O18  1  0.39918800  0.47541500  0.18728900  1
  O  O19  1  0.89918800  0.52458500  0.31271100  1
  O  O20  1  0.60081200  0.52458500  0.81271100  1
  O  O21  1  0.10081200  0.47541500  0.68728900  1
  O  O22  1  0.60081200  0.02458500  0.18728900  1
  O  O23  1  0.39918800  0.97541500  0.81271100  1
  O  O24  1  0.27002700  0.83999700  0.09806700  1
  O  O25  1  0.72997300  0.16000300  0.90193300  1
  O  O26  1  0.22997300  0.33999700  0.40193300  1
  O  O27  1  0.72997300  0.66000300  0.09806700  1
  O  O28  1  0.77002700  0.66000300  0.59806700  1
  O  O29  1  0.27002700  0.33999700  0.90193300  1
  O  O30  1  0.77002700  0.16000300  0.40193300  1
  O  O31  1  0.22997300  0.83999700  0.59806700  1
  O  O32  1  0.24844400  0.50462700  0.03555400  1
  O  O33  1  0.75155600  0.49537300  0.96444600  1
  O  O34  1  0.25155600  0.00462700  0.46444600  1
  O  O35  1  0.75155600  0.99537300  0.03555400  1
  O  O36  1  0.74844400  0.99537300  0.53555400  1
  O  O37  1  0.24844400  0.00462700  0.96444600  1
  O  O38  1  0.74844400  0.49537300  0.46444600  1
  O  O39  1  0.25155600  0.50462700  0.53555400  1
  O  O40  1  0.24183200  0.68886200  0.40940200  1
  O  O41  1  0.75816800  0.31113800  0.59059800  1
  O  O42  1  0.25816800  0.18886200  0.09059800  1
  O  O43  1  0.75816800  0.81113800  0.40940200  1
  O  O44  1  0.74183200  0.81113800  0.90940200  1
  O  O45  1  0.24183200  0.18886200  0.59059800  1
  O  O46  1  0.74183200  0.31113800  0.09059800  1
  O  O47  1  0.25816800  0.68886200  0.90940200  1
