# generated using pymatgen
data_SrGeO3
_symmetry_space_group_name_H-M   'P 1'
_cell_length_a   7.35544097
_cell_length_b   7.35544097
_cell_length_c   11.37107622
_cell_angle_alpha   71.57708607
_cell_angle_beta   71.57708607
_cell_angle_gamma   60.13940305
_symmetry_Int_Tables_number   1
_chemical_formula_structural   SrGeO3
_chemical_formula_sum   'Sr6 Ge6 O18'
_cell_volume   496.68283392
_cell_formula_units_Z   6
loop_
 _symmetry_equiv_pos_site_id
 _symmetry_equiv_pos_as_xyz
  1  'x, y, z'
loop_
 _atom_site_type_symbol
 _atom_site_label
 _atom_site_symmetry_multiplicity
 _atom_site_fract_x
 _atom_site_fract_y
 _atom_site_fract_z
 _atom_site_occupancy
  Sr  Sr0  1  0.00000000  0.50000000  0.50000000  1
  Sr  Sr1  1  0.50000000  0.00000000  0.00000000  1
  Sr  Sr2  1  0.15582300  0.67147600  0.99931700  1
  Sr  Sr3  1  0.32852400  0.84417700  0.50068300  1
  Sr  Sr4  1  0.84417700  0.32852400  0.00068300  1
  Sr  Sr5  1  0.67147600  0.15582300  0.49931700  1
  Ge  Ge6  1  0.84266300  0.15733700  0.75000000  1
  Ge  Ge7  1  0.15733700  0.84266300  0.25000000  1
  Ge  Ge8  1  0.32309900  0.41819700  0.74632500  1
  Ge  Ge9  1  0.58180300  0.67690100  0.75367500  1
  Ge  Ge10  1  0.67690100  0.58180300  0.25367500  1
  Ge  Ge11  1  0.41819700  0.32309900  0.24632500  1
  O  O12  1  0.34892900  0.65107100  0.75000000  1
  O  O13  1  0.65107100  0.34892900  0.25000000  1
  O  O14  1  0.88720300  0.01143200  0.89923000  1
  O  O15  1  0.98856800  0.11279700  0.60077000  1
  O  O16  1  0.11279700  0.98856800  0.10077000  1
  O  O17  1  0.01143200  0.88720300  0.39923000  1
  O  O18  1  0.58272400  0.18400500  0.74849700  1
  O  O19  1  0.81599500  0.41727600  0.75150300  1
  O  O20  1  0.41727600  0.81599500  0.25150300  1
  O  O21  1  0.18400500  0.58272400  0.24849700  1
  O  O22  1  0.17698700  0.36872600  0.89490400  1
  O  O23  1  0.63127400  0.82301300  0.60509600  1
  O  O24  1  0.46830000  0.28117500  0.09516100  1
  O  O25  1  0.71882500  0.53170000  0.40483900  1
  O  O26  1  0.53170000  0.71882500  0.90483900  1
  O  O27  1  0.28117500  0.46830000  0.59516100  1
  O  O28  1  0.36872600  0.17698700  0.39490400  1
  O  O29  1  0.82301300  0.63127400  0.10509600  1
