# generated using pymatgen
data_Ba2ZnGe2S6O
_symmetry_space_group_name_H-M   'P 1'
_cell_length_a   9.74641100
_cell_length_b   9.74641100
_cell_length_c   6.52762200
_cell_angle_alpha   90.00000000
_cell_angle_beta   90.00000000
_cell_angle_gamma   90.00000000
_symmetry_Int_Tables_number   1
_chemical_formula_structural   Ba2ZnGe2S6O
_chemical_formula_sum   'Ba4 Zn2 Ge4 S12 O2'
_cell_volume   620.07531157
_cell_formula_units_Z   2
loop_
 _symmetry_equiv_pos_site_id
 _symmetry_equiv_pos_as_xyz
  1  'x, y, z'
loop_
 _atom_site_type_symbol
 _atom_site_label
 _atom_site_symmetry_multiplicity
 _atom_site_fract_x
 _atom_site_fract_y
 _atom_site_fract_z
 _atom_site_occupancy
  Ba  Ba0  1  0.83926500  0.66073500  0.50138900  1
  Ba  Ba1  1  0.33926500  0.83926500  0.49861100  1
  Ba  Ba2  1  0.66073500  0.16073500  0.49861100  1
  Ba  Ba3  1  0.16073500  0.33926500  0.50138900  1
  Zn  Zn4  1  0.00000000  0.00000000  0.00000000  1
  Zn  Zn5  1  0.50000000  0.50000000  0.00000000  1
  Ge  Ge6  1  0.62493000  0.87507000  0.93452100  1
  Ge  Ge7  1  0.37507000  0.12493000  0.93452100  1
  Ge  Ge8  1  0.12493000  0.62493000  0.06547900  1
  Ge  Ge9  1  0.87507000  0.37507000  0.06547900  1
  S  S10  1  0.93776300  0.18021200  0.22473100  1
  S  S11  1  0.06223700  0.81978800  0.22473100  1
  S  S12  1  0.18021200  0.06223700  0.77526900  1
  S  S13  1  0.81978800  0.93776300  0.77526900  1
  S  S14  1  0.68021200  0.43776300  0.22473100  1
  S  S15  1  0.56223700  0.68021200  0.77526900  1
  S  S16  1  0.43776300  0.31978800  0.77526900  1
  S  S17  1  0.31978800  0.56223700  0.22473100  1
  S  S18  1  0.36639400  0.13360600  0.26649800  1
  S  S19  1  0.86639400  0.36639400  0.73350200  1
  S  S20  1  0.13360600  0.63360600  0.73350200  1
  S  S21  1  0.63360600  0.86639400  0.26649800  1
  O  O22  1  0.50000000  0.00000000  0.82349900  1
  O  O23  1  0.00000000  0.50000000  0.17650100  1
