# generated using pymatgen
data_Cs3GaP2
_symmetry_space_group_name_H-M   'P 1'
_cell_length_a   8.85618200
_cell_length_b   11.37907700
_cell_length_c   19.28828147
_cell_angle_alpha   79.62675127
_cell_angle_beta   90.00000000
_cell_angle_gamma   90.00000000
_symmetry_Int_Tables_number   1
_chemical_formula_structural   Cs3GaP2
_chemical_formula_sum   'Cs24 Ga8 P16'
_cell_volume   1912.01015233
_cell_formula_units_Z   8
loop_
 _symmetry_equiv_pos_site_id
 _symmetry_equiv_pos_as_xyz
  1  'x, y, z'
loop_
 _atom_site_type_symbol
 _atom_site_label
 _atom_site_symmetry_multiplicity
 _atom_site_fract_x
 _atom_site_fract_y
 _atom_site_fract_z
 _atom_site_occupancy
  Cs  Cs0  1  0.08033800  0.62325400  0.11046100  1
  Cs  Cs1  1  0.58033800  0.37674600  0.38953900  1
  Cs  Cs2  1  0.91966200  0.37674600  0.88953900  1
  Cs  Cs3  1  0.41966200  0.62325400  0.61046100  1
  Cs  Cs4  1  0.62103200  0.71084900  0.15998800  1
  Cs  Cs5  1  0.12103200  0.28915100  0.34001200  1
  Cs  Cs6  1  0.37896800  0.28915100  0.84001200  1
  Cs  Cs7  1  0.87896800  0.71084900  0.65998800  1
  Cs  Cs8  1  0.46813100  0.85036800  0.96808900  1
  Cs  Cs9  1  0.96813100  0.14963200  0.53191100  1
  Cs  Cs10  1  0.53186900  0.14963200  0.03191100  1
  Cs  Cs11  1  0.03186900  0.85036800  0.46808900  1
  Cs  Cs12  1  0.59643300  0.73881300  0.42341500  1
  Cs  Cs13  1  0.09643300  0.26118700  0.07658500  1
  Cs  Cs14  1  0.40356700  0.26118700  0.57658500  1
  Cs  Cs15  1  0.90356700  0.73881300  0.92341500  1
  Cs  Cs16  1  0.94849300  0.92047200  0.24135500  1
  Cs  Cs17  1  0.44849300  0.07952800  0.25864500  1
  Cs  Cs18  1  0.05150700  0.07952800  0.75864500  1
  Cs  Cs19  1  0.55150700  0.92047200  0.74135500  1
  Cs  Cs20  1  0.25231700  0.63774600  0.29202400  1
  Cs  Cs21  1  0.75231700  0.36225400  0.20797600  1
  Cs  Cs22  1  0.74768300  0.36225400  0.70797600  1
  Cs  Cs23  1  0.24768300  0.63774600  0.79202400  1
  Ga  Ga24  1  0.11782100  0.95444100  0.05596700  1
  Ga  Ga25  1  0.61782100  0.04555900  0.44403300  1
  Ga  Ga26  1  0.88217900  0.04555900  0.94403300  1
  Ga  Ga27  1  0.38217900  0.95444100  0.55596700  1
  Ga  Ga28  1  0.94493500  0.53874300  0.42458700  1
  Ga  Ga29  1  0.44493500  0.46125700  0.07541300  1
  Ga  Ga30  1  0.05506500  0.46125700  0.57541300  1
  Ga  Ga31  1  0.55506500  0.53874300  0.92458700  1
  P  P32  1  0.29242700  0.89526000  0.13990600  1
  P  P33  1  0.79242700  0.10474000  0.36009400  1
  P  P34  1  0.70757300  0.10474000  0.86009400  1
  P  P35  1  0.20757300  0.89526000  0.63990600  1
  P  P36  1  0.15104000  0.04719100  0.93674700  1
  P  P37  1  0.65104000  0.95280900  0.56325300  1
  P  P38  1  0.84896000  0.95280900  0.06325300  1
  P  P39  1  0.34896000  0.04719100  0.43674700  1
  P  P40  1  0.19782700  0.50505200  0.46889900  1
  P  P41  1  0.69782700  0.49494800  0.03110100  1
  P  P42  1  0.80217300  0.49494800  0.53110100  1
  P  P43  1  0.30217300  0.50505200  0.96889900  1
  P  P44  1  0.85990000  0.59845000  0.31238300  1
  P  P45  1  0.35990000  0.40155000  0.18761700  1
  P  P46  1  0.14010000  0.40155000  0.68761700  1
  P  P47  1  0.64010000  0.59845000  0.81238300  1
