# generated using pymatgen
data_UB4Ru
_symmetry_space_group_name_H-M   'P 1'
_cell_length_a   5.95339640
_cell_length_b   5.95339640
_cell_length_c   3.53116800
_cell_angle_alpha   90.00000000
_cell_angle_beta   90.00000000
_cell_angle_gamma   104.11846346
_symmetry_Int_Tables_number   1
_chemical_formula_structural   UB4Ru
_chemical_formula_sum   'U2 B8 Ru2'
_cell_volume   121.37443823
_cell_formula_units_Z   2
loop_
 _symmetry_equiv_pos_site_id
 _symmetry_equiv_pos_as_xyz
  1  'x, y, z'
loop_
 _atom_site_type_symbol
 _atom_site_label
 _atom_site_symmetry_multiplicity
 _atom_site_fract_x
 _atom_site_fract_y
 _atom_site_fract_z
 _atom_site_occupancy
  U  U0  1  0.30002700  0.69997300  0.00000000  1
  U  U1  1  0.69997300  0.30002700  0.00000000  1
  B  B2  1  0.38419700  0.06551200  0.50000000  1
  B  B3  1  0.61580300  0.93448800  0.50000000  1
  B  B4  1  0.06551200  0.38419700  0.50000000  1
  B  B5  1  0.93448800  0.61580300  0.50000000  1
  B  B6  1  0.37966700  0.37966700  0.50000000  1
  B  B7  1  0.62033300  0.62033300  0.50000000  1
  B  B8  1  0.09269300  0.90730700  0.50000000  1
  B  B9  1  0.90730700  0.09269300  0.50000000  1
  Ru  Ru10  1  0.18647800  0.18647800  0.00000000  1
  Ru  Ru11  1  0.81352200  0.81352200  0.00000000  1
