# generated using pymatgen
data_Sr(Ni2Sn)2
_symmetry_space_group_name_H-M   'P 1'
_cell_length_a   6.80614309
_cell_length_b   6.80614309
_cell_length_c   6.80614309
_cell_angle_alpha   109.19207959
_cell_angle_beta   109.19207959
_cell_angle_gamma   110.03095687
_symmetry_Int_Tables_number   1
_chemical_formula_structural   Sr(Ni2Sn)2
_chemical_formula_sum   'Sr2 Ni8 Sn4'
_cell_volume   242.68906728
_cell_formula_units_Z   2
loop_
 _symmetry_equiv_pos_site_id
 _symmetry_equiv_pos_as_xyz
  1  'x, y, z'
loop_
 _atom_site_type_symbol
 _atom_site_label
 _atom_site_symmetry_multiplicity
 _atom_site_fract_x
 _atom_site_fract_y
 _atom_site_fract_z
 _atom_site_occupancy
  Sr  Sr0  1  0.25000000  0.25000000  0.00000000  1
  Sr  Sr1  1  0.75000000  0.75000000  0.00000000  1
  Ni  Ni2  1  0.20149600  0.97396500  0.50000000  1
  Ni  Ni3  1  0.70149600  0.20149600  0.22753100  1
  Ni  Ni4  1  0.97396500  0.47396500  0.77246900  1
  Ni  Ni5  1  0.47396500  0.70149600  0.50000000  1
  Ni  Ni6  1  0.52603500  0.29850400  0.50000000  1
  Ni  Ni7  1  0.29850400  0.79850400  0.77246900  1
  Ni  Ni8  1  0.79850400  0.02603500  0.50000000  1
  Ni  Ni9  1  0.02603500  0.52603500  0.22753100  1
  Sn  Sn10  1  0.84024500  0.65975500  0.50000000  1
  Sn  Sn11  1  0.65975500  0.15975500  0.81951100  1
  Sn  Sn12  1  0.34024500  0.84024500  0.18048900  1
  Sn  Sn13  1  0.15975500  0.34024500  0.50000000  1
