# generated using pymatgen
data_Pr2Co17
_symmetry_space_group_name_H-M   'P 1'
_cell_length_a   6.34281642
_cell_length_b   6.34281642
_cell_length_c   6.34281697
_cell_angle_alpha   82.98599402
_cell_angle_beta   82.98599402
_cell_angle_gamma   82.98600227
_symmetry_Int_Tables_number   1
_chemical_formula_structural   Pr2Co17
_chemical_formula_sum   'Pr2 Co17'
_cell_volume   249.88194274
_cell_formula_units_Z   1
loop_
 _symmetry_equiv_pos_site_id
 _symmetry_equiv_pos_as_xyz
  1  'x, y, z'
loop_
 _atom_site_type_symbol
 _atom_site_label
 _atom_site_symmetry_multiplicity
 _atom_site_fract_x
 _atom_site_fract_y
 _atom_site_fract_z
 _atom_site_occupancy
  Pr  Pr0  1  0.65702900  0.65702900  0.65702900  1
  Pr  Pr1  1  0.34297100  0.34297100  0.34297100  1
  Co  Co2  1  0.00000000  0.00000000  0.50000000  1
  Co  Co3  1  0.50000000  0.00000000  0.00000000  1
  Co  Co4  1  0.00000000  0.50000000  0.00000000  1
  Co  Co5  1  0.71523200  0.28476800  0.00000000  1
  Co  Co6  1  0.00000000  0.71523200  0.28476800  1
  Co  Co7  1  0.28476800  0.00000000  0.71523200  1
  Co  Co8  1  0.00000000  0.28476800  0.71523200  1
  Co  Co9  1  0.71523200  0.00000000  0.28476800  1
  Co  Co10  1  0.28476800  0.71523200  0.00000000  1
  Co  Co11  1  0.34158600  0.34158600  0.84860100  1
  Co  Co12  1  0.84860100  0.34158600  0.34158600  1
  Co  Co13  1  0.34158600  0.84860100  0.34158600  1
  Co  Co14  1  0.65841400  0.65841400  0.15139900  1
  Co  Co15  1  0.15139900  0.65841400  0.65841400  1
  Co  Co16  1  0.65841400  0.15139900  0.65841400  1
  Co  Co17  1  0.90470600  0.90470600  0.90470600  1
  Co  Co18  1  0.09529400  0.09529400  0.09529400  1
