# generated using pymatgen
data_Sb3Pd8
_symmetry_space_group_name_H-M   'P 1'
_cell_length_a   15.27489068
_cell_length_b   15.27489068
_cell_length_c   15.27489034
_cell_angle_alpha   29.26525271
_cell_angle_beta   29.26525271
_cell_angle_gamma   29.26524890
_symmetry_Int_Tables_number   1
_chemical_formula_structural   Sb3Pd8
_chemical_formula_sum   'Sb12 Pd32'
_cell_volume   753.61748146
_cell_formula_units_Z   4
loop_
 _symmetry_equiv_pos_site_id
 _symmetry_equiv_pos_as_xyz
  1  'x, y, z'
loop_
 _atom_site_type_symbol
 _atom_site_label
 _atom_site_symmetry_multiplicity
 _atom_site_fract_x
 _atom_site_fract_y
 _atom_site_fract_z
 _atom_site_occupancy
  Sb  Sb0  1  0.43293300  0.75000000  0.06706700  1
  Sb  Sb1  1  0.06706700  0.43293300  0.75000000  1
  Sb  Sb2  1  0.75000000  0.06706700  0.43293300  1
  Sb  Sb3  1  0.56706700  0.25000000  0.93293300  1
  Sb  Sb4  1  0.93293300  0.56706700  0.25000000  1
  Sb  Sb5  1  0.25000000  0.93293300  0.56706700  1
  Sb  Sb6  1  0.15634800  0.15634800  0.15634800  1
  Sb  Sb7  1  0.65634800  0.65634800  0.65634800  1
  Sb  Sb8  1  0.50000000  0.50000000  0.50000000  1
  Sb  Sb9  1  0.00000000  0.00000000  0.00000000  1
  Sb  Sb10  1  0.84365200  0.84365200  0.84365200  1
  Sb  Sb11  1  0.34365200  0.34365200  0.34365200  1
  Pd  Pd12  1  0.64405200  0.38156700  0.12938000  1
  Pd  Pd13  1  0.12938000  0.64405200  0.38156700  1
  Pd  Pd14  1  0.38156700  0.12938000  0.64405200  1
  Pd  Pd15  1  0.62938000  0.88156700  0.14405200  1
  Pd  Pd16  1  0.14405200  0.62938000  0.88156700  1
  Pd  Pd17  1  0.88156700  0.14405200  0.62938000  1
  Pd  Pd18  1  0.06187300  0.06187300  0.06187300  1
  Pd  Pd19  1  0.56187300  0.56187300  0.56187300  1
  Pd  Pd20  1  0.71820500  0.71820500  0.71820500  1
  Pd  Pd21  1  0.21820500  0.21820500  0.21820500  1
  Pd  Pd22  1  0.85594800  0.37062000  0.11843300  1
  Pd  Pd23  1  0.11843300  0.85594800  0.37062000  1
  Pd  Pd24  1  0.37062000  0.11843300  0.85594800  1
  Pd  Pd25  1  0.61843300  0.87062000  0.35594800  1
  Pd  Pd26  1  0.35594800  0.61843300  0.87062000  1
  Pd  Pd27  1  0.87062000  0.35594800  0.61843300  1
  Pd  Pd28  1  0.43812700  0.43812700  0.43812700  1
  Pd  Pd29  1  0.93812700  0.93812700  0.93812700  1
  Pd  Pd30  1  0.78179500  0.78179500  0.78179500  1
  Pd  Pd31  1  0.28179500  0.28179500  0.28179500  1
  Pd  Pd32  1  0.51059300  0.79192200  0.14430800  1
  Pd  Pd33  1  0.14430800  0.51059300  0.79192200  1
  Pd  Pd34  1  0.79192200  0.14430800  0.51059300  1
  Pd  Pd35  1  0.64430800  0.29192200  0.01059300  1
  Pd  Pd36  1  0.01059300  0.64430800  0.29192200  1
  Pd  Pd37  1  0.29192200  0.01059300  0.64430800  1
  Pd  Pd38  1  0.85569200  0.48940700  0.20807800  1
  Pd  Pd39  1  0.20807800  0.85569200  0.48940700  1
  Pd  Pd40  1  0.48940700  0.20807800  0.85569200  1
  Pd  Pd41  1  0.70807800  0.98940700  0.35569200  1
  Pd  Pd42  1  0.35569200  0.70807800  0.98940700  1
  Pd  Pd43  1  0.98940700  0.35569200  0.70807800  1
