# generated using pymatgen
data_Cs3PdF5
_symmetry_space_group_name_H-M   'P 1'
_cell_length_a   8.03830400
_cell_length_b   8.03830400
_cell_length_c   6.80013400
_cell_angle_alpha   90.00000000
_cell_angle_beta   90.00000000
_cell_angle_gamma   90.00000000
_symmetry_Int_Tables_number   1
_chemical_formula_structural   Cs3PdF5
_chemical_formula_sum   'Cs6 Pd2 F10'
_cell_volume   439.38611046
_cell_formula_units_Z   2
loop_
 _symmetry_equiv_pos_site_id
 _symmetry_equiv_pos_as_xyz
  1  'x, y, z'
loop_
 _atom_site_type_symbol
 _atom_site_label
 _atom_site_symmetry_multiplicity
 _atom_site_fract_x
 _atom_site_fract_y
 _atom_site_fract_z
 _atom_site_occupancy
  Cs  Cs0  1  0.67771500  0.17771500  0.50000000  1
  Cs  Cs1  1  0.32228500  0.82228500  0.50000000  1
  Cs  Cs2  1  0.17771500  0.32228500  0.50000000  1
  Cs  Cs3  1  0.82228500  0.67771500  0.50000000  1
  Cs  Cs4  1  0.00000000  0.00000000  0.00000000  1
  Cs  Cs5  1  0.50000000  0.50000000  0.00000000  1
  Pd  Pd6  1  0.50000000  0.00000000  0.00000000  1
  Pd  Pd7  1  0.00000000  0.50000000  0.00000000  1
  F  F8  1  0.00000000  0.00000000  0.50000000  1
  F  F9  1  0.50000000  0.50000000  0.50000000  1
  F  F10  1  0.12625900  0.62625900  0.20466000  1
  F  F11  1  0.87374100  0.37374100  0.79534000  1
  F  F12  1  0.87374100  0.37374100  0.20466000  1
  F  F13  1  0.62625900  0.87374100  0.20466000  1
  F  F14  1  0.62625900  0.87374100  0.79534000  1
  F  F15  1  0.12625900  0.62625900  0.79534000  1
  F  F16  1  0.37374100  0.12625900  0.79534000  1
  F  F17  1  0.37374100  0.12625900  0.20466000  1
