# generated using pymatgen
data_Tl2Mo3P3O17
_symmetry_space_group_name_H-M   'P 1'
_cell_length_a   9.65593200
_cell_length_b   10.98302200
_cell_length_c   15.90525927
_cell_angle_alpha   68.64557768
_cell_angle_beta   90.00000000
_cell_angle_gamma   90.00000000
_symmetry_Int_Tables_number   1
_chemical_formula_structural   Tl2Mo3P3O17
_chemical_formula_sum   'Tl8 Mo12 P12 O68'
_cell_volume   1570.96949935
_cell_formula_units_Z   4
loop_
 _symmetry_equiv_pos_site_id
 _symmetry_equiv_pos_as_xyz
  1  'x, y, z'
loop_
 _atom_site_type_symbol
 _atom_site_label
 _atom_site_symmetry_multiplicity
 _atom_site_fract_x
 _atom_site_fract_y
 _atom_site_fract_z
 _atom_site_occupancy
  Tl  Tl0  1  0.37455500  0.81920100  0.50802100  1
  Tl  Tl1  1  0.62544500  0.18079900  0.49197900  1
  Tl  Tl2  1  0.87455500  0.18079900  0.99197900  1
  Tl  Tl3  1  0.12544500  0.81920100  0.00802100  1
  Tl  Tl4  1  0.87143700  0.40136500  0.20910700  1
  Tl  Tl5  1  0.12856300  0.59863500  0.79089300  1
  Tl  Tl6  1  0.37143700  0.59863500  0.29089300  1
  Tl  Tl7  1  0.62856300  0.40136500  0.70910700  1
  Mo  Mo8  1  0.11629500  0.95428800  0.24323200  1
  Mo  Mo9  1  0.88370500  0.04571200  0.75676800  1
  Mo  Mo10  1  0.61629500  0.04571200  0.25676800  1
  Mo  Mo11  1  0.38370500  0.95428800  0.74323200  1
  Mo  Mo12  1  0.61858700  0.75157200  0.06372800  1
  Mo  Mo13  1  0.38141300  0.24842800  0.93627200  1
  Mo  Mo14  1  0.11858700  0.24842800  0.43627200  1
  Mo  Mo15  1  0.88141300  0.75157200  0.56372800  1
  Mo  Mo16  1  0.75375700  0.57845300  0.40388100  1
  Mo  Mo17  1  0.24624300  0.42154700  0.59611900  1
  Mo  Mo18  1  0.25375700  0.42154700  0.09611900  1
  Mo  Mo19  1  0.74624300  0.57845300  0.90388100  1
  P  P20  1  0.82276700  0.83735500  0.20223900  1
  P  P21  1  0.17723300  0.16264500  0.79776100  1
  P  P22  1  0.32276700  0.16264500  0.29776100  1
  P  P23  1  0.67723300  0.83735500  0.70223900  1
  P  P24  1  0.59667600  0.33156600  0.06971000  1
  P  P25  1  0.40332400  0.66843400  0.93029000  1
  P  P26  1  0.09667600  0.66843400  0.43029000  1
  P  P27  1  0.90332400  0.33156600  0.56971000  1
  P  P28  1  0.39889800  0.95644900  0.12102200  1
  P  P29  1  0.60110200  0.04355100  0.87897800  1
  P  P30  1  0.89889800  0.04355100  0.37897800  1
  P  P31  1  0.10110200  0.95644900  0.62102200  1
  O  O32  1  0.97088600  0.95614800  0.33503000  1
  O  O33  1  0.02911400  0.04385200  0.66497000  1
  O  O34  1  0.47088600  0.04385200  0.16497000  1
  O  O35  1  0.52911400  0.95614800  0.83503000  1
  O  O36  1  0.43878900  0.73206000  0.00147500  1
  O  O37  1  0.56121100  0.26794000  0.99852500  1
  O  O38  1  0.93878900  0.26794000  0.49852500  1
  O  O39  1  0.06121100  0.73206000  0.50147500  1
  O  O40  1  0.76112600  0.73240600  0.28709200  1
  O  O41  1  0.23887400  0.26759400  0.71290800  1
  O  O42  1  0.26112600  0.26759400  0.21290800  1
  O  O43  1  0.73887400  0.73240600  0.78709200  1
  O  O44  1  0.58068500  0.60034200  0.42481800  1
  O  O45  1  0.41931500  0.39965800  0.57518200  1
  O  O46  1  0.08068500  0.39965800  0.07518200  1
  O  O47  1  0.91931500  0.60034200  0.92481800  1
  O  O48  1  0.74535800  0.46125700  0.35352500  1
  O  O49  1  0.25464200  0.53874300  0.64647500  1
  O  O50  1  0.24535800  0.53874300  0.14647500  1
  O  O51  1  0.75464200  0.46125700  0.85352500  1
  O  O52  1  0.78737600  0.80645900  0.11675900  1
  O  O53  1  0.21262400  0.19354100  0.88324100  1
  O  O54  1  0.28737600  0.19354100  0.38324100  1
  O  O55  1  0.71262400  0.80645900  0.61675900  1
  O  O56  1  0.67245200  0.23129100  0.15023600  1
  O  O57  1  0.32754800  0.76870900  0.84976400  1
  O  O58  1  0.17245200  0.76870900  0.34976400  1
  O  O59  1  0.82754800  0.23129100  0.65023600  1
  O  O60  1  0.98298500  0.83866000  0.20268400  1
  O  O61  1  0.01701500  0.16134000  0.79731600  1
  O  O62  1  0.48298500  0.16134000  0.29731600  1
  O  O63  1  0.51701500  0.83866000  0.70268400  1
  O  O64  1  0.60993000  0.60291000  0.15237400  1
  O  O65  1  0.39007000  0.39709000  0.84762600  1
  O  O66  1  0.10993000  0.39709000  0.34762600  1
  O  O67  1  0.89007000  0.60291000  0.65237400  1
  O  O68  1  0.70887400  0.43992400  0.02699600  1
  O  O69  1  0.29112600  0.56007600  0.97300400  1
  O  O70  1  0.20887400  0.56007600  0.47300400  1
  O  O71  1  0.79112600  0.43992400  0.52699600  1
  O  O72  1  0.86005200  0.96276400  0.47636400  1
  O  O73  1  0.13994800  0.03723600  0.52363600  1
  O  O74  1  0.36005200  0.03723600  0.02363600  1
  O  O75  1  0.63994800  0.96276400  0.97636400  1
  O  O76  1  0.49073200  0.83558000  0.13102500  1
  O  O77  1  0.50926800  0.16442000  0.86897500  1
  O  O78  1  0.99073200  0.16442000  0.36897500  1
  O  O79  1  0.00926800  0.83558000  0.63102500  1
  O  O80  1  0.78722300  0.71220400  0.48142200  1
  O  O81  1  0.21277700  0.28779600  0.51857800  1
  O  O82  1  0.28722300  0.28779600  0.01857800  1
  O  O83  1  0.71277700  0.71220400  0.98142200  1
  O  O84  1  0.76309100  0.97219200  0.19239500  1
  O  O85  1  0.23690900  0.02780800  0.80760500  1
  O  O86  1  0.26309100  0.02780800  0.30760500  1
  O  O87  1  0.73690900  0.97219200  0.69239500  1
  O  O88  1  0.26547900  0.89360300  0.17537700  1
  O  O89  1  0.73452100  0.10639700  0.82462300  1
  O  O90  1  0.76547900  0.10639700  0.32462300  1
  O  O91  1  0.23452100  0.89360300  0.67537700  1
  O  O92  1  0.56828100  0.90468700  0.34269200  1
  O  O93  1  0.43171900  0.09531300  0.65730800  1
  O  O94  1  0.06828100  0.09531300  0.15730800  1
  O  O95  1  0.93171900  0.90468700  0.84269200  1
  O  O96  1  0.96957800  0.60852200  0.40289100  1
  O  O97  1  0.03042200  0.39147800  0.59710900  1
  O  O98  1  0.46957800  0.39147800  0.09710900  1
  O  O99  1  0.53042200  0.60852200  0.90289100  1
