# generated using pymatgen
data_Cs2Pd3Se4
_symmetry_space_group_name_H-M   'P 1'
_cell_length_a   9.34521082
_cell_length_b   8.15787542
_cell_length_c   6.55304216
_cell_angle_alpha   78.03787277
_cell_angle_beta   58.64843975
_cell_angle_gamma   43.31368747
_symmetry_Int_Tables_number   1
_chemical_formula_structural   Cs2Pd3Se4
_chemical_formula_sum   'Cs2 Pd3 Se4'
_cell_volume   279.88075600
_cell_formula_units_Z   1
loop_
 _symmetry_equiv_pos_site_id
 _symmetry_equiv_pos_as_xyz
  1  'x, y, z'
loop_
 _atom_site_type_symbol
 _atom_site_label
 _atom_site_symmetry_multiplicity
 _atom_site_fract_x
 _atom_site_fract_y
 _atom_site_fract_z
 _atom_site_occupancy
  Cs  Cs0  1  0.84814900  0.84814900  0.15185100  1
  Cs  Cs1  1  0.15185100  0.15185100  0.84814900  1
  Pd  Pd2  1  0.50000000  0.50000000  0.00000000  1
  Pd  Pd3  1  0.00000000  0.00000000  0.50000000  1
  Pd  Pd4  1  0.50000000  0.50000000  0.50000000  1
  Se  Se5  1  0.77642800  0.44043500  0.55956500  1
  Se  Se6  1  0.44043500  0.77642800  0.22357200  1
  Se  Se7  1  0.22357200  0.55956500  0.44043500  1
  Se  Se8  1  0.55956500  0.22357200  0.77642800  1
