# generated using pymatgen
data_B8H4PbO15
_symmetry_space_group_name_H-M   'P 1'
_cell_length_a   8.10499000
_cell_length_b   14.35216300
_cell_length_c   12.85414446
_cell_angle_alpha   90.00000000
_cell_angle_beta   128.72721201
_cell_angle_gamma   90.00000000
_symmetry_Int_Tables_number   1
_chemical_formula_structural   B8H4PbO15
_chemical_formula_sum   'B32 H16 Pb4 O60'
_cell_volume   1166.49228661
_cell_formula_units_Z   4
loop_
 _symmetry_equiv_pos_site_id
 _symmetry_equiv_pos_as_xyz
  1  'x, y, z'
loop_
 _atom_site_type_symbol
 _atom_site_label
 _atom_site_symmetry_multiplicity
 _atom_site_fract_x
 _atom_site_fract_y
 _atom_site_fract_z
 _atom_site_occupancy
  B  B0  1  0.88539400  0.54036400  0.12507400  1
  B  B1  1  0.88539400  0.95963600  0.62507400  1
  B  B2  1  0.11460600  0.45963600  0.87492600  1
  B  B3  1  0.11460600  0.04036400  0.37492600  1
  B  B4  1  0.69173000  0.68203700  0.98976200  1
  B  B5  1  0.69173000  0.81796300  0.48976200  1
  B  B6  1  0.30827000  0.31796300  0.01023800  1
  B  B7  1  0.30827000  0.18203700  0.51023800  1
  B  B8  1  0.95693600  0.68825700  0.25226700  1
  B  B9  1  0.95693600  0.81174300  0.75226700  1
  B  B10  1  0.04306400  0.31174300  0.74773300  1
  B  B11  1  0.04306400  0.18825700  0.24773300  1
  B  B12  1  0.33070500  0.75001600  0.88734500  1
  B  B13  1  0.33070500  0.74998400  0.38734500  1
  B  B14  1  0.66929500  0.24998400  0.11265500  1
  B  B15  1  0.66929500  0.25001600  0.61265500  1
  B  B16  1  0.63180300  0.80267100  0.11605400  1
  B  B17  1  0.63180300  0.69732900  0.61605400  1
  B  B18  1  0.36819700  0.19732900  0.88394600  1
  B  B19  1  0.36819700  0.30267100  0.38394600  1
  B  B20  1  0.80176800  0.75941700  0.35373000  1
  B  B21  1  0.80176800  0.74058300  0.85373000  1
  B  B22  1  0.19823200  0.24058300  0.64627000  1
  B  B23  1  0.19823200  0.25941700  0.14627000  1
  B  B24  1  0.68522900  0.93075300  0.00017000  1
  B  B25  1  0.68522900  0.56924700  0.50017000  1
  B  B26  1  0.31477100  0.06924700  0.99983000  1
  B  B27  1  0.31477100  0.43075300  0.49983000  1
  B  B28  1  0.45547900  0.92662100  0.74883500  1
  B  B29  1  0.45547900  0.57337900  0.24883500  1
  B  B30  1  0.54452100  0.07337900  0.25116500  1
  B  B31  1  0.54452100  0.42662100  0.75116500  1
  H  H32  1  0.04098800  0.42202800  0.21124000  1
  H  H33  1  0.04098800  0.07797200  0.71124000  1
  H  H34  1  0.95901200  0.57797200  0.78876000  1
  H  H35  1  0.95901200  0.92202800  0.28876000  1
  H  H36  1  0.88604900  0.03441200  0.11108600  1
  H  H37  1  0.88604900  0.46558800  0.61108600  1
  H  H38  1  0.11395100  0.96558800  0.88891400  1
  H  H39  1  0.11395100  0.53441200  0.38891400  1
  H  H40  1  0.23304100  0.89560100  0.55330600  1
  H  H41  1  0.23304100  0.60439900  0.05330600  1
  H  H42  1  0.76695900  0.10439900  0.44669400  1
  H  H43  1  0.76695900  0.39560100  0.94669400  1
  H  H44  1  0.43142900  0.03131400  0.63788600  1
  H  H45  1  0.43142900  0.46868600  0.13788600  1
  H  H46  1  0.56857100  0.96868600  0.36211400  1
  H  H47  1  0.56857100  0.53131400  0.86211400  1
  Pb  Pb48  1  0.25350100  0.66722600  0.62503600  1
  Pb  Pb49  1  0.25350100  0.83277400  0.12503600  1
  Pb  Pb50  1  0.74649900  0.33277400  0.37496400  1
  Pb  Pb51  1  0.74649900  0.16722600  0.87496400  1
  O  O52  1  0.92592400  0.44743900  0.12225900  1
  O  O53  1  0.92592400  0.05256100  0.62225900  1
  O  O54  1  0.07407600  0.55256100  0.87774100  1
  O  O55  1  0.07407600  0.94743900  0.37774100  1
  O  O56  1  0.73451500  0.58171300  0.00434600  1
  O  O57  1  0.73451500  0.91828700  0.50434600  1
  O  O58  1  0.26548500  0.41828700  0.99565400  1
  O  O59  1  0.26548500  0.08171300  0.49565400  1
  O  O60  1  0.98805000  0.58847000  0.24289200  1
  O  O61  1  0.98805000  0.91153000  0.74289200  1
  O  O62  1  0.01195000  0.41153000  0.75710800  1
  O  O63  1  0.01195000  0.08847000  0.25710800  1
  O  O64  1  0.74717200  0.71787600  0.12033100  1
  O  O65  1  0.74717200  0.78212400  0.62033100  1
  O  O66  1  0.25282800  0.28212400  0.87966900  1
  O  O67  1  0.25282800  0.21787600  0.37966900  1
  O  O68  1  0.94328000  0.70131100  0.36000600  1
  O  O69  1  0.94328000  0.79868900  0.86000600  1
  O  O70  1  0.05672000  0.29868900  0.63999400  1
  O  O71  1  0.05672000  0.20131100  0.13999400  1
  O  O72  1  0.12599300  0.74501300  0.27447000  1
  O  O73  1  0.12599300  0.75498700  0.77447000  1
  O  O74  1  0.87400700  0.25498700  0.72553000  1
  O  O75  1  0.87400700  0.24501300  0.22553000  1
  O  O76  1  0.82283800  0.73208000  0.96680600  1
  O  O77  1  0.82283800  0.76792000  0.46680600  1
  O  O78  1  0.17716200  0.26792000  0.03319400  1
  O  O79  1  0.17716200  0.23208000  0.53319400  1
  O  O80  1  0.46493600  0.69519900  0.88168600  1
  O  O81  1  0.46493600  0.80480100  0.38168600  1
  O  O82  1  0.53506400  0.30480100  0.11831400  1
  O  O83  1  0.53506400  0.19519900  0.61831400  1
  O  O84  1  0.40500400  0.79357400  0.00538700  1
  O  O85  1  0.40500400  0.70642600  0.50538700  1
  O  O86  1  0.59499600  0.20642600  0.99461300  1
  O  O87  1  0.59499600  0.29357400  0.49461300  1
  O  O88  1  0.64861700  0.80580000  0.23658800  1
  O  O89  1  0.64861700  0.69420000  0.73658800  1
  O  O90  1  0.35138300  0.19420000  0.76341200  1
  O  O91  1  0.35138300  0.30580000  0.26341200  1
  O  O92  1  0.72374300  0.88829900  0.10900800  1
  O  O93  1  0.72374300  0.61170100  0.60900800  1
  O  O94  1  0.27625700  0.11170100  0.89099200  1
  O  O95  1  0.27625700  0.38829900  0.39099200  1
  O  O96  1  0.79920500  0.00918600  0.01789800  1
  O  O97  1  0.79920500  0.49081400  0.51789800  1
  O  O98  1  0.20079500  0.99081400  0.98210200  1
  O  O99  1  0.20079500  0.50918600  0.48210200  1
  O  O100  1  0.53495900  0.89513400  0.87347700  1
  O  O101  1  0.53495900  0.60486600  0.37347700  1
  O  O102  1  0.46504100  0.10486600  0.12652300  1
  O  O103  1  0.46504100  0.39513400  0.62652300  1
  O  O104  1  0.30526900  0.86957000  0.64352200  1
  O  O105  1  0.30526900  0.63043000  0.14352200  1
  O  O106  1  0.69473100  0.13043000  0.35647800  1
  O  O107  1  0.69473100  0.36957000  0.85647800  1
  O  O108  1  0.52453600  0.00878600  0.73303600  1
  O  O109  1  0.52453600  0.49121400  0.23303600  1
  O  O110  1  0.47546400  0.99121400  0.26696400  1
  O  O111  1  0.47546400  0.50878600  0.76696400  1
