# generated using pymatgen
data_Lu(AlCu)6
_symmetry_space_group_name_H-M   'P 1'
_cell_length_a   6.58108176
_cell_length_b   6.58108176
_cell_length_c   6.58108176
_cell_angle_alpha   134.70650997
_cell_angle_beta   99.18054214
_cell_angle_gamma   97.87304818
_symmetry_Int_Tables_number   1
_chemical_formula_structural   Lu(AlCu)6
_chemical_formula_sum   'Lu1 Al6 Cu6'
_cell_volume   186.94116679
_cell_formula_units_Z   1
loop_
 _symmetry_equiv_pos_site_id
 _symmetry_equiv_pos_as_xyz
  1  'x, y, z'
loop_
 _atom_site_type_symbol
 _atom_site_label
 _atom_site_symmetry_multiplicity
 _atom_site_fract_x
 _atom_site_fract_y
 _atom_site_fract_z
 _atom_site_occupancy
  Lu  Lu0  1  0.00000000  0.00000000  0.00000000  1
  Al  Al1  1  0.65194500  0.65194500  0.00000000  1
  Al  Al2  1  0.34805500  0.34805500  0.00000000  1
  Al  Al3  1  0.34536200  0.00000000  0.34536200  1
  Al  Al4  1  0.65463800  0.00000000  0.65463800  1
  Al  Al5  1  0.20169000  0.70169000  0.50000000  1
  Al  Al6  1  0.79831000  0.29831000  0.50000000  1
  Cu  Cu7  1  0.50000000  0.50000000  0.50000000  1
  Cu  Cu8  1  0.50000000  0.00000000  0.00000000  1
  Cu  Cu9  1  0.00000000  0.50000000  0.00000000  1
  Cu  Cu10  1  0.00000000  0.00000000  0.50000000  1
  Cu  Cu11  1  0.77383100  0.50000000  0.27383100  1
  Cu  Cu12  1  0.22616900  0.50000000  0.72616900  1
