# generated using pymatgen
data_ErAu
_symmetry_space_group_name_H-M   'P 1'
_cell_length_a   5.75398027
_cell_length_b   5.75398027
_cell_length_c   4.66132300
_cell_angle_alpha   90.00000000
_cell_angle_beta   90.00000000
_cell_angle_gamma   142.46090772
_symmetry_Int_Tables_number   1
_chemical_formula_structural   ErAu
_chemical_formula_sum   'Er2 Au2'
_cell_volume   94.03271040
_cell_formula_units_Z   2
loop_
 _symmetry_equiv_pos_site_id
 _symmetry_equiv_pos_as_xyz
  1  'x, y, z'
loop_
 _atom_site_type_symbol
 _atom_site_label
 _atom_site_symmetry_multiplicity
 _atom_site_fract_x
 _atom_site_fract_y
 _atom_site_fract_z
 _atom_site_occupancy
  Er  Er0  1  0.86109000  0.13891000  0.25000000  1
  Er  Er1  1  0.13891000  0.86109000  0.75000000  1
  Au  Au2  1  0.58912400  0.41087600  0.25000000  1
  Au  Au3  1  0.41087600  0.58912400  0.75000000  1
