# generated using pymatgen
data_Be2P2PbO8
_symmetry_space_group_name_H-M   'P 1'
_cell_length_a   9.12496000
_cell_length_b   8.17879200
_cell_length_c   8.49386858
_cell_angle_alpha   89.89024316
_cell_angle_beta   90.00000000
_cell_angle_gamma   90.00000000
_symmetry_Int_Tables_number   1
_chemical_formula_structural   Be2P2PbO8
_chemical_formula_sum   'Be8 P8 Pb4 O32'
_cell_volume   633.90601603
_cell_formula_units_Z   4
loop_
 _symmetry_equiv_pos_site_id
 _symmetry_equiv_pos_as_xyz
  1  'x, y, z'
loop_
 _atom_site_type_symbol
 _atom_site_label
 _atom_site_symmetry_multiplicity
 _atom_site_fract_x
 _atom_site_fract_y
 _atom_site_fract_z
 _atom_site_occupancy
  Be  Be0  1  0.19368900  0.42345400  0.06405700  1
  Be  Be1  1  0.69368900  0.57654600  0.43594300  1
  Be  Be2  1  0.80631100  0.57654600  0.93594300  1
  Be  Be3  1  0.30631100  0.42345400  0.56405700  1
  Be  Be4  1  0.41824400  0.92760600  0.27331400  1
  Be  Be5  1  0.91824400  0.07239400  0.22668600  1
  Be  Be6  1  0.58175600  0.07239400  0.72668600  1
  Be  Be7  1  0.08175600  0.92760600  0.77331400  1
  P  P8  1  0.91329000  0.43613100  0.23128500  1
  P  P9  1  0.41329000  0.56386900  0.26871500  1
  P  P10  1  0.08671000  0.56386900  0.76871500  1
  P  P11  1  0.58671000  0.43613100  0.73128500  1
  P  P12  1  0.19680400  0.06611900  0.06751500  1
  P  P13  1  0.69680400  0.93388100  0.43248500  1
  P  P14  1  0.80319600  0.93388100  0.93248500  1
  P  P15  1  0.30319600  0.06611900  0.56751500  1
  Pb  Pb16  1  0.59274600  0.24366900  0.10607400  1
  Pb  Pb17  1  0.09274600  0.75633100  0.39392600  1
  Pb  Pb18  1  0.40725400  0.75633100  0.89392600  1
  Pb  Pb19  1  0.90725400  0.24366900  0.60607400  1
  O  O20  1  0.07321700  0.48255600  0.19633400  1
  O  O21  1  0.57321700  0.51744400  0.30366600  1
  O  O22  1  0.92678300  0.51744400  0.80366600  1
  O  O23  1  0.42678300  0.48255600  0.69633400  1
  O  O24  1  0.81542100  0.44489000  0.08309700  1
  O  O25  1  0.31542100  0.55511000  0.41690300  1
  O  O26  1  0.18457900  0.55511000  0.91690300  1
  O  O27  1  0.68457900  0.44489000  0.58309700  1
  O  O28  1  0.89810800  0.25865400  0.29950900  1
  O  O29  1  0.39810800  0.74134600  0.20049100  1
  O  O30  1  0.10189200  0.74134600  0.70049100  1
  O  O31  1  0.60189200  0.25865400  0.79950900  1
  O  O32  1  0.36073500  0.44618800  0.13675500  1
  O  O33  1  0.86073500  0.55381200  0.36324500  1
  O  O34  1  0.63926500  0.55381200  0.86324500  1
  O  O35  1  0.13926500  0.44618800  0.63675500  1
  O  O36  1  0.35705700  0.04637200  0.13035500  1
  O  O37  1  0.85705700  0.95362800  0.36964500  1
  O  O38  1  0.64294300  0.95362800  0.86964500  1
  O  O39  1  0.14294300  0.04637200  0.63035500  1
  O  O40  1  0.82067500  0.06219600  0.06705700  1
  O  O41  1  0.32067500  0.93780400  0.43294300  1
  O  O42  1  0.17932500  0.93780400  0.93294300  1
  O  O43  1  0.67932500  0.06219600  0.56705700  1
  O  O44  1  0.58801000  0.97971200  0.29782700  1
  O  O45  1  0.08801000  0.02028800  0.20217300  1
  O  O46  1  0.41199000  0.02028800  0.70217300  1
  O  O47  1  0.91199000  0.97971200  0.79782700  1
  O  O48  1  0.16922400  0.23855100  0.00499000  1
  O  O49  1  0.66922400  0.76144900  0.49501000  1
  O  O50  1  0.83077600  0.76144900  0.99501000  1
  O  O51  1  0.33077600  0.23855100  0.50499000  1
