# generated using pymatgen
data_NdGePd2
_symmetry_space_group_name_H-M   'P 1'
_cell_length_a   5.80239500
_cell_length_b   7.14041100
_cell_length_c   7.59440800
_cell_angle_alpha   90.00000000
_cell_angle_beta   90.00000000
_cell_angle_gamma   90.00000000
_symmetry_Int_Tables_number   1
_chemical_formula_structural   NdGePd2
_chemical_formula_sum   'Nd4 Ge4 Pd8'
_cell_volume   314.64760178
_cell_formula_units_Z   4
loop_
 _symmetry_equiv_pos_site_id
 _symmetry_equiv_pos_as_xyz
  1  'x, y, z'
loop_
 _atom_site_type_symbol
 _atom_site_label
 _atom_site_symmetry_multiplicity
 _atom_site_fract_x
 _atom_site_fract_y
 _atom_site_fract_z
 _atom_site_occupancy
  Nd  Nd0  1  0.35518200  0.75000000  0.02379200  1
  Nd  Nd1  1  0.14481800  0.75000000  0.52379200  1
  Nd  Nd2  1  0.64481800  0.25000000  0.97620800  1
  Nd  Nd3  1  0.85518200  0.25000000  0.47620800  1
  Ge  Ge4  1  0.64328500  0.75000000  0.37803500  1
  Ge  Ge5  1  0.85671500  0.75000000  0.87803500  1
  Ge  Ge6  1  0.35671500  0.25000000  0.62196500  1
  Ge  Ge7  1  0.14328500  0.25000000  0.12196500  1
  Pd  Pd8  1  0.91125400  0.55267700  0.18142700  1
  Pd  Pd9  1  0.58874600  0.94732300  0.68142700  1
  Pd  Pd10  1  0.08874600  0.05267700  0.81857300  1
  Pd  Pd11  1  0.41125400  0.44732300  0.31857300  1
  Pd  Pd12  1  0.08874600  0.44732300  0.81857300  1
  Pd  Pd13  1  0.41125400  0.05267700  0.31857300  1
  Pd  Pd14  1  0.91125400  0.94732300  0.18142700  1
  Pd  Pd15  1  0.58874600  0.55267700  0.68142700  1
