# generated using pymatgen
data_Cs2SbF5
_symmetry_space_group_name_H-M   'P 1'
_cell_length_a   8.27012356
_cell_length_b   8.27012356
_cell_length_c   7.18370000
_cell_angle_alpha   90.00000000
_cell_angle_beta   90.00000000
_cell_angle_gamma   131.45377644
_symmetry_Int_Tables_number   1
_chemical_formula_structural   Cs2SbF5
_chemical_formula_sum   'Cs4 Sb2 F10'
_cell_volume   368.24601401
_cell_formula_units_Z   2
loop_
 _symmetry_equiv_pos_site_id
 _symmetry_equiv_pos_as_xyz
  1  'x, y, z'
loop_
 _atom_site_type_symbol
 _atom_site_label
 _atom_site_symmetry_multiplicity
 _atom_site_fract_x
 _atom_site_fract_y
 _atom_site_fract_z
 _atom_site_occupancy
  Cs  Cs0  1  0.24602100  0.75397900  0.25000000  1
  Cs  Cs1  1  0.75397900  0.24602100  0.75000000  1
  Cs  Cs2  1  0.56557000  0.43443000  0.25000000  1
  Cs  Cs3  1  0.43443000  0.56557000  0.75000000  1
  Sb  Sb4  1  0.90496500  0.09503500  0.25000000  1
  Sb  Sb5  1  0.09503500  0.90496500  0.75000000  1
  F  F6  1  0.10347700  0.33800700  0.04608200  1
  F  F7  1  0.89652300  0.66199300  0.95391800  1
  F  F8  1  0.89652300  0.66199300  0.54608200  1
  F  F9  1  0.66199300  0.89652300  0.45391800  1
  F  F10  1  0.10347700  0.33800700  0.45391800  1
  F  F11  1  0.33800700  0.10347700  0.54608200  1
  F  F12  1  0.33800700  0.10347700  0.95391800  1
  F  F13  1  0.66199300  0.89652300  0.04608200  1
  F  F14  1  0.77228800  0.22771200  0.25000000  1
  F  F15  1  0.22771200  0.77228800  0.75000000  1
