# generated using pymatgen
data_Lu2ReB6
_symmetry_space_group_name_H-M   'P 1'
_cell_length_a   3.61787700
_cell_length_b   9.08545000
_cell_length_c   11.45165000
_cell_angle_alpha   90.00000000
_cell_angle_beta   90.00000000
_cell_angle_gamma   90.00000000
_symmetry_Int_Tables_number   1
_chemical_formula_structural   Lu2ReB6
_chemical_formula_sum   'Lu8 Re4 B24'
_cell_volume   376.41620032
_cell_formula_units_Z   4
loop_
 _symmetry_equiv_pos_site_id
 _symmetry_equiv_pos_as_xyz
  1  'x, y, z'
loop_
 _atom_site_type_symbol
 _atom_site_label
 _atom_site_symmetry_multiplicity
 _atom_site_fract_x
 _atom_site_fract_y
 _atom_site_fract_z
 _atom_site_occupancy
  Lu  Lu0  1  0.00000000  0.32359500  0.41358700  1
  Lu  Lu1  1  0.00000000  0.67640500  0.58641300  1
  Lu  Lu2  1  0.00000000  0.82359500  0.08641300  1
  Lu  Lu3  1  0.00000000  0.17640500  0.91358700  1
  Lu  Lu4  1  0.00000000  0.94438100  0.37053200  1
  Lu  Lu5  1  0.00000000  0.05561900  0.62946800  1
  Lu  Lu6  1  0.00000000  0.44438100  0.12946800  1
  Lu  Lu7  1  0.00000000  0.55561900  0.87053200  1
  Re  Re8  1  0.00000000  0.63938700  0.32108600  1
  Re  Re9  1  0.00000000  0.36061300  0.67891400  1
  Re  Re10  1  0.00000000  0.13938700  0.17891400  1
  Re  Re11  1  0.00000000  0.86061300  0.82108600  1
  B  B12  1  0.50000000  0.55352800  0.43365400  1
  B  B13  1  0.50000000  0.44647200  0.56634600  1
  B  B14  1  0.50000000  0.05352800  0.06634600  1
  B  B15  1  0.50000000  0.94647200  0.93365400  1
  B  B16  1  0.50000000  0.75130100  0.42053900  1
  B  B17  1  0.50000000  0.24869900  0.57946100  1
  B  B18  1  0.50000000  0.25130100  0.07946100  1
  B  B19  1  0.50000000  0.74869900  0.92053900  1
  B  B20  1  0.50000000  0.79450600  0.26578900  1
  B  B21  1  0.50000000  0.20549400  0.73421100  1
  B  B22  1  0.50000000  0.29450600  0.23421100  1
  B  B23  1  0.50000000  0.70549400  0.76578900  1
  B  B24  1  0.50000000  0.63207800  0.18523200  1
  B  B25  1  0.50000000  0.36792200  0.81476800  1
  B  B26  1  0.50000000  0.13207800  0.31476800  1
  B  B27  1  0.50000000  0.86792200  0.68523200  1
  B  B28  1  0.50000000  0.98221700  0.21225400  1
  B  B29  1  0.50000000  0.01778300  0.78774600  1
  B  B30  1  0.50000000  0.48221700  0.28774600  1
  B  B31  1  0.50000000  0.51778300  0.71225400  1
  B  B32  1  0.50000000  0.60037500  0.02819000  1
  B  B33  1  0.50000000  0.39962500  0.97181000  1
  B  B34  1  0.50000000  0.10037500  0.47181000  1
  B  B35  1  0.50000000  0.89962500  0.52819000  1
