# generated using pymatgen
data_Na2Co(Si2O5)2
_symmetry_space_group_name_H-M   'P 1'
_cell_length_a   7.01588500
_cell_length_b   7.87491655
_cell_length_c   9.88298531
_cell_angle_alpha   102.17871536
_cell_angle_beta   102.25128250
_cell_angle_gamma   114.83716140
_symmetry_Int_Tables_number   1
_chemical_formula_structural   Na2Co(Si2O5)2
_chemical_formula_sum   'Na4 Co2 Si8 O20'
_cell_volume   455.67354172
_cell_formula_units_Z   2
loop_
 _symmetry_equiv_pos_site_id
 _symmetry_equiv_pos_as_xyz
  1  'x, y, z'
loop_
 _atom_site_type_symbol
 _atom_site_label
 _atom_site_symmetry_multiplicity
 _atom_site_fract_x
 _atom_site_fract_y
 _atom_site_fract_z
 _atom_site_occupancy
  Na  Na0  1  0.65628500  0.76800500  0.98405400  1
  Na  Na1  1  0.73818500  0.27525300  0.42146300  1
  Na  Na2  1  0.26181500  0.72474700  0.57853700  1
  Na  Na3  1  0.34371500  0.23199500  0.01594600  1
  Co  Co4  1  0.75499600  0.69237400  0.58120900  1
  Co  Co5  1  0.24500400  0.30762600  0.41879100  1
  Si  Si6  1  0.09025200  0.71255000  0.86207700  1
  Si  Si7  1  0.90974800  0.28745000  0.13792300  1
  Si  Si8  1  0.23461900  0.92772200  0.19786600  1
  Si  Si9  1  0.76538100  0.07227800  0.80213400  1
  Si  Si10  1  0.38769300  0.62816900  0.25862400  1
  Si  Si11  1  0.18961000  0.38091000  0.75197400  1
  Si  Si12  1  0.81039000  0.61909000  0.24802600  1
  Si  Si13  1  0.61230700  0.37183100  0.74137600  1
  O  O14  1  0.98129500  0.79188900  0.19755800  1
  O  O15  1  0.01870500  0.20811100  0.80244200  1
  O  O16  1  0.84838200  0.55312800  0.86745700  1
  O  O17  1  0.15161800  0.44687200  0.13254300  1
  O  O18  1  0.57401800  0.62182700  0.18234100  1
  O  O19  1  0.42598200  0.37817300  0.81765900  1
  O  O20  1  0.24666900  0.60207500  0.85969200  1
  O  O21  1  0.75333100  0.39792500  0.14030800  1
  O  O22  1  0.88600100  0.64518200  0.41835400  1
  O  O23  1  0.11399900  0.35481800  0.58164600  1
  O  O24  1  0.42661200  0.59795400  0.41601300  1
  O  O25  1  0.57338800  0.40204600  0.58398700  1
  O  O26  1  0.06373300  0.79093800  0.72720500  1
  O  O27  1  0.93626700  0.20906200  0.27279500  1
  O  O28  1  0.78538300  0.10386300  0.97781600  1
  O  O29  1  0.21461700  0.89613700  0.02218400  1
  O  O30  1  0.60486000  0.15775000  0.73046000  1
  O  O31  1  0.39514000  0.84225000  0.26954000  1
  O  O32  1  0.34466100  0.16084700  0.28054400  1
  O  O33  1  0.65533900  0.83915300  0.71945600  1
