# generated using pymatgen
data_Nd23Cd4Ir7
_symmetry_space_group_name_H-M   'P 1'
_cell_length_a   10.05121429
_cell_length_b   10.05121429
_cell_length_c   22.64135400
_cell_angle_alpha   90.00000000
_cell_angle_beta   90.00000000
_cell_angle_gamma   120.00000192
_symmetry_Int_Tables_number   1
_chemical_formula_structural   Nd23Cd4Ir7
_chemical_formula_sum   'Nd46 Cd8 Ir14'
_cell_volume   1980.93434969
_cell_formula_units_Z   2
loop_
 _symmetry_equiv_pos_site_id
 _symmetry_equiv_pos_as_xyz
  1  'x, y, z'
loop_
 _atom_site_type_symbol
 _atom_site_label
 _atom_site_symmetry_multiplicity
 _atom_site_fract_x
 _atom_site_fract_y
 _atom_site_fract_z
 _atom_site_occupancy
  Nd  Nd0  1  0.20635400  0.41270800  0.72037100  1
  Nd  Nd1  1  0.20635400  0.79364600  0.72037100  1
  Nd  Nd2  1  0.79364600  0.58729200  0.22037100  1
  Nd  Nd3  1  0.58729200  0.79364600  0.72037100  1
  Nd  Nd4  1  0.79364600  0.20635400  0.22037100  1
  Nd  Nd5  1  0.41270800  0.20635400  0.22037100  1
  Nd  Nd6  1  0.79359600  0.58719200  0.94649800  1
  Nd  Nd7  1  0.79359600  0.20640400  0.94649800  1
  Nd  Nd8  1  0.20640400  0.41280800  0.44649800  1
  Nd  Nd9  1  0.41280800  0.20640400  0.94649800  1
  Nd  Nd10  1  0.20640400  0.79359600  0.44649800  1
  Nd  Nd11  1  0.58719200  0.79359600  0.44649800  1
  Nd  Nd12  1  0.20849100  0.41698100  0.98967400  1
  Nd  Nd13  1  0.20849100  0.79150900  0.98967400  1
  Nd  Nd14  1  0.79150900  0.58301900  0.48967400  1
  Nd  Nd15  1  0.58301900  0.79150900  0.98967400  1
  Nd  Nd16  1  0.79150900  0.20849100  0.48967400  1
  Nd  Nd17  1  0.41698100  0.20849100  0.48967400  1
  Nd  Nd18  1  0.87263200  0.74526500  0.63601500  1
  Nd  Nd19  1  0.87263200  0.12736800  0.63601500  1
  Nd  Nd20  1  0.12736800  0.25473500  0.13601500  1
  Nd  Nd21  1  0.25473500  0.12736800  0.63601500  1
  Nd  Nd22  1  0.12736800  0.87263200  0.13601500  1
  Nd  Nd23  1  0.74526500  0.87263200  0.13601500  1
  Nd  Nd24  1  0.46035900  0.92071800  0.85586500  1
  Nd  Nd25  1  0.46035900  0.53964100  0.85586500  1
  Nd  Nd26  1  0.53964100  0.07928200  0.35586500  1
  Nd  Nd27  1  0.07928200  0.53964100  0.85586500  1
  Nd  Nd28  1  0.53964100  0.46035900  0.35586500  1
  Nd  Nd29  1  0.92071800  0.46035900  0.35586500  1
  Nd  Nd30  1  0.00000000  0.00000000  0.99782900  1
  Nd  Nd31  1  0.00000000  0.00000000  0.49782900  1
  Nd  Nd32  1  0.46119700  0.92239300  0.58572100  1
  Nd  Nd33  1  0.46119700  0.53880300  0.58572100  1
  Nd  Nd34  1  0.53880300  0.07760700  0.08572100  1
  Nd  Nd35  1  0.07760700  0.53880300  0.58572100  1
  Nd  Nd36  1  0.53880300  0.46119700  0.08572100  1
  Nd  Nd37  1  0.92239300  0.46119700  0.08572100  1
  Nd  Nd38  1  0.79803800  0.59607500  0.78243300  1
  Nd  Nd39  1  0.79803800  0.20196200  0.78243300  1
  Nd  Nd40  1  0.20196200  0.40392500  0.28243300  1
  Nd  Nd41  1  0.40392500  0.20196200  0.78243300  1
  Nd  Nd42  1  0.20196200  0.79803800  0.28243300  1
  Nd  Nd43  1  0.59607500  0.79803800  0.28243300  1
  Nd  Nd44  1  0.66666700  0.33333300  0.64539100  1
  Nd  Nd45  1  0.33333300  0.66666700  0.14539100  1
  Cd  Cd46  1  0.00000000  0.00000000  0.74965200  1
  Cd  Cd47  1  0.00000000  0.00000000  0.24965200  1
  Cd  Cd48  1  0.10694100  0.21388300  0.86348600  1
  Cd  Cd49  1  0.10694100  0.89305900  0.86348600  1
  Cd  Cd50  1  0.89305900  0.78611700  0.36348600  1
  Cd  Cd51  1  0.78611700  0.89305900  0.86348600  1
  Cd  Cd52  1  0.89305900  0.10694100  0.36348600  1
  Cd  Cd53  1  0.21388300  0.10694100  0.36348600  1
  Ir  Ir54  1  0.52066200  0.04132500  0.71019300  1
  Ir  Ir55  1  0.52066200  0.47933800  0.71019300  1
  Ir  Ir56  1  0.47933800  0.95867500  0.21019300  1
  Ir  Ir57  1  0.95867500  0.47933800  0.71019300  1
  Ir  Ir58  1  0.47933800  0.52066200  0.21019300  1
  Ir  Ir59  1  0.04132500  0.52066200  0.21019300  1
  Ir  Ir60  1  0.66666700  0.33333300  0.86389500  1
  Ir  Ir61  1  0.33333300  0.66666700  0.36389500  1
  Ir  Ir62  1  0.14392900  0.28785800  0.56306100  1
  Ir  Ir63  1  0.14392900  0.85607100  0.56306100  1
  Ir  Ir64  1  0.85607100  0.71214200  0.06306100  1
  Ir  Ir65  1  0.71214200  0.85607100  0.56306100  1
  Ir  Ir66  1  0.85607100  0.14392900  0.06306100  1
  Ir  Ir67  1  0.28785800  0.14392900  0.06306100  1
