# generated using pymatgen
data_SrCuSF
_symmetry_space_group_name_H-M   'P 1'
_cell_length_a   3.96777500
_cell_length_b   3.96777500
_cell_length_c   8.70664600
_cell_angle_alpha   90.00000000
_cell_angle_beta   90.00000000
_cell_angle_gamma   90.00000000
_symmetry_Int_Tables_number   1
_chemical_formula_structural   SrCuSF
_chemical_formula_sum   'Sr2 Cu2 S2 F2'
_cell_volume   137.07080408
_cell_formula_units_Z   2
loop_
 _symmetry_equiv_pos_site_id
 _symmetry_equiv_pos_as_xyz
  1  'x, y, z'
loop_
 _atom_site_type_symbol
 _atom_site_label
 _atom_site_symmetry_multiplicity
 _atom_site_fract_x
 _atom_site_fract_y
 _atom_site_fract_z
 _atom_site_occupancy
  Sr  Sr0  1  0.00000000  0.50000000  0.82954100  1
  Sr  Sr1  1  0.50000000  0.00000000  0.17045900  1
  Cu  Cu2  1  0.50000000  0.50000000  0.50000000  1
  Cu  Cu3  1  0.00000000  0.00000000  0.50000000  1
  S  S4  1  0.50000000  0.00000000  0.66026000  1
  S  S5  1  0.00000000  0.50000000  0.33974000  1
  F  F6  1  0.50000000  0.50000000  0.00000000  1
  F  F7  1  0.00000000  0.00000000  0.00000000  1
