# generated using pymatgen
data_CaCeV2O8
_symmetry_space_group_name_H-M   'P 1'
_cell_length_a   6.07941717
_cell_length_b   6.07941717
_cell_length_c   6.07941717
_cell_angle_alpha   106.24416571
_cell_angle_beta   106.24416571
_cell_angle_gamma   116.13818040
_symmetry_Int_Tables_number   1
_chemical_formula_structural   CaCeV2O8
_chemical_formula_sum   'Ca1 Ce1 V2 O8'
_cell_volume   171.19098837
_cell_formula_units_Z   1
loop_
 _symmetry_equiv_pos_site_id
 _symmetry_equiv_pos_as_xyz
  1  'x, y, z'
loop_
 _atom_site_type_symbol
 _atom_site_label
 _atom_site_symmetry_multiplicity
 _atom_site_fract_x
 _atom_site_fract_y
 _atom_site_fract_z
 _atom_site_occupancy
  Ca  Ca0  1  0.00000000  0.00000000  0.00000000  1
  Ce  Ce1  1  0.25000000  0.75000000  0.50000000  1
  V  V2  1  0.75000000  0.25000000  0.50000000  1
  V  V3  1  0.50000000  0.50000000  0.00000000  1
  O  O4  1  0.92946400  0.60819400  0.67872900  1
  O  O5  1  0.47932600  0.66720600  0.81211900  1
  O  O6  1  0.85508700  0.66720600  0.18788100  1
  O  O7  1  0.92946400  0.25073500  0.32127100  1
  O  O8  1  0.33279400  0.14491300  0.81211900  1
  O  O9  1  0.74926500  0.07053600  0.67872900  1
  O  O10  1  0.39180600  0.07053600  0.32127100  1
  O  O11  1  0.33279400  0.52067400  0.18788100  1
