# generated using pymatgen
data_Na5Sm4Si4O16F
_symmetry_space_group_name_H-M   'P 1'
_cell_length_a   8.85475859
_cell_length_b   8.85475859
_cell_length_c   8.85475859
_cell_angle_alpha   95.51382412
_cell_angle_beta   95.51382412
_cell_angle_gamma   143.88427718
_symmetry_Int_Tables_number   1
_chemical_formula_structural   Na5Sm4Si4O16F
_chemical_formula_sum   'Na5 Sm4 Si4 O16 F1'
_cell_volume   389.06054493
_cell_formula_units_Z   1
loop_
 _symmetry_equiv_pos_site_id
 _symmetry_equiv_pos_as_xyz
  1  'x, y, z'
loop_
 _atom_site_type_symbol
 _atom_site_label
 _atom_site_symmetry_multiplicity
 _atom_site_fract_x
 _atom_site_fract_y
 _atom_site_fract_z
 _atom_site_occupancy
  Na  Na0  1  0.58131300  0.09675800  0.69432700  1
  Na  Na1  1  0.40243100  0.88698600  0.30567300  1
  Na  Na2  1  0.11301400  0.41868700  0.51544500  1
  Na  Na3  1  0.90324200  0.59756900  0.48455500  1
  Na  Na4  1  0.00000000  0.00000000  0.00000000  1
  Sm  Sm5  1  0.59655100  0.66380000  0.30044700  1
  Sm  Sm6  1  0.36335300  0.29610400  0.69955300  1
  Sm  Sm7  1  0.70389600  0.40344900  0.06724800  1
  Sm  Sm8  1  0.33620000  0.63664700  0.93275200  1
  Si  Si9  1  0.76217400  0.90687500  0.65021400  1
  Si  Si10  1  0.25666100  0.11196000  0.34978600  1
  Si  Si11  1  0.88804000  0.23782600  0.14470100  1
  Si  Si12  1  0.09312500  0.74333900  0.85529900  1
  O  O13  1  0.59966700  0.87767300  0.50730400  1
  O  O14  1  0.37036900  0.09236400  0.49269600  1
  O  O15  1  0.90763600  0.40033300  0.27800600  1
  O  O16  1  0.12232700  0.62963100  0.72199400  1
  O  O17  1  0.57766900  0.71927300  0.76335900  1
  O  O18  1  0.95591300  0.81430900  0.23664100  1
  O  O19  1  0.18569100  0.42233100  0.14160400  1
  O  O20  1  0.28072700  0.04408700  0.85839600  1
  O  O21  1  0.04809400  0.22067900  0.75694300  1
  O  O22  1  0.46373600  0.29115100  0.24305700  1
  O  O23  1  0.70884900  0.95190600  0.17258500  1
  O  O24  1  0.77932100  0.53626400  0.82741500  1
  O  O25  1  0.85201700  0.82148300  0.56512000  1
  O  O26  1  0.25636300  0.28689800  0.43488000  1
  O  O27  1  0.71310200  0.14798300  0.96946500  1
  O  O28  1  0.17851700  0.74363700  0.03053500  1
  F  F29  1  0.50000000  0.50000000  0.00000000  1
