# generated using pymatgen
data_Ti2S3
_symmetry_space_group_name_H-M   'P 1'
_cell_length_a   5.93939119
_cell_length_b   5.93939119
_cell_length_c   6.05528322
_cell_angle_alpha   80.52299947
_cell_angle_beta   80.52299947
_cell_angle_gamma   119.90604379
_symmetry_Int_Tables_number   1
_chemical_formula_structural   Ti2S3
_chemical_formula_sum   'Ti4 S6'
_cell_volume   174.86757701
_cell_formula_units_Z   2
loop_
 _symmetry_equiv_pos_site_id
 _symmetry_equiv_pos_as_xyz
  1  'x, y, z'
loop_
 _atom_site_type_symbol
 _atom_site_label
 _atom_site_symmetry_multiplicity
 _atom_site_fract_x
 _atom_site_fract_y
 _atom_site_fract_z
 _atom_site_occupancy
  Ti  Ti0  1  0.67176100  0.32823900  0.00000000  1
  Ti  Ti1  1  0.32823900  0.67176100  0.00000000  1
  Ti  Ti2  1  0.00000000  0.00000000  0.00000000  1
  Ti  Ti3  1  0.50000000  0.50000000  0.50000000  1
  S  S4  1  0.41786700  0.08304900  0.74276300  1
  S  S5  1  0.08304900  0.41786700  0.74276300  1
  S  S6  1  0.75044200  0.75044200  0.75287500  1
  S  S7  1  0.58213300  0.91695100  0.25723700  1
  S  S8  1  0.24955800  0.24955800  0.24712500  1
  S  S9  1  0.91695100  0.58213300  0.25723700  1
