# generated using pymatgen
data_Ce2SiPd14
_symmetry_space_group_name_H-M   'P 1'
_cell_length_a   9.00043300
_cell_length_b   9.00043300
_cell_length_c   7.03529400
_cell_angle_alpha   90.00000000
_cell_angle_beta   90.00000000
_cell_angle_gamma   90.00000000
_symmetry_Int_Tables_number   1
_chemical_formula_structural   Ce2SiPd14
_chemical_formula_sum   'Ce4 Si2 Pd28'
_cell_volume   569.91364840
_cell_formula_units_Z   2
loop_
 _symmetry_equiv_pos_site_id
 _symmetry_equiv_pos_as_xyz
  1  'x, y, z'
loop_
 _atom_site_type_symbol
 _atom_site_label
 _atom_site_symmetry_multiplicity
 _atom_site_fract_x
 _atom_site_fract_y
 _atom_site_fract_z
 _atom_site_occupancy
  Ce  Ce0  1  0.50000000  0.00000000  0.93636900  1
  Ce  Ce1  1  0.00000000  0.50000000  0.06363100  1
  Ce  Ce2  1  0.00000000  0.00000000  0.50000000  1
  Ce  Ce3  1  0.50000000  0.50000000  0.50000000  1
  Si  Si4  1  0.50000000  0.00000000  0.44984700  1
  Si  Si5  1  0.00000000  0.50000000  0.55015300  1
  Pd  Pd6  1  0.33461200  0.83461200  0.61548300  1
  Pd  Pd7  1  0.33461200  0.16538800  0.61548300  1
  Pd  Pd8  1  0.66538800  0.83461200  0.61548300  1
  Pd  Pd9  1  0.66538800  0.16538800  0.61548300  1
  Pd  Pd10  1  0.16538800  0.66538800  0.38451700  1
  Pd  Pd11  1  0.16538800  0.33461200  0.38451700  1
  Pd  Pd12  1  0.83461200  0.66538800  0.38451700  1
  Pd  Pd13  1  0.83461200  0.33461200  0.38451700  1
  Pd  Pd14  1  0.50000000  0.76912700  0.26023400  1
  Pd  Pd15  1  0.50000000  0.23087300  0.26023400  1
  Pd  Pd16  1  0.26912700  0.00000000  0.26023400  1
  Pd  Pd17  1  0.73087300  0.00000000  0.26023400  1
  Pd  Pd18  1  0.00000000  0.73087300  0.73976600  1
  Pd  Pd19  1  0.00000000  0.26912700  0.73976600  1
  Pd  Pd20  1  0.23087300  0.50000000  0.73976600  1
  Pd  Pd21  1  0.76912700  0.50000000  0.73976600  1
  Pd  Pd22  1  0.50000000  0.34962700  0.85090900  1
  Pd  Pd23  1  0.50000000  0.65037300  0.85090900  1
  Pd  Pd24  1  0.84962700  0.00000000  0.85090900  1
  Pd  Pd25  1  0.15037300  0.00000000  0.85090900  1
  Pd  Pd26  1  0.00000000  0.15037300  0.14909100  1
  Pd  Pd27  1  0.00000000  0.84962700  0.14909100  1
  Pd  Pd28  1  0.65037300  0.50000000  0.14909100  1
  Pd  Pd29  1  0.34962700  0.50000000  0.14909100  1
  Pd  Pd30  1  0.25000000  0.75000000  0.00000000  1
  Pd  Pd31  1  0.25000000  0.25000000  0.00000000  1
  Pd  Pd32  1  0.75000000  0.75000000  0.00000000  1
  Pd  Pd33  1  0.75000000  0.25000000  0.00000000  1
