# generated using pymatgen
data_Pr7Ru3
_symmetry_space_group_name_H-M   'P 1'
_cell_length_a   6.72359600
_cell_length_b   7.45641400
_cell_length_c   23.49816100
_cell_angle_alpha   90.00000000
_cell_angle_beta   90.00000000
_cell_angle_gamma   90.00000000
_symmetry_Int_Tables_number   1
_chemical_formula_structural   Pr7Ru3
_chemical_formula_sum   'Pr28 Ru12'
_cell_volume   1178.05481433
_cell_formula_units_Z   4
loop_
 _symmetry_equiv_pos_site_id
 _symmetry_equiv_pos_as_xyz
  1  'x, y, z'
loop_
 _atom_site_type_symbol
 _atom_site_label
 _atom_site_symmetry_multiplicity
 _atom_site_fract_x
 _atom_site_fract_y
 _atom_site_fract_z
 _atom_site_occupancy
  Pr  Pr0  1  0.31861500  0.82087700  0.17446700  1
  Pr  Pr1  1  0.18138500  0.32087700  0.32553300  1
  Pr  Pr2  1  0.68138500  0.17912300  0.67446700  1
  Pr  Pr3  1  0.81861500  0.67912300  0.82553300  1
  Pr  Pr4  1  0.68138500  0.17912300  0.82553300  1
  Pr  Pr5  1  0.81861500  0.67912300  0.67446700  1
  Pr  Pr6  1  0.31861500  0.82087700  0.32553300  1
  Pr  Pr7  1  0.18138500  0.32087700  0.17446700  1
  Pr  Pr8  1  0.31995300  0.82794600  0.02279500  1
  Pr  Pr9  1  0.18004700  0.32794600  0.47720500  1
  Pr  Pr10  1  0.68004700  0.17205400  0.52279500  1
  Pr  Pr11  1  0.81995300  0.67205400  0.97720500  1
  Pr  Pr12  1  0.68004700  0.17205400  0.97720500  1
  Pr  Pr13  1  0.81995300  0.67205400  0.52279500  1
  Pr  Pr14  1  0.31995300  0.82794600  0.47720500  1
  Pr  Pr15  1  0.18004700  0.32794600  0.02279500  1
  Pr  Pr16  1  0.86213900  0.67644100  0.25000000  1
  Pr  Pr17  1  0.63786100  0.17644100  0.25000000  1
  Pr  Pr18  1  0.13786100  0.32355900  0.75000000  1
  Pr  Pr19  1  0.36213900  0.82355900  0.75000000  1
  Pr  Pr20  1  0.85355400  0.95527600  0.11518600  1
  Pr  Pr21  1  0.64644600  0.45527600  0.38481400  1
  Pr  Pr22  1  0.14644600  0.04472400  0.61518600  1
  Pr  Pr23  1  0.35355400  0.54472400  0.88481400  1
  Pr  Pr24  1  0.14644600  0.04472400  0.88481400  1
  Pr  Pr25  1  0.35355400  0.54472400  0.61518600  1
  Pr  Pr26  1  0.85355400  0.95527600  0.38481400  1
  Pr  Pr27  1  0.64644600  0.45527600  0.11518600  1
  Ru  Ru28  1  0.46780300  0.52574500  0.25000000  1
  Ru  Ru29  1  0.03219700  0.02574500  0.25000000  1
  Ru  Ru30  1  0.53219700  0.47425500  0.75000000  1
  Ru  Ru31  1  0.96780300  0.97425500  0.75000000  1
  Ru  Ru32  1  0.03248200  0.61596700  0.09563500  1
  Ru  Ru33  1  0.46751800  0.11596700  0.40436500  1
  Ru  Ru34  1  0.96751800  0.38403300  0.59563500  1
  Ru  Ru35  1  0.53248200  0.88403300  0.90436500  1
  Ru  Ru36  1  0.96751800  0.38403300  0.90436500  1
  Ru  Ru37  1  0.53248200  0.88403300  0.59563500  1
  Ru  Ru38  1  0.03248200  0.61596700  0.40436500  1
  Ru  Ru39  1  0.46751800  0.11596700  0.09563500  1
