# generated using pymatgen
data_NdCo5P3
_symmetry_space_group_name_H-M   'P 1'
_cell_length_a   3.69860500
_cell_length_b   10.36690800
_cell_length_c   11.82933900
_cell_angle_alpha   90.00000000
_cell_angle_beta   90.00000000
_cell_angle_gamma   90.00000000
_symmetry_Int_Tables_number   1
_chemical_formula_structural   NdCo5P3
_chemical_formula_sum   'Nd4 Co20 P12'
_cell_volume   453.57350175
_cell_formula_units_Z   4
loop_
 _symmetry_equiv_pos_site_id
 _symmetry_equiv_pos_as_xyz
  1  'x, y, z'
loop_
 _atom_site_type_symbol
 _atom_site_label
 _atom_site_symmetry_multiplicity
 _atom_site_fract_x
 _atom_site_fract_y
 _atom_site_fract_z
 _atom_site_occupancy
  Nd  Nd0  1  0.25000000  0.58338000  0.70330800  1
  Nd  Nd1  1  0.25000000  0.91662000  0.20330800  1
  Nd  Nd2  1  0.75000000  0.41662000  0.29669200  1
  Nd  Nd3  1  0.75000000  0.08338000  0.79669200  1
  Co  Co4  1  0.25000000  0.71429600  0.98909100  1
  Co  Co5  1  0.25000000  0.78570400  0.48909100  1
  Co  Co6  1  0.75000000  0.28570400  0.01090900  1
  Co  Co7  1  0.75000000  0.21429600  0.51090900  1
  Co  Co8  1  0.25000000  0.40604300  0.48924900  1
  Co  Co9  1  0.25000000  0.09395700  0.98924900  1
  Co  Co10  1  0.75000000  0.59395700  0.51075100  1
  Co  Co11  1  0.75000000  0.90604300  0.01075100  1
  Co  Co12  1  0.25000000  0.22028800  0.17534800  1
  Co  Co13  1  0.25000000  0.27971200  0.67534800  1
  Co  Co14  1  0.75000000  0.77971200  0.82465200  1
  Co  Co15  1  0.75000000  0.72028800  0.32465200  1
  Co  Co16  1  0.25000000  0.88186700  0.69679600  1
  Co  Co17  1  0.25000000  0.61813300  0.19679600  1
  Co  Co18  1  0.75000000  0.11813300  0.30320400  1
  Co  Co19  1  0.75000000  0.38186700  0.80320400  1
  Co  Co20  1  0.25000000  0.46698300  0.93344800  1
  Co  Co21  1  0.25000000  0.03301700  0.43344800  1
  Co  Co22  1  0.75000000  0.53301700  0.06655200  1
  Co  Co23  1  0.75000000  0.96698300  0.56655200  1
  P  P24  1  0.25000000  0.41883900  0.11023100  1
  P  P25  1  0.25000000  0.08116100  0.61023100  1
  P  P26  1  0.75000000  0.58116100  0.88976900  1
  P  P27  1  0.75000000  0.91883900  0.38976900  1
  P  P28  1  0.25000000  0.27398500  0.86984500  1
  P  P29  1  0.25000000  0.22601500  0.36984500  1
  P  P30  1  0.75000000  0.72601500  0.13015500  1
  P  P31  1  0.75000000  0.77398500  0.63015500  1
  P  P32  1  0.25000000  0.60398500  0.39253400  1
  P  P33  1  0.25000000  0.89601500  0.89253400  1
  P  P34  1  0.75000000  0.39601500  0.60746600  1
  P  P35  1  0.75000000  0.10398500  0.10746600  1
