# generated using pymatgen
data_TbH(CO2)3
_symmetry_space_group_name_H-M   'P 1'
_cell_length_a   6.62152800
_cell_length_b   7.17383200
_cell_length_c   10.61975700
_cell_angle_alpha   90.00000000
_cell_angle_beta   90.00000000
_cell_angle_gamma   90.00000000
_symmetry_Int_Tables_number   1
_chemical_formula_structural   TbH(CO2)3
_chemical_formula_sum   'Tb4 H4 C12 O24'
_cell_volume   504.45682389
_cell_formula_units_Z   4
loop_
 _symmetry_equiv_pos_site_id
 _symmetry_equiv_pos_as_xyz
  1  'x, y, z'
loop_
 _atom_site_type_symbol
 _atom_site_label
 _atom_site_symmetry_multiplicity
 _atom_site_fract_x
 _atom_site_fract_y
 _atom_site_fract_z
 _atom_site_occupancy
  Tb  Tb0  1  0.86720100  0.69680900  0.75000000  1
  Tb  Tb1  1  0.63279900  0.19680900  0.75000000  1
  Tb  Tb2  1  0.13279900  0.30319100  0.25000000  1
  Tb  Tb3  1  0.36720100  0.80319100  0.25000000  1
  H  H4  1  0.11663800  0.27117500  0.75000000  1
  H  H5  1  0.38336200  0.77117500  0.75000000  1
  H  H6  1  0.88336200  0.72882500  0.25000000  1
  H  H7  1  0.61663800  0.22882500  0.25000000  1
  C  C8  1  0.12883300  0.11863300  0.75000000  1
  C  C9  1  0.37116700  0.61863300  0.75000000  1
  C  C10  1  0.87116700  0.88136700  0.25000000  1
  C  C11  1  0.62883300  0.38136700  0.25000000  1
  C  C12  1  0.04775800  0.59383200  0.47943300  1
  C  C13  1  0.45224200  0.09383200  0.02056700  1
  C  C14  1  0.95224200  0.40616800  0.97943300  1
  C  C15  1  0.54775800  0.90616800  0.52056700  1
  C  C16  1  0.95224200  0.40616800  0.52056700  1
  C  C17  1  0.54775800  0.90616800  0.97943300  1
  C  C18  1  0.04775800  0.59383200  0.02056700  1
  C  C19  1  0.45224200  0.09383200  0.47943300  1
  O  O20  1  0.96209500  0.02707700  0.75000000  1
  O  O21  1  0.53790500  0.52707700  0.75000000  1
  O  O22  1  0.03790500  0.97292300  0.25000000  1
  O  O23  1  0.46209500  0.47292300  0.25000000  1
  O  O24  1  0.30204300  0.04721900  0.75000000  1
  O  O25  1  0.19795700  0.54721900  0.75000000  1
  O  O26  1  0.69795700  0.95278100  0.25000000  1
  O  O27  1  0.80204300  0.45278100  0.25000000  1
  O  O28  1  0.02076000  0.73408700  0.54737900  1
  O  O29  1  0.47924000  0.23408700  0.95262100  1
  O  O30  1  0.97924000  0.26591300  0.04737900  1
  O  O31  1  0.52076000  0.76591300  0.45262100  1
  O  O32  1  0.97924000  0.26591300  0.45262100  1
  O  O33  1  0.52076000  0.76591300  0.04737900  1
  O  O34  1  0.02076000  0.73408700  0.95262100  1
  O  O35  1  0.47924000  0.23408700  0.54737900  1
  O  O36  1  0.14765100  0.58852700  0.37622200  1
  O  O37  1  0.35234900  0.08852700  0.12377800  1
  O  O38  1  0.85234900  0.41147300  0.87622200  1
  O  O39  1  0.64765100  0.91147300  0.62377800  1
  O  O40  1  0.85234900  0.41147300  0.62377800  1
  O  O41  1  0.64765100  0.91147300  0.87622200  1
  O  O42  1  0.14765100  0.58852700  0.12377800  1
  O  O43  1  0.35234900  0.08852700  0.37622200  1
