# generated using pymatgen
data_HfSb4Mo
_symmetry_space_group_name_H-M   'P 1'
_cell_length_a   3.68122700
_cell_length_b   5.51536555
_cell_length_c   7.63298852
_cell_angle_alpha   87.53511438
_cell_angle_beta   76.04620369
_cell_angle_gamma   109.49500940
_symmetry_Int_Tables_number   1
_chemical_formula_structural   HfSb4Mo
_chemical_formula_sum   'Hf1 Sb4 Mo1'
_cell_volume   140.48187179
_cell_formula_units_Z   1
loop_
 _symmetry_equiv_pos_site_id
 _symmetry_equiv_pos_as_xyz
  1  'x, y, z'
loop_
 _atom_site_type_symbol
 _atom_site_label
 _atom_site_symmetry_multiplicity
 _atom_site_fract_x
 _atom_site_fract_y
 _atom_site_fract_z
 _atom_site_occupancy
  Hf  Hf0  1  0.03758500  0.88635700  0.81118700  1
  Sb  Sb1  1  0.61942300  0.76157200  0.52272600  1
  Sb  Sb2  1  0.39106800  0.23512900  0.45299300  1
  Sb  Sb3  1  0.70073700  0.30361200  0.90213800  1
  Sb  Sb4  1  0.28971000  0.69956100  0.12014100  1
  Mo  Mo5  1  0.96147700  0.11376800  0.19081400  1
