# generated using pymatgen
data_RbGe
_symmetry_space_group_name_H-M   'P 1'
_cell_length_a   12.05494935
_cell_length_b   12.05494935
_cell_length_c   12.05494935
_cell_angle_alpha   124.69905465
_cell_angle_beta   124.69905465
_cell_angle_gamma   82.03709650
_symmetry_Int_Tables_number   1
_chemical_formula_structural   RbGe
_chemical_formula_sum   'Rb16 Ge16'
_cell_volume   1138.65712700
_cell_formula_units_Z   16
loop_
 _symmetry_equiv_pos_site_id
 _symmetry_equiv_pos_as_xyz
  1  'x, y, z'
loop_
 _atom_site_type_symbol
 _atom_site_label
 _atom_site_symmetry_multiplicity
 _atom_site_fract_x
 _atom_site_fract_y
 _atom_site_fract_z
 _atom_site_occupancy
  Rb  Rb0  1  0.26577000  0.87500000  0.89077000  1
  Rb  Rb1  1  0.76577000  0.87500000  0.39077000  1
  Rb  Rb2  1  0.12500000  0.01577000  0.39077000  1
  Rb  Rb3  1  0.62500000  0.23423000  0.10923000  1
  Rb  Rb4  1  0.48423000  0.37500000  0.60923000  1
  Rb  Rb5  1  0.98423000  0.37500000  0.10923000  1
  Rb  Rb6  1  0.12500000  0.51577000  0.89077000  1
  Rb  Rb7  1  0.62500000  0.73423000  0.60923000  1
  Rb  Rb8  1  0.37039700  0.37039700  0.24079300  1
  Rb  Rb9  1  0.87039700  0.62960300  0.00000000  1
  Rb  Rb10  1  0.62039700  0.12039700  0.74079300  1
  Rb  Rb11  1  0.12039700  0.37960300  0.50000000  1
  Rb  Rb12  1  0.37960300  0.87960300  0.25920700  1
  Rb  Rb13  1  0.87960300  0.62039700  0.50000000  1
  Rb  Rb14  1  0.12960300  0.12960300  0.75920700  1
  Rb  Rb15  1  0.62960300  0.87039700  0.00000000  1
  Ge  Ge16  1  0.00845800  0.84845500  0.95814700  1
  Ge  Ge17  1  0.50845800  0.55031100  0.16000400  1
  Ge  Ge18  1  0.09845500  0.75845800  0.45814700  1
  Ge  Ge19  1  0.59845500  0.14030700  0.33999600  1
  Ge  Ge20  1  0.74154200  0.40154500  0.54185300  1
  Ge  Ge21  1  0.24154200  0.69968900  0.33999600  1
  Ge  Ge22  1  0.65154500  0.49154200  0.04185300  1
  Ge  Ge23  1  0.15154500  0.10969300  0.16000400  1
  Ge  Ge24  1  0.39030700  0.34845500  0.83999600  1
  Ge  Ge25  1  0.89030700  0.05031100  0.04185300  1
  Ge  Ge26  1  0.80031100  0.25845800  0.66000400  1
  Ge  Ge27  1  0.30031100  0.64030700  0.54185300  1
  Ge  Ge28  1  0.35969300  0.90154500  0.66000400  1
  Ge  Ge29  1  0.85969300  0.19968900  0.45814700  1
  Ge  Ge30  1  0.94968900  0.99154200  0.83999600  1
  Ge  Ge31  1  0.44968900  0.60969300  0.95814700  1
