# generated using pymatgen
data_Fe3Pb5F19
_symmetry_space_group_name_H-M   'P 1'
_cell_length_a   11.07877300
_cell_length_b   11.07877300
_cell_length_c   11.07877300
_cell_angle_alpha   97.32072303
_cell_angle_beta   97.32072303
_cell_angle_gamma   138.17226728
_symmetry_Int_Tables_number   1
_chemical_formula_structural   Fe3Pb5F19
_chemical_formula_sum   'Fe6 Pb10 F38'
_cell_volume   847.09689144
_cell_formula_units_Z   2
loop_
 _symmetry_equiv_pos_site_id
 _symmetry_equiv_pos_as_xyz
  1  'x, y, z'
loop_
 _atom_site_type_symbol
 _atom_site_label
 _atom_site_symmetry_multiplicity
 _atom_site_fract_x
 _atom_site_fract_y
 _atom_site_fract_z
 _atom_site_occupancy
  Fe  Fe0  1  0.28645200  0.10874000  0.50000000  1
  Fe  Fe1  1  0.60874000  0.78645200  0.50000000  1
  Fe  Fe2  1  0.10874000  0.60874000  0.82228700  1
  Fe  Fe3  1  0.78645200  0.28645200  0.17771300  1
  Fe  Fe4  1  0.74879700  0.74879700  0.00000000  1
  Fe  Fe5  1  0.24879700  0.24879700  0.00000000  1
  Pb  Pb6  1  0.66490000  0.96304300  0.84263800  1
  Pb  Pb7  1  0.12040600  0.82226200  0.15736200  1
  Pb  Pb8  1  0.96304300  0.12040600  0.29814300  1
  Pb  Pb9  1  0.16490000  0.32226200  0.70185700  1
  Pb  Pb10  1  0.82226200  0.66490000  0.70185700  1
  Pb  Pb11  1  0.62040600  0.46304300  0.29814300  1
  Pb  Pb12  1  0.46304300  0.16490000  0.84263800  1
  Pb  Pb13  1  0.32226200  0.62040600  0.15736200  1
  Pb  Pb14  1  0.28965200  0.78965200  0.50000000  1
  Pb  Pb15  1  0.78965200  0.28965200  0.50000000  1
  F  F16  1  0.46376800  0.10865100  0.50000000  1
  F  F17  1  0.60865100  0.96376800  0.50000000  1
  F  F18  1  0.10865100  0.60865100  0.64488200  1
  F  F19  1  0.96376800  0.46376800  0.35511800  1
  F  F20  1  0.71896500  0.09095600  0.24334400  1
  F  F21  1  0.84761200  0.47562100  0.75665600  1
  F  F22  1  0.09095600  0.84761200  0.37199100  1
  F  F23  1  0.21896500  0.97562100  0.62800900  1
  F  F24  1  0.47562100  0.71896500  0.62800900  1
  F  F25  1  0.34761200  0.59095600  0.37199100  1
  F  F26  1  0.59095600  0.21896500  0.24334400  1
  F  F27  1  0.97562100  0.34761200  0.75665600  1
  F  F28  1  0.62971600  0.62885400  0.50000000  1
  F  F29  1  0.12885400  0.12971600  0.50000000  1
  F  F30  1  0.62885400  0.12885400  0.99913800  1
  F  F31  1  0.12971600  0.62971600  0.00086200  1
  F  F32  1  0.78654300  0.51672700  0.50000000  1
  F  F33  1  0.01672700  0.28654300  0.50000000  1
  F  F34  1  0.51672700  0.01672700  0.73018400  1
  F  F35  1  0.28654300  0.78654300  0.26981600  1
  F  F36  1  0.00295500  0.00295500  0.00000000  1
  F  F37  1  0.50295500  0.50295500  0.00000000  1
  F  F38  1  0.70310500  0.87988400  0.06111600  1
  F  F39  1  0.81876800  0.64198900  0.93888400  1
  F  F40  1  0.87988400  0.81876800  0.17677900  1
  F  F41  1  0.20310500  0.14198900  0.82322100  1
  F  F42  1  0.64198900  0.70310500  0.82322100  1
  F  F43  1  0.31876800  0.37988400  0.17677900  1
  F  F44  1  0.37988400  0.20310500  0.06111600  1
  F  F45  1  0.14198900  0.31876800  0.93888400  1
  F  F46  1  0.35272000  0.70574300  0.85699600  1
  F  F47  1  0.84874600  0.49572400  0.14300400  1
  F  F48  1  0.70574300  0.84874600  0.35302200  1
  F  F49  1  0.85272000  0.99572400  0.64697800  1
  F  F50  1  0.49572400  0.35272000  0.64697800  1
  F  F51  1  0.34874600  0.20574300  0.35302200  1
  F  F52  1  0.20574300  0.85272000  0.85699600  1
  F  F53  1  0.99572400  0.34874600  0.14300400  1
