# generated using pymatgen
data_MgPt
_symmetry_space_group_name_H-M   'P 1'
_cell_length_a   5.09257300
_cell_length_b   5.09257300
_cell_length_c   5.09257300
_cell_angle_alpha   90.00000000
_cell_angle_beta   90.00000000
_cell_angle_gamma   90.00000000
_symmetry_Int_Tables_number   1
_chemical_formula_structural   MgPt
_chemical_formula_sum   'Mg4 Pt4'
_cell_volume   132.07231473
_cell_formula_units_Z   4
loop_
 _symmetry_equiv_pos_site_id
 _symmetry_equiv_pos_as_xyz
  1  'x, y, z'
loop_
 _atom_site_type_symbol
 _atom_site_label
 _atom_site_symmetry_multiplicity
 _atom_site_fract_x
 _atom_site_fract_y
 _atom_site_fract_z
 _atom_site_occupancy
  Mg  Mg0  1  0.15573200  0.34426800  0.65573200  1
  Mg  Mg1  1  0.34426800  0.65573200  0.15573200  1
  Mg  Mg2  1  0.65573200  0.15573200  0.34426800  1
  Mg  Mg3  1  0.84426800  0.84426800  0.84426800  1
  Pt  Pt4  1  0.85255200  0.64744800  0.35255200  1
  Pt  Pt5  1  0.64744800  0.35255200  0.85255200  1
  Pt  Pt6  1  0.35255200  0.85255200  0.64744800  1
  Pt  Pt7  1  0.14744800  0.14744800  0.14744800  1
