# generated using pymatgen
data_NiP2W
_symmetry_space_group_name_H-M   'P 1'
_cell_length_a   3.34825981
_cell_length_b   3.34825981
_cell_length_c   11.25163700
_cell_angle_alpha   90.00000000
_cell_angle_beta   90.00000000
_cell_angle_gamma   119.99999626
_symmetry_Int_Tables_number   1
_chemical_formula_structural   NiP2W
_chemical_formula_sum   'Ni2 P4 W2'
_cell_volume   109.24074686
_cell_formula_units_Z   2
loop_
 _symmetry_equiv_pos_site_id
 _symmetry_equiv_pos_as_xyz
  1  'x, y, z'
loop_
 _atom_site_type_symbol
 _atom_site_label
 _atom_site_symmetry_multiplicity
 _atom_site_fract_x
 _atom_site_fract_y
 _atom_site_fract_z
 _atom_site_occupancy
  Ni  Ni0  1  0.00000000  0.00000000  0.50000000  1
  Ni  Ni1  1  0.00000000  0.00000000  0.00000000  1
  P  P2  1  0.33333300  0.66666700  0.38685400  1
  P  P3  1  0.66666700  0.33333300  0.61314600  1
  P  P4  1  0.66666700  0.33333300  0.88685400  1
  P  P5  1  0.33333300  0.66666700  0.11314600  1
  W  W6  1  0.00000000  0.00000000  0.25000000  1
  W  W7  1  0.00000000  0.00000000  0.75000000  1
