# generated using pymatgen
data_Ca6Te3N2
_symmetry_space_group_name_H-M   'P 1'
_cell_length_a   8.24803001
_cell_length_b   8.24803001
_cell_length_c   8.24802937
_cell_angle_alpha   94.35564825
_cell_angle_beta   94.35564825
_cell_angle_gamma   94.35563831
_symmetry_Int_Tables_number   1
_chemical_formula_structural   Ca6Te3N2
_chemical_formula_sum   'Ca12 Te6 N4'
_cell_volume   555.98950660
_cell_formula_units_Z   2
loop_
 _symmetry_equiv_pos_site_id
 _symmetry_equiv_pos_as_xyz
  1  'x, y, z'
loop_
 _atom_site_type_symbol
 _atom_site_label
 _atom_site_symmetry_multiplicity
 _atom_site_fract_x
 _atom_site_fract_y
 _atom_site_fract_z
 _atom_site_occupancy
  Ca  Ca0  1  0.40384900  0.22175800  0.51800800  1
  Ca  Ca1  1  0.51800800  0.40384900  0.22175800  1
  Ca  Ca2  1  0.22175800  0.51800800  0.40384900  1
  Ca  Ca3  1  0.72175800  0.90384900  0.01800800  1
  Ca  Ca4  1  0.01800800  0.72175800  0.90384900  1
  Ca  Ca5  1  0.90384900  0.01800800  0.72175800  1
  Ca  Ca6  1  0.59615100  0.77824200  0.48199200  1
  Ca  Ca7  1  0.48199200  0.59615100  0.77824200  1
  Ca  Ca8  1  0.77824200  0.48199200  0.59615100  1
  Ca  Ca9  1  0.27824200  0.09615100  0.98199200  1
  Ca  Ca10  1  0.98199200  0.27824200  0.09615100  1
  Ca  Ca11  1  0.09615100  0.98199200  0.27824200  1
  Te  Te12  1  0.75000000  0.12454200  0.37545800  1
  Te  Te13  1  0.37545800  0.75000000  0.12454200  1
  Te  Te14  1  0.12454200  0.37545800  0.75000000  1
  Te  Te15  1  0.62454200  0.25000000  0.87545800  1
  Te  Te16  1  0.87545800  0.62454200  0.25000000  1
  Te  Te17  1  0.25000000  0.87545800  0.62454200  1
  N  N18  1  0.50000000  0.50000000  0.50000000  1
  N  N19  1  0.00000000  0.00000000  0.00000000  1
  N  N20  1  0.25000000  0.25000000  0.25000000  1
  N  N21  1  0.75000000  0.75000000  0.75000000  1
