# generated using pymatgen
data_Sr4Mn2Bi4O13
_symmetry_space_group_name_H-M   'P 1'
_cell_length_a   5.53239476
_cell_length_b   22.22436058
_cell_length_c   23.77490815
_cell_angle_alpha   90.00000000
_cell_angle_beta   90.00000000
_cell_angle_gamma   90.00000000
_symmetry_Int_Tables_number   1
_chemical_formula_structural   Sr4Mn2Bi4O13
_chemical_formula_sum   'Sr32 Mn16 Bi32 O104'
_cell_volume   2923.21853549
_cell_formula_units_Z   8
loop_
 _symmetry_equiv_pos_site_id
 _symmetry_equiv_pos_as_xyz
  1  'x, y, z'
loop_
 _atom_site_type_symbol
 _atom_site_label
 _atom_site_symmetry_multiplicity
 _atom_site_fract_x
 _atom_site_fract_y
 _atom_site_fract_z
 _atom_site_occupancy
  Sr  Sr0  1  0.75425459  0.38327641  0.68110210  1
  Sr  Sr1  1  0.25425459  0.61672359  0.31889790  1
  Sr  Sr2  1  0.25425459  0.11672359  0.18110210  1
  Sr  Sr3  1  0.75425459  0.88327641  0.81889790  1
  Sr  Sr4  1  0.24763971  0.26265609  0.66728132  1
  Sr  Sr5  1  0.74763971  0.73734391  0.33271868  1
  Sr  Sr6  1  0.74763971  0.23734391  0.16728132  1
  Sr  Sr7  1  0.24763971  0.76265609  0.83271868  1
  Sr  Sr8  1  0.74704239  0.13092625  0.64896587  1
  Sr  Sr9  1  0.24704239  0.86907375  0.35103413  1
  Sr  Sr10  1  0.24704239  0.36907375  0.14896587  1
  Sr  Sr11  1  0.74704239  0.63092625  0.85103413  1
  Sr  Sr12  1  0.24482447  0.99015559  0.64683910  1
  Sr  Sr13  1  0.74482447  0.00984441  0.35316090  1
  Sr  Sr14  1  0.74482447  0.50984441  0.14683910  1
  Sr  Sr15  1  0.24482447  0.49015559  0.85316090  1
  Sr  Sr16  1  0.74940428  0.86150486  0.66662059  1
  Sr  Sr17  1  0.24940428  0.13849514  0.33337941  1
  Sr  Sr18  1  0.24940428  0.63849514  0.16662059  1
  Sr  Sr19  1  0.74940428  0.36150486  0.83337941  1
  Sr  Sr20  1  0.25341615  0.73904185  0.68070353  1
  Sr  Sr21  1  0.75341615  0.26095815  0.31929647  1
  Sr  Sr22  1  0.75341615  0.76095815  0.18070353  1
  Sr  Sr23  1  0.25341615  0.23904185  0.81929647  1
  Sr  Sr24  1  0.75160297  0.61929613  0.69147047  1
  Sr  Sr25  1  0.25160297  0.38070387  0.30852953  1
  Sr  Sr26  1  0.25160297  0.88070387  0.19147047  1
  Sr  Sr27  1  0.75160297  0.11929613  0.80852953  1
  Sr  Sr28  1  0.25188205  0.50213874  0.69198855  1
  Sr  Sr29  1  0.75188205  0.49786126  0.30801145  1
  Sr  Sr30  1  0.75188205  0.99786126  0.19198855  1
  Sr  Sr31  1  0.25188205  0.00213874  0.80801145  1
  Mn  Mn32  1  0.25126947  0.37351286  0.76182190  1
  Mn  Mn33  1  0.75126947  0.62648714  0.23817810  1
  Mn  Mn34  1  0.75126947  0.12648714  0.26182190  1
  Mn  Mn35  1  0.25126947  0.87351286  0.73817810  1
  Mn  Mn36  1  0.74962126  0.24897307  0.74157944  1
  Mn  Mn37  1  0.24962126  0.75102693  0.25842056  1
  Mn  Mn38  1  0.24962126  0.25102693  0.24157944  1
  Mn  Mn39  1  0.74962126  0.74897307  0.75842056  1
  Mn  Mn40  1  0.24851718  0.12483426  0.72477775  1
  Mn  Mn41  1  0.74851718  0.87516574  0.27522225  1
  Mn  Mn42  1  0.74851718  0.37516574  0.22477775  1
  Mn  Mn43  1  0.24851718  0.62483426  0.77522225  1
  Mn  Mn44  1  0.74820809  0.99717784  0.72338685  1
  Mn  Mn45  1  0.24820809  0.00282216  0.27661315  1
  Mn  Mn46  1  0.24820809  0.50282216  0.22338685  1
  Mn  Mn47  1  0.74820809  0.49717784  0.77661315  1
  Bi  Bi48  1  0.27655119  0.39152726  0.56628000  1
  Bi  Bi49  1  0.77655119  0.60847274  0.43372000  1
  Bi  Bi50  1  0.77655119  0.10847274  0.06628000  1
  Bi  Bi51  1  0.27655119  0.89152726  0.93372000  1
  Bi  Bi52  1  0.72838417  0.27232456  0.55747307  1
  Bi  Bi53  1  0.22838417  0.72767544  0.44252693  1
  Bi  Bi54  1  0.22838417  0.22767544  0.05747307  1
  Bi  Bi55  1  0.72838417  0.77232456  0.94252693  1
  Bi  Bi56  1  0.25989350  0.12870535  0.55389849  1
  Bi  Bi57  1  0.75989350  0.87129465  0.44610151  1
  Bi  Bi58  1  0.75989350  0.37129465  0.05389849  1
  Bi  Bi59  1  0.25989350  0.62870535  0.94610151  1
  Bi  Bi60  1  0.75384045  0.99779550  0.55152346  1
  Bi  Bi61  1  0.25384045  0.00220450  0.44847654  1
  Bi  Bi62  1  0.25384045  0.50220450  0.05152346  1
  Bi  Bi63  1  0.75384045  0.49779550  0.94847654  1
  Bi  Bi64  1  0.23146109  0.85061355  0.55625985  1
  Bi  Bi65  1  0.73146109  0.14938645  0.44374015  1
  Bi  Bi66  1  0.73146109  0.64938645  0.05625985  1
  Bi  Bi67  1  0.23146109  0.35061355  0.94374015  1
  Bi  Bi68  1  0.77452766  0.73112464  0.56781941  1
  Bi  Bi69  1  0.27452766  0.26887536  0.43218059  1
  Bi  Bi70  1  0.27452766  0.76887536  0.06781941  1
  Bi  Bi71  1  0.77452766  0.23112464  0.93218059  1
  Bi  Bi72  1  0.23135870  0.61662119  0.57438202  1
  Bi  Bi73  1  0.73135870  0.38337881  0.42561798  1
  Bi  Bi74  1  0.73135870  0.88337881  0.07438202  1
  Bi  Bi75  1  0.23135870  0.11662119  0.92561798  1
  Bi  Bi76  1  0.73022786  0.50385919  0.57367651  1
  Bi  Bi77  1  0.23022786  0.49614081  0.42632349  1
  Bi  Bi78  1  0.23022786  0.99614081  0.07367651  1
  Bi  Bi79  1  0.73022786  0.00385919  0.92632349  1
  O  O80  1  0.66113377  0.40063142  0.57224562  1
  O  O81  1  0.16113377  0.59936858  0.42775438  1
  O  O82  1  0.16113377  0.09936858  0.07224562  1
  O  O83  1  0.66113377  0.90063142  0.92775438  1
  O  O84  1  0.34444923  0.29289802  0.56015169  1
  O  O85  1  0.84444923  0.70710198  0.43984831  1
  O  O86  1  0.84444923  0.20710198  0.06015169  1
  O  O87  1  0.34444923  0.79289802  0.93984831  1
  O  O88  1  0.66055286  0.17914461  0.54865977  1
  O  O89  1  0.16055286  0.82085539  0.45134023  1
  O  O90  1  0.16055286  0.32085539  0.04865977  1
  O  O91  1  0.66055286  0.67914461  0.95134023  1
  O  O92  1  0.98957456  0.06282788  0.58294374  1
  O  O93  1  0.48957456  0.93717212  0.41705626  1
  O  O94  1  0.48957456  0.43717212  0.08294374  1
  O  O95  1  0.98957456  0.56282788  0.91705626  1
  O  O96  1  0.48726261  0.06059382  0.58483093  1
  O  O97  1  0.98726261  0.93940618  0.41516907  1
  O  O98  1  0.98726261  0.43940618  0.08483093  1
  O  O99  1  0.48726261  0.56059382  0.91516907  1
  O  O100  1  0.16393877  0.94292556  0.54606118  1
  O  O101  1  0.66393877  0.05707444  0.45393882  1
  O  O102  1  0.66393877  0.55707444  0.04606118  1
  O  O103  1  0.16393877  0.44292556  0.95393882  1
  O  O104  1  0.84962909  0.82818297  0.56607324  1
  O  O105  1  0.34962909  0.17181703  0.43392676  1
  O  O106  1  0.34962909  0.67181703  0.06607324  1
  O  O107  1  0.84962909  0.32818297  0.93392676  1
  O  O108  1  0.15944460  0.71947611  0.57291490  1
  O  O109  1  0.65944460  0.28052389  0.42708510  1
  O  O110  1  0.65944460  0.78052389  0.07291490  1
  O  O111  1  0.15944460  0.21947611  0.92708510  1
  O  O112  1  0.84271780  0.61020580  0.57922077  1
  O  O113  1  0.34271780  0.38979420  0.42077923  1
  O  O114  1  0.34271780  0.88979420  0.07922077  1
  O  O115  1  0.84271780  0.11020580  0.92077923  1
  O  O116  1  0.34078914  0.50962264  0.57926980  1
  O  O117  1  0.84078914  0.49037736  0.42073020  1
  O  O118  1  0.84078914  0.99037736  0.07926980  1
  O  O119  1  0.34078914  0.00962264  0.92073020  1
  O  O120  1  0.22729591  0.38524865  0.65395194  1
  O  O121  1  0.72729591  0.61475135  0.34604806  1
  O  O122  1  0.72729591  0.11475135  0.15395194  1
  O  O123  1  0.22729591  0.88524865  0.84604806  1
  O  O124  1  0.76352007  0.26673027  0.64675976  1
  O  O125  1  0.26352007  0.73326973  0.35324024  1
  O  O126  1  0.26352007  0.23326973  0.14675976  1
  O  O127  1  0.76352007  0.76673027  0.85324024  1
  O  O128  1  0.23199149  0.15670205  0.63863407  1
  O  O129  1  0.73199149  0.84329795  0.36136593  1
  O  O130  1  0.73199149  0.34329795  0.13863407  1
  O  O131  1  0.23199149  0.65670205  0.86136593  1
  O  O132  1  0.73301312  0.96799118  0.63822061  1
  O  O133  1  0.23301312  0.03200882  0.36177939  1
  O  O134  1  0.23301312  0.53200882  0.13822061  1
  O  O135  1  0.73301312  0.46799118  0.86177939  1
  O  O136  1  0.26441030  0.85770312  0.64942280  1
  O  O137  1  0.76441030  0.14229688  0.35057720  1
  O  O138  1  0.76441030  0.64229688  0.14942280  1
  O  O139  1  0.26441030  0.35770312  0.85057720  1
  O  O140  1  0.72750181  0.73445362  0.65657063  1
  O  O141  1  0.22750181  0.26554638  0.34342937  1
  O  O142  1  0.22750181  0.76554638  0.15657063  1
  O  O143  1  0.72750181  0.23445362  0.84342937  1
  O  O144  1  0.27110881  0.61815873  0.66272163  1
  O  O145  1  0.77110881  0.38184127  0.33727837  1
  O  O146  1  0.77110881  0.88184127  0.16272163  1
  O  O147  1  0.27110881  0.11815873  0.83727837  1
  O  O148  1  0.77161741  0.50245979  0.66167371  1
  O  O149  1  0.27161741  0.49754021  0.33832629  1
  O  O150  1  0.27161741  0.99754021  0.16167371  1
  O  O151  1  0.77161741  0.00245979  0.83832629  1
  O  O152  1  0.00865573  0.43779390  0.76256196  1
  O  O153  1  0.50865573  0.56220610  0.23743804  1
  O  O154  1  0.50865573  0.06220610  0.26256196  1
  O  O155  1  0.00865573  0.93779390  0.73743804  1
  O  O156  1  0.50737948  0.43380924  0.75838262  1
  O  O157  1  0.00737948  0.56619076  0.24161738  1
  O  O158  1  0.00737948  0.06619076  0.25838262  1
  O  O159  1  0.50737948  0.93380924  0.74161738  1
  O  O160  1  0.99308306  0.31307536  0.75117952  1
  O  O161  1  0.49308306  0.68692464  0.24882048  1
  O  O162  1  0.49308306  0.18692464  0.25117952  1
  O  O163  1  0.99308306  0.81307536  0.74882048  1
  O  O164  1  0.49259244  0.30964392  0.74841867  1
  O  O165  1  0.99259244  0.69035608  0.25158133  1
  O  O166  1  0.99259244  0.19035608  0.24841867  1
  O  O167  1  0.49259244  0.80964392  0.75158133  1
  O  O168  1  0.00749995  0.18862688  0.74135882  1
  O  O169  1  0.50749995  0.81137312  0.25864118  1
  O  O170  1  0.50749995  0.31137312  0.24135882  1
  O  O171  1  0.00749995  0.68862688  0.75864118  1
  O  O172  1  0.50838598  0.18458081  0.73748323  1
  O  O173  1  0.00838598  0.81541919  0.26251677  1
  O  O174  1  0.00838598  0.31541919  0.23748323  1
  O  O175  1  0.50838598  0.68458081  0.76251677  1
  O  O176  1  0.98883155  0.06352452  0.72608893  1
  O  O177  1  0.48883155  0.93647548  0.27391107  1
  O  O178  1  0.48883155  0.43647548  0.22608893  1
  O  O179  1  0.98883155  0.56352452  0.77391107  1
  O  O180  1  0.48969323  0.05876442  0.72603749  1
  O  O181  1  0.98969323  0.94123558  0.27396251  1
  O  O182  1  0.98969323  0.44123558  0.22603749  1
  O  O183  1  0.48969323  0.55876442  0.77396251  1
