# generated using pymatgen
data_Zr4Ir2N
_symmetry_space_group_name_H-M   'P 1'
_cell_length_a   8.83576026
_cell_length_b   8.83576026
_cell_length_c   8.83576026
_cell_angle_alpha   60.00000000
_cell_angle_beta   60.00000000
_cell_angle_gamma   60.00000000
_symmetry_Int_Tables_number   1
_chemical_formula_structural   Zr4Ir2N
_chemical_formula_sum   'Zr16 Ir8 N4'
_cell_volume   487.77189596
_cell_formula_units_Z   4
loop_
 _symmetry_equiv_pos_site_id
 _symmetry_equiv_pos_as_xyz
  1  'x, y, z'
loop_
 _atom_site_type_symbol
 _atom_site_label
 _atom_site_symmetry_multiplicity
 _atom_site_fract_x
 _atom_site_fract_y
 _atom_site_fract_z
 _atom_site_occupancy
  Zr  Zr0  1  0.12500000  0.62500000  0.62500000  1
  Zr  Zr1  1  0.62500000  0.12500000  0.62500000  1
  Zr  Zr2  1  0.62500000  0.62500000  0.12500000  1
  Zr  Zr3  1  0.62500000  0.62500000  0.62500000  1
  Zr  Zr4  1  0.81581600  0.81581600  0.18418400  1
  Zr  Zr5  1  0.18418400  0.18418400  0.81581600  1
  Zr  Zr6  1  0.81581600  0.18418400  0.81581600  1
  Zr  Zr7  1  0.18418400  0.81581600  0.18418400  1
  Zr  Zr8  1  0.18418400  0.81581600  0.81581600  1
  Zr  Zr9  1  0.81581600  0.18418400  0.18418400  1
  Zr  Zr10  1  0.43418400  0.43418400  0.06581600  1
  Zr  Zr11  1  0.06581600  0.06581600  0.43418400  1
  Zr  Zr12  1  0.43418400  0.06581600  0.43418400  1
  Zr  Zr13  1  0.06581600  0.43418400  0.06581600  1
  Zr  Zr14  1  0.06581600  0.43418400  0.43418400  1
  Zr  Zr15  1  0.43418400  0.06581600  0.06581600  1
  Ir  Ir16  1  0.77091900  0.40969400  0.40969400  1
  Ir  Ir17  1  0.40969400  0.77091900  0.40969400  1
  Ir  Ir18  1  0.40969400  0.40969400  0.77091900  1
  Ir  Ir19  1  0.40969400  0.40969400  0.40969400  1
  Ir  Ir20  1  0.47908100  0.84030600  0.84030600  1
  Ir  Ir21  1  0.84030600  0.47908100  0.84030600  1
  Ir  Ir22  1  0.84030600  0.84030600  0.47908100  1
  Ir  Ir23  1  0.84030600  0.84030600  0.84030600  1
  N  N24  1  0.62500000  0.12500000  0.12500000  1
  N  N25  1  0.12500000  0.62500000  0.12500000  1
  N  N26  1  0.12500000  0.12500000  0.62500000  1
  N  N27  1  0.12500000  0.12500000  0.12500000  1
