# generated using pymatgen
data_AgPt
_symmetry_space_group_name_H-M   'P 1'
_cell_length_a   5.02839070
_cell_length_b   5.02839070
_cell_length_c   5.02839053
_cell_angle_alpha   32.69292178
_cell_angle_beta   32.69292178
_cell_angle_gamma   32.69292155
_symmetry_Int_Tables_number   1
_chemical_formula_structural   AgPt
_chemical_formula_sum   'Ag1 Pt1'
_cell_volume   32.99337391
_cell_formula_units_Z   1
loop_
 _symmetry_equiv_pos_site_id
 _symmetry_equiv_pos_as_xyz
  1  'x, y, z'
loop_
 _atom_site_type_symbol
 _atom_site_label
 _atom_site_symmetry_multiplicity
 _atom_site_fract_x
 _atom_site_fract_y
 _atom_site_fract_z
 _atom_site_occupancy
  Ag  Ag0  1  0.00000000  0.00000000  0.00000000  1
  Pt  Pt1  1  0.50000000  0.50000000  0.50000000  1
