# generated using pymatgen
data_Nd3NiGe2
_symmetry_space_group_name_H-M   'P 1'
_cell_length_a   4.30798800
_cell_length_b   11.74342500
_cell_length_c   11.87860400
_cell_angle_alpha   90.00000000
_cell_angle_beta   90.00000000
_cell_angle_gamma   90.00000000
_symmetry_Int_Tables_number   1
_chemical_formula_structural   Nd3NiGe2
_chemical_formula_sum   'Nd12 Ni4 Ge8'
_cell_volume   600.94491928
_cell_formula_units_Z   4
loop_
 _symmetry_equiv_pos_site_id
 _symmetry_equiv_pos_as_xyz
  1  'x, y, z'
loop_
 _atom_site_type_symbol
 _atom_site_label
 _atom_site_symmetry_multiplicity
 _atom_site_fract_x
 _atom_site_fract_y
 _atom_site_fract_z
 _atom_site_occupancy
  Nd  Nd0  1  0.25000000  0.37459000  0.05825500  1
  Nd  Nd1  1  0.75000000  0.62541000  0.94174500  1
  Nd  Nd2  1  0.75000000  0.87459000  0.44174500  1
  Nd  Nd3  1  0.25000000  0.12541000  0.55825500  1
  Nd  Nd4  1  0.25000000  0.69596300  0.21634100  1
  Nd  Nd5  1  0.75000000  0.30403700  0.78365900  1
  Nd  Nd6  1  0.75000000  0.19596300  0.28365900  1
  Nd  Nd7  1  0.25000000  0.80403700  0.71634100  1
  Nd  Nd8  1  0.25000000  0.44224800  0.38374200  1
  Nd  Nd9  1  0.75000000  0.55775200  0.61625800  1
  Nd  Nd10  1  0.75000000  0.94224800  0.11625800  1
  Nd  Nd11  1  0.25000000  0.05775200  0.88374200  1
  Ni  Ni12  1  0.25000000  0.13384800  0.13003100  1
  Ni  Ni13  1  0.75000000  0.86615200  0.86996900  1
  Ni  Ni14  1  0.75000000  0.63384800  0.36996900  1
  Ni  Ni15  1  0.25000000  0.36615200  0.63003100  1
  Ge  Ge16  1  0.25000000  0.68728100  0.47626200  1
  Ge  Ge17  1  0.75000000  0.31271900  0.52373800  1
  Ge  Ge18  1  0.75000000  0.18728100  0.02373800  1
  Ge  Ge19  1  0.25000000  0.81271900  0.97626200  1
  Ge  Ge20  1  0.25000000  0.00484600  0.30382500  1
  Ge  Ge21  1  0.75000000  0.99515400  0.69617500  1
  Ge  Ge22  1  0.75000000  0.50484600  0.19617500  1
  Ge  Ge23  1  0.25000000  0.49515400  0.80382500  1
