# generated using pymatgen
data_K7Nb14(P3O20)3
_symmetry_space_group_name_H-M   'P 1'
_cell_length_a   6.55150750
_cell_length_b   10.78707352
_cell_length_c   37.45044162
_cell_angle_alpha   90.00000000
_cell_angle_beta   90.00000000
_cell_angle_gamma   90.00000000
_symmetry_Int_Tables_number   1
_chemical_formula_structural   K7Nb14(P3O20)3
_chemical_formula_sum   'K14 Nb28 P18 O120'
_cell_volume   2646.68237044
_cell_formula_units_Z   2
loop_
 _symmetry_equiv_pos_site_id
 _symmetry_equiv_pos_as_xyz
  1  'x, y, z'
loop_
 _atom_site_type_symbol
 _atom_site_label
 _atom_site_symmetry_multiplicity
 _atom_site_fract_x
 _atom_site_fract_y
 _atom_site_fract_z
 _atom_site_occupancy
  K  K0  1  0.45673181  0.50000000  0.75000000  1
  K  K1  1  0.54326819  0.50000000  0.25000000  1
  K  K2  1  0.96666339  0.00000000  0.38834285  1
  K  K3  1  0.03333661  0.00000000  0.61165715  1
  K  K4  1  0.96666339  0.00000000  0.11165715  1
  K  K5  1  0.03333661  0.00000000  0.88834285  1
  K  K6  1  0.75586991  0.50000000  0.39292568  1
  K  K7  1  0.24413009  0.50000000  0.60707432  1
  K  K8  1  0.75586991  0.50000000  0.10707432  1
  K  K9  1  0.24413009  0.50000000  0.89292568  1
  K  K10  1  0.27425681  0.00000000  0.75000000  1
  K  K11  1  0.72574319  0.00000000  0.25000000  1
  K  K12  1  -0.00000000  0.00000000  0.00000000  1
  K  K13  1  -0.00000000  0.00000000  0.50000000  1
  Nb  Nb14  1  0.51993281  0.00000000  0.94636528  1
  Nb  Nb15  1  0.48006719  0.00000000  0.05363472  1
  Nb  Nb16  1  0.51993281  0.00000000  0.55363472  1
  Nb  Nb17  1  0.48006719  0.00000000  0.44636528  1
  Nb  Nb18  1  0.95454994  0.68357154  0.75000000  1
  Nb  Nb19  1  0.04545006  0.31642846  0.25000000  1
  Nb  Nb20  1  0.95454994  0.31642846  0.75000000  1
  Nb  Nb21  1  0.04545006  0.68357154  0.25000000  1
  Nb  Nb22  1  0.74382291  0.67565716  0.94513502  1
  Nb  Nb23  1  0.25617709  0.32434284  0.05486498  1
  Nb  Nb24  1  0.74382291  0.32434284  0.55486498  1
  Nb  Nb25  1  0.25617709  0.67565716  0.05486498  1
  Nb  Nb26  1  0.25617709  0.67565716  0.44513502  1
  Nb  Nb27  1  0.74382291  0.32434284  0.94513502  1
  Nb  Nb28  1  0.25617709  0.32434284  0.44513502  1
  Nb  Nb29  1  0.74382291  0.67565716  0.55486498  1
  Nb  Nb30  1  0.75366841  0.67768557  0.84245471  1
  Nb  Nb31  1  0.24633159  0.32231443  0.15754529  1
  Nb  Nb32  1  0.75366841  0.32231443  0.65754529  1
  Nb  Nb33  1  0.24633159  0.67768557  0.15754529  1
  Nb  Nb34  1  0.24633159  0.67768557  0.34245471  1
  Nb  Nb35  1  0.75366841  0.32231443  0.84245471  1
  Nb  Nb36  1  0.24633159  0.32231443  0.34245471  1
  Nb  Nb37  1  0.75366841  0.67768557  0.65754529  1
  Nb  Nb38  1  0.54444713  0.00000000  0.84176094  1
  Nb  Nb39  1  0.45555287  0.00000000  0.15823906  1
  Nb  Nb40  1  0.54444713  0.00000000  0.65823906  1
  Nb  Nb41  1  0.45555287  0.00000000  0.34176094  1
  P  P42  1  0.75447456  0.73818439  0.46068629  1
  P  P43  1  0.24552544  0.26181561  0.53931371  1
  P  P44  1  0.75447456  0.26181561  0.03931371  1
  P  P45  1  0.24552544  0.73818439  0.53931371  1
  P  P46  1  0.24552544  0.73818439  0.96068629  1
  P  P47  1  0.75447456  0.26181561  0.46068629  1
  P  P48  1  0.24552544  0.26181561  0.96068629  1
  P  P49  1  0.75447456  0.73818439  0.03931371  1
  P  P50  1  0.77270665  0.00000000  0.75000000  1
  P  P51  1  0.22729335  0.00000000  0.25000000  1
  P  P52  1  0.74608249  0.73821357  0.32424679  1
  P  P53  1  0.25391751  0.26178643  0.67575321  1
  P  P54  1  0.74608249  0.26178643  0.17575321  1
  P  P55  1  0.25391751  0.73821357  0.67575321  1
  P  P56  1  0.25391751  0.73821357  0.82424679  1
  P  P57  1  0.74608249  0.26178643  0.32424679  1
  P  P58  1  0.25391751  0.26178643  0.82424679  1
  P  P59  1  0.74608249  0.73821357  0.17575321  1
  O  O60  1  0.43143807  0.66199932  0.94748344  1
  O  O61  1  0.56856193  0.33800068  0.05251656  1
  O  O62  1  0.43143807  0.33800068  0.55251656  1
  O  O63  1  0.56856193  0.66199932  0.05251656  1
  O  O64  1  0.56856193  0.66199932  0.44748344  1
  O  O65  1  0.43143807  0.33800068  0.94748344  1
  O  O66  1  0.56856193  0.33800068  0.44748344  1
  O  O67  1  0.43143807  0.66199932  0.55251656  1
  O  O68  1  0.78913421  0.69956390  0.28545561  1
  O  O69  1  0.21086579  0.30043610  0.71454439  1
  O  O70  1  0.78913421  0.30043610  0.21454439  1
  O  O71  1  0.21086579  0.69956390  0.71454439  1
  O  O72  1  0.21086579  0.69956390  0.78545561  1
  O  O73  1  0.78913421  0.30043610  0.28545561  1
  O  O74  1  0.21086579  0.30043610  0.78545561  1
  O  O75  1  0.78913421  0.69956390  0.21454439  1
  O  O76  1  0.93304711  0.70365577  0.34824561  1
  O  O77  1  0.06695289  0.29634423  0.65175439  1
  O  O78  1  0.93304711  0.29634423  0.15175439  1
  O  O79  1  0.06695289  0.70365577  0.65175439  1
  O  O80  1  0.06695289  0.70365577  0.84824561  1
  O  O81  1  0.93304711  0.29634423  0.34824561  1
  O  O82  1  0.06695289  0.29634423  0.84824561  1
  O  O83  1  0.93304711  0.70365577  0.15175439  1
  O  O84  1  0.29874273  0.87716528  0.82705316  1
  O  O85  1  0.70125727  0.12283472  0.17294684  1
  O  O86  1  0.29874273  0.12283472  0.67294684  1
  O  O87  1  0.70125727  0.87716528  0.17294684  1
  O  O88  1  0.70125727  0.87716528  0.32705316  1
  O  O89  1  0.29874273  0.12283472  0.82705316  1
  O  O90  1  0.70125727  0.12283472  0.32705316  1
  O  O91  1  0.29874273  0.87716528  0.67294684  1
  O  O92  1  0.63267760  0.00000000  0.78358834  1
  O  O93  1  0.36732240  0.00000000  0.21641166  1
  O  O94  1  0.63267760  0.00000000  0.71641166  1
  O  O95  1  0.36732240  0.00000000  0.28358834  1
  O  O96  1  0.91783421  0.88393773  0.75000000  1
  O  O97  1  0.08216579  0.11606227  0.25000000  1
  O  O98  1  0.91783421  0.11606227  0.75000000  1
  O  O99  1  0.08216579  0.88393773  0.25000000  1
  O  O100  1  0.94571323  0.68193682  0.44219956  1
  O  O101  1  0.05428677  0.31806318  0.55780044  1
  O  O102  1  0.94571323  0.31806318  0.05780044  1
  O  O103  1  0.05428677  0.68193682  0.55780044  1
  O  O104  1  0.05428677  0.68193682  0.94219956  1
  O  O105  1  0.94571323  0.31806318  0.44219956  1
  O  O106  1  0.05428677  0.31806318  0.94219956  1
  O  O107  1  0.94571323  0.68193682  0.05780044  1
  O  O108  1  0.46435869  0.00000000  0.89093290  1
  O  O109  1  0.53564131  0.00000000  0.10906710  1
  O  O110  1  0.46435869  0.00000000  0.60906710  1
  O  O111  1  0.53564131  0.00000000  0.39093290  1
  O  O112  1  0.72374812  0.86331088  0.84674012  1
  O  O113  1  0.27625188  0.13668912  0.15325988  1
  O  O114  1  0.72374812  0.13668912  0.65325988  1
  O  O115  1  0.27625188  0.86331088  0.15325988  1
  O  O116  1  0.27625188  0.86331088  0.34674012  1
  O  O117  1  0.72374812  0.13668912  0.84674012  1
  O  O118  1  0.27625188  0.13668912  0.34674012  1
  O  O119  1  0.72374812  0.86331088  0.65325988  1
  O  O120  1  0.77488358  0.68322763  0.78963567  1
  O  O121  1  0.22511642  0.31677237  0.21036433  1
  O  O122  1  0.77488358  0.31677237  0.71036433  1
  O  O123  1  0.22511642  0.68322763  0.21036433  1
  O  O124  1  0.22511642  0.68322763  0.28963567  1
  O  O125  1  0.77488358  0.31677237  0.78963567  1
  O  O126  1  0.22511642  0.31677237  0.28963567  1
  O  O127  1  0.77488358  0.68322763  0.71036433  1
  O  O128  1  0.70441774  0.86640319  0.94156916  1
  O  O129  1  0.29558226  0.13359681  0.05843084  1
  O  O130  1  0.70441774  0.13359681  0.55843084  1
  O  O131  1  0.29558226  0.86640319  0.05843084  1
  O  O132  1  0.29558226  0.86640319  0.44156916  1
  O  O133  1  0.70441774  0.13359681  0.94156916  1
  O  O134  1  0.29558226  0.13359681  0.44156916  1
  O  O135  1  0.70441774  0.86640319  0.55843084  1
  O  O136  1  0.73547222  0.66062172  0.89542626  1
  O  O137  1  0.26452778  0.33937828  0.10457374  1
  O  O138  1  0.73547222  0.33937828  0.60457374  1
  O  O139  1  0.26452778  0.66062172  0.10457374  1
  O  O140  1  0.26452778  0.66062172  0.39542626  1
  O  O141  1  0.73547222  0.33937828  0.89542626  1
  O  O142  1  0.26452778  0.33937828  0.39542626  1
  O  O143  1  0.73547222  0.66062172  0.60457374  1
  O  O144  1  0.78886928  0.50000000  0.84038558  1
  O  O145  1  0.21113072  0.50000000  0.15961442  1
  O  O146  1  0.78886928  0.50000000  0.65961442  1
  O  O147  1  0.21113072  0.50000000  0.34038558  1
  O  O148  1  0.73962928  0.87400163  0.44870202  1
  O  O149  1  0.26037072  0.12599837  0.55129798  1
  O  O150  1  0.73962928  0.12599837  0.05129798  1
  O  O151  1  0.26037072  0.87400163  0.55129798  1
  O  O152  1  0.26037072  0.87400163  0.94870202  1
  O  O153  1  0.73962928  0.12599837  0.44870202  1
  O  O154  1  0.26037072  0.12599837  0.94870202  1
  O  O155  1  0.73962928  0.87400163  0.05129798  1
  O  O156  1  0.50000000  0.00000000  0.00000000  1
  O  O157  1  0.50000000  0.00000000  0.50000000  1
  O  O158  1  0.77229901  0.72642132  0.99879002  1
  O  O159  1  0.22770099  0.27357868  0.00120998  1
  O  O160  1  0.77229901  0.27357868  0.50120998  1
  O  O161  1  0.22770099  0.72642132  0.00120998  1
  O  O162  1  0.22770099  0.72642132  0.49879002  1
  O  O163  1  0.77229901  0.27357868  0.99879002  1
  O  O164  1  0.22770099  0.27357868  0.49879002  1
  O  O165  1  0.77229901  0.72642132  0.50120998  1
  O  O166  1  0.43995171  0.66180317  0.83866615  1
  O  O167  1  0.56004829  0.33819683  0.16133385  1
  O  O168  1  0.43995171  0.33819683  0.66133385  1
  O  O169  1  0.56004829  0.66180317  0.16133385  1
  O  O170  1  0.56004829  0.66180317  0.33866615  1
  O  O171  1  0.43995171  0.33819683  0.83866615  1
  O  O172  1  0.56004829  0.33819683  0.33866615  1
  O  O173  1  0.43995171  0.66180317  0.66133385  1
  O  O174  1  0.75246053  0.50000000  0.95565811  1
  O  O175  1  0.24753947  0.50000000  0.04434189  1
  O  O176  1  0.75246053  0.50000000  0.54434189  1
  O  O177  1  0.24753947  0.50000000  0.45565811  1
  O  O178  1  0.98448445  0.50000000  0.75000000  1
  O  O179  1  0.01551555  0.50000000  0.25000000  1
