# generated using pymatgen
data_Pr2GaNi2
_symmetry_space_group_name_H-M   'P 1'
_cell_length_a   5.53971500
_cell_length_b   5.53971500
_cell_length_c   5.53971500
_cell_angle_alpha   134.46246022
_cell_angle_beta   120.66066414
_cell_angle_gamma   77.85454143
_symmetry_Int_Tables_number   1
_chemical_formula_structural   Pr2GaNi2
_chemical_formula_sum   'Pr2 Ga1 Ni2'
_cell_volume   101.34455080
_cell_formula_units_Z   1
loop_
 _symmetry_equiv_pos_site_id
 _symmetry_equiv_pos_as_xyz
  1  'x, y, z'
loop_
 _atom_site_type_symbol
 _atom_site_label
 _atom_site_symmetry_multiplicity
 _atom_site_fract_x
 _atom_site_fract_y
 _atom_site_fract_z
 _atom_site_occupancy
  Pr  Pr0  1  0.29770500  0.79770500  0.50000000  1
  Pr  Pr1  1  0.70229500  0.20229500  0.50000000  1
  Ga  Ga2  1  0.00000000  0.00000000  0.00000000  1
  Ni  Ni3  1  0.73371600  0.50000000  0.23371600  1
  Ni  Ni4  1  0.26628400  0.50000000  0.76628400  1
