# generated using pymatgen
data_TbVO4
_symmetry_space_group_name_H-M   'P 1'
_cell_length_a   6.03195110
_cell_length_b   6.03195110
_cell_length_c   6.03195110
_cell_angle_alpha   106.20131699
_cell_angle_beta   106.20131699
_cell_angle_gamma   116.22987520
_symmetry_Int_Tables_number   1
_chemical_formula_structural   TbVO4
_chemical_formula_sum   'Tb2 V2 O8'
_cell_volume   167.16413943
_cell_formula_units_Z   2
loop_
 _symmetry_equiv_pos_site_id
 _symmetry_equiv_pos_as_xyz
  1  'x, y, z'
loop_
 _atom_site_type_symbol
 _atom_site_label
 _atom_site_symmetry_multiplicity
 _atom_site_fract_x
 _atom_site_fract_y
 _atom_site_fract_z
 _atom_site_occupancy
  Tb  Tb0  1  0.00000000  0.00000000  0.00000000  1
  Tb  Tb1  1  0.25000000  0.75000000  0.50000000  1
  V  V2  1  0.75000000  0.25000000  0.50000000  1
  V  V3  1  0.50000000  0.50000000  0.00000000  1
  O  O4  1  0.32450800  0.50861200  0.18410500  1
  O  O5  1  0.39040300  0.07450800  0.31589500  1
  O  O6  1  0.75861200  0.07450800  0.68410500  1
  O  O7  1  0.32450800  0.14040300  0.81589500  1
  O  O8  1  0.85959700  0.67549200  0.18410500  1
  O  O9  1  0.92549200  0.24138800  0.31589500  1
  O  O10  1  0.92549200  0.60959700  0.68410500  1
  O  O11  1  0.49138800  0.67549200  0.81589500  1
