# generated using pymatgen
data_LiCa11Sb9
_symmetry_space_group_name_H-M   'P 1'
_cell_length_a   11.96136000
_cell_length_b   11.96136000
_cell_length_c   17.29740000
_cell_angle_alpha   90.00000000
_cell_angle_beta   90.00000000
_cell_angle_gamma   90.00000000
_symmetry_Int_Tables_number   1
_chemical_formula_structural   LiCa11Sb9
_chemical_formula_sum   'Li4 Ca44 Sb36'
_cell_volume   2474.81050901
_cell_formula_units_Z   4
loop_
 _symmetry_equiv_pos_site_id
 _symmetry_equiv_pos_as_xyz
  1  'x, y, z'
loop_
 _atom_site_type_symbol
 _atom_site_label
 _atom_site_symmetry_multiplicity
 _atom_site_fract_x
 _atom_site_fract_y
 _atom_site_fract_z
 _atom_site_occupancy
  Li  Li0  1  0.09654000  0.09654000  0.00000000  1
  Li  Li1  1  0.90346000  0.90346000  0.00000000  1
  Li  Li2  1  0.40346000  0.59654000  0.50000000  1
  Li  Li3  1  0.59654000  0.40346000  0.50000000  1
  Ca  Ca4  1  0.29283400  0.29283400  0.00000000  1
  Ca  Ca5  1  0.70716600  0.70716600  0.00000000  1
  Ca  Ca6  1  0.20716600  0.79283400  0.50000000  1
  Ca  Ca7  1  0.79283400  0.20716600  0.50000000  1
  Ca  Ca8  1  0.17491800  0.82508200  0.00000000  1
  Ca  Ca9  1  0.82508200  0.17491800  0.00000000  1
  Ca  Ca10  1  0.67491800  0.67491800  0.50000000  1
  Ca  Ca11  1  0.32508200  0.32508200  0.50000000  1
  Ca  Ca12  1  0.01470500  0.24965700  0.18657300  1
  Ca  Ca13  1  0.98529500  0.75034300  0.81342700  1
  Ca  Ca14  1  0.98529500  0.75034300  0.18657300  1
  Ca  Ca15  1  0.25034300  0.51470500  0.68657300  1
  Ca  Ca16  1  0.48529500  0.74965700  0.31342700  1
  Ca  Ca17  1  0.01470500  0.24965700  0.81342700  1
  Ca  Ca18  1  0.74965700  0.48529500  0.31342700  1
  Ca  Ca19  1  0.51470500  0.25034300  0.68657300  1
  Ca  Ca20  1  0.74965700  0.48529500  0.68657300  1
  Ca  Ca21  1  0.51470500  0.25034300  0.31342700  1
  Ca  Ca22  1  0.25034300  0.51470500  0.31342700  1
  Ca  Ca23  1  0.48529500  0.74965700  0.68657300  1
  Ca  Ca24  1  0.24965700  0.01470500  0.81342700  1
  Ca  Ca25  1  0.75034300  0.98529500  0.18657300  1
  Ca  Ca26  1  0.75034300  0.98529500  0.81342700  1
  Ca  Ca27  1  0.24965700  0.01470500  0.18657300  1
  Ca  Ca28  1  0.00000000  0.00000000  0.34304900  1
  Ca  Ca29  1  0.00000000  0.00000000  0.65695100  1
  Ca  Ca30  1  0.50000000  0.50000000  0.84304900  1
  Ca  Ca31  1  0.50000000  0.50000000  0.15695100  1
  Ca  Ca32  1  0.01930700  0.34285900  0.39577500  1
  Ca  Ca33  1  0.98069300  0.65714100  0.60422500  1
  Ca  Ca34  1  0.98069300  0.65714100  0.39577500  1
  Ca  Ca35  1  0.15714100  0.51930700  0.89577500  1
  Ca  Ca36  1  0.48069300  0.84285900  0.10422500  1
  Ca  Ca37  1  0.01930700  0.34285900  0.60422500  1
  Ca  Ca38  1  0.84285900  0.48069300  0.10422500  1
  Ca  Ca39  1  0.51930700  0.15714100  0.89577500  1
  Ca  Ca40  1  0.84285900  0.48069300  0.89577500  1
  Ca  Ca41  1  0.51930700  0.15714100  0.10422500  1
  Ca  Ca42  1  0.15714100  0.51930700  0.10422500  1
  Ca  Ca43  1  0.48069300  0.84285900  0.89577500  1
  Ca  Ca44  1  0.34285900  0.01930700  0.60422500  1
  Ca  Ca45  1  0.65714100  0.98069300  0.39577500  1
  Ca  Ca46  1  0.65714100  0.98069300  0.60422500  1
  Ca  Ca47  1  0.34285900  0.01930700  0.39577500  1
  Sb  Sb48  1  0.03200000  0.33326100  0.00000000  1
  Sb  Sb49  1  0.96800000  0.66673900  0.00000000  1
  Sb  Sb50  1  0.16673900  0.53200000  0.50000000  1
  Sb  Sb51  1  0.46800000  0.83326100  0.50000000  1
  Sb  Sb52  1  0.83326100  0.46800000  0.50000000  1
  Sb  Sb53  1  0.53200000  0.16673900  0.50000000  1
  Sb  Sb54  1  0.33326100  0.03200000  0.00000000  1
  Sb  Sb55  1  0.66673900  0.96800000  0.00000000  1
  Sb  Sb56  1  0.31469400  0.31469400  0.17694400  1
  Sb  Sb57  1  0.68530600  0.68530600  0.82305600  1
  Sb  Sb58  1  0.68530600  0.68530600  0.17694400  1
  Sb  Sb59  1  0.18530600  0.81469400  0.67694400  1
  Sb  Sb60  1  0.18530600  0.81469400  0.32305600  1
  Sb  Sb61  1  0.31469400  0.31469400  0.82305600  1
  Sb  Sb62  1  0.81469400  0.18530600  0.32305600  1
  Sb  Sb63  1  0.81469400  0.18530600  0.67694400  1
  Sb  Sb64  1  0.22307900  0.22307900  0.32177200  1
  Sb  Sb65  1  0.77692100  0.77692100  0.67822800  1
  Sb  Sb66  1  0.77692100  0.77692100  0.32177200  1
  Sb  Sb67  1  0.27692100  0.72307900  0.82177200  1
  Sb  Sb68  1  0.27692100  0.72307900  0.17822800  1
  Sb  Sb69  1  0.22307900  0.22307900  0.67822800  1
  Sb  Sb70  1  0.72307900  0.27692100  0.17822800  1
  Sb  Sb71  1  0.72307900  0.27692100  0.82177200  1
  Sb  Sb72  1  0.00000000  0.50000000  0.25000000  1
  Sb  Sb73  1  0.00000000  0.50000000  0.75000000  1
  Sb  Sb74  1  0.50000000  0.00000000  0.25000000  1
  Sb  Sb75  1  0.50000000  0.00000000  0.75000000  1
  Sb  Sb76  1  0.00000000  0.00000000  0.13352300  1
  Sb  Sb77  1  0.00000000  0.00000000  0.86647700  1
  Sb  Sb78  1  0.50000000  0.50000000  0.63352300  1
  Sb  Sb79  1  0.50000000  0.50000000  0.36647700  1
  Sb  Sb80  1  0.37547200  0.62452800  0.00000000  1
  Sb  Sb81  1  0.62452800  0.37547200  0.00000000  1
  Sb  Sb82  1  0.87547200  0.87547200  0.50000000  1
  Sb  Sb83  1  0.12452800  0.12452800  0.50000000  1
