# generated using pymatgen
data_Tb2Nb3Ge4
_symmetry_space_group_name_H-M   'P 1'
_cell_length_a   7.03814500
_cell_length_b   7.21093800
_cell_length_c   13.65133800
_cell_angle_alpha   90.00000000
_cell_angle_beta   90.00000000
_cell_angle_gamma   90.00000000
_symmetry_Int_Tables_number   1
_chemical_formula_structural   Tb2Nb3Ge4
_chemical_formula_sum   'Tb8 Nb12 Ge16'
_cell_volume   692.82761737
_cell_formula_units_Z   4
loop_
 _symmetry_equiv_pos_site_id
 _symmetry_equiv_pos_as_xyz
  1  'x, y, z'
loop_
 _atom_site_type_symbol
 _atom_site_label
 _atom_site_symmetry_multiplicity
 _atom_site_fract_x
 _atom_site_fract_y
 _atom_site_fract_z
 _atom_site_occupancy
  Tb  Tb0  1  0.49750000  0.32668100  0.09494500  1
  Tb  Tb1  1  0.99750000  0.17331900  0.40505500  1
  Tb  Tb2  1  0.50250000  0.67331900  0.59494500  1
  Tb  Tb3  1  0.00250000  0.82668100  0.90505500  1
  Tb  Tb4  1  0.50250000  0.67331900  0.90505500  1
  Tb  Tb5  1  0.00250000  0.82668100  0.59494500  1
  Tb  Tb6  1  0.49750000  0.32668100  0.40505500  1
  Tb  Tb7  1  0.99750000  0.17331900  0.09494500  1
  Nb  Nb8  1  0.66421200  0.01273900  0.75000000  1
  Nb  Nb9  1  0.16421200  0.48726100  0.75000000  1
  Nb  Nb10  1  0.33578800  0.98726100  0.25000000  1
  Nb  Nb11  1  0.83578800  0.51273900  0.25000000  1
  Nb  Nb12  1  0.83973200  0.32870100  0.62651400  1
  Nb  Nb13  1  0.33973200  0.17129900  0.87348600  1
  Nb  Nb14  1  0.16026800  0.67129900  0.12651400  1
  Nb  Nb15  1  0.66026800  0.82870100  0.37348600  1
  Nb  Nb16  1  0.16026800  0.67129900  0.37348600  1
  Nb  Nb17  1  0.66026800  0.82870100  0.12651400  1
  Nb  Nb18  1  0.83973200  0.32870100  0.87348600  1
  Nb  Nb19  1  0.33973200  0.17129900  0.62651400  1
  Ge  Ge20  1  0.80462100  0.63633200  0.75000000  1
  Ge  Ge21  1  0.30462100  0.86366800  0.75000000  1
  Ge  Ge22  1  0.19537900  0.36366800  0.25000000  1
  Ge  Ge23  1  0.69537900  0.13633200  0.25000000  1
  Ge  Ge24  1  0.53979800  0.37665000  0.75000000  1
  Ge  Ge25  1  0.03979800  0.12335000  0.75000000  1
  Ge  Ge26  1  0.46020200  0.62335000  0.25000000  1
  Ge  Ge27  1  0.96020200  0.87665000  0.25000000  1
  Ge  Ge28  1  0.67300400  0.03899000  0.54192600  1
  Ge  Ge29  1  0.17300400  0.46101000  0.95807400  1
  Ge  Ge30  1  0.32699600  0.96101000  0.04192600  1
  Ge  Ge31  1  0.82699600  0.53899000  0.45807400  1
  Ge  Ge32  1  0.32699600  0.96101000  0.45807400  1
  Ge  Ge33  1  0.82699600  0.53899000  0.04192600  1
  Ge  Ge34  1  0.67300400  0.03899000  0.95807400  1
  Ge  Ge35  1  0.17300400  0.46101000  0.54192600  1
