# generated using pymatgen
data_RbNa2Mn3P4ClO14
_symmetry_space_group_name_H-M   'P 1'
_cell_length_a   11.04516813
_cell_length_b   11.04516813
_cell_length_c   14.03740660
_cell_angle_alpha   61.50643681
_cell_angle_beta   61.50643681
_cell_angle_gamma   27.82308493
_symmetry_Int_Tables_number   1
_chemical_formula_structural   RbNa2Mn3P4ClO14
_chemical_formula_sum   'Rb2 Na4 Mn6 P8 Cl2 O28'
_cell_volume   696.10256334
_cell_formula_units_Z   2
loop_
 _symmetry_equiv_pos_site_id
 _symmetry_equiv_pos_as_xyz
  1  'x, y, z'
loop_
 _atom_site_type_symbol
 _atom_site_label
 _atom_site_symmetry_multiplicity
 _atom_site_fract_x
 _atom_site_fract_y
 _atom_site_fract_z
 _atom_site_occupancy
  Rb  Rb0  1  0.50000000  0.50000000  0.00000000  1
  Rb  Rb1  1  0.50000000  0.50000000  0.50000000  1
  Na  Na2  1  0.25434300  0.30477700  0.15326400  1
  Na  Na3  1  0.69522300  0.74565700  0.34673600  1
  Na  Na4  1  0.74565700  0.69522300  0.84673600  1
  Na  Na5  1  0.30477700  0.25434300  0.65326400  1
  Mn  Mn6  1  0.67088200  0.64255600  0.15527500  1
  Mn  Mn7  1  0.35744400  0.32911800  0.34472500  1
  Mn  Mn8  1  0.32911800  0.35744400  0.84472500  1
  Mn  Mn9  1  0.64255600  0.67088200  0.65527500  1
  Mn  Mn10  1  0.94757800  0.05242200  0.25000000  1
  Mn  Mn11  1  0.05242100  0.94757800  0.75000000  1
  P  P12  1  0.17357200  0.14137300  0.00700600  1
  P  P13  1  0.85862700  0.82642800  0.49299400  1
  P  P14  1  0.82642800  0.85862700  0.99299400  1
  P  P15  1  0.14137300  0.17357200  0.50700600  1
  P  P16  1  0.87675300  0.88640500  0.17075700  1
  P  P17  1  0.11359500  0.12324700  0.32924300  1
  P  P18  1  0.12324700  0.11359500  0.82924300  1
  P  P19  1  0.88640500  0.87675300  0.67075700  1
  Cl  Cl20  1  0.45812900  0.54187100  0.25000000  1
  Cl  Cl21  1  0.54187100  0.45812900  0.75000000  1
  O  O22  1  0.95457900  0.96379600  0.14579100  1
  O  O23  1  0.03620400  0.04542100  0.35420900  1
  O  O24  1  0.04542100  0.03620400  0.85420900  1
  O  O25  1  0.96379600  0.95457900  0.64579100  1
  O  O26  1  0.06138700  0.15429100  0.95126700  1
  O  O27  1  0.84570900  0.93861300  0.54873300  1
  O  O28  1  0.93861300  0.84570900  0.04873300  1
  O  O29  1  0.15429100  0.06138700  0.45126700  1
  O  O30  1  0.89628900  0.41603200  0.29018900  1
  O  O31  1  0.58396800  0.10371100  0.20981100  1
  O  O32  1  0.10371100  0.58396800  0.70981100  1
  O  O33  1  0.41603200  0.89628900  0.79018900  1
  O  O34  1  0.98858700  0.24794500  0.11591400  1
  O  O35  1  0.75205500  0.01141300  0.38408600  1
  O  O36  1  0.01141300  0.75205500  0.88408600  1
  O  O37  1  0.24794500  0.98858700  0.61591400  1
  O  O38  1  0.45879400  0.85483600  0.02293400  1
  O  O39  1  0.14516400  0.54120600  0.47706600  1
  O  O40  1  0.54120600  0.14516400  0.97706600  1
  O  O41  1  0.85483600  0.45879400  0.52293400  1
  O  O42  1  0.04813800  0.62256800  0.24356500  1
  O  O43  1  0.37743200  0.95186200  0.25643500  1
  O  O44  1  0.95186200  0.37743200  0.75643500  1
  O  O45  1  0.62256800  0.04813800  0.74356500  1
  O  O46  1  0.85945400  0.67827600  0.07235000  1
  O  O47  1  0.32172400  0.14054600  0.42765000  1
  O  O48  1  0.14054600  0.32172400  0.92765000  1
  O  O49  1  0.67827600  0.85945400  0.57235000  1
