# generated using pymatgen
data_Rb3Mn3P3O10F7
_symmetry_space_group_name_H-M   'P 1'
_cell_length_a   8.93742756
_cell_length_b   8.93742756
_cell_length_c   12.41559726
_cell_angle_alpha   69.36756836
_cell_angle_beta   69.36756836
_cell_angle_gamma   60.49519961
_symmetry_Int_Tables_number   1
_chemical_formula_structural   Rb3Mn3P3O10F7
_chemical_formula_sum   'Rb6 Mn6 P6 O20 F14'
_cell_volume   788.04540952
_cell_formula_units_Z   2
loop_
 _symmetry_equiv_pos_site_id
 _symmetry_equiv_pos_as_xyz
  1  'x, y, z'
loop_
 _atom_site_type_symbol
 _atom_site_label
 _atom_site_symmetry_multiplicity
 _atom_site_fract_x
 _atom_site_fract_y
 _atom_site_fract_z
 _atom_site_occupancy
  Rb  Rb0  1  0.45786600  0.89259800  0.07449700  1
  Rb  Rb1  1  0.89259800  0.45786600  0.57449700  1
  Rb  Rb2  1  0.06250300  0.69056200  0.07193100  1
  Rb  Rb3  1  0.69056200  0.06250300  0.57193100  1
  Rb  Rb4  1  0.85171000  0.28245500  0.08312800  1
  Rb  Rb5  1  0.28245500  0.85171000  0.58312800  1
  Mn  Mn6  1  0.12835700  0.21716100  0.30310100  1
  Mn  Mn7  1  0.21716100  0.12835700  0.80310100  1
  Mn  Mn8  1  0.37946600  0.45736000  0.31122400  1
  Mn  Mn9  1  0.45736000  0.37946600  0.81122400  1
  Mn  Mn10  1  0.62382500  0.96663900  0.30370900  1
  Mn  Mn11  1  0.96663900  0.62382500  0.80370900  1
  P  P12  1  0.44098100  0.28264500  0.10464400  1
  P  P13  1  0.28264500  0.44098100  0.60464400  1
  P  P14  1  0.05171100  0.88453600  0.28618800  1
  P  P15  1  0.88453600  0.05171100  0.78618800  1
  P  P16  1  0.71463100  0.55253700  0.29128500  1
  P  P17  1  0.55253700  0.71463100  0.79128500  1
  O  O18  1  0.59076400  0.10219900  0.14590200  1
  O  O19  1  0.10219900  0.59076400  0.64590200  1
  O  O20  1  0.26021200  0.27076700  0.14429000  1
  O  O21  1  0.27076700  0.26021200  0.64429000  1
  O  O22  1  0.42924400  0.42960300  0.15109200  1
  O  O23  1  0.42960300  0.42924400  0.65109200  1
  O  O24  1  0.48911800  0.33257500  0.96957000  1
  O  O25  1  0.33257500  0.48911800  0.46957000  1
  O  O26  1  0.90797800  0.43037900  0.25302000  1
  O  O27  1  0.43037900  0.90797800  0.75302000  1
  O  O28  1  0.08937100  0.04598500  0.24945400  1
  O  O29  1  0.04598500  0.08937100  0.74945400  1
  O  O30  1  0.89017900  0.92227200  0.24808000  1
  O  O31  1  0.92227200  0.89017900  0.74808000  1
  O  O32  1  0.68216200  0.74591100  0.25189500  1
  O  O33  1  0.74591100  0.68216200  0.75189500  1
  O  O34  1  0.59039600  0.51768200  0.25455000  1
  O  O35  1  0.51768200  0.59039600  0.75455000  1
  O  O36  1  0.21237500  0.72310400  0.25014500  1
  O  O37  1  0.72310400  0.21237500  0.75014500  1
  F  F38  1  0.00556000  0.16794700  0.45674400  1
  F  F39  1  0.16794700  0.00556000  0.95674400  1
  F  F40  1  0.18696000  0.38795900  0.35465500  1
  F  F41  1  0.38795900  0.18696000  0.85465500  1
  F  F42  1  0.67001200  0.50618900  0.43178400  1
  F  F43  1  0.50618900  0.67001200  0.93178400  1
  F  F44  1  0.55692400  0.18352300  0.35288700  1
  F  F45  1  0.18352300  0.55692400  0.85288700  1
  F  F46  1  0.64253900  0.84117000  0.45724500  1
  F  F47  1  0.84117000  0.64253900  0.95724500  1
  F  F48  1  0.00235600  0.83865400  0.42815900  1
  F  F49  1  0.83865400  0.00235600  0.92815900  1
  F  F50  1  0.34995700  0.02493300  0.34786200  1
  F  F51  1  0.02493300  0.34995700  0.84786200  1
