# generated using pymatgen
data_Nd5Te7WCl3O23
_symmetry_space_group_name_H-M   'P 1'
_cell_length_a   10.03633925
_cell_length_b   10.03633925
_cell_length_c   18.52732271
_cell_angle_alpha   87.34509081
_cell_angle_beta   87.34509081
_cell_angle_gamma   134.74405965
_symmetry_Int_Tables_number   1
_chemical_formula_structural   Nd5Te7WCl3O23
_chemical_formula_sum   'Nd10 Te14 W2 Cl6 O46'
_cell_volume   1315.85875613
_cell_formula_units_Z   2
loop_
 _symmetry_equiv_pos_site_id
 _symmetry_equiv_pos_as_xyz
  1  'x, y, z'
loop_
 _atom_site_type_symbol
 _atom_site_label
 _atom_site_symmetry_multiplicity
 _atom_site_fract_x
 _atom_site_fract_y
 _atom_site_fract_z
 _atom_site_occupancy
  Nd  Nd0  1  0.24004200  0.75995800  0.50000000  1
  Nd  Nd1  1  0.75744700  0.24255300  0.50000000  1
  Nd  Nd2  1  0.74543200  0.52267200  0.86230400  1
  Nd  Nd3  1  0.52256100  0.74530000  0.86262600  1
  Nd  Nd4  1  0.25470000  0.47743900  0.13737400  1
  Nd  Nd5  1  0.47732800  0.25456800  0.13769600  1
  Nd  Nd6  1  0.18080800  0.70072500  0.73793400  1
  Nd  Nd7  1  0.70064100  0.18296200  0.73803400  1
  Nd  Nd8  1  0.81703800  0.29935900  0.26196600  1
  Nd  Nd9  1  0.29927500  0.81919200  0.26206600  1
  Te  Te10  1  0.29988800  0.95942500  0.88991000  1
  Te  Te11  1  0.95945700  0.29969200  0.88988800  1
  Te  Te12  1  0.70030800  0.04054300  0.11011200  1
  Te  Te13  1  0.04057500  0.70011200  0.11009000  1
  Te  Te14  1  0.40555600  0.16202300  0.61446900  1
  Te  Te15  1  0.16318400  0.40723000  0.61509700  1
  Te  Te16  1  0.59277000  0.83681600  0.38490300  1
  Te  Te17  1  0.83797700  0.59444400  0.38553100  1
  Te  Te18  1  0.99620300  0.99619400  0.76269600  1
  Te  Te19  1  0.00380600  0.00379700  0.23730400  1
  Te  Te20  1  0.84969600  0.63715300  0.64170800  1
  Te  Te21  1  0.63448800  0.84758100  0.64292400  1
  Te  Te22  1  0.15241900  0.36551200  0.35707600  1
  Te  Te23  1  0.36284700  0.15030400  0.35829200  1
  W  W24  1  0.26571500  0.26567600  0.97788300  1
  W  W25  1  0.73432400  0.73428500  0.02211700  1
  Cl  Cl26  1  0.69715300  0.30284700  0.00000000  1
  Cl  Cl27  1  0.30285800  0.69714200  0.00000000  1
  Cl  Cl28  1  0.43673100  0.43759800  0.71351300  1
  Cl  Cl29  1  0.56240200  0.56326900  0.28648700  1
  Cl  Cl30  1  0.49947300  0.50052700  0.50000000  1
  Cl  Cl31  1  0.03108600  0.96891400  0.50000000  1
  O  O32  1  0.09716600  0.81686100  0.82986600  1
  O  O33  1  0.81670900  0.09715200  0.82973000  1
  O  O34  1  0.90284800  0.18329100  0.17027000  1
  O  O35  1  0.18313900  0.90283400  0.17013400  1
  O  O36  1  0.82505200  0.51769100  0.73338000  1
  O  O37  1  0.51691900  0.82422900  0.73372500  1
  O  O38  1  0.17577100  0.48308100  0.26627500  1
  O  O39  1  0.48230900  0.17494800  0.26662000  1
  O  O40  1  0.42980300  0.06616800  0.53489200  1
  O  O41  1  0.06582100  0.42642800  0.53457700  1
  O  O42  1  0.57357200  0.93417900  0.46542300  1
  O  O43  1  0.93383200  0.57019700  0.46510800  1
  O  O44  1  0.48747700  0.48748300  0.92353900  1
  O  O45  1  0.51251700  0.51252300  0.07646100  1
  O  O46  1  0.41463600  0.89675700  0.83630200  1
  O  O47  1  0.89654000  0.41438600  0.83635900  1
  O  O48  1  0.58561400  0.10346000  0.16364100  1
  O  O49  1  0.10324300  0.58536400  0.16369800  1
  O  O50  1  0.11194800  0.11193300  0.91339800  1
  O  O51  1  0.88806700  0.88805200  0.08660200  1
  O  O52  1  0.68444000  0.35714900  0.60860300  1
  O  O53  1  0.35766800  0.68488600  0.60884800  1
  O  O54  1  0.31511400  0.64233200  0.39115200  1
  O  O55  1  0.64285100  0.31556000  0.39139700  1
  O  O56  1  0.40529900  0.02744500  0.69088600  1
  O  O57  1  0.02745900  0.40529500  0.69119400  1
  O  O58  1  0.59470500  0.97254100  0.30880600  1
  O  O59  1  0.97255500  0.59470100  0.30911400  1
  O  O60  1  0.14437600  0.30699000  0.03161200  1
  O  O61  1  0.30701200  0.14438900  0.03163500  1
  O  O62  1  0.85561100  0.69298800  0.96836500  1
  O  O63  1  0.69301000  0.85562400  0.96838800  1
  O  O64  1  0.47968100  0.20622200  0.84130500  1
  O  O65  1  0.20625900  0.47967300  0.84137500  1
  O  O66  1  0.52032700  0.79374100  0.15862500  1
  O  O67  1  0.79377800  0.52031900  0.15869500  1
  O  O68  1  0.03913300  0.89162600  0.69236500  1
  O  O69  1  0.89128300  0.03823900  0.69192300  1
  O  O70  1  0.96176100  0.10871700  0.30807700  1
  O  O71  1  0.10837400  0.96086700  0.30763500  1
  O  O72  1  0.07537800  0.70417800  0.61384200  1
  O  O73  1  0.70602300  0.07463400  0.61287900  1
  O  O74  1  0.92536600  0.29397700  0.38712100  1
  O  O75  1  0.29582200  0.92462200  0.38615800  1
  O  O76  1  0.76409700  0.76425400  0.81060000  1
  O  O77  1  0.23574600  0.23590300  0.18940000  1
