# generated using pymatgen
data_K(SnAs)3
_symmetry_space_group_name_H-M   'P 1'
_cell_length_a   4.17402100
_cell_length_b   10.40672600
_cell_length_c   19.62097800
_cell_angle_alpha   90.00000000
_cell_angle_beta   90.00000000
_cell_angle_gamma   90.00000000
_symmetry_Int_Tables_number   1
_chemical_formula_structural   K(SnAs)3
_chemical_formula_sum   'K4 Sn12 As12'
_cell_volume   852.29394028
_cell_formula_units_Z   4
loop_
 _symmetry_equiv_pos_site_id
 _symmetry_equiv_pos_as_xyz
  1  'x, y, z'
loop_
 _atom_site_type_symbol
 _atom_site_label
 _atom_site_symmetry_multiplicity
 _atom_site_fract_x
 _atom_site_fract_y
 _atom_site_fract_z
 _atom_site_occupancy
  K  K0  1  0.75000000  0.28500900  0.95863400  1
  K  K1  1  0.75000000  0.78500900  0.54136600  1
  K  K2  1  0.25000000  0.71499100  0.04136600  1
  K  K3  1  0.25000000  0.21499100  0.45863400  1
  Sn  Sn4  1  0.75000000  0.17131100  0.64883400  1
  Sn  Sn5  1  0.75000000  0.67131100  0.85116600  1
  Sn  Sn6  1  0.25000000  0.82868900  0.35116600  1
  Sn  Sn7  1  0.25000000  0.32868900  0.14883400  1
  Sn  Sn8  1  0.75000000  0.11018200  0.25828500  1
  Sn  Sn9  1  0.75000000  0.61018200  0.24171500  1
  Sn  Sn10  1  0.25000000  0.88981800  0.74171500  1
  Sn  Sn11  1  0.25000000  0.38981800  0.75828500  1
  Sn  Sn12  1  0.75000000  0.98235200  0.12168700  1
  Sn  Sn13  1  0.75000000  0.48235200  0.37831300  1
  Sn  Sn14  1  0.25000000  0.01764800  0.87831300  1
  Sn  Sn15  1  0.25000000  0.51764800  0.62168700  1
  As  As16  1  0.75000000  0.48437700  0.12069800  1
  As  As17  1  0.75000000  0.98437700  0.37930200  1
  As  As18  1  0.25000000  0.51562300  0.87930200  1
  As  As19  1  0.25000000  0.01562300  0.62069800  1
  As  As20  1  0.75000000  0.37376500  0.56817300  1
  As  As21  1  0.75000000  0.87376500  0.93182700  1
  As  As22  1  0.25000000  0.62623500  0.43182700  1
  As  As23  1  0.25000000  0.12623500  0.06817300  1
  As  As24  1  0.75000000  0.22642400  0.78115600  1
  As  As25  1  0.75000000  0.72642400  0.71884400  1
  As  As26  1  0.25000000  0.77357600  0.21884400  1
  As  As27  1  0.25000000  0.27357600  0.28115600  1
