# generated using pymatgen
data_Cs3Hf2P5S18
_symmetry_space_group_name_H-M   'P 1'
_cell_length_a   7.01946378
_cell_length_b   7.01946378
_cell_length_c   34.59567319
_cell_angle_alpha   86.77551156
_cell_angle_beta   86.77551156
_cell_angle_gamma   92.97882090
_symmetry_Int_Tables_number   1
_chemical_formula_structural   Cs3Hf2P5S18
_chemical_formula_sum   'Cs6 Hf4 P10 S36'
_cell_volume   1696.63422956
_cell_formula_units_Z   2
loop_
 _symmetry_equiv_pos_site_id
 _symmetry_equiv_pos_as_xyz
  1  'x, y, z'
loop_
 _atom_site_type_symbol
 _atom_site_label
 _atom_site_symmetry_multiplicity
 _atom_site_fract_x
 _atom_site_fract_y
 _atom_site_fract_z
 _atom_site_occupancy
  Cs  Cs0  1  0.56094300  0.84717300  0.25430100  1
  Cs  Cs1  1  0.84717300  0.56094300  0.75430100  1
  Cs  Cs2  1  0.50275200  0.72186000  0.06844300  1
  Cs  Cs3  1  0.72186000  0.50275200  0.56844300  1
  Cs  Cs4  1  0.21947400  0.02373100  0.86442400  1
  Cs  Cs5  1  0.02373100  0.21947400  0.36442400  1
  Hf  Hf6  1  0.97669700  0.15375600  0.15382700  1
  Hf  Hf7  1  0.15375600  0.97669700  0.65382700  1
  Hf  Hf8  1  0.96088400  0.37615000  0.96425100  1
  Hf  Hf9  1  0.37615000  0.96088400  0.46425100  1
  P  P10  1  0.85198900  0.34509600  0.23663300  1
  P  P11  1  0.34509600  0.85198900  0.73663300  1
  P  P12  1  0.06224100  0.69929900  0.17311100  1
  P  P13  1  0.69929900  0.06224100  0.67311100  1
  P  P14  1  0.94185500  0.24019900  0.05864400  1
  P  P15  1  0.24019900  0.94185500  0.55864400  1
  P  P16  1  0.42301700  0.48106300  0.94534300  1
  P  P17  1  0.48106300  0.42301700  0.44534300  1
  P  P18  1  0.75329500  0.30891800  0.88141500  1
  P  P19  1  0.30891800  0.75329500  0.38141500  1
  S  S20  1  0.70793600  0.34249300  0.28739900  1
  S  S21  1  0.34249300  0.70793600  0.78739900  1
  S  S22  1  0.04642800  0.14325800  0.22707400  1
  S  S23  1  0.14325800  0.04642800  0.72707400  1
  S  S24  1  0.69876600  0.32770800  0.18823900  1
  S  S25  1  0.32770800  0.69876600  0.68823900  1
  S  S26  1  0.01463500  0.61970400  0.23348400  1
  S  S27  1  0.61970400  0.01463500  0.73348400  1
  S  S28  1  0.26524100  0.91823900  0.16895600  1
  S  S29  1  0.91823900  0.26524100  0.66895600  1
  S  S30  1  0.81632900  0.81131900  0.15454600  1
  S  S31  1  0.81131900  0.81632900  0.65454600  1
  S  S32  1  0.16404400  0.48285600  0.14216100  1
  S  S33  1  0.48285600  0.16404400  0.64216100  1
  S  S34  1  0.72884100  0.23559100  0.10214600  1
  S  S35  1  0.23559100  0.72884100  0.60214600  1
  S  S36  1  0.16210700  0.12579000  0.08768300  1
  S  S37  1  0.12579000  0.16210700  0.58768300  1
  S  S38  1  0.01135600  0.50753500  0.03282700  1
  S  S39  1  0.50753500  0.01135600  0.53282700  1
  S  S40  1  0.86347200  0.08617400  0.01298200  1
  S  S41  1  0.08617400  0.86347200  0.51298200  1
  S  S42  1  0.22290600  0.67852400  0.95009100  1
  S  S43  1  0.67852400  0.22290600  0.45009100  1
  S  S44  1  0.28911000  0.22351500  0.96399200  1
  S  S45  1  0.22351500  0.28911000  0.46399200  1
  S  S46  1  0.65274200  0.56360000  0.97567900  1
  S  S47  1  0.56360000  0.65274200  0.47567900  1
  S  S48  1  0.49865500  0.47152000  0.88473800  1
  S  S49  1  0.47152000  0.49865500  0.38473800  1
  S  S50  1  0.75508200  0.12407000  0.92919200  1
  S  S51  1  0.12407000  0.75508200  0.42919200  1
  S  S52  1  0.97910200  0.49308100  0.89108800  1
  S  S53  1  0.49308100  0.97910200  0.39108800  1
  S  S54  1  0.74019500  0.19452900  0.83050900  1
  S  S55  1  0.19452900  0.74019500  0.33050900  1
