# generated using pymatgen
data_UGaAu
_symmetry_space_group_name_H-M   'P 1'
_cell_length_a   4.86137600
_cell_length_b   5.66630190
_cell_length_c   5.66354062
_cell_angle_alpha   118.83948474
_cell_angle_beta   115.41564006
_cell_angle_gamma   64.59762648
_symmetry_Int_Tables_number   1
_chemical_formula_structural   UGaAu
_chemical_formula_sum   'U2 Ga2 Au2'
_cell_volume   118.47654957
_cell_formula_units_Z   2
loop_
 _symmetry_equiv_pos_site_id
 _symmetry_equiv_pos_as_xyz
  1  'x, y, z'
loop_
 _atom_site_type_symbol
 _atom_site_label
 _atom_site_symmetry_multiplicity
 _atom_site_fract_x
 _atom_site_fract_y
 _atom_site_fract_z
 _atom_site_occupancy
  U  U0  1  0.50165900  0.73630600  0.73962300  1
  U  U1  1  0.49834100  0.26369400  0.26037700  1
  Ga  Ga2  1  0.83906400  0.15771000  0.83583800  1
  Ga  Ga3  1  0.16093600  0.84229100  0.16416200  1
  Au  Au4  1  0.17426500  0.32434800  0.67287900  1
  Au  Au5  1  0.82573500  0.67565200  0.32712100  1
