# generated using pymatgen
data_NaTb(SiO3)2
_symmetry_space_group_name_H-M   'P 1'
_cell_length_a   5.54955328
_cell_length_b   9.47472120
_cell_length_c   9.80953614
_cell_angle_alpha   117.23392799
_cell_angle_beta   97.24679528
_cell_angle_gamma   99.82337865
_symmetry_Int_Tables_number   1
_chemical_formula_structural   NaTb(SiO3)2
_chemical_formula_sum   'Na3 Tb3 Si6 O18'
_cell_volume   439.44030889
_cell_formula_units_Z   3
loop_
 _symmetry_equiv_pos_site_id
 _symmetry_equiv_pos_as_xyz
  1  'x, y, z'
loop_
 _atom_site_type_symbol
 _atom_site_label
 _atom_site_symmetry_multiplicity
 _atom_site_fract_x
 _atom_site_fract_y
 _atom_site_fract_z
 _atom_site_occupancy
  Na  Na0  1  0.00000000  0.00000000  0.00000000  1
  Na  Na1  1  0.17063600  0.59898900  0.93196100  1
  Na  Na2  1  0.82936400  0.40101100  0.06803900  1
  Tb  Tb3  1  0.00000000  0.50000000  0.50000000  1
  Tb  Tb4  1  0.31911400  0.77887200  0.36123900  1
  Tb  Tb5  1  0.68088600  0.22112800  0.63876100  1
  Si  Si6  1  0.77552500  0.76697400  0.12423500  1
  Si  Si7  1  0.22447500  0.23302600  0.87576500  1
  Si  Si8  1  0.89378900  0.87843100  0.62895500  1
  Si  Si9  1  0.10621100  0.12156900  0.37104500  1
  Si  Si10  1  0.60998400  0.63734800  0.74767700  1
  Si  Si11  1  0.39001600  0.36265200  0.25232300  1
  O  O12  1  0.50508200  0.72476600  0.15869700  1
  O  O13  1  0.49491800  0.27523400  0.84130300  1
  O  O14  1  0.98087600  0.67987600  0.16163200  1
  O  O15  1  0.01912400  0.32012400  0.83836800  1
  O  O16  1  0.90339200  0.96864500  0.21244000  1
  O  O17  1  0.09660800  0.03135500  0.78756000  1
  O  O18  1  0.04034000  0.75742100  0.51308800  1
  O  O19  1  0.95966000  0.24257900  0.48691200  1
  O  O20  1  0.69886600  0.94666200  0.55090900  1
  O  O21  1  0.30113400  0.05333800  0.44909100  1
  O  O22  1  0.74020400  0.77595400  0.70330200  1
  O  O23  1  0.25979600  0.22404600  0.29669800  1
  O  O24  1  0.31051000  0.60923800  0.72125700  1
  O  O25  1  0.68949000  0.39076200  0.27874300  1
  O  O26  1  0.70964600  0.47416100  0.64966700  1
  O  O27  1  0.29035400  0.52583900  0.35033300  1
  O  O28  1  0.75361000  0.72383400  0.93680800  1
  O  O29  1  0.24639000  0.27616600  0.06319200  1
