# generated using pymatgen
data_Nb5Si3
_symmetry_space_group_name_H-M   'P 1'
_cell_length_a   7.59029915
_cell_length_b   7.59029915
_cell_length_c   7.59029915
_cell_angle_alpha   128.33320524
_cell_angle_beta   128.33320524
_cell_angle_gamma   76.08586724
_symmetry_Int_Tables_number   1
_chemical_formula_structural   Nb5Si3
_chemical_formula_sum   'Nb10 Si6'
_cell_volume   261.57771827
_cell_formula_units_Z   2
loop_
 _symmetry_equiv_pos_site_id
 _symmetry_equiv_pos_as_xyz
  1  'x, y, z'
loop_
 _atom_site_type_symbol
 _atom_site_label
 _atom_site_symmetry_multiplicity
 _atom_site_fract_x
 _atom_site_fract_y
 _atom_site_fract_z
 _atom_site_occupancy
  Nb  Nb0  1  0.01714700  0.18466000  0.50000000  1
  Nb  Nb1  1  0.51714700  0.01714700  0.83248700  1
  Nb  Nb2  1  0.18466000  0.68466000  0.16751300  1
  Nb  Nb3  1  0.48285300  0.98285300  0.16751300  1
  Nb  Nb4  1  0.68466000  0.51714700  0.50000000  1
  Nb  Nb5  1  0.98285300  0.81534000  0.50000000  1
  Nb  Nb6  1  0.31534000  0.48285300  0.50000000  1
  Nb  Nb7  1  0.81534000  0.31534000  0.83248700  1
  Nb  Nb8  1  0.50000000  0.50000000  0.00000000  1
  Nb  Nb9  1  0.00000000  0.00000000  0.00000000  1
  Si  Si10  1  0.12910000  0.62910000  0.75820000  1
  Si  Si11  1  0.62910000  0.87090000  0.50000000  1
  Si  Si12  1  0.37090000  0.12910000  0.50000000  1
  Si  Si13  1  0.87090000  0.37090000  0.24180000  1
  Si  Si14  1  0.75000000  0.75000000  0.00000000  1
  Si  Si15  1  0.25000000  0.25000000  0.00000000  1
