# generated using pymatgen
data_Mn(BiSe2)2
_symmetry_space_group_name_H-M   'P 1'
_cell_length_a   6.98447118
_cell_length_b   6.98447118
_cell_length_c   15.39894099
_cell_angle_alpha   65.63738264
_cell_angle_beta   65.63738264
_cell_angle_gamma   34.25161707
_symmetry_Int_Tables_number   1
_chemical_formula_structural   Mn(BiSe2)2
_chemical_formula_sum   'Mn2 Bi4 Se8'
_cell_volume   381.38212139
_cell_formula_units_Z   2
loop_
 _symmetry_equiv_pos_site_id
 _symmetry_equiv_pos_as_xyz
  1  'x, y, z'
loop_
 _atom_site_type_symbol
 _atom_site_label
 _atom_site_symmetry_multiplicity
 _atom_site_fract_x
 _atom_site_fract_y
 _atom_site_fract_z
 _atom_site_occupancy
  Mn  Mn0  1  0.50000000  0.50000000  0.50000000  1
  Mn  Mn1  1  0.00000000  0.00000000  0.00000000  1
  Bi  Bi2  1  0.84616700  0.84616700  0.37115900  1
  Bi  Bi3  1  0.15383300  0.15383300  0.62884100  1
  Bi  Bi4  1  0.21127400  0.21127400  0.13847800  1
  Bi  Bi5  1  0.78872600  0.78872600  0.86152200  1
  Se  Se6  1  0.61347600  0.61347600  0.04440800  1
  Se  Se7  1  0.38652400  0.38652400  0.95559200  1
  Se  Se8  1  0.84061600  0.84061600  0.17214300  1
  Se  Se9  1  0.15938400  0.15938400  0.82785700  1
  Se  Se10  1  0.15281000  0.15281000  0.44442200  1
  Se  Se11  1  0.84719000  0.84719000  0.55557800  1
  Se  Se12  1  0.51030500  0.51030500  0.32191500  1
  Se  Se13  1  0.48969500  0.48969500  0.67808500  1
