# generated using pymatgen
data_Ti2CoOs
_symmetry_space_group_name_H-M   'P 1'
_cell_length_a   4.31517712
_cell_length_b   4.31492044
_cell_length_c   4.31502297
_cell_angle_alpha   60.00182680
_cell_angle_beta   120.00135521
_cell_angle_gamma   120.00027651
_symmetry_Int_Tables_number   1
_chemical_formula_structural   Ti2CoOs
_chemical_formula_sum   'Ti2 Co1 Os1'
_cell_volume   56.81201220
_cell_formula_units_Z   1
loop_
 _symmetry_equiv_pos_site_id
 _symmetry_equiv_pos_as_xyz
  1  'x, y, z'
loop_
 _atom_site_type_symbol
 _atom_site_label
 _atom_site_symmetry_multiplicity
 _atom_site_fract_x
 _atom_site_fract_y
 _atom_site_fract_z
 _atom_site_occupancy
  Ti  Ti0  1  0.00000700  0.00001200  0.99999700  1
  Ti  Ti1  1  0.49999300  0.49998800  0.50000300  1
  Co  Co2  1  0.75000300  0.25000100  0.25000100  1
  Os  Os3  1  0.25000000  0.75000000  0.75000000  1
