# generated using pymatgen
data_Er5BiAu2
_symmetry_space_group_name_H-M   'P 1'
_cell_length_a   8.66290789
_cell_length_b   8.66290789
_cell_length_c   8.66290789
_cell_angle_alpha   124.29131115
_cell_angle_beta   124.29131115
_cell_angle_gamma   82.71519616
_symmetry_Int_Tables_number   1
_chemical_formula_structural   Er5BiAu2
_chemical_formula_sum   'Er10 Bi2 Au4'
_cell_volume   426.10121409
_cell_formula_units_Z   2
loop_
 _symmetry_equiv_pos_site_id
 _symmetry_equiv_pos_as_xyz
  1  'x, y, z'
loop_
 _atom_site_type_symbol
 _atom_site_label
 _atom_site_symmetry_multiplicity
 _atom_site_fract_x
 _atom_site_fract_y
 _atom_site_fract_z
 _atom_site_occupancy
  Er  Er0  1  0.50000000  0.50000000  0.00000000  1
  Er  Er1  1  0.00000000  0.00000000  0.00000000  1
  Er  Er2  1  0.51393600  0.01393600  0.80860100  1
  Er  Er3  1  0.20533400  0.70533400  0.19139900  1
  Er  Er4  1  0.01393600  0.20533400  0.50000000  1
  Er  Er5  1  0.70533400  0.51393600  0.50000000  1
  Er  Er6  1  0.48606400  0.98606400  0.19139900  1
  Er  Er7  1  0.79466600  0.29466600  0.80860100  1
  Er  Er8  1  0.98606400  0.79466600  0.50000000  1
  Er  Er9  1  0.29466600  0.48606400  0.50000000  1
  Bi  Bi10  1  0.25000000  0.25000000  0.00000000  1
  Bi  Bi11  1  0.75000000  0.75000000  0.00000000  1
  Au  Au12  1  0.13923600  0.63923600  0.77847200  1
  Au  Au13  1  0.86076400  0.36076400  0.22152800  1
  Au  Au14  1  0.63923600  0.86076400  0.50000000  1
  Au  Au15  1  0.36076400  0.13923600  0.50000000  1
