# generated using pymatgen
data_La4P9Rh8
_symmetry_space_group_name_H-M   'P 1'
_cell_length_a   11.61001593
_cell_length_b   11.61001593
_cell_length_c   5.81344900
_cell_angle_alpha   90.00000000
_cell_angle_beta   90.00000000
_cell_angle_gamma   110.92367415
_symmetry_Int_Tables_number   1
_chemical_formula_structural   La4P9Rh8
_chemical_formula_sum   'La8 P18 Rh16'
_cell_volume   731.93560629
_cell_formula_units_Z   2
loop_
 _symmetry_equiv_pos_site_id
 _symmetry_equiv_pos_as_xyz
  1  'x, y, z'
loop_
 _atom_site_type_symbol
 _atom_site_label
 _atom_site_symmetry_multiplicity
 _atom_site_fract_x
 _atom_site_fract_y
 _atom_site_fract_z
 _atom_site_occupancy
  La  La0  1  0.36034600  0.63965400  0.75000000  1
  La  La1  1  0.63965400  0.36034600  0.25000000  1
  La  La2  1  0.41078000  0.14004000  0.75000000  1
  La  La3  1  0.14004000  0.41078000  0.25000000  1
  La  La4  1  0.58922000  0.85996000  0.25000000  1
  La  La5  1  0.85996000  0.58922000  0.75000000  1
  La  La6  1  0.88920200  0.11079800  0.75000000  1
  La  La7  1  0.11079800  0.88920200  0.25000000  1
  P  P8  1  0.57383500  0.42616500  0.75000000  1
  P  P9  1  0.42616500  0.57383500  0.25000000  1
  P  P10  1  0.64590100  0.78803600  0.75000000  1
  P  P11  1  0.78803600  0.64590100  0.25000000  1
  P  P12  1  0.35409900  0.21196400  0.25000000  1
  P  P13  1  0.21196400  0.35409900  0.75000000  1
  P  P14  1  0.36454600  0.88347500  0.99794100  1
  P  P15  1  0.88347500  0.36454600  0.00205900  1
  P  P16  1  0.36454600  0.88347500  0.50205900  1
  P  P17  1  0.88347500  0.36454600  0.49794100  1
  P  P18  1  0.63545400  0.11652500  0.00205900  1
  P  P19  1  0.11652500  0.63545400  0.99794100  1
  P  P20  1  0.63545400  0.11652500  0.49794100  1
  P  P21  1  0.11652500  0.63545400  0.50205900  1
  P  P22  1  0.14370200  0.01575800  0.75000000  1
  P  P23  1  0.01575800  0.14370200  0.25000000  1
  P  P24  1  0.85629800  0.98424200  0.25000000  1
  P  P25  1  0.98424200  0.85629800  0.75000000  1
  Rh  Rh26  1  0.60565200  0.60565200  0.00000000  1
  Rh  Rh27  1  0.60565200  0.60565200  0.50000000  1
  Rh  Rh28  1  0.39434800  0.39434800  0.00000000  1
  Rh  Rh29  1  0.39434800  0.39434800  0.50000000  1
  Rh  Rh30  1  0.70798300  0.29201700  0.75000000  1
  Rh  Rh31  1  0.29201700  0.70798300  0.25000000  1
  Rh  Rh32  1  0.18361900  0.81638100  0.75000000  1
  Rh  Rh33  1  0.81638100  0.18361900  0.25000000  1
  Rh  Rh34  1  0.54689800  0.94010100  0.75000000  1
  Rh  Rh35  1  0.94010100  0.54689800  0.25000000  1
  Rh  Rh36  1  0.45310200  0.05989900  0.25000000  1
  Rh  Rh37  1  0.05989900  0.45310200  0.75000000  1
  Rh  Rh38  1  0.81930500  0.81930500  0.00000000  1
  Rh  Rh39  1  0.81930500  0.81930500  0.50000000  1
  Rh  Rh40  1  0.18069500  0.18069500  0.00000000  1
  Rh  Rh41  1  0.18069500  0.18069500  0.50000000  1
