# generated using pymatgen
data_LiYb(WO4)2
_symmetry_space_group_name_H-M   'P 1'
_cell_length_a   5.88071000
_cell_length_b   5.36226000
_cell_length_c   10.71362205
_cell_angle_alpha   68.05333450
_cell_angle_beta   90.00000000
_cell_angle_gamma   90.00000000
_symmetry_Int_Tables_number   1
_chemical_formula_structural   LiYb(WO4)2
_chemical_formula_sum   'Li2 Yb2 W4 O16'
_cell_volume   313.35954586
_cell_formula_units_Z   2
loop_
 _symmetry_equiv_pos_site_id
 _symmetry_equiv_pos_as_xyz
  1  'x, y, z'
loop_
 _atom_site_type_symbol
 _atom_site_label
 _atom_site_symmetry_multiplicity
 _atom_site_fract_x
 _atom_site_fract_y
 _atom_site_fract_z
 _atom_site_occupancy
  Li  Li0  1  0.59916200  0.50000000  0.25000000  1
  Li  Li1  1  0.40083800  0.50000000  0.75000000  1
  Yb  Yb2  1  0.69440200  0.00000000  0.75000000  1
  Yb  Yb3  1  0.30559800  0.00000000  0.25000000  1
  W  W4  1  0.18035400  0.26601600  0.50598900  1
  W  W5  1  0.18035400  0.73398400  0.99401100  1
  W  W6  1  0.81964600  0.73398400  0.49401100  1
  W  W7  1  0.81964600  0.26601600  0.00598900  1
  O  O8  1  0.11544600  0.64009700  0.40483000  1
  O  O9  1  0.11544600  0.35990300  0.09517000  1
  O  O10  1  0.06995100  0.89086600  0.59929900  1
  O  O11  1  0.06995100  0.10913400  0.90070100  1
  O  O12  1  0.88455400  0.35990300  0.59517000  1
  O  O13  1  0.88455400  0.64009700  0.90483000  1
  O  O14  1  0.38308300  0.76221600  0.11585300  1
  O  O15  1  0.38308300  0.23778400  0.38414700  1
  O  O16  1  0.61691700  0.23778400  0.88414700  1
  O  O17  1  0.61691700  0.76221600  0.61585300  1
  O  O18  1  0.63360900  0.26623500  0.13969600  1
  O  O19  1  0.63360900  0.73376500  0.36030400  1
  O  O20  1  0.36639100  0.73376500  0.86030400  1
  O  O21  1  0.36639100  0.26623500  0.63969600  1
  O  O22  1  0.93004900  0.89086600  0.09929900  1
  O  O23  1  0.93004900  0.10913400  0.40070100  1
