# generated using pymatgen
data_Li2InP2HO8
_symmetry_space_group_name_H-M   'P 1'
_cell_length_a   8.36790200
_cell_length_b   4.89262300
_cell_length_c   7.84740080
_cell_angle_alpha   76.72695105
_cell_angle_beta   90.00000000
_cell_angle_gamma   90.00000000
_symmetry_Int_Tables_number   1
_chemical_formula_structural   Li2InP2HO8
_chemical_formula_sum   'Li4 In2 P4 H2 O16'
_cell_volume   312.69798639
_cell_formula_units_Z   2
loop_
 _symmetry_equiv_pos_site_id
 _symmetry_equiv_pos_as_xyz
  1  'x, y, z'
loop_
 _atom_site_type_symbol
 _atom_site_label
 _atom_site_symmetry_multiplicity
 _atom_site_fract_x
 _atom_site_fract_y
 _atom_site_fract_z
 _atom_site_occupancy
  Li  Li0  1  0.13323200  0.63508200  0.90591900  1
  Li  Li1  1  0.36536200  0.14291300  0.41152700  1
  Li  Li2  1  0.86536200  0.85708700  0.58847300  1
  Li  Li3  1  0.63323200  0.36491800  0.09408100  1
  In  In4  1  0.50020000  0.75024800  0.74468400  1
  In  In5  1  0.00020000  0.24975200  0.25531600  1
  P  P6  1  0.34564500  0.11551100  0.01743700  1
  P  P7  1  0.15096900  0.60977700  0.52537300  1
  P  P8  1  0.65096900  0.39022300  0.47462700  1
  P  P9  1  0.84564500  0.88448900  0.98256300  1
  H  H10  1  0.48627500  0.79588100  0.23608800  1
  H  H11  1  0.98627500  0.20411900  0.76391200  1
  O  O12  1  0.18662700  0.24617600  0.05728300  1
  O  O13  1  0.31265700  0.74678200  0.55595300  1
  O  O14  1  0.81265700  0.25321800  0.44404700  1
  O  O15  1  0.68662700  0.75382400  0.94271700  1
  O  O16  1  0.42881500  0.99152600  0.20221800  1
  O  O17  1  0.06963000  0.48168000  0.70215900  1
  O  O18  1  0.56963000  0.51832000  0.29784100  1
  O  O19  1  0.92881500  0.00847400  0.79778200  1
  O  O20  1  0.32035000  0.88389900  0.91568900  1
  O  O21  1  0.18103600  0.38849500  0.41389100  1
  O  O22  1  0.68103600  0.61150500  0.58610900  1
  O  O23  1  0.82035000  0.11610100  0.08431100  1
  O  O24  1  0.46335500  0.34054000  0.92022000  1
  O  O25  1  0.03684800  0.83837500  0.42030100  1
  O  O26  1  0.53684900  0.16162500  0.57969900  1
  O  O27  1  0.96335500  0.65946000  0.07978000  1
