# generated using pymatgen
data_Cs2S5
_symmetry_space_group_name_H-M   'P 1'
_cell_length_a   7.08680000
_cell_length_b   7.39383700
_cell_length_c   19.19045900
_cell_angle_alpha   90.00000000
_cell_angle_beta   90.00000000
_cell_angle_gamma   90.00000000
_symmetry_Int_Tables_number   1
_chemical_formula_structural   Cs2S5
_chemical_formula_sum   'Cs8 S20'
_cell_volume   1005.55403033
_cell_formula_units_Z   4
loop_
 _symmetry_equiv_pos_site_id
 _symmetry_equiv_pos_as_xyz
  1  'x, y, z'
loop_
 _atom_site_type_symbol
 _atom_site_label
 _atom_site_symmetry_multiplicity
 _atom_site_fract_x
 _atom_site_fract_y
 _atom_site_fract_z
 _atom_site_occupancy
  Cs  Cs0  1  0.11473500  0.57775400  0.01541600  1
  Cs  Cs1  1  0.61473500  0.92224600  0.98458400  1
  Cs  Cs2  1  0.88526500  0.07775400  0.48458400  1
  Cs  Cs3  1  0.38526500  0.42224600  0.51541600  1
  Cs  Cs4  1  0.57387700  0.75437500  0.33401300  1
  Cs  Cs5  1  0.07387700  0.74562500  0.66598700  1
  Cs  Cs6  1  0.42612300  0.25437500  0.16598700  1
  Cs  Cs7  1  0.92612300  0.24562500  0.83401300  1
  S  S8  1  0.08069300  0.07427700  0.03073800  1
  S  S9  1  0.58069300  0.42572300  0.96926200  1
  S  S10  1  0.91930700  0.57427700  0.46926200  1
  S  S11  1  0.41930700  0.92572300  0.53073800  1
  S  S12  1  0.47818600  0.76529000  0.15385900  1
  S  S13  1  0.97818600  0.73471000  0.84614100  1
  S  S14  1  0.52181400  0.26529000  0.34614100  1
  S  S15  1  0.02181400  0.23471000  0.65385900  1
  S  S16  1  0.92748600  0.12192700  0.11968700  1
  S  S17  1  0.42748600  0.37807300  0.88031300  1
  S  S18  1  0.07251400  0.62192700  0.38031300  1
  S  S19  1  0.57251400  0.87807300  0.61968700  1
  S  S20  1  0.93208300  0.90072300  0.18726300  1
  S  S21  1  0.43208300  0.59927700  0.81273700  1
  S  S22  1  0.06791700  0.40072300  0.31273700  1
  S  S23  1  0.56791700  0.09927700  0.68726300  1
  S  S24  1  0.75836600  0.69473200  0.14876200  1
  S  S25  1  0.25836600  0.80526800  0.85123800  1
  S  S26  1  0.24163400  0.19473200  0.35123800  1
  S  S27  1  0.74163400  0.30526800  0.64876200  1
