# generated using pymatgen
data_BaSrYBiO6
_symmetry_space_group_name_H-M   'P 1'
_cell_length_a   8.62716227
_cell_length_b   8.63138310
_cell_length_c   8.62230810
_cell_angle_alpha   90.00000000
_cell_angle_beta   90.00000000
_cell_angle_gamma   90.00000000
_symmetry_Int_Tables_number   1
_chemical_formula_structural   BaSrYBiO6
_chemical_formula_sum   'Ba4 Sr4 Y4 Bi4 O24'
_cell_volume   642.05450452
_cell_formula_units_Z   4
loop_
 _symmetry_equiv_pos_site_id
 _symmetry_equiv_pos_as_xyz
  1  'x, y, z'
loop_
 _atom_site_type_symbol
 _atom_site_label
 _atom_site_symmetry_multiplicity
 _atom_site_fract_x
 _atom_site_fract_y
 _atom_site_fract_z
 _atom_site_occupancy
  Ba  Ba0  1  0.00000000  -0.00000000  -0.00000000  1
  Ba  Ba1  1  0.50000000  0.50000000  0.50000000  1
  Ba  Ba2  1  0.50000000  -0.00000000  0.50000000  1
  Ba  Ba3  1  0.00000000  -0.00000000  0.50000000  1
  Sr  Sr4  1  0.00000000  0.50000000  0.50000000  1
  Sr  Sr5  1  0.50000000  0.50000000  0.00000000  1
  Sr  Sr6  1  0.50000000  -0.00000000  0.00000000  1
  Sr  Sr7  1  0.00000000  0.50000000  -0.00000000  1
  Y  Y8  1  0.24958860  0.25250194  0.24817881  1
  Y  Y9  1  0.75041140  0.74749806  0.24817881  1
  Y  Y10  1  0.75041140  0.25250194  0.75182119  1
  Y  Y11  1  0.24958860  0.74749806  0.75182119  1
  Bi  Bi12  1  0.75043488  0.74667862  0.75223586  1
  Bi  Bi13  1  0.24956512  0.25332138  0.75223586  1
  Bi  Bi14  1  0.24956512  0.74667862  0.24776414  1
  Bi  Bi15  1  0.75043488  0.25332138  0.24776414  1
  O  O16  1  0.99391965  0.21877681  0.27417890  1
  O  O17  1  0.00608035  0.78122319  0.27417890  1
  O  O18  1  0.00608035  0.21877681  0.72582110  1
  O  O19  1  0.99391965  0.78122319  0.72582110  1
  O  O20  1  0.28403689  0.99208525  0.21072229  1
  O  O21  1  0.28403689  0.00791475  0.78927771  1
  O  O22  1  0.71596311  0.00791475  0.21072229  1
  O  O23  1  0.71596311  0.99208525  0.78927771  1
  O  O24  1  0.21235767  0.28921195  0.99424230  1
  O  O25  1  0.78764233  0.28921195  0.00575770  1
  O  O26  1  0.21235767  0.71078805  0.00575770  1
  O  O27  1  0.78764233  0.71078805  0.99424230  1
  O  O28  1  0.50689040  0.28982238  0.21377849  1
  O  O29  1  0.49310960  0.71017762  0.21377849  1
  O  O30  1  0.49310960  0.28982238  0.78622151  1
  O  O31  1  0.50689040  0.71017762  0.78622151  1
  O  O32  1  0.21455082  0.50585343  0.28844379  1
  O  O33  1  0.21455082  0.49414657  0.71155621  1
  O  O34  1  0.78544918  0.49414657  0.28844379  1
  O  O35  1  0.78544918  0.50585343  0.71155621  1
  O  O36  1  0.27975620  0.22437423  0.50727098  1
  O  O37  1  0.72024380  0.22437423  0.49272902  1
  O  O38  1  0.27975620  0.77562577  0.49272902  1
  O  O39  1  0.72024380  0.77562577  0.50727098  1
