# generated using pymatgen
data_LiLaSn2
_symmetry_space_group_name_H-M   'P 1'
_cell_length_a   9.90514604
_cell_length_b   9.90514604
_cell_length_c   4.57392900
_cell_angle_alpha   90.00000000
_cell_angle_beta   90.00000000
_cell_angle_gamma   153.04483314
_symmetry_Int_Tables_number   1
_chemical_formula_structural   LiLaSn2
_chemical_formula_sum   'Li2 La2 Sn4'
_cell_volume   203.41845487
_cell_formula_units_Z   2
loop_
 _symmetry_equiv_pos_site_id
 _symmetry_equiv_pos_as_xyz
  1  'x, y, z'
loop_
 _atom_site_type_symbol
 _atom_site_label
 _atom_site_symmetry_multiplicity
 _atom_site_fract_x
 _atom_site_fract_y
 _atom_site_fract_z
 _atom_site_occupancy
  Li  Li0  1  0.67683800  0.32316200  0.25000000  1
  Li  Li1  1  0.32316200  0.67683800  0.75000000  1
  La  La2  1  0.89456800  0.10543200  0.25000000  1
  La  La3  1  0.10543200  0.89456900  0.75000000  1
  Sn  Sn4  1  0.54405600  0.45594400  0.25000000  1
  Sn  Sn5  1  0.45594400  0.54405600  0.75000000  1
  Sn  Sn6  1  0.24859100  0.75140900  0.25000000  1
  Sn  Sn7  1  0.75140900  0.24859100  0.75000000  1
