# generated using pymatgen
data_RbHo(MoO4)2
_symmetry_space_group_name_H-M   'P 1'
_cell_length_a   5.14660800
_cell_length_b   8.19889400
_cell_length_c   19.14372500
_cell_angle_alpha   90.00000000
_cell_angle_beta   90.00000000
_cell_angle_gamma   90.00000000
_symmetry_Int_Tables_number   1
_chemical_formula_structural   RbHo(MoO4)2
_chemical_formula_sum   'Rb4 Ho4 Mo8 O32'
_cell_volume   807.79806660
_cell_formula_units_Z   4
loop_
 _symmetry_equiv_pos_site_id
 _symmetry_equiv_pos_as_xyz
  1  'x, y, z'
loop_
 _atom_site_type_symbol
 _atom_site_label
 _atom_site_symmetry_multiplicity
 _atom_site_fract_x
 _atom_site_fract_y
 _atom_site_fract_z
 _atom_site_occupancy
  Rb  Rb0  1  0.00000000  0.75000000  0.77105800  1
  Rb  Rb1  1  0.00000000  0.25000000  0.22894200  1
  Rb  Rb2  1  0.50000000  0.25000000  0.72894200  1
  Rb  Rb3  1  0.50000000  0.75000000  0.27105800  1
  Ho  Ho4  1  0.00000000  0.75000000  0.00655600  1
  Ho  Ho5  1  0.00000000  0.25000000  0.99344400  1
  Ho  Ho6  1  0.50000000  0.25000000  0.49344400  1
  Ho  Ho7  1  0.50000000  0.75000000  0.50655600  1
  Mo  Mo8  1  0.02521500  0.51519000  0.40310900  1
  Mo  Mo9  1  0.97478500  0.48481000  0.59689100  1
  Mo  Mo10  1  0.47478500  0.01519000  0.09689100  1
  Mo  Mo11  1  0.97478500  0.98481000  0.40310900  1
  Mo  Mo12  1  0.52521500  0.98481000  0.90310900  1
  Mo  Mo13  1  0.02521500  0.01519000  0.59689100  1
  Mo  Mo14  1  0.52521500  0.48481000  0.09689100  1
  Mo  Mo15  1  0.47478500  0.51519000  0.90310900  1
  O  O16  1  0.09119300  0.97562800  0.31696800  1
  O  O17  1  0.90880700  0.02437200  0.68303200  1
  O  O18  1  0.40880700  0.47562800  0.18303200  1
  O  O19  1  0.90880700  0.52437200  0.31696800  1
  O  O20  1  0.59119300  0.52437200  0.81696800  1
  O  O21  1  0.09119300  0.47562800  0.68303200  1
  O  O22  1  0.59119300  0.02437200  0.18303200  1
  O  O23  1  0.40880700  0.97562800  0.81696800  1
  O  O24  1  0.26587900  0.83932200  0.09451700  1
  O  O25  1  0.73412100  0.16067800  0.90548300  1
  O  O26  1  0.23412100  0.33932200  0.40548300  1
  O  O27  1  0.73412100  0.66067800  0.09451700  1
  O  O28  1  0.76587900  0.66067800  0.59451700  1
  O  O29  1  0.26587900  0.33932200  0.90548300  1
  O  O30  1  0.76587900  0.16067800  0.40548300  1
  O  O31  1  0.23412100  0.83932200  0.59451700  1
  O  O32  1  0.24690800  0.50616200  0.03518500  1
  O  O33  1  0.75309200  0.49383800  0.96481500  1
  O  O34  1  0.25309200  0.00616200  0.46481500  1
  O  O35  1  0.75309200  0.99383800  0.03518500  1
  O  O36  1  0.74690800  0.99383800  0.53518500  1
  O  O37  1  0.24690800  0.00616200  0.96481500  1
  O  O38  1  0.74690800  0.49383800  0.46481500  1
  O  O39  1  0.25309200  0.50616200  0.53518500  1
  O  O40  1  0.24216300  0.68865700  0.41359300  1
  O  O41  1  0.75783700  0.31134300  0.58640700  1
  O  O42  1  0.25783700  0.18865700  0.08640700  1
  O  O43  1  0.75783700  0.81134300  0.41359300  1
  O  O44  1  0.74216300  0.81134300  0.91359300  1
  O  O45  1  0.24216300  0.18865700  0.58640700  1
  O  O46  1  0.74216300  0.31134300  0.08640700  1
  O  O47  1  0.25783700  0.68865700  0.91359300  1
