# generated using pymatgen
data_Sm(BIr)2
_symmetry_space_group_name_H-M   'P 1'
_cell_length_a   7.16375898
_cell_length_b   6.16404689
_cell_length_c   5.56004540
_cell_angle_alpha   75.13024574
_cell_angle_beta   56.26692518
_cell_angle_gamma   48.60282908
_symmetry_Int_Tables_number   1
_chemical_formula_structural   Sm(BIr)2
_chemical_formula_sum   'Sm2 B4 Ir4'
_cell_volume   150.73952685
_cell_formula_units_Z   2
loop_
 _symmetry_equiv_pos_site_id
 _symmetry_equiv_pos_as_xyz
  1  'x, y, z'
loop_
 _atom_site_type_symbol
 _atom_site_label
 _atom_site_symmetry_multiplicity
 _atom_site_fract_x
 _atom_site_fract_y
 _atom_site_fract_z
 _atom_site_occupancy
  Sm  Sm0  1  0.50000000  0.50000000  0.50000000  1
  Sm  Sm1  1  0.75000000  0.75000000  0.75000000  1
  B  B2  1  0.17899400  0.82100600  0.17899400  1
  B  B3  1  0.07100600  0.42899400  0.07100600  1
  B  B4  1  0.82100600  0.17899400  0.82100600  1
  B  B5  1  0.42899400  0.07100600  0.42899400  1
  Ir  Ir6  1  0.87174000  0.87174000  0.12826000  1
  Ir  Ir7  1  0.12826000  0.12826000  0.87174000  1
  Ir  Ir8  1  0.37826000  0.37826000  0.12174000  1
  Ir  Ir9  1  0.12174000  0.12174000  0.37826000  1
