# generated using pymatgen
data_U2Si5Os3
_symmetry_space_group_name_H-M   'P 1'
_cell_length_a   8.11579186
_cell_length_b   8.11579186
_cell_length_c   5.76524983
_cell_angle_alpha   70.35241682
_cell_angle_beta   70.35241682
_cell_angle_gamma   92.87610760
_symmetry_Int_Tables_number   1
_chemical_formula_structural   U2Si5Os3
_chemical_formula_sum   'U4 Si10 Os6'
_cell_volume   331.05146403
_cell_formula_units_Z   2
loop_
 _symmetry_equiv_pos_site_id
 _symmetry_equiv_pos_as_xyz
  1  'x, y, z'
loop_
 _atom_site_type_symbol
 _atom_site_label
 _atom_site_symmetry_multiplicity
 _atom_site_fract_x
 _atom_site_fract_y
 _atom_site_fract_z
 _atom_site_occupancy
  U  U0  1  0.86853100  0.59520700  0.76094200  1
  U  U1  1  0.40479300  0.13146900  0.73905800  1
  U  U2  1  0.13146900  0.40479300  0.23905800  1
  U  U3  1  0.59520700  0.86853100  0.26094200  1
  Si  Si4  1  0.06324200  0.26274600  0.83626400  1
  Si  Si5  1  0.73725400  0.93675800  0.66373600  1
  Si  Si6  1  0.93675800  0.73725400  0.16373600  1
  Si  Si7  1  0.26274600  0.06324200  0.33626400  1
  Si  Si8  1  0.20446200  0.79553800  0.75000000  1
  Si  Si9  1  0.79553800  0.20446200  0.25000000  1
  Si  Si10  1  0.51596200  0.48403800  0.75000000  1
  Si  Si11  1  0.48403800  0.51596200  0.25000000  1
  Si  Si12  1  0.77635200  0.22364800  0.75000000  1
  Si  Si13  1  0.22364800  0.77635200  0.25000000  1
  Os  Os14  1  0.25339900  0.54344200  0.63714800  1
  Os  Os15  1  0.45655800  0.74660100  0.86285200  1
  Os  Os16  1  0.74660100  0.45655800  0.36285200  1
  Os  Os17  1  0.54344200  0.25339900  0.13714800  1
  Os  Os18  1  0.99959100  0.00040900  0.75000000  1
  Os  Os19  1  0.00040900  0.99959100  0.25000000  1
