# generated using pymatgen
data_TbSiPd
_symmetry_space_group_name_H-M   'P 1'
_cell_length_a   4.37578500
_cell_length_b   7.44047400
_cell_length_c   21.10242100
_cell_angle_alpha   90.00000000
_cell_angle_beta   90.00000000
_cell_angle_gamma   90.00000000
_symmetry_Int_Tables_number   1
_chemical_formula_structural   TbSiPd
_chemical_formula_sum   'Tb12 Si12 Pd12'
_cell_volume   687.05081913
_cell_formula_units_Z   12
loop_
 _symmetry_equiv_pos_site_id
 _symmetry_equiv_pos_as_xyz
  1  'x, y, z'
loop_
 _atom_site_type_symbol
 _atom_site_label
 _atom_site_symmetry_multiplicity
 _atom_site_fract_x
 _atom_site_fract_y
 _atom_site_fract_z
 _atom_site_occupancy
  Tb  Tb0  1  0.25000000  0.70653400  0.33283100  1
  Tb  Tb1  1  0.75000000  0.29346600  0.66716900  1
  Tb  Tb2  1  0.75000000  0.20653400  0.16716900  1
  Tb  Tb3  1  0.25000000  0.79346600  0.83283100  1
  Tb  Tb4  1  0.25000000  0.79184400  0.16636900  1
  Tb  Tb5  1  0.75000000  0.20815600  0.83363100  1
  Tb  Tb6  1  0.75000000  0.29184400  0.33363100  1
  Tb  Tb7  1  0.25000000  0.70815600  0.66636900  1
  Tb  Tb8  1  0.25000000  0.71244100  0.00138500  1
  Tb  Tb9  1  0.75000000  0.28755900  0.99861500  1
  Tb  Tb10  1  0.75000000  0.21244100  0.49861500  1
  Tb  Tb11  1  0.25000000  0.78755900  0.50138500  1
  Si  Si12  1  0.25000000  0.08839500  0.07120600  1
  Si  Si13  1  0.75000000  0.91160500  0.92879400  1
  Si  Si14  1  0.75000000  0.58839500  0.42879400  1
  Si  Si15  1  0.25000000  0.41160500  0.57120600  1
  Si  Si16  1  0.25000000  0.08381800  0.27152300  1
  Si  Si17  1  0.75000000  0.91618200  0.72847700  1
  Si  Si18  1  0.75000000  0.58381800  0.22847700  1
  Si  Si19  1  0.25000000  0.41618200  0.77152300  1
  Si  Si20  1  0.25000000  0.08558200  0.39548200  1
  Si  Si21  1  0.75000000  0.91441800  0.60451800  1
  Si  Si22  1  0.75000000  0.58558200  0.10451800  1
  Si  Si23  1  0.25000000  0.41441800  0.89548200  1
  Pd  Pd24  1  0.25000000  0.41624700  0.23723700  1
  Pd  Pd25  1  0.75000000  0.58375300  0.76276300  1
  Pd  Pd26  1  0.75000000  0.91624700  0.26276300  1
  Pd  Pd27  1  0.25000000  0.08375300  0.73723700  1
  Pd  Pd28  1  0.25000000  0.41698700  0.43658900  1
  Pd  Pd29  1  0.75000000  0.58301300  0.56341100  1
  Pd  Pd30  1  0.75000000  0.91698700  0.06341100  1
  Pd  Pd31  1  0.25000000  0.08301300  0.93658900  1
  Pd  Pd32  1  0.25000000  0.41954000  0.09329800  1
  Pd  Pd33  1  0.75000000  0.58046000  0.90670200  1
  Pd  Pd34  1  0.75000000  0.91954000  0.40670200  1
  Pd  Pd35  1  0.25000000  0.08046000  0.59329800  1
