# generated using pymatgen
data_CsAg5Se3
_symmetry_space_group_name_H-M   'P 1'
_cell_length_a   14.34091000
_cell_length_b   14.34091000
_cell_length_c   4.47240900
_cell_angle_alpha   90.00000000
_cell_angle_beta   90.00000000
_cell_angle_gamma   90.00000000
_symmetry_Int_Tables_number   1
_chemical_formula_structural   CsAg5Se3
_chemical_formula_sum   'Cs4 Ag20 Se12'
_cell_volume   919.80323637
_cell_formula_units_Z   4
loop_
 _symmetry_equiv_pos_site_id
 _symmetry_equiv_pos_as_xyz
  1  'x, y, z'
loop_
 _atom_site_type_symbol
 _atom_site_label
 _atom_site_symmetry_multiplicity
 _atom_site_fract_x
 _atom_site_fract_y
 _atom_site_fract_z
 _atom_site_occupancy
  Cs  Cs0  1  0.61474500  0.61474500  0.00000000  1
  Cs  Cs1  1  0.11474500  0.88525500  0.50000000  1
  Cs  Cs2  1  0.88525500  0.11474500  0.50000000  1
  Cs  Cs3  1  0.38525500  0.38525500  0.00000000  1
  Ag  Ag4  1  0.17470900  0.17470900  0.50000000  1
  Ag  Ag5  1  0.67470900  0.32529100  0.00000000  1
  Ag  Ag6  1  0.32529100  0.67470900  0.00000000  1
  Ag  Ag7  1  0.82529100  0.82529100  0.50000000  1
  Ag  Ag8  1  0.48321000  0.10821200  0.00000000  1
  Ag  Ag9  1  0.60821200  0.01679000  0.50000000  1
  Ag  Ag10  1  0.39178800  0.98321000  0.50000000  1
  Ag  Ag11  1  0.51679000  0.89178800  0.00000000  1
  Ag  Ag12  1  0.01679000  0.60821200  0.50000000  1
  Ag  Ag13  1  0.98321000  0.39178800  0.50000000  1
  Ag  Ag14  1  0.10821200  0.48321000  0.00000000  1
  Ag  Ag15  1  0.89178800  0.51679000  0.00000000  1
  Ag  Ag16  1  0.28224100  0.07551800  0.00000000  1
  Ag  Ag17  1  0.57551800  0.21775900  0.50000000  1
  Ag  Ag18  1  0.42448200  0.78224100  0.50000000  1
  Ag  Ag19  1  0.71775900  0.92448200  0.00000000  1
  Ag  Ag20  1  0.21775900  0.57551800  0.50000000  1
  Ag  Ag21  1  0.78224100  0.42448200  0.50000000  1
  Ag  Ag22  1  0.07551800  0.28224100  0.00000000  1
  Ag  Ag23  1  0.92448200  0.71775900  0.00000000  1
  Se  Se24  1  0.89953000  0.89953000  0.00000000  1
  Se  Se25  1  0.39953000  0.60047000  0.50000000  1
  Se  Se26  1  0.60047000  0.39953000  0.50000000  1
  Se  Se27  1  0.10047000  0.10047000  0.00000000  1
  Se  Se28  1  0.38260100  0.16932000  0.50000000  1
  Se  Se29  1  0.66932000  0.11739900  0.00000000  1
  Se  Se30  1  0.33068000  0.88260100  0.00000000  1
  Se  Se31  1  0.61739900  0.83068000  0.50000000  1
  Se  Se32  1  0.11739900  0.66932000  0.00000000  1
  Se  Se33  1  0.88260100  0.33068000  0.00000000  1
  Se  Se34  1  0.16932000  0.38260100  0.50000000  1
  Se  Se35  1  0.83068000  0.61739900  0.50000000  1
