# generated using pymatgen
data_EuZrF6
_symmetry_space_group_name_H-M   'P 1'
_cell_length_a   6.74964834
_cell_length_b   6.74964834
_cell_length_c   5.38846700
_cell_angle_alpha   90.00000000
_cell_angle_beta   90.00000000
_cell_angle_gamma   110.63050965
_symmetry_Int_Tables_number   1
_chemical_formula_structural   EuZrF6
_chemical_formula_sum   'Eu2 Zr2 F12'
_cell_volume   229.74390422
_cell_formula_units_Z   2
loop_
 _symmetry_equiv_pos_site_id
 _symmetry_equiv_pos_as_xyz
  1  'x, y, z'
loop_
 _atom_site_type_symbol
 _atom_site_label
 _atom_site_symmetry_multiplicity
 _atom_site_fract_x
 _atom_site_fract_y
 _atom_site_fract_z
 _atom_site_occupancy
  Eu  Eu0  1  0.25000000  0.75000000  0.46148100  1
  Eu  Eu1  1  0.75000000  0.25000000  0.53851900  1
  Zr  Zr2  1  0.75000000  0.75000000  0.00000000  1
  Zr  Zr3  1  0.25000000  0.25000000  0.00000000  1
  F  F4  1  0.68334200  0.94004900  0.26146800  1
  F  F5  1  0.31665800  0.05995100  0.73853200  1
  F  F6  1  0.81665800  0.55995100  0.26146800  1
  F  F7  1  0.55995100  0.81665800  0.73853200  1
  F  F8  1  0.18334200  0.44004900  0.73853200  1
  F  F9  1  0.44004900  0.18334200  0.26146800  1
  F  F10  1  0.94004900  0.68334200  0.73853200  1
  F  F11  1  0.05995100  0.31665800  0.26146800  1
  F  F12  1  0.42404000  0.57596000  0.15767100  1
  F  F13  1  0.57596000  0.42404000  0.84232900  1
  F  F14  1  0.07596000  0.92404000  0.15767100  1
  F  F15  1  0.92404000  0.07596000  0.84232900  1
