# generated using pymatgen
data_RbTb2Cl7
_symmetry_space_group_name_H-M   'P 1'
_cell_length_a   7.02574200
_cell_length_b   12.73377700
_cell_length_c   13.58009000
_cell_angle_alpha   90.00000000
_cell_angle_beta   90.00000000
_cell_angle_gamma   90.00000000
_symmetry_Int_Tables_number   1
_chemical_formula_structural   RbTb2Cl7
_chemical_formula_sum   'Rb4 Tb8 Cl28'
_cell_volume   1214.93232081
_cell_formula_units_Z   4
loop_
 _symmetry_equiv_pos_site_id
 _symmetry_equiv_pos_as_xyz
  1  'x, y, z'
loop_
 _atom_site_type_symbol
 _atom_site_label
 _atom_site_symmetry_multiplicity
 _atom_site_fract_x
 _atom_site_fract_y
 _atom_site_fract_z
 _atom_site_occupancy
  Rb  Rb0  1  0.25000000  0.80404200  0.04082000  1
  Rb  Rb1  1  0.75000000  0.19595800  0.95918000  1
  Rb  Rb2  1  0.75000000  0.30404200  0.45918000  1
  Rb  Rb3  1  0.25000000  0.69595800  0.54082000  1
  Tb  Tb4  1  0.25000000  0.46024000  0.23685600  1
  Tb  Tb5  1  0.75000000  0.53976000  0.76314400  1
  Tb  Tb6  1  0.75000000  0.96024000  0.26314400  1
  Tb  Tb7  1  0.25000000  0.03976000  0.73685600  1
  Tb  Tb8  1  0.25000000  0.15679000  0.24929100  1
  Tb  Tb9  1  0.75000000  0.84321000  0.75070900  1
  Tb  Tb10  1  0.75000000  0.65679000  0.25070900  1
  Tb  Tb11  1  0.25000000  0.34321000  0.74929100  1
  Cl  Cl12  1  0.01011300  0.30681700  0.17572400  1
  Cl  Cl13  1  0.98988700  0.69318300  0.82427600  1
  Cl  Cl14  1  0.98988700  0.80681700  0.32427600  1
  Cl  Cl15  1  0.51011300  0.69318300  0.82427600  1
  Cl  Cl16  1  0.01011300  0.19318300  0.67572400  1
  Cl  Cl17  1  0.48988700  0.30681700  0.17572400  1
  Cl  Cl18  1  0.48988700  0.19318300  0.67572400  1
  Cl  Cl19  1  0.51011300  0.80681700  0.32427600  1
  Cl  Cl20  1  0.01116300  0.57828500  0.12349600  1
  Cl  Cl21  1  0.98883700  0.42171500  0.87650300  1
  Cl  Cl22  1  0.98883700  0.07828500  0.37650300  1
  Cl  Cl23  1  0.51116300  0.42171500  0.87650300  1
  Cl  Cl24  1  0.01116300  0.92171500  0.62349700  1
  Cl  Cl25  1  0.48883700  0.57828500  0.12349600  1
  Cl  Cl26  1  0.48883700  0.92171500  0.62349700  1
  Cl  Cl27  1  0.51116300  0.07828500  0.37650300  1
  Cl  Cl28  1  0.00887900  0.03983900  0.13398300  1
  Cl  Cl29  1  0.99112100  0.96016100  0.86601700  1
  Cl  Cl30  1  0.99112100  0.53983900  0.36601700  1
  Cl  Cl31  1  0.50887900  0.96016100  0.86601700  1
  Cl  Cl32  1  0.00887900  0.46016100  0.63398300  1
  Cl  Cl33  1  0.49112100  0.03983900  0.13398300  1
  Cl  Cl34  1  0.49112100  0.46016100  0.63398300  1
  Cl  Cl35  1  0.50887900  0.53983900  0.36601700  1
  Cl  Cl36  1  0.25000000  0.31130400  0.38880300  1
  Cl  Cl37  1  0.75000000  0.68869600  0.61119700  1
  Cl  Cl38  1  0.75000000  0.81130400  0.11119700  1
  Cl  Cl39  1  0.25000000  0.18869600  0.88880300  1
