# generated using pymatgen
data_V3GeC
_symmetry_space_group_name_H-M   'P 1'
_cell_length_a   5.24887984
_cell_length_b   5.24887984
_cell_length_c   7.88818700
_cell_angle_alpha   90.00000000
_cell_angle_beta   90.00000000
_cell_angle_gamma   146.09123576
_symmetry_Int_Tables_number   1
_chemical_formula_structural   V3GeC
_chemical_formula_sum   'V6 Ge2 C2'
_cell_volume   121.23976157
_cell_formula_units_Z   2
loop_
 _symmetry_equiv_pos_site_id
 _symmetry_equiv_pos_as_xyz
  1  'x, y, z'
loop_
 _atom_site_type_symbol
 _atom_site_label
 _atom_site_symmetry_multiplicity
 _atom_site_fract_x
 _atom_site_fract_y
 _atom_site_fract_z
 _atom_site_occupancy
  V  V0  1  0.96065100  0.03934900  0.25000000  1
  V  V1  1  0.03934900  0.96065100  0.75000000  1
  V  V2  1  0.62848400  0.37151600  0.45183400  1
  V  V3  1  0.37151600  0.62848400  0.54816600  1
  V  V4  1  0.62848400  0.37151600  0.04816600  1
  V  V5  1  0.37151600  0.62848400  0.95183400  1
  Ge  Ge6  1  0.25560400  0.74439600  0.25000000  1
  Ge  Ge7  1  0.74439600  0.25560400  0.75000000  1
  C  C8  1  0.00000000  0.00000000  0.50000000  1
  C  C9  1  0.00000000  0.00000000  0.00000000  1
