# generated using pymatgen
data_Ba2NaO
_symmetry_space_group_name_H-M   'P 1'
_cell_length_a   8.46858200
_cell_length_b   8.46858200
_cell_length_c   6.97787700
_cell_angle_alpha   90.00000000
_cell_angle_beta   90.00000000
_cell_angle_gamma   133.59910733
_symmetry_Int_Tables_number   1
_chemical_formula_structural   Ba2NaO
_chemical_formula_sum   'Ba4 Na2 O2'
_cell_volume   362.40384192
_cell_formula_units_Z   2
loop_
 _symmetry_equiv_pos_site_id
 _symmetry_equiv_pos_as_xyz
  1  'x, y, z'
loop_
 _atom_site_type_symbol
 _atom_site_label
 _atom_site_symmetry_multiplicity
 _atom_site_fract_x
 _atom_site_fract_y
 _atom_site_fract_z
 _atom_site_occupancy
  Ba  Ba0  1  0.91350600  0.08649400  0.80632500  1
  Ba  Ba1  1  0.08649400  0.91350600  0.19367500  1
  Ba  Ba2  1  0.41350600  0.58649400  0.19367500  1
  Ba  Ba3  1  0.58649400  0.41350600  0.80632500  1
  Na  Na4  1  0.75000000  0.25000000  0.31206700  1
  Na  Na5  1  0.25000000  0.75000000  0.68793300  1
  O  O6  1  0.25000000  0.25000000  0.00000000  1
  O  O7  1  0.75000000  0.75000000  0.00000000  1
