# generated using pymatgen
data_Ba4Ta2O9
_symmetry_space_group_name_H-M   'P 1'
_cell_length_a   6.18418737
_cell_length_b   10.70151719
_cell_length_c   16.63961800
_cell_angle_alpha   90.00000000
_cell_angle_beta   90.00000000
_cell_angle_gamma   90.00342056
_symmetry_Int_Tables_number   1
_chemical_formula_structural   Ba4Ta2O9
_chemical_formula_sum   'Ba16 Ta8 O36'
_cell_volume   1101.21303513
_cell_formula_units_Z   4
loop_
 _symmetry_equiv_pos_site_id
 _symmetry_equiv_pos_as_xyz
  1  'x, y, z'
loop_
 _atom_site_type_symbol
 _atom_site_label
 _atom_site_symmetry_multiplicity
 _atom_site_fract_x
 _atom_site_fract_y
 _atom_site_fract_z
 _atom_site_occupancy
  Ba  Ba0  1  0.50254400  0.49927900  0.25227500  1
  Ba  Ba1  1  0.99745600  0.00072100  0.75227500  1
  Ba  Ba2  1  0.49745600  0.50072100  0.74772500  1
  Ba  Ba3  1  0.00254400  0.99927900  0.24772500  1
  Ba  Ba4  1  0.49578000  0.82838200  0.36610400  1
  Ba  Ba5  1  0.00422000  0.67161800  0.86610400  1
  Ba  Ba6  1  0.50422000  0.17161800  0.63389600  1
  Ba  Ba7  1  0.99578000  0.32838200  0.13389600  1
  Ba  Ba8  1  0.01239800  0.34076200  0.36520200  1
  Ba  Ba9  1  0.48760200  0.15923800  0.86520200  1
  Ba  Ba10  1  0.98760200  0.65923800  0.63479800  1
  Ba  Ba11  1  0.51239800  0.84076200  0.13479800  1
  Ba  Ba12  1  0.50000000  0.50000000  0.50000000  1
  Ba  Ba13  1  0.00000000  0.00000000  0.00000000  1
  Ba  Ba14  1  0.00000000  0.00000000  0.50000000  1
  Ba  Ba15  1  0.50000000  0.50000000  0.00000000  1
  Ta  Ta16  1  0.48551700  0.83561600  0.65338700  1
  Ta  Ta17  1  0.01448300  0.66438400  0.15338700  1
  Ta  Ta18  1  0.51448300  0.16438400  0.34661300  1
  Ta  Ta19  1  0.98551700  0.33561600  0.84661300  1
  Ta  Ta20  1  0.00364000  0.33023000  0.66462900  1
  Ta  Ta21  1  0.49636000  0.16977000  0.16462900  1
  Ta  Ta22  1  0.99636000  0.66977000  0.33537100  1
  Ta  Ta23  1  0.50364000  0.83023000  0.83537100  1
  O  O24  1  0.06107700  0.52449400  0.24399500  1
  O  O25  1  0.43892300  0.97550600  0.74399500  1
  O  O26  1  0.93892300  0.47550600  0.75600500  1
  O  O27  1  0.56107700  0.02449400  0.25600500  1
  O  O28  1  0.23504600  0.29265100  0.75743800  1
  O  O29  1  0.26495400  0.20734900  0.25743800  1
  O  O30  1  0.76495400  0.70734900  0.24256200  1
  O  O31  1  0.73504600  0.79265100  0.74256200  1
  O  O32  1  0.69193600  0.26661800  0.25098800  1
  O  O33  1  0.80806400  0.23338200  0.75098800  1
  O  O34  1  0.30806400  0.73338200  0.74901200  1
  O  O35  1  0.19193600  0.76661800  0.24901200  1
  O  O36  1  0.43404500  0.31914700  0.39604200  1
  O  O37  1  0.06595500  0.18085300  0.89604200  1
  O  O38  1  0.56595500  0.68085300  0.60395800  1
  O  O39  1  0.93404500  0.81914700  0.10395800  1
  O  O40  1  0.92659500  0.82456100  0.38620500  1
  O  O41  1  0.57340500  0.67543900  0.88620500  1
  O  O42  1  0.07340500  0.17543900  0.61379500  1
  O  O43  1  0.42659500  0.32456100  0.11379500  1
  O  O44  1  0.70785600  0.36305500  0.89300700  1
  O  O45  1  0.79214400  0.13694500  0.39300700  1
  O  O46  1  0.29214400  0.63694500  0.10699300  1
  O  O47  1  0.20785600  0.86305500  0.60699300  1
  O  O48  1  0.24545700  0.88009400  0.89044700  1
  O  O49  1  0.25454300  0.61990600  0.39044700  1
  O  O50  1  0.75454300  0.11990600  0.10955300  1
  O  O51  1  0.74545700  0.38009400  0.60955300  1
  O  O52  1  0.79337400  0.55878800  0.38574000  1
  O  O53  1  0.70662600  0.94121200  0.88574000  1
  O  O54  1  0.20662600  0.44121200  0.61426000  1
  O  O55  1  0.29337400  0.05878800  0.11426000  1
  O  O56  1  0.34153300  0.04955400  0.40532600  1
  O  O57  1  0.15846700  0.45044600  0.90532600  1
  O  O58  1  0.65846700  0.95044600  0.59467400  1
  O  O59  1  0.84153300  0.54955400  0.09467400  1
