# generated using pymatgen
data_Sr3HoRhO6
_symmetry_space_group_name_H-M   'P 1'
_cell_length_a   6.85161929
_cell_length_b   6.85161929
_cell_length_c   6.85161912
_cell_angle_alpha   92.19087735
_cell_angle_beta   92.19087735
_cell_angle_gamma   92.19088562
_symmetry_Int_Tables_number   1
_chemical_formula_structural   Sr3HoRhO6
_chemical_formula_sum   'Sr6 Ho2 Rh2 O12'
_cell_volume   320.92322860
_cell_formula_units_Z   2
loop_
 _symmetry_equiv_pos_site_id
 _symmetry_equiv_pos_as_xyz
  1  'x, y, z'
loop_
 _atom_site_type_symbol
 _atom_site_label
 _atom_site_symmetry_multiplicity
 _atom_site_fract_x
 _atom_site_fract_y
 _atom_site_fract_z
 _atom_site_occupancy
  Sr  Sr0  1  0.88119700  0.61880300  0.25000000  1
  Sr  Sr1  1  0.61880300  0.25000000  0.88119700  1
  Sr  Sr2  1  0.25000000  0.88119700  0.61880300  1
  Sr  Sr3  1  0.11880300  0.38119700  0.75000000  1
  Sr  Sr4  1  0.75000000  0.11880300  0.38119700  1
  Sr  Sr5  1  0.38119700  0.75000000  0.11880300  1
  Ho  Ho6  1  0.75000000  0.75000000  0.75000000  1
  Ho  Ho7  1  0.25000000  0.25000000  0.25000000  1
  Rh  Rh8  1  0.50000000  0.50000000  0.50000000  1
  Rh  Rh9  1  0.00000000  0.00000000  0.00000000  1
  O  O10  1  0.59141900  0.79217300  0.45724500  1
  O  O11  1  0.45724500  0.59141900  0.79217300  1
  O  O12  1  0.79217300  0.45724500  0.59141900  1
  O  O13  1  0.90858100  0.04275500  0.70782700  1
  O  O14  1  0.70782700  0.90858100  0.04275500  1
  O  O15  1  0.04275500  0.70782700  0.90858100  1
  O  O16  1  0.40858100  0.20782700  0.54275500  1
  O  O17  1  0.54275500  0.40858100  0.20782700  1
  O  O18  1  0.20782700  0.54275500  0.40858100  1
  O  O19  1  0.09141900  0.95724500  0.29217300  1
  O  O20  1  0.95724500  0.29217300  0.09141900  1
  O  O21  1  0.29217300  0.09141900  0.95724500  1
