# generated using pymatgen
data_Sc2Mn2O7
_symmetry_space_group_name_H-M   'P 1'
_cell_length_a   6.86969485
_cell_length_b   6.86971419
_cell_length_c   6.86966600
_cell_angle_alpha   59.99965250
_cell_angle_beta   59.99962036
_cell_angle_gamma   59.99976926
_symmetry_Int_Tables_number   1
_chemical_formula_structural   Sc2Mn2O7
_chemical_formula_sum   'Sc4 Mn4 O14'
_cell_volume   229.24168706
_cell_formula_units_Z   2
loop_
 _symmetry_equiv_pos_site_id
 _symmetry_equiv_pos_as_xyz
  1  'x, y, z'
loop_
 _atom_site_type_symbol
 _atom_site_label
 _atom_site_symmetry_multiplicity
 _atom_site_fract_x
 _atom_site_fract_y
 _atom_site_fract_z
 _atom_site_occupancy
  Sc  Sc0  1  0.50000000  0.50000100  0.50000000  1
  Sc  Sc1  1  0.50000000  0.50000100  0.00000000  1
  Sc  Sc2  1  0.00000000  0.49999900  0.50000100  1
  Sc  Sc3  1  0.50000000  0.00000100  0.50000000  1
  Mn  Mn4  1  0.00000000  0.99999900  0.00000000  1
  Mn  Mn5  1  0.99999900  0.00000000  0.50000000  1
  Mn  Mn6  1  0.50000000  0.99999900  0.00000100  1
  Mn  Mn7  1  0.00000000  0.50000000  0.00000000  1
  O  O8  1  0.91301800  0.91301800  0.33698400  1
  O  O9  1  0.66301800  0.66301800  0.08698100  1
  O  O10  1  0.33698200  0.91301700  0.91301900  1
  O  O11  1  0.91301800  0.33698200  0.91301800  1
  O  O12  1  0.33698100  0.91301900  0.33698200  1
  O  O13  1  0.91301900  0.33698000  0.33698200  1
  O  O14  1  0.08698200  0.08698200  0.66301600  1
  O  O15  1  0.08698200  0.66301800  0.08698200  1
  O  O16  1  0.37500000  0.37500000  0.37500000  1
  O  O17  1  0.62500000  0.62500000  0.62499900  1
  O  O18  1  0.33698200  0.33698100  0.91301800  1
  O  O19  1  0.66301800  0.08698200  0.08698000  1
  O  O20  1  0.08698100  0.66302000  0.66301800  1
  O  O21  1  0.66301900  0.08698100  0.66301800  1
