# generated using pymatgen
data_RbSb
_symmetry_space_group_name_H-M   'P 1'
_cell_length_a   7.32044300
_cell_length_b   7.54166200
_cell_length_c   14.05411999
_cell_angle_alpha   65.84389048
_cell_angle_beta   90.00000000
_cell_angle_gamma   90.00000000
_symmetry_Int_Tables_number   1
_chemical_formula_structural   RbSb
_chemical_formula_sum   'Rb8 Sb8'
_cell_volume   707.96123783
_cell_formula_units_Z   8
loop_
 _symmetry_equiv_pos_site_id
 _symmetry_equiv_pos_as_xyz
  1  'x, y, z'
loop_
 _atom_site_type_symbol
 _atom_site_label
 _atom_site_symmetry_multiplicity
 _atom_site_fract_x
 _atom_site_fract_y
 _atom_site_fract_z
 _atom_site_occupancy
  Rb  Rb0  1  0.83163500  0.74624000  0.46725100  1
  Rb  Rb1  1  0.33163500  0.25376000  0.03274900  1
  Rb  Rb2  1  0.16836500  0.25376000  0.53274900  1
  Rb  Rb3  1  0.66836500  0.74624000  0.96725100  1
  Rb  Rb4  1  0.59860500  0.28626200  0.33122600  1
  Rb  Rb5  1  0.09860500  0.71373800  0.16877400  1
  Rb  Rb6  1  0.40139500  0.71373800  0.66877400  1
  Rb  Rb7  1  0.90139500  0.28626200  0.83122600  1
  Sb  Sb8  1  0.83103400  0.16614000  0.12988900  1
  Sb  Sb9  1  0.33103400  0.83386000  0.37011100  1
  Sb  Sb10  1  0.16896600  0.83386000  0.87011100  1
  Sb  Sb11  1  0.66896600  0.16614000  0.62988900  1
  Sb  Sb12  1  0.09595700  0.17072600  0.28391500  1
  Sb  Sb13  1  0.59595700  0.82927400  0.21608500  1
  Sb  Sb14  1  0.90404300  0.82927400  0.71608500  1
  Sb  Sb15  1  0.40404300  0.17072600  0.78391500  1
