# generated using pymatgen
data_Cs2Ti(PO4)2
_symmetry_space_group_name_H-M   'P 1'
_cell_length_a   7.36267800
_cell_length_b   9.48403200
_cell_length_c   14.03609600
_cell_angle_alpha   90.00000000
_cell_angle_beta   90.00000000
_cell_angle_gamma   90.00000000
_symmetry_Int_Tables_number   1
_chemical_formula_structural   Cs2Ti(PO4)2
_chemical_formula_sum   'Cs8 Ti4 P8 O32'
_cell_volume   980.11073954
_cell_formula_units_Z   4
loop_
 _symmetry_equiv_pos_site_id
 _symmetry_equiv_pos_as_xyz
  1  'x, y, z'
loop_
 _atom_site_type_symbol
 _atom_site_label
 _atom_site_symmetry_multiplicity
 _atom_site_fract_x
 _atom_site_fract_y
 _atom_site_fract_z
 _atom_site_occupancy
  Cs  Cs0  1  0.77474900  0.61545700  0.07946500  1
  Cs  Cs1  1  0.27474900  0.88454300  0.92053500  1
  Cs  Cs2  1  0.22525100  0.11545700  0.42053500  1
  Cs  Cs3  1  0.72525100  0.38454300  0.57946500  1
  Cs  Cs4  1  0.26502600  0.34269900  0.09503000  1
  Cs  Cs5  1  0.76502600  0.15730100  0.90497000  1
  Cs  Cs6  1  0.73497400  0.84269900  0.40497000  1
  Cs  Cs7  1  0.23497400  0.65730100  0.59503000  1
  Ti  Ti8  1  0.74539200  0.74368600  0.79893400  1
  Ti  Ti9  1  0.24539200  0.75631400  0.20106600  1
  Ti  Ti10  1  0.25460800  0.24368600  0.70106600  1
  Ti  Ti11  1  0.75460800  0.25631400  0.29893400  1
  P  P12  1  0.02550500  0.52773400  0.34288100  1
  P  P13  1  0.52550500  0.97226600  0.65711900  1
  P  P14  1  0.97449500  0.02773400  0.15711900  1
  P  P15  1  0.47449500  0.47226600  0.84288100  1
  P  P16  1  0.92398600  0.99246500  0.66412300  1
  P  P17  1  0.42398600  0.50753500  0.33587700  1
  P  P18  1  0.07601400  0.49246500  0.83587700  1
  P  P19  1  0.57601400  0.00753500  0.16412300  1
  O  O20  1  0.06361400  0.66596200  0.28721800  1
  O  O21  1  0.56361400  0.83403800  0.71278200  1
  O  O22  1  0.93638600  0.16596200  0.21278200  1
  O  O23  1  0.43638600  0.33403800  0.78721800  1
  O  O24  1  0.90068600  0.43280200  0.28135000  1
  O  O25  1  0.40068600  0.06719800  0.71865000  1
  O  O26  1  0.09931400  0.93280200  0.21865000  1
  O  O27  1  0.59931400  0.56719800  0.78135000  1
  O  O28  1  0.30978700  0.30081000  0.59208500  1
  O  O29  1  0.80978700  0.19919000  0.40791500  1
  O  O30  1  0.69021300  0.80081000  0.90791500  1
  O  O31  1  0.19021300  0.69919000  0.09208500  1
  O  O32  1  0.96224800  0.55394600  0.44289700  1
  O  O33  1  0.46224800  0.94605400  0.55710300  1
  O  O34  1  0.03775200  0.05394600  0.05710300  1
  O  O35  1  0.53775200  0.44605400  0.94289700  1
  O  O36  1  0.21797300  0.44102300  0.34437600  1
  O  O37  1  0.71797300  0.05897700  0.65562400  1
  O  O38  1  0.78202700  0.94102300  0.15562400  1
  O  O39  1  0.28202700  0.55897700  0.84437600  1
  O  O40  1  0.53332200  0.37377500  0.31159700  1
  O  O41  1  0.03332200  0.12622500  0.68840300  1
  O  O42  1  0.46667800  0.87377500  0.18840300  1
  O  O43  1  0.96667800  0.62622500  0.81159700  1
  O  O44  1  0.47575200  0.58104200  0.42657600  1
  O  O45  1  0.97575200  0.91895800  0.57342400  1
  O  O46  1  0.52424800  0.08104200  0.07342400  1
  O  O47  1  0.02424800  0.41895800  0.92657600  1
  O  O48  1  0.58334600  0.10371900  0.25350400  1
  O  O49  1  0.08334600  0.39628100  0.74649600  1
  O  O50  1  0.41665400  0.60371900  0.24649600  1
  O  O51  1  0.91665400  0.89628100  0.75350400  1
