# generated using pymatgen
data_Rb3Ni2(NO3)7
_symmetry_space_group_name_H-M   'P 1'
_cell_length_a   7.35639100
_cell_length_b   9.16242300
_cell_length_c   28.60788200
_cell_angle_alpha   90.00000000
_cell_angle_beta   90.00000000
_cell_angle_gamma   90.00000000
_symmetry_Int_Tables_number   1
_chemical_formula_structural   Rb3Ni2(NO3)7
_chemical_formula_sum   'Rb12 Ni8 N28 O84'
_cell_volume   1928.23893578
_cell_formula_units_Z   4
loop_
 _symmetry_equiv_pos_site_id
 _symmetry_equiv_pos_as_xyz
  1  'x, y, z'
loop_
 _atom_site_type_symbol
 _atom_site_label
 _atom_site_symmetry_multiplicity
 _atom_site_fract_x
 _atom_site_fract_y
 _atom_site_fract_z
 _atom_site_occupancy
  Rb  Rb0  1  0.91415400  0.98189100  0.25000000  1
  Rb  Rb1  1  0.58584600  0.48189100  0.25000000  1
  Rb  Rb2  1  0.08584600  0.01810900  0.75000000  1
  Rb  Rb3  1  0.41415400  0.51810900  0.75000000  1
  Rb  Rb4  1  0.87767200  0.99783300  0.43607800  1
  Rb  Rb5  1  0.62232800  0.49783300  0.06392200  1
  Rb  Rb6  1  0.12232800  0.00216700  0.93607800  1
  Rb  Rb7  1  0.37767200  0.50216700  0.56392200  1
  Rb  Rb8  1  0.12232800  0.00216700  0.56392200  1
  Rb  Rb9  1  0.37767200  0.50216700  0.93607800  1
  Rb  Rb10  1  0.87767200  0.99783300  0.06392200  1
  Rb  Rb11  1  0.62232800  0.49783300  0.43607800  1
  Ni  Ni12  1  0.09868500  0.36976700  0.35951300  1
  Ni  Ni13  1  0.40131500  0.86976700  0.14048700  1
  Ni  Ni14  1  0.90131500  0.63023300  0.85951300  1
  Ni  Ni15  1  0.59868500  0.13023300  0.64048700  1
  Ni  Ni16  1  0.90131500  0.63023300  0.64048700  1
  Ni  Ni17  1  0.59868500  0.13023300  0.85951300  1
  Ni  Ni18  1  0.09868500  0.36976700  0.14048700  1
  Ni  Ni19  1  0.40131500  0.86976700  0.35951300  1
  N  N20  1  0.37233100  0.87803700  0.25000000  1
  N  N21  1  0.12766900  0.37803700  0.25000000  1
  N  N22  1  0.62766900  0.12196300  0.75000000  1
  N  N23  1  0.87233100  0.62196300  0.75000000  1
  N  N24  1  0.10723400  0.34020200  0.46444300  1
  N  N25  1  0.39276600  0.84020200  0.03555700  1
  N  N26  1  0.89276600  0.65979800  0.96444300  1
  N  N27  1  0.60723400  0.15979800  0.53555700  1
  N  N28  1  0.89276600  0.65979800  0.53555700  1
  N  N29  1  0.60723400  0.15979800  0.96444300  1
  N  N30  1  0.10723400  0.34020200  0.03555700  1
  N  N31  1  0.39276600  0.84020200  0.46444300  1
  N  N32  1  0.08328700  0.68389000  0.38203800  1
  N  N33  1  0.41671300  0.18389000  0.11796200  1
  N  N34  1  0.91671300  0.31611000  0.88203800  1
  N  N35  1  0.58328700  0.81611000  0.61796200  1
  N  N36  1  0.91671300  0.31611000  0.61796200  1
  N  N37  1  0.58328700  0.81611000  0.88203800  1
  N  N38  1  0.08328700  0.68389000  0.11796200  1
  N  N39  1  0.41671300  0.18389000  0.38203800  1
  N  N40  1  0.69012100  0.75617700  0.32778800  1
  N  N41  1  0.80987900  0.25617700  0.17221200  1
  N  N42  1  0.30987900  0.24382300  0.82778800  1
  N  N43  1  0.19012100  0.74382300  0.67221200  1
  N  N44  1  0.30987900  0.24382300  0.67221200  1
  N  N45  1  0.19012100  0.74382300  0.82778800  1
  N  N46  1  0.69012100  0.75617700  0.17221200  1
  N  N47  1  0.80987900  0.25617700  0.32778800  1
  O  O48  1  0.01360200  0.31481300  0.42620700  1
  O  O49  1  0.48639800  0.81481300  0.07379300  1
  O  O50  1  0.98639800  0.68518700  0.92620700  1
  O  O51  1  0.51360200  0.18518700  0.57379300  1
  O  O52  1  0.98639800  0.68518700  0.57379300  1
  O  O53  1  0.51360200  0.18518700  0.92620700  1
  O  O54  1  0.01360200  0.31481300  0.07379300  1
  O  O55  1  0.48639800  0.81481300  0.42620700  1
  O  O56  1  0.96419900  0.34326900  0.25000000  1
  O  O57  1  0.53580100  0.84326900  0.25000000  1
  O  O58  1  0.03580100  0.65673100  0.75000000  1
  O  O59  1  0.46419900  0.15673100  0.75000000  1
  O  O60  1  0.90835400  0.74958700  0.50294400  1
  O  O61  1  0.59164600  0.24958700  0.99705600  1
  O  O62  1  0.09164600  0.25041300  0.00294400  1
  O  O63  1  0.40835400  0.75041300  0.49705600  1
  O  O64  1  0.09164600  0.25041300  0.49705600  1
  O  O65  1  0.40835400  0.75041300  0.00294400  1
  O  O66  1  0.90835400  0.74958700  0.99705600  1
  O  O67  1  0.59164600  0.24958700  0.50294400  1
  O  O68  1  0.82242300  0.70773200  0.30623300  1
  O  O69  1  0.67757700  0.20773200  0.19376700  1
  O  O70  1  0.17757700  0.29226800  0.80623300  1
  O  O71  1  0.32242300  0.79226800  0.69376700  1
  O  O72  1  0.17757700  0.29226800  0.69376700  1
  O  O73  1  0.32242300  0.79226800  0.80623300  1
  O  O74  1  0.82242300  0.70773200  0.19376700  1
  O  O75  1  0.67757700  0.20773200  0.30623300  1
  O  O76  1  0.20496200  0.45175200  0.46714200  1
  O  O77  1  0.29503800  0.95175200  0.03285800  1
  O  O78  1  0.79503800  0.54824800  0.96714200  1
  O  O79  1  0.70496200  0.04824800  0.53285800  1
  O  O80  1  0.79503800  0.54824800  0.53285800  1
  O  O81  1  0.70496200  0.04824800  0.96714200  1
  O  O82  1  0.20496200  0.45175200  0.03285800  1
  O  O83  1  0.29503800  0.95175200  0.46714200  1
  O  O84  1  0.81863300  0.39000400  0.34138600  1
  O  O85  1  0.68136700  0.89000400  0.15861400  1
  O  O86  1  0.18136700  0.60999600  0.84138600  1
  O  O87  1  0.31863300  0.10999600  0.65861400  1
  O  O88  1  0.18136700  0.60999600  0.65861400  1
  O  O89  1  0.31863300  0.10999600  0.84138600  1
  O  O90  1  0.81863300  0.39000400  0.15861400  1
  O  O91  1  0.68136700  0.89000400  0.34138600  1
  O  O92  1  0.93550500  0.65803600  0.40097500  1
  O  O93  1  0.56449500  0.15803600  0.09902500  1
  O  O94  1  0.06449500  0.34196400  0.90097500  1
  O  O95  1  0.43550500  0.84196400  0.59902500  1
  O  O96  1  0.06449500  0.34196400  0.59902500  1
  O  O97  1  0.43550500  0.84196400  0.90097500  1
  O  O98  1  0.93550500  0.65803600  0.09902500  1
  O  O99  1  0.56449500  0.15803600  0.40097500  1
  O  O100  1  0.95134900  0.17807100  0.33676300  1
  O  O101  1  0.54865100  0.67807100  0.16323700  1
  O  O102  1  0.04865100  0.82192900  0.83676300  1
  O  O103  1  0.45134900  0.32192900  0.66323700  1
  O  O104  1  0.04865100  0.82192900  0.66323700  1
  O  O105  1  0.45134900  0.32192900  0.83676300  1
  O  O106  1  0.95134900  0.17807100  0.16323700  1
  O  O107  1  0.54865100  0.67807100  0.33676300  1
  O  O108  1  0.28474600  0.89613500  0.28828400  1
  O  O109  1  0.21525400  0.39613500  0.21171600  1
  O  O110  1  0.71525400  0.10386500  0.78828400  1
  O  O111  1  0.78474600  0.60386500  0.71171600  1
  O  O112  1  0.71525400  0.10386500  0.71171600  1
  O  O113  1  0.78474600  0.60386500  0.78828400  1
  O  O114  1  0.28474600  0.89613500  0.21171600  1
  O  O115  1  0.21525400  0.39613500  0.28828400  1
  O  O116  1  0.36112300  0.31675500  0.37875700  1
  O  O117  1  0.13887700  0.81675500  0.12124300  1
  O  O118  1  0.63887700  0.68324500  0.87875700  1
  O  O119  1  0.86112300  0.18324500  0.62124300  1
  O  O120  1  0.63887700  0.68324500  0.62124300  1
  O  O121  1  0.86112300  0.18324500  0.87875700  1
  O  O122  1  0.36112300  0.31675500  0.12124300  1
  O  O123  1  0.13887700  0.81675500  0.37875700  1
  O  O124  1  0.18488300  0.58375800  0.36521500  1
  O  O125  1  0.31511700  0.08375800  0.13478500  1
  O  O126  1  0.81511700  0.41624200  0.86521500  1
  O  O127  1  0.68488300  0.91624200  0.63478500  1
  O  O128  1  0.81511700  0.41624200  0.63478500  1
  O  O129  1  0.68488300  0.91624200  0.86521500  1
  O  O130  1  0.18488300  0.58375800  0.13478500  1
  O  O131  1  0.31511700  0.08375800  0.36521500  1
