# generated using pymatgen
data_Lu5(Co2Ge5)2
_symmetry_space_group_name_H-M   'P 1'
_cell_length_a   4.09785900
_cell_length_b   12.65521600
_cell_length_c   12.65521600
_cell_angle_alpha   90.00000000
_cell_angle_beta   90.00000000
_cell_angle_gamma   90.00000000
_symmetry_Int_Tables_number   1
_chemical_formula_structural   Lu5(Co2Ge5)2
_chemical_formula_sum   'Lu10 Co8 Ge20'
_cell_volume   656.29052646
_cell_formula_units_Z   2
loop_
 _symmetry_equiv_pos_site_id
 _symmetry_equiv_pos_as_xyz
  1  'x, y, z'
loop_
 _atom_site_type_symbol
 _atom_site_label
 _atom_site_symmetry_multiplicity
 _atom_site_fract_x
 _atom_site_fract_y
 _atom_site_fract_z
 _atom_site_occupancy
  Lu  Lu0  1  0.00000000  0.50000000  0.50000000  1
  Lu  Lu1  1  0.00000000  0.00000000  0.00000000  1
  Lu  Lu2  1  0.50000000  0.17469400  0.67469400  1
  Lu  Lu3  1  0.50000000  0.82530600  0.32530600  1
  Lu  Lu4  1  0.50000000  0.32530600  0.17469400  1
  Lu  Lu5  1  0.50000000  0.67469400  0.82530600  1
  Lu  Lu6  1  0.50000000  0.38598800  0.88598800  1
  Lu  Lu7  1  0.50000000  0.61401200  0.11401200  1
  Lu  Lu8  1  0.50000000  0.11401200  0.38598800  1
  Lu  Lu9  1  0.50000000  0.88598800  0.61401200  1
  Co  Co10  1  0.00000000  0.52198100  0.74662400  1
  Co  Co11  1  0.00000000  0.47801900  0.25337600  1
  Co  Co12  1  0.00000000  0.97801900  0.24662400  1
  Co  Co13  1  0.00000000  0.02198100  0.75337600  1
  Co  Co14  1  0.00000000  0.74662400  0.47801900  1
  Co  Co15  1  0.00000000  0.25337600  0.52198100  1
  Co  Co16  1  0.00000000  0.24662400  0.02198100  1
  Co  Co17  1  0.00000000  0.75337600  0.97801900  1
  Ge  Ge18  1  0.00000000  0.06818300  0.56818300  1
  Ge  Ge19  1  0.00000000  0.93181700  0.43181700  1
  Ge  Ge20  1  0.00000000  0.43181700  0.06818300  1
  Ge  Ge21  1  0.00000000  0.56818300  0.93181700  1
  Ge  Ge22  1  0.00000000  0.69648600  0.65778400  1
  Ge  Ge23  1  0.00000000  0.30351400  0.34221600  1
  Ge  Ge24  1  0.00000000  0.80351400  0.15778400  1
  Ge  Ge25  1  0.00000000  0.19648600  0.84221600  1
  Ge  Ge26  1  0.00000000  0.65778400  0.30351400  1
  Ge  Ge27  1  0.00000000  0.34221600  0.69648600  1
  Ge  Ge28  1  0.00000000  0.15778400  0.19648600  1
  Ge  Ge29  1  0.00000000  0.84221600  0.80351400  1
  Ge  Ge30  1  0.50000000  0.50734000  0.66321400  1
  Ge  Ge31  1  0.50000000  0.49266000  0.33678600  1
  Ge  Ge32  1  0.50000000  0.99266000  0.16321400  1
  Ge  Ge33  1  0.50000000  0.00734000  0.83678600  1
  Ge  Ge34  1  0.50000000  0.66321400  0.49266000  1
  Ge  Ge35  1  0.50000000  0.33678600  0.50734000  1
  Ge  Ge36  1  0.50000000  0.16321400  0.00734000  1
  Ge  Ge37  1  0.50000000  0.83678600  0.99266000  1
