# generated using pymatgen
data_K3P11
_symmetry_space_group_name_H-M   'P 1'
_cell_length_a   10.73836200
_cell_length_b   10.86902000
_cell_length_c   13.91983500
_cell_angle_alpha   90.00000000
_cell_angle_beta   90.00000000
_cell_angle_gamma   90.00000000
_symmetry_Int_Tables_number   1
_chemical_formula_structural   K3P11
_chemical_formula_sum   'K12 P44'
_cell_volume   1624.66010307
_cell_formula_units_Z   4
loop_
 _symmetry_equiv_pos_site_id
 _symmetry_equiv_pos_as_xyz
  1  'x, y, z'
loop_
 _atom_site_type_symbol
 _atom_site_label
 _atom_site_symmetry_multiplicity
 _atom_site_fract_x
 _atom_site_fract_y
 _atom_site_fract_z
 _atom_site_occupancy
  K  K0  1  0.76589400  0.56990300  0.99308800  1
  K  K1  1  0.73410600  0.06990300  0.50691200  1
  K  K2  1  0.26589400  0.43009700  0.50691200  1
  K  K3  1  0.23410600  0.93009700  0.99308800  1
  K  K4  1  0.23410600  0.43009700  0.00691200  1
  K  K5  1  0.26589400  0.93009700  0.49308800  1
  K  K6  1  0.73410600  0.56990300  0.49308800  1
  K  K7  1  0.76589400  0.06990300  0.00691200  1
  K  K8  1  0.50000000  0.75000000  0.21985800  1
  K  K9  1  0.00000000  0.25000000  0.28014200  1
  K  K10  1  0.50000000  0.25000000  0.78014200  1
  K  K11  1  0.00000000  0.75000000  0.71985800  1
  P  P12  1  0.48901200  0.98636600  0.65395900  1
  P  P13  1  0.01098800  0.48636600  0.84604100  1
  P  P14  1  0.98901200  0.01363400  0.84604100  1
  P  P15  1  0.51098800  0.51363400  0.65395900  1
  P  P16  1  0.51098800  0.01363400  0.34604100  1
  P  P17  1  0.98901200  0.51363400  0.15395900  1
  P  P18  1  0.01098800  0.98636600  0.15395900  1
  P  P19  1  0.48901200  0.48636600  0.34604100  1
  P  P20  1  0.58198200  0.81265900  0.62415900  1
  P  P21  1  0.91801800  0.31265900  0.87584100  1
  P  P22  1  0.08198200  0.18734100  0.87584100  1
  P  P23  1  0.41801800  0.68734100  0.62415900  1
  P  P24  1  0.00000000  0.75000000  0.47587200  1
  P  P25  1  0.50000000  0.25000000  0.02412800  1
  P  P26  1  0.00000000  0.25000000  0.52412800  1
  P  P27  1  0.50000000  0.75000000  0.97587200  1
  P  P28  1  0.67720100  0.25580400  0.23741400  1
  P  P29  1  0.82279900  0.75580400  0.26258600  1
  P  P30  1  0.17720100  0.74419600  0.26258600  1
  P  P31  1  0.32279900  0.24419600  0.23741400  1
  P  P32  1  0.32279900  0.74419600  0.76258600  1
  P  P33  1  0.17720100  0.24419600  0.73741400  1
  P  P34  1  0.82279900  0.25580400  0.73741400  1
  P  P35  1  0.67720100  0.75580400  0.76258600  1
  P  P36  1  0.58905600  0.06977400  0.20917900  1
  P  P37  1  0.91094400  0.56977400  0.29082100  1
  P  P38  1  0.08905600  0.93022600  0.29082100  1
  P  P39  1  0.41094400  0.43022600  0.20917900  1
  P  P40  1  0.41094400  0.93022600  0.79082100  1
  P  P41  1  0.08905600  0.43022600  0.70917900  1
  P  P42  1  0.91094400  0.06977400  0.70917900  1
  P  P43  1  0.58905600  0.56977400  0.79082100  1
  P  P44  1  0.58096200  0.37664600  0.12818300  1
  P  P45  1  0.91903800  0.87664600  0.37181700  1
  P  P46  1  0.08096200  0.62335400  0.37181700  1
  P  P47  1  0.41903800  0.12335400  0.12818300  1
  P  P48  1  0.41903800  0.62335400  0.87181700  1
  P  P49  1  0.08096200  0.12335400  0.62818300  1
  P  P50  1  0.91903800  0.37664600  0.62818300  1
  P  P51  1  0.58096200  0.87664600  0.87181700  1
  P  P52  1  0.58198200  0.31265900  0.37584100  1
  P  P53  1  0.91801800  0.81265900  0.12415900  1
  P  P54  1  0.08198200  0.68734100  0.12415900  1
  P  P55  1  0.41801800  0.18734100  0.37584100  1
