# generated using pymatgen
data_Ba3SmB24
_symmetry_space_group_name_H-M   'P 1'
_cell_length_a   4.23545200
_cell_length_b   4.23545200
_cell_length_c   16.96351600
_cell_angle_alpha   90.00000000
_cell_angle_beta   90.00000000
_cell_angle_gamma   90.00000000
_symmetry_Int_Tables_number   1
_chemical_formula_structural   Ba3SmB24
_chemical_formula_sum   'Ba3 Sm1 B24'
_cell_volume   304.30942352
_cell_formula_units_Z   1
loop_
 _symmetry_equiv_pos_site_id
 _symmetry_equiv_pos_as_xyz
  1  'x, y, z'
loop_
 _atom_site_type_symbol
 _atom_site_label
 _atom_site_symmetry_multiplicity
 _atom_site_fract_x
 _atom_site_fract_y
 _atom_site_fract_z
 _atom_site_occupancy
  Ba  Ba0  1  0.00000000  0.00000000  0.24978900  1
  Ba  Ba1  1  0.00000000  0.00000000  0.50000000  1
  Ba  Ba2  1  0.00000000  0.00000000  0.75021100  1
  Sm  Sm3  1  0.00000000  0.00000000  0.00000000  1
  B  B4  1  0.20236500  0.50000000  0.12092300  1
  B  B5  1  0.20449000  0.50000000  0.37428600  1
  B  B6  1  0.20449000  0.50000000  0.62571400  1
  B  B7  1  0.20236500  0.50000000  0.87907700  1
  B  B8  1  0.50000000  0.50000000  0.19602600  1
  B  B9  1  0.50000000  0.50000000  0.44838400  1
  B  B10  1  0.50000000  0.50000000  0.70018300  1
  B  B11  1  0.50000000  0.50000000  0.95160200  1
  B  B12  1  0.50000000  0.20236500  0.12092300  1
  B  B13  1  0.50000000  0.20449000  0.37428600  1
  B  B14  1  0.50000000  0.20449000  0.62571400  1
  B  B15  1  0.50000000  0.20236500  0.87907700  1
  B  B16  1  0.50000000  0.50000000  0.04839800  1
  B  B17  1  0.50000000  0.50000000  0.29981700  1
  B  B18  1  0.50000000  0.50000000  0.55161600  1
  B  B19  1  0.50000000  0.50000000  0.80397400  1
  B  B20  1  0.50000000  0.79763500  0.12092300  1
  B  B21  1  0.50000000  0.79551000  0.37428600  1
  B  B22  1  0.50000000  0.79551000  0.62571400  1
  B  B23  1  0.50000000  0.79763500  0.87907700  1
  B  B24  1  0.79763500  0.50000000  0.12092300  1
  B  B25  1  0.79551000  0.50000000  0.37428600  1
  B  B26  1  0.79551000  0.50000000  0.62571400  1
  B  B27  1  0.79763500  0.50000000  0.87907700  1
