# generated using pymatgen
data_CsTm(MoO4)2
_symmetry_space_group_name_H-M   'P 1'
_cell_length_a   5.04484400
_cell_length_b   8.13428600
_cell_length_c   9.76014125
_cell_angle_alpha   87.98581442
_cell_angle_beta   90.00000000
_cell_angle_gamma   90.00000000
_symmetry_Int_Tables_number   1
_chemical_formula_structural   CsTm(MoO4)2
_chemical_formula_sum   'Cs2 Tm2 Mo4 O16'
_cell_volume   400.27168807
_cell_formula_units_Z   2
loop_
 _symmetry_equiv_pos_site_id
 _symmetry_equiv_pos_as_xyz
  1  'x, y, z'
loop_
 _atom_site_type_symbol
 _atom_site_label
 _atom_site_symmetry_multiplicity
 _atom_site_fract_x
 _atom_site_fract_y
 _atom_site_fract_z
 _atom_site_occupancy
  Cs  Cs0  1  0.46636100  0.75000000  0.50000000  1
  Cs  Cs1  1  0.53363900  0.25000000  0.50000000  1
  Tm  Tm2  1  0.50117600  0.75000000  0.00000000  1
  Tm  Tm3  1  0.49882400  0.25000000  0.00000000  1
  Mo  Mo4  1  0.97662100  0.49140200  0.19019400  1
  Mo  Mo5  1  0.02337900  0.50859800  0.80980600  1
  Mo  Mo6  1  0.97662100  0.00859800  0.80980600  1
  Mo  Mo7  1  0.02337900  0.99140200  0.19019400  1
  O  O8  1  0.89211000  0.98299500  0.35637700  1
  O  O9  1  0.10789000  0.01700500  0.64362300  1
  O  O10  1  0.89211000  0.51700500  0.64362300  1
  O  O11  1  0.10789000  0.48299500  0.35637700  1
  O  O12  1  0.75745300  0.31650200  0.17902900  1
  O  O13  1  0.24254700  0.68349800  0.82097100  1
  O  O14  1  0.75745300  0.18349800  0.82097100  1
  O  O15  1  0.24254700  0.81650200  0.17902900  1
  O  O16  1  0.74427900  0.99721200  0.06499500  1
  O  O17  1  0.25572100  0.00278800  0.93500500  1
  O  O18  1  0.74427900  0.50278800  0.93500500  1
  O  O19  1  0.25572100  0.49721200  0.06499500  1
  O  O20  1  0.75776700  0.66775500  0.17960100  1
  O  O21  1  0.24223300  0.33224500  0.82039900  1
  O  O22  1  0.75776700  0.83224500  0.82039900  1
  O  O23  1  0.24223300  0.16775500  0.17960100  1
