# generated using pymatgen
data_Tb3Sn7
_symmetry_space_group_name_H-M   'P 1'
_cell_length_a   13.25670574
_cell_length_b   13.25670574
_cell_length_c   4.49937700
_cell_angle_alpha   90.00000000
_cell_angle_beta   90.00000000
_cell_angle_gamma   160.46044758
_symmetry_Int_Tables_number   1
_chemical_formula_structural   Tb3Sn7
_chemical_formula_sum   'Tb3 Sn7'
_cell_volume   264.46278133
_cell_formula_units_Z   1
loop_
 _symmetry_equiv_pos_site_id
 _symmetry_equiv_pos_as_xyz
  1  'x, y, z'
loop_
 _atom_site_type_symbol
 _atom_site_label
 _atom_site_symmetry_multiplicity
 _atom_site_fract_x
 _atom_site_fract_y
 _atom_site_fract_z
 _atom_site_occupancy
  Tb  Tb0  1  0.00000000  0.00000000  0.50000000  1
  Tb  Tb1  1  0.31133100  0.68866900  0.00000000  1
  Tb  Tb2  1  0.68866900  0.31133100  0.00000000  1
  Sn  Sn3  1  0.50000000  0.50000000  0.00000000  1
  Sn  Sn4  1  0.40381700  0.59618300  0.50000000  1
  Sn  Sn5  1  0.59618300  0.40381700  0.50000000  1
  Sn  Sn6  1  0.09588100  0.90411900  0.00000000  1
  Sn  Sn7  1  0.90411900  0.09588100  0.00000000  1
  Sn  Sn8  1  0.21137400  0.78862600  0.50000000  1
  Sn  Sn9  1  0.78862600  0.21137400  0.50000000  1
