# generated using pymatgen
data_Er3ReB7
_symmetry_space_group_name_H-M   'P 1'
_cell_length_a   8.03335044
_cell_length_b   8.03335044
_cell_length_c   9.28720800
_cell_angle_alpha   90.00000000
_cell_angle_beta   90.00000000
_cell_angle_gamma   154.73910561
_symmetry_Int_Tables_number   1
_chemical_formula_structural   Er3ReB7
_chemical_formula_sum   'Er6 Re2 B14'
_cell_volume   255.76591741
_cell_formula_units_Z   2
loop_
 _symmetry_equiv_pos_site_id
 _symmetry_equiv_pos_as_xyz
  1  'x, y, z'
loop_
 _atom_site_type_symbol
 _atom_site_label
 _atom_site_symmetry_multiplicity
 _atom_site_fract_x
 _atom_site_fract_y
 _atom_site_fract_z
 _atom_site_occupancy
  Er  Er0  1  0.89454600  0.10545400  0.44048400  1
  Er  Er1  1  0.10545400  0.89454600  0.55951600  1
  Er  Er2  1  0.89454600  0.10545400  0.05951600  1
  Er  Er3  1  0.10545400  0.89454600  0.94048400  1
  Er  Er4  1  0.24226100  0.75773900  0.25000000  1
  Er  Er5  1  0.75773900  0.24226100  0.75000000  1
  Re  Re6  1  0.05279100  0.94720900  0.25000000  1
  Re  Re7  1  0.94720900  0.05279100  0.75000000  1
  B  B8  1  0.72718300  0.27281700  0.46646400  1
  B  B9  1  0.27281700  0.72718300  0.53353600  1
  B  B10  1  0.72718300  0.27281700  0.03353600  1
  B  B11  1  0.27281700  0.72718300  0.96646400  1
  B  B12  1  0.63223200  0.36776800  0.15010500  1
  B  B13  1  0.36776800  0.63223200  0.84989500  1
  B  B14  1  0.63223200  0.36776800  0.34989500  1
  B  B15  1  0.36776800  0.63223200  0.65010500  1
  B  B16  1  0.52017000  0.47983000  0.09502800  1
  B  B17  1  0.47983000  0.52017000  0.90497200  1
  B  B18  1  0.52017000  0.47983000  0.40497200  1
  B  B19  1  0.47983000  0.52017000  0.59502800  1
  B  B20  1  0.45599500  0.54400500  0.25000000  1
  B  B21  1  0.54400500  0.45599500  0.75000000  1
