# generated using pymatgen
data_S4I2O15
_symmetry_space_group_name_H-M   'P 1'
_cell_length_a   5.60498600
_cell_length_b   6.87857060
_cell_length_c   9.28607751
_cell_angle_alpha   96.18282592
_cell_angle_beta   93.44202162
_cell_angle_gamma   108.79611669
_symmetry_Int_Tables_number   1
_chemical_formula_structural   S4I2O15
_chemical_formula_sum   'S4 I2 O15'
_cell_volume   335.24248358
_cell_formula_units_Z   1
loop_
 _symmetry_equiv_pos_site_id
 _symmetry_equiv_pos_as_xyz
  1  'x, y, z'
loop_
 _atom_site_type_symbol
 _atom_site_label
 _atom_site_symmetry_multiplicity
 _atom_site_fract_x
 _atom_site_fract_y
 _atom_site_fract_z
 _atom_site_occupancy
  S  S0  1  0.71638500  0.32640400  0.85911800  1
  S  S1  1  0.55107000  0.78585900  0.23321600  1
  S  S2  1  0.36672300  0.35064100  0.28619900  1
  S  S3  1  0.12551400  0.83222800  0.64499100  1
  I  I4  1  0.05276400  0.35360900  0.56555000  1
  I  I5  1  0.84779200  0.80983600  0.95283400  1
  O  O6  1  0.88762200  0.81958000  0.72208000  1
  O  O7  1  0.02080600  0.62230500  0.52397300  1
  O  O8  1  0.93054000  0.55140100  0.93163300  1
  O  O9  1  0.37132200  0.42137100  0.45562900  1
  O  O10  1  0.71881800  0.33142300  0.69530700  1
  O  O11  1  0.13704100  0.18805000  0.23219800  1
  O  O12  1  0.33552400  0.54753500  0.21202100  1
  O  O13  1  0.78925600  0.75265300  0.17143400  1
  O  O14  1  0.33205900  0.82093700  0.73887500  1
  O  O15  1  0.61343200  0.33922700  0.26847700  1
  O  O16  1  0.16685700  0.99467900  0.55247800  1
  O  O17  1  0.47167900  0.31947200  0.90071100  1
  O  O18  1  0.60894900  0.85495900  0.38568400  1
  O  O19  1  0.83996100  0.18786900  0.91001100  1
  O  O20  1  0.43350000  0.88515700  0.13690200  1
