# generated using pymatgen
data_Nd2ZrS5
_symmetry_space_group_name_H-M   'P 1'
_cell_length_a   7.41700800
_cell_length_b   7.98859300
_cell_length_c   11.78954300
_cell_angle_alpha   90.00000000
_cell_angle_beta   90.00000000
_cell_angle_gamma   90.00000000
_symmetry_Int_Tables_number   1
_chemical_formula_structural   Nd2ZrS5
_chemical_formula_sum   'Nd8 Zr4 S20'
_cell_volume   698.54761414
_cell_formula_units_Z   4
loop_
 _symmetry_equiv_pos_site_id
 _symmetry_equiv_pos_as_xyz
  1  'x, y, z'
loop_
 _atom_site_type_symbol
 _atom_site_label
 _atom_site_symmetry_multiplicity
 _atom_site_fract_x
 _atom_site_fract_y
 _atom_site_fract_z
 _atom_site_occupancy
  Nd  Nd0  1  0.52676900  0.49832000  0.32254100  1
  Nd  Nd1  1  0.97323100  0.00168000  0.82254100  1
  Nd  Nd2  1  0.47323100  0.99832000  0.67745900  1
  Nd  Nd3  1  0.02676900  0.50168000  0.17745900  1
  Nd  Nd4  1  0.47323100  0.50168000  0.67745900  1
  Nd  Nd5  1  0.02676900  0.99832000  0.17745900  1
  Nd  Nd6  1  0.52676900  0.00168000  0.32254100  1
  Nd  Nd7  1  0.97323100  0.49832000  0.82254100  1
  Zr  Zr8  1  0.07685500  0.75000000  0.49288700  1
  Zr  Zr9  1  0.42314500  0.75000000  0.99288700  1
  Zr  Zr10  1  0.92314500  0.25000000  0.50711300  1
  Zr  Zr11  1  0.57685500  0.25000000  0.00711300  1
  S  S12  1  0.84030600  0.96432900  0.58971100  1
  S  S13  1  0.65969400  0.53567100  0.08971100  1
  S  S14  1  0.15969400  0.46432900  0.41028900  1
  S  S15  1  0.34030600  0.03567100  0.91028900  1
  S  S16  1  0.15969400  0.03567100  0.41028900  1
  S  S17  1  0.34030600  0.46432900  0.91028900  1
  S  S18  1  0.84030600  0.53567100  0.58971100  1
  S  S19  1  0.65969400  0.96432900  0.08971100  1
  S  S20  1  0.83585900  0.75000000  0.31884200  1
  S  S21  1  0.66414100  0.75000000  0.81884200  1
  S  S22  1  0.16414100  0.25000000  0.68115800  1
  S  S23  1  0.33585900  0.25000000  0.18115800  1
  S  S24  1  0.44356400  0.75000000  0.49575300  1
  S  S25  1  0.05643600  0.75000000  0.99575300  1
  S  S26  1  0.55643600  0.25000000  0.50424700  1
  S  S27  1  0.94356400  0.25000000  0.00424700  1
  S  S28  1  0.18568600  0.75000000  0.70584400  1
  S  S29  1  0.31431400  0.75000000  0.20584400  1
  S  S30  1  0.81431400  0.25000000  0.29415600  1
  S  S31  1  0.68568600  0.25000000  0.79415600  1
