# generated using pymatgen
data_TaNiB
_symmetry_space_group_name_H-M   'P 1'
_cell_length_a   6.84661926
_cell_length_b   6.84661926
_cell_length_c   3.05598300
_cell_angle_alpha   90.00000000
_cell_angle_beta   90.00000000
_cell_angle_gamma   152.14618405
_symmetry_Int_Tables_number   1
_chemical_formula_structural   TaNiB
_chemical_formula_sum   'Ta2 Ni2 B2'
_cell_volume   66.93021130
_cell_formula_units_Z   2
loop_
 _symmetry_equiv_pos_site_id
 _symmetry_equiv_pos_as_xyz
  1  'x, y, z'
loop_
 _atom_site_type_symbol
 _atom_site_label
 _atom_site_symmetry_multiplicity
 _atom_site_fract_x
 _atom_site_fract_y
 _atom_site_fract_z
 _atom_site_occupancy
  Ta  Ta0  1  0.90146100  0.09853900  0.75000000  1
  Ta  Ta1  1  0.09853900  0.90146100  0.25000000  1
  Ni  Ni2  1  0.70391100  0.29608900  0.75000000  1
  Ni  Ni3  1  0.29608900  0.70391100  0.25000000  1
  B  B4  1  0.53508600  0.46491400  0.75000000  1
  B  B5  1  0.46491400  0.53508600  0.25000000  1
