# generated using pymatgen
data_KDy2F7
_symmetry_space_group_name_H-M   'P 1'
_cell_length_a   8.28673432
_cell_length_b   8.28673432
_cell_length_c   12.06128985
_cell_angle_alpha   59.73020919
_cell_angle_beta   59.73020919
_cell_angle_gamma   58.40471473
_symmetry_Int_Tables_number   1
_chemical_formula_structural   KDy2F7
_chemical_formula_sum   'K4 Dy8 F28'
_cell_volume   575.96130879
_cell_formula_units_Z   4
loop_
 _symmetry_equiv_pos_site_id
 _symmetry_equiv_pos_as_xyz
  1  'x, y, z'
loop_
 _atom_site_type_symbol
 _atom_site_label
 _atom_site_symmetry_multiplicity
 _atom_site_fract_x
 _atom_site_fract_y
 _atom_site_fract_z
 _atom_site_occupancy
  K  K0  1  0.85639100  0.85639100  0.63274700  1
  K  K1  1  0.34928100  0.34928100  0.95805500  1
  K  K2  1  0.88153300  0.88153300  0.26487600  1
  K  K3  1  0.37950300  0.37950300  0.59390600  1
  Dy  Dy4  1  0.85925400  0.37835500  0.61146900  1
  Dy  Dy5  1  0.37835500  0.85925400  0.61146900  1
  Dy  Dy6  1  0.87640000  0.87640000  0.93331300  1
  Dy  Dy7  1  0.35866900  0.35866900  0.29025900  1
  Dy  Dy8  1  0.87828700  0.35281200  0.29385900  1
  Dy  Dy9  1  0.35281200  0.87828700  0.29385900  1
  Dy  Dy10  1  0.88109900  0.35579000  0.93182900  1
  Dy  Dy11  1  0.35579000  0.88109900  0.93182900  1
  F  F12  1  0.76181900  0.23915800  0.84854000  1
  F  F13  1  0.23915800  0.76181900  0.84854000  1
  F  F14  1  0.78521300  0.24908600  0.52784600  1
  F  F15  1  0.24908600  0.78521300  0.52784600  1
  F  F16  1  0.62400700  0.62400700  0.88147900  1
  F  F17  1  0.01309800  0.01309800  0.36116300  1
  F  F18  1  0.72376400  0.72376400  0.53605100  1
  F  F19  1  0.94528100  0.61329300  0.11156100  1
  F  F20  1  0.61329300  0.94528100  0.11156100  1
  F  F21  1  0.21997900  0.21997900  0.86248100  1
  F  F22  1  0.28578300  0.62112200  0.11276500  1
  F  F23  1  0.62112200  0.28578300  0.11276500  1
  F  F24  1  0.00174200  0.47024500  0.37514300  1
  F  F25  1  0.47024500  0.00174200  0.37514300  1
  F  F26  1  0.93696900  0.29517000  0.11310800  1
  F  F27  1  0.29517000  0.93696900  0.11310800  1
  F  F28  1  0.61517000  0.61517000  0.34906900  1
  F  F29  1  0.01424000  0.01424000  0.70008200  1
  F  F30  1  0.96337800  0.61886600  0.87321000  1
  F  F31  1  0.61886600  0.96337800  0.87321000  1
  F  F32  1  0.27805700  0.61423400  0.35056100  1
  F  F33  1  0.61423400  0.27805700  0.35056100  1
  F  F34  1  0.23036300  0.23036300  0.22992100  1
  F  F35  1  0.51451900  0.51451900  0.68301000  1
  F  F36  1  0.22482200  0.22482200  0.52516200  1
  F  F37  1  0.98124900  0.45774100  0.69663800  1
  F  F38  1  0.45774100  0.98124900  0.69663800  1
  F  F39  1  0.00356100  0.00356100  0.99256700  1
