# generated using pymatgen
data_NaAlSe2
_symmetry_space_group_name_H-M   'P 1'
_cell_length_a   7.65442031
_cell_length_b   7.65442031
_cell_length_c   14.30893162
_cell_angle_alpha   82.26648039
_cell_angle_beta   82.26648039
_cell_angle_gamma   90.00570577
_symmetry_Int_Tables_number   1
_chemical_formula_structural   NaAlSe2
_chemical_formula_sum   'Na8 Al8 Se16'
_cell_volume   823.03985873
_cell_formula_units_Z   8
loop_
 _symmetry_equiv_pos_site_id
 _symmetry_equiv_pos_as_xyz
  1  'x, y, z'
loop_
 _atom_site_type_symbol
 _atom_site_label
 _atom_site_symmetry_multiplicity
 _atom_site_fract_x
 _atom_site_fract_y
 _atom_site_fract_z
 _atom_site_occupancy
  Na  Na0  1  0.22141700  0.84646800  0.11924700  1
  Na  Na1  1  0.15353200  0.77858300  0.38075300  1
  Na  Na2  1  0.77858300  0.15353200  0.88075300  1
  Na  Na3  1  0.84646800  0.22141700  0.61924700  1
  Na  Na4  1  0.65759800  0.78080700  0.37273600  1
  Na  Na5  1  0.21919300  0.34240200  0.12726400  1
  Na  Na6  1  0.34240200  0.21919300  0.62726400  1
  Na  Na7  1  0.78080700  0.65759800  0.87273600  1
  Al  Al8  1  0.71234100  0.09049600  0.15181800  1
  Al  Al9  1  0.90950400  0.28765900  0.34818200  1
  Al  Al10  1  0.28765900  0.90950400  0.84818200  1
  Al  Al11  1  0.09049600  0.71234100  0.65181800  1
  Al  Al12  1  0.41634400  0.28772300  0.34833900  1
  Al  Al13  1  0.71227700  0.58365600  0.15166100  1
  Al  Al14  1  0.58365600  0.71227700  0.65166100  1
  Al  Al15  1  0.28772300  0.41634400  0.84833900  1
  Se  Se16  1  0.94602000  0.05398000  0.25000000  1
  Se  Se17  1  0.05398000  0.94602000  0.75000000  1
  Se  Se18  1  0.42967100  0.57032900  0.25000000  1
  Se  Se19  1  0.57032900  0.42967100  0.75000000  1
  Se  Se20  1  0.73699800  0.86261800  0.05011900  1
  Se  Se21  1  0.13738200  0.26300200  0.44988100  1
  Se  Se22  1  0.26300200  0.13738200  0.94988100  1
  Se  Se23  1  0.86261800  0.73699800  0.55011900  1
  Se  Se24  1  0.42960300  0.05415000  0.25013900  1
  Se  Se25  1  0.94585000  0.57039700  0.24986100  1
  Se  Se26  1  0.57039700  0.94585000  0.74986100  1
  Se  Se27  1  0.05415000  0.42960300  0.75013900  1
  Se  Se28  1  0.63636100  0.26070400  0.45363000  1
  Se  Se29  1  0.73929600  0.36363900  0.04637000  1
  Se  Se30  1  0.36363900  0.73929600  0.54637000  1
  Se  Se31  1  0.26070400  0.63636100  0.95363000  1
