# generated using pymatgen
data_Lu4MgRh
_symmetry_space_group_name_H-M   'P 1'
_cell_length_a   9.51815084
_cell_length_b   9.51815084
_cell_length_c   9.51815084
_cell_angle_alpha   60.00000000
_cell_angle_beta   60.00000000
_cell_angle_gamma   60.00000000
_symmetry_Int_Tables_number   1
_chemical_formula_structural   Lu4MgRh
_chemical_formula_sum   'Lu16 Mg4 Rh4'
_cell_volume   609.73728225
_cell_formula_units_Z   4
loop_
 _symmetry_equiv_pos_site_id
 _symmetry_equiv_pos_as_xyz
  1  'x, y, z'
loop_
 _atom_site_type_symbol
 _atom_site_label
 _atom_site_symmetry_multiplicity
 _atom_site_fract_x
 _atom_site_fract_y
 _atom_site_fract_z
 _atom_site_occupancy
  Lu  Lu0  1  0.34723400  0.34723400  0.34723400  1
  Lu  Lu1  1  0.34723400  0.34723400  0.95829900  1
  Lu  Lu2  1  0.34723400  0.95829900  0.34723400  1
  Lu  Lu3  1  0.95829900  0.34723400  0.34723400  1
  Lu  Lu4  1  0.81298900  0.18701100  0.18701100  1
  Lu  Lu5  1  0.18701100  0.81298900  0.81298900  1
  Lu  Lu6  1  0.18701100  0.81298900  0.18701100  1
  Lu  Lu7  1  0.81298900  0.18701100  0.81298900  1
  Lu  Lu8  1  0.18701100  0.18701100  0.81298900  1
  Lu  Lu9  1  0.81298900  0.81298900  0.18701100  1
  Lu  Lu10  1  0.93623600  0.56376400  0.56376400  1
  Lu  Lu11  1  0.56376400  0.93623600  0.93623600  1
  Lu  Lu12  1  0.56376400  0.93623600  0.56376400  1
  Lu  Lu13  1  0.93623600  0.56376400  0.93623600  1
  Lu  Lu14  1  0.56376400  0.56376400  0.93623600  1
  Lu  Lu15  1  0.93623600  0.93623600  0.56376400  1
  Mg  Mg16  1  0.57981800  0.57981800  0.57981800  1
  Mg  Mg17  1  0.57981800  0.57981800  0.26054500  1
  Mg  Mg18  1  0.57981800  0.26054500  0.57981800  1
  Mg  Mg19  1  0.26054500  0.57981800  0.57981800  1
  Rh  Rh20  1  0.14193100  0.14193100  0.14193100  1
  Rh  Rh21  1  0.14193100  0.14193100  0.57420600  1
  Rh  Rh22  1  0.14193100  0.57420600  0.14193100  1
  Rh  Rh23  1  0.57420600  0.14193100  0.14193100  1
