# generated using pymatgen
data_Y3Ge4
_symmetry_space_group_name_H-M   'P 1'
_cell_length_a   5.73906828
_cell_length_b   5.73906828
_cell_length_c   14.34506400
_cell_angle_alpha   90.00000000
_cell_angle_beta   90.00000000
_cell_angle_gamma   138.32391194
_symmetry_Int_Tables_number   1
_chemical_formula_structural   Y3Ge4
_chemical_formula_sum   'Y6 Ge8'
_cell_volume   314.16211851
_cell_formula_units_Z   2
loop_
 _symmetry_equiv_pos_site_id
 _symmetry_equiv_pos_as_xyz
  1  'x, y, z'
loop_
 _atom_site_type_symbol
 _atom_site_label
 _atom_site_symmetry_multiplicity
 _atom_site_fract_x
 _atom_site_fract_y
 _atom_site_fract_z
 _atom_site_occupancy
  Y  Y0  1  0.04506600  0.95493400  0.25000000  1
  Y  Y1  1  0.95493400  0.04506600  0.75000000  1
  Y  Y2  1  0.67048200  0.32951800  0.59679800  1
  Y  Y3  1  0.32951800  0.67048200  0.40320200  1
  Y  Y4  1  0.32951800  0.67048200  0.09679800  1
  Y  Y5  1  0.67048200  0.32951800  0.90320200  1
  Ge  Ge6  1  0.77304900  0.22695100  0.25000000  1
  Ge  Ge7  1  0.22695100  0.77304900  0.75000000  1
  Ge  Ge8  1  0.00000000  0.00000000  0.50000000  1
  Ge  Ge9  1  0.00000000  0.00000000  0.00000000  1
  Ge  Ge10  1  0.61898200  0.38101800  0.39147800  1
  Ge  Ge11  1  0.38101800  0.61898200  0.60852200  1
  Ge  Ge12  1  0.61898200  0.38101800  0.10852200  1
  Ge  Ge13  1  0.38101800  0.61898200  0.89147800  1
