# generated using pymatgen
data_GdMnGe2O7
_symmetry_space_group_name_H-M   'P 1'
_cell_length_a   4.81337700
_cell_length_b   7.91085731
_cell_length_c   7.91085731
_cell_angle_alpha   119.46511890
_cell_angle_beta   90.00000000
_cell_angle_gamma   90.00000000
_symmetry_Int_Tables_number   1
_chemical_formula_structural   GdMnGe2O7
_chemical_formula_sum   'Gd2 Mn2 Ge4 O14'
_cell_volume   262.26675139
_cell_formula_units_Z   2
loop_
 _symmetry_equiv_pos_site_id
 _symmetry_equiv_pos_as_xyz
  1  'x, y, z'
loop_
 _atom_site_type_symbol
 _atom_site_label
 _atom_site_symmetry_multiplicity
 _atom_site_fract_x
 _atom_site_fract_y
 _atom_site_fract_z
 _atom_site_occupancy
  Gd  Gd0  1  0.00000000  0.00000000  0.00000000  1
  Gd  Gd1  1  0.00000000  0.50000000  0.50000000  1
  Mn  Mn2  1  0.00000000  0.74981700  0.25018300  1
  Mn  Mn3  1  0.00000000  0.25018300  0.74981700  1
  Ge  Ge4  1  0.48010300  0.11377700  0.38670400  1
  Ge  Ge5  1  0.48010300  0.88622300  0.61329600  1
  Ge  Ge6  1  0.51989700  0.61329600  0.88622300  1
  Ge  Ge7  1  0.51989700  0.38670400  0.11377700  1
  O  O8  1  0.68545600  0.00000000  0.50000000  1
  O  O9  1  0.31454400  0.50000000  0.00000000  1
  O  O10  1  0.24298400  0.27882700  0.56786800  1
  O  O11  1  0.24298400  0.72117300  0.43213200  1
  O  O12  1  0.75701600  0.43213200  0.72117300  1
  O  O13  1  0.75701600  0.56786800  0.27882700  1
  O  O14  1  0.73960700  0.79651100  0.70364600  1
  O  O15  1  0.73960700  0.20348900  0.29635400  1
  O  O16  1  0.26039300  0.29635400  0.20348900  1
  O  O17  1  0.26039300  0.70364600  0.79651100  1
  O  O18  1  0.24156400  0.06682800  0.77706000  1
  O  O19  1  0.24156400  0.93317200  0.22294000  1
  O  O20  1  0.75843600  0.22294000  0.93317200  1
  O  O21  1  0.75843600  0.77706000  0.06682800  1
