# generated using pymatgen
data_Er3Ga8Ag3
_symmetry_space_group_name_H-M   'P 1'
_cell_length_a   4.38193300
_cell_length_b   8.28215359
_cell_length_c   8.28215359
_cell_angle_alpha   70.36109509
_cell_angle_beta   74.66033500
_cell_angle_gamma   74.66033500
_symmetry_Int_Tables_number   1
_chemical_formula_structural   Er3Ga8Ag3
_chemical_formula_sum   'Er3 Ga8 Ag3'
_cell_volume   267.85223006
_cell_formula_units_Z   1
loop_
 _symmetry_equiv_pos_site_id
 _symmetry_equiv_pos_as_xyz
  1  'x, y, z'
loop_
 _atom_site_type_symbol
 _atom_site_label
 _atom_site_symmetry_multiplicity
 _atom_site_fract_x
 _atom_site_fract_y
 _atom_site_fract_z
 _atom_site_occupancy
  Er  Er0  1  0.50000000  0.50000000  0.50000000  1
  Er  Er1  1  0.20466100  0.79533900  0.79533900  1
  Er  Er2  1  0.79533900  0.20466100  0.20466100  1
  Ga  Ga3  1  0.35819200  0.36105300  0.92256200  1
  Ga  Ga4  1  0.64180800  0.63894700  0.07743800  1
  Ga  Ga5  1  0.35819200  0.92256200  0.36105300  1
  Ga  Ga6  1  0.64180800  0.07743800  0.63894700  1
  Ga  Ga7  1  0.15733800  0.47363100  0.21169400  1
  Ga  Ga8  1  0.84266200  0.52636900  0.78830600  1
  Ga  Ga9  1  0.15733800  0.21169400  0.47363100  1
  Ga  Ga10  1  0.84266200  0.78830600  0.52636900  1
  Ag  Ag11  1  0.50000000  0.00000000  0.00000000  1
  Ag  Ag12  1  0.00000000  0.81274100  0.18725900  1
  Ag  Ag13  1  0.00000000  0.18725900  0.81274100  1
