# generated using pymatgen
data_Na4Ca2SiAs4
_symmetry_space_group_name_H-M   'P 1'
_cell_length_a   9.45033233
_cell_length_b   9.45033233
_cell_length_c   7.16576621
_cell_angle_alpha   89.11875452
_cell_angle_beta   89.11875452
_cell_angle_gamma   119.50973444
_symmetry_Int_Tables_number   1
_chemical_formula_structural   Na4Ca2SiAs4
_chemical_formula_sum   'Na8 Ca4 Si2 As8'
_cell_volume   556.68468188
_cell_formula_units_Z   2
loop_
 _symmetry_equiv_pos_site_id
 _symmetry_equiv_pos_as_xyz
  1  'x, y, z'
loop_
 _atom_site_type_symbol
 _atom_site_label
 _atom_site_symmetry_multiplicity
 _atom_site_fract_x
 _atom_site_fract_y
 _atom_site_fract_z
 _atom_site_occupancy
  Na  Na0  1  0.47539700  0.94747400  0.38562000  1
  Na  Na1  1  0.94747400  0.47539700  0.88562000  1
  Na  Na2  1  0.85928100  0.71344600  0.18461600  1
  Na  Na3  1  0.29176500  0.13915700  0.20714000  1
  Na  Na4  1  0.84875900  0.14158200  0.19714500  1
  Na  Na5  1  0.13915700  0.29176500  0.70714000  1
  Na  Na6  1  0.71344600  0.85928100  0.68461600  1
  Na  Na7  1  0.14158200  0.84875900  0.69714500  1
  Ca  Ca8  1  0.04898700  0.52594400  0.38390200  1
  Ca  Ca9  1  0.47992600  0.52745800  0.38234200  1
  Ca  Ca10  1  0.52594400  0.04898700  0.88390200  1
  Ca  Ca11  1  0.52745800  0.47992600  0.88234200  1
  Si  Si12  1  0.66344900  0.32998600  0.49913000  1
  Si  Si13  1  0.32998600  0.66344900  0.99913000  1
  As  As14  1  0.19978400  0.38827100  0.12076300  1
  As  As15  1  0.61038800  0.80249800  0.09266200  1
  As  As16  1  0.19826000  0.80847400  0.10421000  1
  As  As17  1  0.80249800  0.61038800  0.59266200  1
  As  As18  1  0.38827100  0.19978400  0.62076300  1
  As  As19  1  0.80847400  0.19826000  0.60421000  1
  As  As20  1  0.66294600  0.33661600  0.16244900  1
  As  As21  1  0.33661600  0.66294600  0.66244900  1
