# generated using pymatgen
data_ScGeRh
_symmetry_space_group_name_H-M   'P 1'
_cell_length_a   6.73548018
_cell_length_b   6.73548018
_cell_length_c   3.83341200
_cell_angle_alpha   90.00000000
_cell_angle_beta   90.00000000
_cell_angle_gamma   120.00000181
_symmetry_Int_Tables_number   1
_chemical_formula_structural   ScGeRh
_chemical_formula_sum   'Sc3 Ge3 Rh3'
_cell_volume   150.60980541
_cell_formula_units_Z   3
loop_
 _symmetry_equiv_pos_site_id
 _symmetry_equiv_pos_as_xyz
  1  'x, y, z'
loop_
 _atom_site_type_symbol
 _atom_site_label
 _atom_site_symmetry_multiplicity
 _atom_site_fract_x
 _atom_site_fract_y
 _atom_site_fract_z
 _atom_site_occupancy
  Sc  Sc0  1  0.41765500  0.41765500  0.50000000  1
  Sc  Sc1  1  0.58234500  0.00000000  0.50000000  1
  Sc  Sc2  1  0.00000000  0.58234500  0.50000000  1
  Ge  Ge3  1  0.66666700  0.33333300  0.00000000  1
  Ge  Ge4  1  0.33333300  0.66666700  0.00000000  1
  Ge  Ge5  1  0.00000000  0.00000000  0.50000000  1
  Rh  Rh6  1  0.75443200  0.75443200  0.00000000  1
  Rh  Rh7  1  0.24556800  0.00000000  0.00000000  1
  Rh  Rh8  1  0.00000000  0.24556800  0.00000000  1
