# generated using pymatgen
data_Sr2Ni(SeO3)3
_symmetry_space_group_name_H-M   'P 1'
_cell_length_a   7.44408480
_cell_length_b   10.35075576
_cell_length_c   12.98896387
_cell_angle_alpha   82.00291873
_cell_angle_beta   97.24416022
_cell_angle_gamma   107.36544650
_symmetry_Int_Tables_number   1
_chemical_formula_structural   Sr2Ni(SeO3)3
_chemical_formula_sum   'Sr8 Ni4 Se12 O36'
_cell_volume   942.12331681
_cell_formula_units_Z   4
loop_
 _symmetry_equiv_pos_site_id
 _symmetry_equiv_pos_as_xyz
  1  'x, y, z'
loop_
 _atom_site_type_symbol
 _atom_site_label
 _atom_site_symmetry_multiplicity
 _atom_site_fract_x
 _atom_site_fract_y
 _atom_site_fract_z
 _atom_site_occupancy
  Sr  Sr0  1  0.74778000  0.48803100  0.40051900  1
  Sr  Sr1  1  0.74765200  0.98791700  0.90068200  1
  Sr  Sr2  1  0.25221800  0.51196900  0.59948300  1
  Sr  Sr3  1  0.25235600  0.01208500  0.09931600  1
  Sr  Sr4  1  0.87175100  0.60573300  0.08739300  1
  Sr  Sr5  1  0.87158600  0.10569400  0.58748700  1
  Sr  Sr6  1  0.12825000  0.39427000  0.91260500  1
  Sr  Sr7  1  0.12841400  0.89430600  0.41251400  1
  Ni  Ni8  1  0.59359900  0.79345000  0.45832600  1
  Ni  Ni9  1  0.40635600  0.20653600  0.54170000  1
  Ni  Ni10  1  0.59350100  0.29383800  0.95836500  1
  Ni  Ni11  1  0.40648300  0.70615200  0.04163500  1
  Se  Se12  1  0.59456700  0.62118600  0.83379200  1
  Se  Se13  1  0.59461400  0.12102200  0.33381800  1
  Se  Se14  1  0.40543700  0.37881100  0.16621100  1
  Se  Se15  1  0.40539200  0.87897900  0.66618400  1
  Se  Se16  1  0.85917600  0.18892300  0.10491300  1
  Se  Se17  1  0.85929200  0.68887400  0.60492600  1
  Se  Se18  1  0.14082800  0.81107600  0.89508600  1
  Se  Se19  1  0.14070700  0.31112700  0.39507100  1
  Se  Se20  1  0.73511800  0.36150700  0.72599900  1
  Se  Se21  1  0.73508700  0.86137600  0.22601400  1
  Se  Se22  1  0.26488400  0.63849500  0.27399900  1
  Se  Se23  1  0.26491800  0.13862700  0.77398600  1
  O  O24  1  0.86383300  0.35235100  0.04867500  1
  O  O25  1  0.86398700  0.85231500  0.54876400  1
  O  O26  1  0.13617100  0.64764900  0.95132400  1
  O  O27  1  0.13600900  0.14768600  0.45123200  1
  O  O28  1  0.00710000  0.15119000  0.02877300  1
  O  O29  1  0.00718600  0.65115100  0.52878000  1
  O  O30  1  0.99290600  0.84880900  0.97122700  1
  O  O31  1  0.99281600  0.34885100  0.47121900  1
  O  O32  1  0.97572800  0.42430400  0.72361800  1
  O  O33  1  0.97566700  0.92425600  0.22354400  1
  O  O34  1  0.02427200  0.57570000  0.27638100  1
  O  O35  1  0.02434100  0.07574700  0.77645500  1
  O  O36  1  0.64090400  0.10294300  0.04620700  1
  O  O37  1  0.64097300  0.60294600  0.54618700  1
  O  O38  1  0.35910000  0.89705700  0.95379100  1
  O  O39  1  0.35902600  0.39705500  0.45381000  1
  O  O40  1  0.56567500  0.72900400  0.91614300  1
  O  O41  1  0.56571500  0.22909200  0.41594700  1
  O  O42  1  0.43432900  0.27099400  0.08385700  1
  O  O43  1  0.43428700  0.77090800  0.58405300  1
  O  O44  1  0.67524000  0.76242500  0.12284600  1
  O  O45  1  0.67525000  0.26260900  0.62281500  1
  O  O46  1  0.32476500  0.23757800  0.87715200  1
  O  O47  1  0.32474400  0.73739100  0.37718100  1
  O  O48  1  0.72650500  0.24758600  0.84000600  1
  O  O49  1  0.72659900  0.74746900  0.34003100  1
  O  O50  1  0.27349900  0.75242000  0.15999100  1
  O  O51  1  0.27340700  0.25253300  0.65996500  1
  O  O52  1  0.33407400  0.49843900  0.07637700  1
  O  O53  1  0.33453500  0.99869600  0.57623000  1
  O  O54  1  0.66591900  0.50155600  0.92362800  1
  O  O55  1  0.66546100  0.00129800  0.42377000  1
  O  O56  1  0.63049400  0.46106200  0.21109200  1
  O  O57  1  0.63055400  0.96097400  0.71117400  1
  O  O58  1  0.36950900  0.53893900  0.78890700  1
  O  O59  1  0.36945100  0.03903000  0.28882600  1
