# generated using pymatgen
data_RbY(MoO4)2
_symmetry_space_group_name_H-M   'P 1'
_cell_length_a   5.15690800
_cell_length_b   8.21157600
_cell_length_c   18.97042000
_cell_angle_alpha   90.00000000
_cell_angle_beta   90.00000000
_cell_angle_gamma   90.00000000
_symmetry_Int_Tables_number   1
_chemical_formula_structural   RbY(MoO4)2
_chemical_formula_sum   'Rb4 Y4 Mo8 O32'
_cell_volume   803.32789258
_cell_formula_units_Z   4
loop_
 _symmetry_equiv_pos_site_id
 _symmetry_equiv_pos_as_xyz
  1  'x, y, z'
loop_
 _atom_site_type_symbol
 _atom_site_label
 _atom_site_symmetry_multiplicity
 _atom_site_fract_x
 _atom_site_fract_y
 _atom_site_fract_z
 _atom_site_occupancy
  Rb  Rb0  1  0.00000000  0.75000000  0.76997500  1
  Rb  Rb1  1  0.00000000  0.25000000  0.23002500  1
  Rb  Rb2  1  0.50000000  0.25000000  0.73002500  1
  Rb  Rb3  1  0.50000000  0.75000000  0.26997500  1
  Y  Y4  1  0.00000000  0.75000000  0.00643200  1
  Y  Y5  1  0.00000000  0.25000000  0.99356800  1
  Y  Y6  1  0.50000000  0.25000000  0.49356800  1
  Y  Y7  1  0.50000000  0.75000000  0.50643200  1
  Mo  Mo8  1  0.02340700  0.51541800  0.40113100  1
  Mo  Mo9  1  0.97659300  0.48458200  0.59886900  1
  Mo  Mo10  1  0.47659300  0.01541800  0.09886900  1
  Mo  Mo11  1  0.97659300  0.98458200  0.40113100  1
  Mo  Mo12  1  0.52340700  0.98458200  0.90113100  1
  Mo  Mo13  1  0.02340700  0.01541800  0.59886900  1
  Mo  Mo14  1  0.52340700  0.48458200  0.09886900  1
  Mo  Mo15  1  0.47659300  0.51541800  0.90113100  1
  O  O16  1  0.09681600  0.97501900  0.31479800  1
  O  O17  1  0.90318400  0.02498100  0.68520200  1
  O  O18  1  0.40318400  0.47501900  0.18520200  1
  O  O19  1  0.90318400  0.52498100  0.31479800  1
  O  O20  1  0.59681600  0.52498100  0.81479800  1
  O  O21  1  0.09681600  0.47501900  0.68520200  1
  O  O22  1  0.59681600  0.02498100  0.18520200  1
  O  O23  1  0.40318400  0.97501900  0.81479800  1
  O  O24  1  0.26796600  0.83957600  0.09688300  1
  O  O25  1  0.73203400  0.16042400  0.90311700  1
  O  O26  1  0.23203400  0.33957600  0.40311700  1
  O  O27  1  0.73203400  0.66042400  0.09688300  1
  O  O28  1  0.76796600  0.66042400  0.59688300  1
  O  O29  1  0.26796600  0.33957600  0.90311700  1
  O  O30  1  0.76796600  0.16042400  0.40311700  1
  O  O31  1  0.23203400  0.83957600  0.59688300  1
  O  O32  1  0.24730500  0.50490800  0.03576300  1
  O  O33  1  0.75269500  0.49509200  0.96423700  1
  O  O34  1  0.25269500  0.00490800  0.46423700  1
  O  O35  1  0.75269500  0.99509200  0.03576300  1
  O  O36  1  0.74730500  0.99509200  0.53576300  1
  O  O37  1  0.24730500  0.00490800  0.96423700  1
  O  O38  1  0.74730500  0.49509200  0.46423700  1
  O  O39  1  0.25269500  0.50490800  0.53576300  1
  O  O40  1  0.24032300  0.68867400  0.41133900  1
  O  O41  1  0.75967700  0.31132600  0.58866100  1
  O  O42  1  0.25967700  0.18867400  0.08866100  1
  O  O43  1  0.75967700  0.81132600  0.41133900  1
  O  O44  1  0.74032300  0.81132600  0.91133900  1
  O  O45  1  0.24032300  0.18867400  0.58866100  1
  O  O46  1  0.74032300  0.31132600  0.08866100  1
  O  O47  1  0.25967700  0.68867400  0.91133900  1
