# generated using pymatgen
data_Na3DyBr6
_symmetry_space_group_name_H-M   'P 1'
_cell_length_a   7.73678300
_cell_length_b   7.41475100
_cell_length_c   13.17745086
_cell_angle_alpha   55.94556402
_cell_angle_beta   90.00000000
_cell_angle_gamma   90.00000000
_symmetry_Int_Tables_number   1
_chemical_formula_structural   Na3DyBr6
_chemical_formula_sum   'Na6 Dy2 Br12'
_cell_volume   626.30230016
_cell_formula_units_Z   2
loop_
 _symmetry_equiv_pos_site_id
 _symmetry_equiv_pos_as_xyz
  1  'x, y, z'
loop_
 _atom_site_type_symbol
 _atom_site_label
 _atom_site_symmetry_multiplicity
 _atom_site_fract_x
 _atom_site_fract_y
 _atom_site_fract_z
 _atom_site_occupancy
  Na  Na0  1  0.50000000  0.50000000  0.00000000  1
  Na  Na1  1  0.00000000  0.50000000  0.50000000  1
  Na  Na2  1  0.05956500  0.72912700  0.75699800  1
  Na  Na3  1  0.94043500  0.27087300  0.24300200  1
  Na  Na4  1  0.55956500  0.27087300  0.74300200  1
  Na  Na5  1  0.44043500  0.72912700  0.25699800  1
  Dy  Dy6  1  0.50000000  0.00000000  0.50000000  1
  Dy  Dy7  1  0.00000000  0.00000000  0.00000000  1
  Br  Br8  1  0.80454500  0.75071000  0.57688900  1
  Br  Br9  1  0.19545500  0.24929000  0.42311100  1
  Br  Br10  1  0.30454500  0.24929000  0.92311100  1
  Br  Br11  1  0.69545500  0.75071000  0.07688900  1
  Br  Br12  1  0.43653300  0.89132400  0.73968600  1
  Br  Br13  1  0.56346700  0.10867600  0.26031400  1
  Br  Br14  1  0.93653300  0.10867600  0.76031400  1
  Br  Br15  1  0.06346700  0.89132400  0.23968600  1
  Br  Br16  1  0.31927000  0.62577900  0.56157500  1
  Br  Br17  1  0.68073000  0.37422100  0.43842500  1
  Br  Br18  1  0.81927000  0.37422100  0.93842500  1
  Br  Br19  1  0.18073000  0.62577900  0.06157500  1
