# generated using pymatgen
data_RbAg3Te2
_symmetry_space_group_name_H-M   'P 1'
_cell_length_a   9.19404250
_cell_length_b   9.19404250
_cell_length_c   9.37912908
_cell_angle_alpha   67.93321888
_cell_angle_beta   67.93321888
_cell_angle_gamma   29.33818868
_symmetry_Int_Tables_number   1
_chemical_formula_structural   RbAg3Te2
_chemical_formula_sum   'Rb2 Ag6 Te4'
_cell_volume   357.96555352
_cell_formula_units_Z   2
loop_
 _symmetry_equiv_pos_site_id
 _symmetry_equiv_pos_as_xyz
  1  'x, y, z'
loop_
 _atom_site_type_symbol
 _atom_site_label
 _atom_site_symmetry_multiplicity
 _atom_site_fract_x
 _atom_site_fract_y
 _atom_site_fract_z
 _atom_site_occupancy
  Rb  Rb0  1  0.13558200  0.13558200  0.95048000  1
  Rb  Rb1  1  0.86441800  0.86441800  0.04952000  1
  Ag  Ag2  1  0.93777900  0.93777900  0.40892700  1
  Ag  Ag3  1  0.58715800  0.58715800  0.37396400  1
  Ag  Ag4  1  0.06222100  0.06222100  0.59107300  1
  Ag  Ag5  1  0.30912600  0.30912600  0.45420100  1
  Ag  Ag6  1  0.41284200  0.41284200  0.62603600  1
  Ag  Ag7  1  0.69087400  0.69087400  0.54579900  1
  Te  Te8  1  0.20041000  0.20041000  0.30280400  1
  Te  Te9  1  0.47975500  0.47975500  0.22422500  1
  Te  Te10  1  0.52024500  0.52024500  0.77577500  1
  Te  Te11  1  0.79959000  0.79959000  0.69719600  1
