# generated using pymatgen
data_Dy5BiPd2
_symmetry_space_group_name_H-M   'P 1'
_cell_length_a   8.80290298
_cell_length_b   8.80290298
_cell_length_c   8.80290298
_cell_angle_alpha   127.09660785
_cell_angle_beta   127.09660785
_cell_angle_gamma   78.09312874
_symmetry_Int_Tables_number   1
_chemical_formula_structural   Dy5BiPd2
_chemical_formula_sum   'Dy10 Bi2 Pd4'
_cell_volume   420.47374815
_cell_formula_units_Z   2
loop_
 _symmetry_equiv_pos_site_id
 _symmetry_equiv_pos_as_xyz
  1  'x, y, z'
loop_
 _atom_site_type_symbol
 _atom_site_label
 _atom_site_symmetry_multiplicity
 _atom_site_fract_x
 _atom_site_fract_y
 _atom_site_fract_z
 _atom_site_occupancy
  Dy  Dy0  1  0.00000000  0.00000000  0.00000000  1
  Dy  Dy1  1  0.50000000  0.50000000  0.00000000  1
  Dy  Dy2  1  0.79478800  0.29478800  0.80962000  1
  Dy  Dy3  1  0.20521200  0.70521200  0.19038000  1
  Dy  Dy4  1  0.48516800  0.98516800  0.19038000  1
  Dy  Dy5  1  0.29478800  0.48516800  0.50000000  1
  Dy  Dy6  1  0.01483200  0.20521200  0.50000000  1
  Dy  Dy7  1  0.51483200  0.01483200  0.80962000  1
  Dy  Dy8  1  0.70521200  0.51483200  0.50000000  1
  Dy  Dy9  1  0.98516800  0.79478800  0.50000000  1
  Bi  Bi10  1  0.25000000  0.25000000  0.00000000  1
  Bi  Bi11  1  0.75000000  0.75000000  0.00000000  1
  Pd  Pd12  1  0.13656700  0.63656700  0.77313500  1
  Pd  Pd13  1  0.86343300  0.36343300  0.22686500  1
  Pd  Pd14  1  0.63656700  0.86343300  0.50000000  1
  Pd  Pd15  1  0.36343300  0.13656700  0.50000000  1
