# generated using pymatgen
data_CsLu(MoO4)2
_symmetry_space_group_name_H-M   'P 1'
_cell_length_a   6.00179394
_cell_length_b   6.00179394
_cell_length_c   8.16538600
_cell_angle_alpha   90.00000000
_cell_angle_beta   90.00000000
_cell_angle_gamma   119.99999931
_symmetry_Int_Tables_number   1
_chemical_formula_structural   CsLu(MoO4)2
_chemical_formula_sum   'Cs1 Lu1 Mo2 O8'
_cell_volume   254.72379448
_cell_formula_units_Z   1
loop_
 _symmetry_equiv_pos_site_id
 _symmetry_equiv_pos_as_xyz
  1  'x, y, z'
loop_
 _atom_site_type_symbol
 _atom_site_label
 _atom_site_symmetry_multiplicity
 _atom_site_fract_x
 _atom_site_fract_y
 _atom_site_fract_z
 _atom_site_occupancy
  Cs  Cs0  1  0.00000000  0.00000000  0.00000000  1
  Lu  Lu1  1  0.00000000  0.00000000  0.50000000  1
  Mo  Mo2  1  0.33333300  0.66666700  0.26600100  1
  Mo  Mo3  1  0.66666700  0.33333300  0.73399900  1
  O  O4  1  0.16824900  0.83175100  0.33667800  1
  O  O5  1  0.83175100  0.16824900  0.66332200  1
  O  O6  1  0.16824900  0.33649800  0.33667800  1
  O  O7  1  0.83175100  0.66350200  0.66332200  1
  O  O8  1  0.66350200  0.83175100  0.33667800  1
  O  O9  1  0.33649800  0.16824900  0.66332200  1
  O  O10  1  0.33333300  0.66666700  0.05103200  1
  O  O11  1  0.66666700  0.33333300  0.94896800  1
