# generated using pymatgen
data_DyOs2
_symmetry_space_group_name_H-M   'P 1'
_cell_length_a   5.33347042
_cell_length_b   5.33347042
_cell_length_c   8.82667800
_cell_angle_alpha   90.00000000
_cell_angle_beta   90.00000000
_cell_angle_gamma   120.00000526
_symmetry_Int_Tables_number   1
_chemical_formula_structural   DyOs2
_chemical_formula_sum   'Dy4 Os8'
_cell_volume   217.44412319
_cell_formula_units_Z   4
loop_
 _symmetry_equiv_pos_site_id
 _symmetry_equiv_pos_as_xyz
  1  'x, y, z'
loop_
 _atom_site_type_symbol
 _atom_site_label
 _atom_site_symmetry_multiplicity
 _atom_site_fract_x
 _atom_site_fract_y
 _atom_site_fract_z
 _atom_site_occupancy
  Dy  Dy0  1  0.33333300  0.66666700  0.43473200  1
  Dy  Dy1  1  0.66666700  0.33333300  0.56526800  1
  Dy  Dy2  1  0.66666700  0.33333300  0.93473200  1
  Dy  Dy3  1  0.33333300  0.66666700  0.06526800  1
  Os  Os4  1  0.00000000  0.00000000  0.50000000  1
  Os  Os5  1  0.00000000  0.00000000  0.00000000  1
  Os  Os6  1  0.82744700  0.17255300  0.25000000  1
  Os  Os7  1  0.82744700  0.65489300  0.25000000  1
  Os  Os8  1  0.34510700  0.17255300  0.25000000  1
  Os  Os9  1  0.17255300  0.82744700  0.75000000  1
  Os  Os10  1  0.17255300  0.34510700  0.75000000  1
  Os  Os11  1  0.65489300  0.82744700  0.75000000  1
