# generated using pymatgen
data_Ba3Fe2WO9
_symmetry_space_group_name_H-M   'P 1'
_cell_length_a   5.86010406
_cell_length_b   5.86010406
_cell_length_c   14.38421700
_cell_angle_alpha   90.00000000
_cell_angle_beta   90.00000000
_cell_angle_gamma   120.00000066
_symmetry_Int_Tables_number   1
_chemical_formula_structural   Ba3Fe2WO9
_chemical_formula_sum   'Ba6 Fe4 W2 O18'
_cell_volume   427.78692917
_cell_formula_units_Z   2
loop_
 _symmetry_equiv_pos_site_id
 _symmetry_equiv_pos_as_xyz
  1  'x, y, z'
loop_
 _atom_site_type_symbol
 _atom_site_label
 _atom_site_symmetry_multiplicity
 _atom_site_fract_x
 _atom_site_fract_y
 _atom_site_fract_z
 _atom_site_occupancy
  Ba  Ba0  1  0.00000000  0.00000000  0.74629100  1
  Ba  Ba1  1  0.00000000  0.00000000  0.24629100  1
  Ba  Ba2  1  0.33333300  0.66666700  0.91236900  1
  Ba  Ba3  1  0.66666700  0.33333300  0.10006500  1
  Ba  Ba4  1  0.66666700  0.33333300  0.41236900  1
  Ba  Ba5  1  0.33333300  0.66666700  0.60006500  1
  Fe  Fe6  1  0.00000000  0.00000000  0.00664100  1
  Fe  Fe7  1  0.00000000  0.00000000  0.50664100  1
  Fe  Fe8  1  0.33333300  0.66666700  0.14380300  1
  Fe  Fe9  1  0.66666700  0.33333300  0.64380300  1
  W  W10  1  0.66666700  0.33333300  0.84153600  1
  W  W11  1  0.33333300  0.66666700  0.34153600  1
  O  O12  1  0.51537600  0.48462400  0.75481500  1
  O  O13  1  0.51537600  0.03075300  0.75481500  1
  O  O14  1  0.96924700  0.48462400  0.75481500  1
  O  O15  1  0.48462400  0.51537600  0.25481500  1
  O  O16  1  0.03075300  0.51537600  0.25481500  1
  O  O17  1  0.48462400  0.96924700  0.25481500  1
  O  O18  1  0.82876500  0.17123500  0.91467900  1
  O  O19  1  0.82876500  0.65753000  0.91467900  1
  O  O20  1  0.34247000  0.17123500  0.91467900  1
  O  O21  1  0.16429600  0.83570400  0.08027000  1
  O  O22  1  0.67140800  0.83570400  0.08027000  1
  O  O23  1  0.16429600  0.32859200  0.08027000  1
  O  O24  1  0.17123500  0.82876500  0.41467900  1
  O  O25  1  0.17123500  0.34247000  0.41467900  1
  O  O26  1  0.65753000  0.82876500  0.41467900  1
  O  O27  1  0.83570400  0.16429600  0.58027000  1
  O  O28  1  0.32859200  0.16429600  0.58027000  1
  O  O29  1  0.83570400  0.67140800  0.58027000  1
