# generated using pymatgen
data_YbTlBr3
_symmetry_space_group_name_H-M   'P 1'
_cell_length_a   7.48678050
_cell_length_b   7.48678050
_cell_length_c   10.85052700
_cell_angle_alpha   90.00000000
_cell_angle_beta   90.00000000
_cell_angle_gamma   146.82536346
_symmetry_Int_Tables_number   1
_chemical_formula_structural   YbTlBr3
_chemical_formula_sum   'Yb2 Tl2 Br6'
_cell_volume   332.79850805
_cell_formula_units_Z   2
loop_
 _symmetry_equiv_pos_site_id
 _symmetry_equiv_pos_as_xyz
  1  'x, y, z'
loop_
 _atom_site_type_symbol
 _atom_site_label
 _atom_site_symmetry_multiplicity
 _atom_site_fract_x
 _atom_site_fract_y
 _atom_site_fract_z
 _atom_site_occupancy
  Yb  Yb0  1  0.00000000  0.00000000  0.00000000  1
  Yb  Yb1  1  0.00000000  0.00000000  0.50000000  1
  Tl  Tl2  1  0.25448400  0.74551600  0.25000000  1
  Tl  Tl3  1  0.74551600  0.25448400  0.75000000  1
  Br  Br4  1  0.63110800  0.36889200  0.05120200  1
  Br  Br5  1  0.36889200  0.63110800  0.94879800  1
  Br  Br6  1  0.36889200  0.63110800  0.55120200  1
  Br  Br7  1  0.63110800  0.36889200  0.44879800  1
  Br  Br8  1  0.93035200  0.06964800  0.25000000  1
  Br  Br9  1  0.06964800  0.93035200  0.75000000  1
