# generated using pymatgen
data_K2HfF6
_symmetry_space_group_name_H-M   'P 1'
_cell_length_a   6.71594548
_cell_length_b   6.71594548
_cell_length_c   6.96574223
_cell_angle_alpha   89.94474395
_cell_angle_beta   89.94474395
_cell_angle_gamma   120.67860419
_symmetry_Int_Tables_number   1
_chemical_formula_structural   K2HfF6
_chemical_formula_sum   'K4 Hf2 F12'
_cell_volume   270.20973612
_cell_formula_units_Z   2
loop_
 _symmetry_equiv_pos_site_id
 _symmetry_equiv_pos_as_xyz
  1  'x, y, z'
loop_
 _atom_site_type_symbol
 _atom_site_label
 _atom_site_symmetry_multiplicity
 _atom_site_fract_x
 _atom_site_fract_y
 _atom_site_fract_z
 _atom_site_occupancy
  K  K0  1  0.67372800  0.35875900  0.99745400  1
  K  K1  1  0.64124100  0.32627200  0.50254600  1
  K  K2  1  0.35875900  0.67372800  0.49745400  1
  K  K3  1  0.32627200  0.64124100  0.00254600  1
  Hf  Hf4  1  0.95199700  0.04800300  0.75000000  1
  Hf  Hf5  1  0.04800300  0.95199700  0.25000000  1
  F  F6  1  0.06824200  0.87378700  0.95560200  1
  F  F7  1  0.12621300  0.93175800  0.54439800  1
  F  F8  1  0.93175800  0.12621300  0.04439800  1
  F  F9  1  0.87378700  0.06824200  0.45560200  1
  F  F10  1  0.37982600  0.99731100  0.22818500  1
  F  F11  1  0.00268900  0.62017400  0.27181500  1
  F  F12  1  0.30023000  0.27435800  0.77827200  1
  F  F13  1  0.72564200  0.69977000  0.72172800  1
  F  F14  1  0.69977000  0.72564200  0.22172800  1
  F  F15  1  0.27435800  0.30023000  0.27827200  1
  F  F16  1  0.99731100  0.37982600  0.72818500  1
  F  F17  1  0.62017400  0.00268900  0.77181500  1
