# generated using pymatgen
data_BaMnPClO4F
_symmetry_space_group_name_H-M   'P 1'
_cell_length_a   8.71032100
_cell_length_b   7.34611300
_cell_length_c   9.06037950
_cell_angle_alpha   72.49412290
_cell_angle_beta   90.00000000
_cell_angle_gamma   90.00000000
_symmetry_Int_Tables_number   1
_chemical_formula_structural   BaMnPClO4F
_chemical_formula_sum   'Ba4 Mn4 P4 Cl4 O16 F4'
_cell_volume   552.89620230
_cell_formula_units_Z   4
loop_
 _symmetry_equiv_pos_site_id
 _symmetry_equiv_pos_as_xyz
  1  'x, y, z'
loop_
 _atom_site_type_symbol
 _atom_site_label
 _atom_site_symmetry_multiplicity
 _atom_site_fract_x
 _atom_site_fract_y
 _atom_site_fract_z
 _atom_site_occupancy
  Ba  Ba0  1  0.76830800  0.04197200  0.11541600  1
  Ba  Ba1  1  0.26830800  0.95802800  0.38458400  1
  Ba  Ba2  1  0.23169200  0.95802800  0.88458400  1
  Ba  Ba3  1  0.73169200  0.04197200  0.61541600  1
  Mn  Mn4  1  0.99859200  0.38867700  0.77400200  1
  Mn  Mn5  1  0.49859200  0.61132300  0.72599800  1
  Mn  Mn6  1  0.00140800  0.61132300  0.22599800  1
  Mn  Mn7  1  0.50140800  0.38867700  0.27400200  1
  P  P8  1  0.75145000  0.55274200  0.98790900  1
  P  P9  1  0.25145000  0.44725800  0.51209100  1
  P  P10  1  0.24855000  0.44725800  0.01209100  1
  P  P11  1  0.74855000  0.55274200  0.48790900  1
  Cl  Cl12  1  0.03384300  0.76762300  0.67246300  1
  Cl  Cl13  1  0.53384300  0.23237700  0.82753700  1
  Cl  Cl14  1  0.96615700  0.23237700  0.32753700  1
  Cl  Cl15  1  0.46615700  0.76762300  0.17246300  1
  O  O16  1  0.65151000  0.41117200  0.11204400  1
  O  O17  1  0.15151000  0.58882800  0.38795600  1
  O  O18  1  0.34849000  0.58882800  0.88795600  1
  O  O19  1  0.84849000  0.41117200  0.61204400  1
  O  O20  1  0.85374300  0.41702200  0.92878100  1
  O  O21  1  0.35374300  0.58297800  0.57121900  1
  O  O22  1  0.14625700  0.58297800  0.07121900  1
  O  O23  1  0.64625700  0.41702200  0.42878100  1
  O  O24  1  0.65512400  0.68687100  0.85607000  1
  O  O25  1  0.15512400  0.31312900  0.64393000  1
  O  O26  1  0.34487600  0.31312900  0.14393000  1
  O  O27  1  0.84487600  0.68687100  0.35607000  1
  O  O28  1  0.84604900  0.68383600  0.05931300  1
  O  O29  1  0.34604900  0.31616400  0.44068700  1
  O  O30  1  0.15395100  0.31616400  0.94068700  1
  O  O31  1  0.65395100  0.68383600  0.55931300  1
  F  F32  1  0.93020900  0.09172200  0.84424000  1
  F  F33  1  0.43020900  0.90827800  0.65576000  1
  F  F34  1  0.06979100  0.90827800  0.15576000  1
  F  F35  1  0.56979100  0.09172200  0.34424000  1
