# generated using pymatgen
data_KLiLuF5
_symmetry_space_group_name_H-M   'P 1'
_cell_length_a   6.41638646
_cell_length_b   6.23938148
_cell_length_c   11.72451000
_cell_angle_alpha   90.00000000
_cell_angle_beta   90.00000000
_cell_angle_gamma   114.20840592
_symmetry_Int_Tables_number   1
_chemical_formula_structural   KLiLuF5
_chemical_formula_sum   'K4 Li4 Lu4 F20'
_cell_volume   428.10484983
_cell_formula_units_Z   4
loop_
 _symmetry_equiv_pos_site_id
 _symmetry_equiv_pos_as_xyz
  1  'x, y, z'
loop_
 _atom_site_type_symbol
 _atom_site_label
 _atom_site_symmetry_multiplicity
 _atom_site_fract_x
 _atom_site_fract_y
 _atom_site_fract_z
 _atom_site_occupancy
  K  K0  1  0.94731700  0.96251300  0.34940600  1
  K  K1  1  0.05268300  0.03748700  0.65059400  1
  K  K2  1  0.05268300  0.53748700  0.84940600  1
  K  K3  1  0.94731700  0.46251300  0.15059400  1
  Li  Li4  1  0.55910500  0.96256700  0.74536400  1
  Li  Li5  1  0.44089500  0.03743300  0.25463600  1
  Li  Li6  1  0.44089500  0.53743300  0.24536400  1
  Li  Li7  1  0.55910500  0.46256700  0.75463600  1
  Lu  Lu8  1  0.68145500  0.81999900  0.99792800  1
  Lu  Lu9  1  0.31854500  0.18000100  0.00207200  1
  Lu  Lu10  1  0.31854500  0.68000100  0.49792800  1
  Lu  Lu11  1  0.68145500  0.31999900  0.50207200  1
  F  F12  1  0.72239600  0.77824600  0.80918600  1
  F  F13  1  0.27760400  0.22175400  0.19081400  1
  F  F14  1  0.27760400  0.72175400  0.30918600  1
  F  F15  1  0.72239600  0.27824600  0.69081400  1
  F  F16  1  0.66399300  0.95297900  0.53073400  1
  F  F17  1  0.33600700  0.04702100  0.46926600  1
  F  F18  1  0.33600700  0.54702100  0.03073400  1
  F  F19  1  0.66399300  0.45297900  0.96926600  1
  F  F20  1  0.95331700  0.66950300  0.50688700  1
  F  F21  1  0.04668300  0.33049700  0.49311300  1
  F  F22  1  0.04668300  0.83049700  0.00688700  1
  F  F23  1  0.95331700  0.16950300  0.99311300  1
  F  F24  1  0.46430800  0.96685300  0.89696100  1
  F  F25  1  0.53569200  0.03314700  0.10303900  1
  F  F26  1  0.53569200  0.53314700  0.39696100  1
  F  F27  1  0.46430800  0.46685300  0.60303900  1
  F  F28  1  0.28503800  0.77299500  0.67140400  1
  F  F29  1  0.71496200  0.22700500  0.32859600  1
  F  F30  1  0.71496200  0.72700500  0.17140400  1
  F  F31  1  0.28503800  0.27299500  0.82859600  1
