# generated using pymatgen
data_ErH2ClO2
_symmetry_space_group_name_H-M   'P 1'
_cell_length_a   3.59158600
_cell_length_b   6.22372897
_cell_length_c   6.65099210
_cell_angle_alpha   105.91433034
_cell_angle_beta   90.00000000
_cell_angle_gamma   90.00000000
_symmetry_Int_Tables_number   1
_chemical_formula_structural   ErH2ClO2
_chemical_formula_sum   'Er2 H4 Cl2 O4'
_cell_volume   142.97189977
_cell_formula_units_Z   2
loop_
 _symmetry_equiv_pos_site_id
 _symmetry_equiv_pos_as_xyz
  1  'x, y, z'
loop_
 _atom_site_type_symbol
 _atom_site_label
 _atom_site_symmetry_multiplicity
 _atom_site_fract_x
 _atom_site_fract_y
 _atom_site_fract_z
 _atom_site_occupancy
  Er  Er0  1  0.75000000  0.71662700  0.88972400  1
  Er  Er1  1  0.25000000  0.28337300  0.11027600  1
  H  H2  1  0.25000000  0.87164200  0.22947200  1
  H  H3  1  0.75000000  0.12835800  0.77052800  1
  H  H4  1  0.25000000  0.35007200  0.69902300  1
  H  H5  1  0.75000000  0.64992800  0.30097700  1
  Cl  Cl6  1  0.25000000  0.76867400  0.57644900  1
  Cl  Cl7  1  0.75000000  0.23132600  0.42355100  1
  O  O8  1  0.25000000  0.89376000  0.08939600  1
  O  O9  1  0.75000000  0.10624000  0.91060400  1
  O  O10  1  0.25000000  0.45121600  0.84059800  1
  O  O11  1  0.75000000  0.54878400  0.15940200  1
