# generated using pymatgen
data_Cu2B3Ir4
_symmetry_space_group_name_H-M   'P 1'
_cell_length_a   12.94643640
_cell_length_b   12.94643640
_cell_length_c   2.81984000
_cell_angle_alpha   90.00000000
_cell_angle_beta   90.00000000
_cell_angle_gamma   167.33296362
_symmetry_Int_Tables_number   1
_chemical_formula_structural   Cu2B3Ir4
_chemical_formula_sum   'Cu2 B3 Ir4'
_cell_volume   103.64150669
_cell_formula_units_Z   1
loop_
 _symmetry_equiv_pos_site_id
 _symmetry_equiv_pos_as_xyz
  1  'x, y, z'
loop_
 _atom_site_type_symbol
 _atom_site_label
 _atom_site_symmetry_multiplicity
 _atom_site_fract_x
 _atom_site_fract_y
 _atom_site_fract_z
 _atom_site_occupancy
  Cu  Cu0  1  0.27747000  0.72253000  0.50000000  1
  Cu  Cu1  1  0.72148200  0.27851800  0.00000000  1
  B  B2  1  0.38178800  0.61821200  0.50000000  1
  B  B3  1  0.61470700  0.38529300  0.00000000  1
  B  B4  1  0.98926000  0.01074000  0.50000000  1
  Ir  Ir5  1  0.15026500  0.84973500  0.50000000  1
  Ir  Ir6  1  0.84854500  0.15145500  0.00000000  1
  Ir  Ir7  1  0.55065300  0.44934700  0.50000000  1
  Ir  Ir8  1  0.44983000  0.55017000  0.00000000  1
