# generated using pymatgen
data_RbCeF4
_symmetry_space_group_name_H-M   'P 1'
_cell_length_a   3.79577100
_cell_length_b   6.54138100
_cell_length_c   16.39124400
_cell_angle_alpha   90.00000000
_cell_angle_beta   90.00000000
_cell_angle_gamma   90.00000000
_symmetry_Int_Tables_number   1
_chemical_formula_structural   RbCeF4
_chemical_formula_sum   'Rb4 Ce4 F16'
_cell_volume   406.98777468
_cell_formula_units_Z   4
loop_
 _symmetry_equiv_pos_site_id
 _symmetry_equiv_pos_as_xyz
  1  'x, y, z'
loop_
 _atom_site_type_symbol
 _atom_site_label
 _atom_site_symmetry_multiplicity
 _atom_site_fract_x
 _atom_site_fract_y
 _atom_site_fract_z
 _atom_site_occupancy
  Rb  Rb0  1  0.25000000  0.72525500  0.69981100  1
  Rb  Rb1  1  0.75000000  0.27474500  0.30018900  1
  Rb  Rb2  1  0.75000000  0.77474500  0.19981100  1
  Rb  Rb3  1  0.25000000  0.22525500  0.80018900  1
  Ce  Ce4  1  0.25000000  0.25083600  0.05852500  1
  Ce  Ce5  1  0.75000000  0.74916400  0.94147500  1
  Ce  Ce6  1  0.75000000  0.24916400  0.55852500  1
  Ce  Ce7  1  0.25000000  0.75083600  0.44147500  1
  F  F8  1  0.25000000  0.60953800  0.86841800  1
  F  F9  1  0.75000000  0.39046200  0.13158200  1
  F  F10  1  0.75000000  0.89046200  0.36841800  1
  F  F11  1  0.25000000  0.10953800  0.63158200  1
  F  F12  1  0.25000000  0.63319900  0.03446500  1
  F  F13  1  0.75000000  0.36680100  0.96553500  1
  F  F14  1  0.75000000  0.86680100  0.53446500  1
  F  F15  1  0.25000000  0.13319900  0.46553500  1
  F  F16  1  0.25000000  0.50007000  0.55593500  1
  F  F17  1  0.75000000  0.49993000  0.44406500  1
  F  F18  1  0.75000000  0.99993000  0.05593500  1
  F  F19  1  0.25000000  0.00007000  0.94406500  1
  F  F20  1  0.25000000  0.59651300  0.31320900  1
  F  F21  1  0.75000000  0.40348700  0.68679100  1
  F  F22  1  0.75000000  0.90348700  0.81320900  1
  F  F23  1  0.25000000  0.09651300  0.18679100  1
