# generated using pymatgen
data_SrLaNiO4
_symmetry_space_group_name_H-M   'P 1'
_cell_length_a   6.80885694
_cell_length_b   6.80885694
_cell_length_c   6.80885694
_cell_angle_alpha   147.03173116
_cell_angle_beta   147.03173116
_cell_angle_gamma   47.31680135
_symmetry_Int_Tables_number   1
_chemical_formula_structural   SrLaNiO4
_chemical_formula_sum   'Sr1 La1 Ni1 O4'
_cell_volume   93.11670300
_cell_formula_units_Z   1
loop_
 _symmetry_equiv_pos_site_id
 _symmetry_equiv_pos_as_xyz
  1  'x, y, z'
loop_
 _atom_site_type_symbol
 _atom_site_label
 _atom_site_symmetry_multiplicity
 _atom_site_fract_x
 _atom_site_fract_y
 _atom_site_fract_z
 _atom_site_occupancy
  Sr  Sr0  1  0.36013100  0.36013100  0.00000000  1
  La  La1  1  0.63944800  0.63944800  0.00000000  1
  Ni  Ni2  1  0.99677400  0.99677400  0.00000000  1
  O  O3  1  0.16322300  0.16322300  0.00000000  1
  O  O4  1  0.82871400  0.82871400  0.00000000  1
  O  O5  1  0.50585600  0.00585600  0.50000000  1
  O  O6  1  0.00585600  0.50585600  0.50000000  1
