# generated using pymatgen
data_La4MgNi
_symmetry_space_group_name_H-M   'P 1'
_cell_length_a   10.10809992
_cell_length_b   10.10809992
_cell_length_c   10.10809992
_cell_angle_alpha   60.00000000
_cell_angle_beta   60.00000000
_cell_angle_gamma   60.00000000
_symmetry_Int_Tables_number   1
_chemical_formula_structural   La4MgNi
_chemical_formula_sum   'La16 Mg4 Ni4'
_cell_volume   730.28701972
_cell_formula_units_Z   4
loop_
 _symmetry_equiv_pos_site_id
 _symmetry_equiv_pos_as_xyz
  1  'x, y, z'
loop_
 _atom_site_type_symbol
 _atom_site_label
 _atom_site_symmetry_multiplicity
 _atom_site_fract_x
 _atom_site_fract_y
 _atom_site_fract_z
 _atom_site_occupancy
  La  La0  1  0.59397100  0.59397100  0.59397100  1
  La  La1  1  0.59397100  0.59397100  0.21808700  1
  La  La2  1  0.59397100  0.21808700  0.59397100  1
  La  La3  1  0.21808700  0.59397100  0.59397100  1
  La  La4  1  0.06152300  0.43847700  0.43847700  1
  La  La5  1  0.43847700  0.06152300  0.06152300  1
  La  La6  1  0.43847700  0.06152300  0.43847700  1
  La  La7  1  0.06152300  0.43847700  0.06152300  1
  La  La8  1  0.43847700  0.43847700  0.06152300  1
  La  La9  1  0.06152300  0.06152300  0.43847700  1
  La  La10  1  0.18608800  0.81391200  0.81391200  1
  La  La11  1  0.81391200  0.18608800  0.18608800  1
  La  La12  1  0.81391200  0.18608800  0.81391200  1
  La  La13  1  0.18608800  0.81391200  0.18608800  1
  La  La14  1  0.81391200  0.81391200  0.18608800  1
  La  La15  1  0.18608800  0.18608800  0.81391200  1
  Mg  Mg16  1  0.82935900  0.82935900  0.82935900  1
  Mg  Mg17  1  0.82935900  0.82935900  0.51192400  1
  Mg  Mg18  1  0.82935900  0.51192400  0.82935900  1
  Mg  Mg19  1  0.51192400  0.82935900  0.82935900  1
  Ni  Ni20  1  0.39143300  0.39143300  0.39143300  1
  Ni  Ni21  1  0.39143300  0.39143300  0.82570000  1
  Ni  Ni22  1  0.39143300  0.82570000  0.39143300  1
  Ni  Ni23  1  0.82570000  0.39143300  0.39143300  1
