# generated using pymatgen
data_Zn3TeO6
_symmetry_space_group_name_H-M   'P 1'
_cell_length_a   8.79406316
_cell_length_b   8.79406316
_cell_length_c   10.54130878
_cell_angle_alpha   87.56742646
_cell_angle_beta   87.56742646
_cell_angle_gamma   61.37491099
_symmetry_Int_Tables_number   1
_chemical_formula_structural   Zn3TeO6
_chemical_formula_sum   'Zn18 Te6 O36'
_cell_volume   714.70439155
_cell_formula_units_Z   6
loop_
 _symmetry_equiv_pos_site_id
 _symmetry_equiv_pos_as_xyz
  1  'x, y, z'
loop_
 _atom_site_type_symbol
 _atom_site_label
 _atom_site_symmetry_multiplicity
 _atom_site_fract_x
 _atom_site_fract_y
 _atom_site_fract_z
 _atom_site_occupancy
  Zn  Zn0  1  0.20090800  0.79909200  0.25000000  1
  Zn  Zn1  1  0.79909200  0.20090800  0.75000000  1
  Zn  Zn2  1  0.67724600  0.37744100  0.44770300  1
  Zn  Zn3  1  0.62255900  0.32275400  0.05229700  1
  Zn  Zn4  1  0.32275400  0.62255900  0.55229700  1
  Zn  Zn5  1  0.37744100  0.67724600  0.94770300  1
  Zn  Zn6  1  0.72684900  0.00144300  0.25746400  1
  Zn  Zn7  1  0.99855700  0.27315100  0.24253600  1
  Zn  Zn8  1  0.27315100  0.99855700  0.74253600  1
  Zn  Zn9  1  0.00144300  0.72684900  0.75746400  1
  Zn  Zn10  1  0.34281400  0.06485100  0.07467900  1
  Zn  Zn11  1  0.93514900  0.65718600  0.42532100  1
  Zn  Zn12  1  0.65718600  0.93514900  0.92532100  1
  Zn  Zn13  1  0.06485100  0.34281400  0.57467900  1
  Zn  Zn14  1  0.42578900  0.89854100  0.44131200  1
  Zn  Zn15  1  0.10145900  0.57421100  0.05868800  1
  Zn  Zn16  1  0.57421100  0.10145900  0.55868800  1
  Zn  Zn17  1  0.89854100  0.42578900  0.94131200  1
  Te  Te18  1  0.00000000  0.00000000  0.50000000  1
  Te  Te19  1  0.00000000  0.00000000  0.00000000  1
  Te  Te20  1  0.66257000  0.66613800  0.19445900  1
  Te  Te21  1  0.33386200  0.33743000  0.30554100  1
  Te  Te22  1  0.33743000  0.33386200  0.80554100  1
  Te  Te23  1  0.66613800  0.66257000  0.69445900  1
  O  O24  1  0.76805800  0.08929200  0.42890500  1
  O  O25  1  0.91070800  0.23194200  0.07109500  1
  O  O26  1  0.23194200  0.91070800  0.57109500  1
  O  O27  1  0.08929200  0.76805800  0.92890500  1
  O  O28  1  0.43005400  0.42564400  0.42773800  1
  O  O29  1  0.57435600  0.56994600  0.07226200  1
  O  O30  1  0.56994600  0.57435600  0.57226200  1
  O  O31  1  0.42564400  0.43005400  0.92773800  1
  O  O32  1  0.54774400  0.23172200  0.20096700  1
  O  O33  1  0.76827800  0.45225600  0.29903300  1
  O  O34  1  0.45225600  0.76827800  0.79903300  1
  O  O35  1  0.23172200  0.54774400  0.70096700  1
  O  O36  1  0.43093000  0.12097800  0.40516100  1
  O  O37  1  0.87902200  0.56907000  0.09483900  1
  O  O38  1  0.44425800  0.75889400  0.29484800  1
  O  O39  1  0.56907000  0.87902200  0.59483900  1
  O  O40  1  0.74069200  0.77722300  0.31735700  1
  O  O41  1  0.22277700  0.25930900  0.18264300  1
  O  O42  1  0.25930900  0.22277700  0.68264300  1
  O  O43  1  0.77722300  0.74069200  0.81735700  1
  O  O44  1  0.58690400  0.88661900  0.09964300  1
  O  O45  1  0.11338100  0.41309600  0.40035700  1
  O  O46  1  0.41309600  0.11338100  0.90035700  1
  O  O47  1  0.88661900  0.58690400  0.59964300  1
  O  O48  1  0.04738000  0.09279300  0.84203500  1
  O  O49  1  0.90720700  0.95262000  0.65796500  1
  O  O50  1  0.95262000  0.90720700  0.15796500  1
  O  O51  1  0.09279300  0.04738000  0.34203500  1
  O  O52  1  0.90946500  0.23746900  0.55948600  1
  O  O53  1  0.76253100  0.09053500  0.94051400  1
  O  O54  1  0.09053500  0.76253100  0.44051400  1
  O  O55  1  0.23746900  0.90946500  0.05948600  1
  O  O56  1  0.75889400  0.44425800  0.79484800  1
  O  O57  1  0.55574200  0.24110600  0.70515200  1
  O  O58  1  0.24110600  0.55574200  0.20515200  1
  O  O59  1  0.12097800  0.43093000  0.90516100  1
