# generated using pymatgen
data_BaGe2Au5
_symmetry_space_group_name_H-M   'P 1'
_cell_length_a   7.26740400
_cell_length_b   9.21120000
_cell_length_c   10.50212600
_cell_angle_alpha   90.00000000
_cell_angle_beta   90.00000000
_cell_angle_gamma   90.00000000
_symmetry_Int_Tables_number   1
_chemical_formula_structural   BaGe2Au5
_chemical_formula_sum   'Ba4 Ge8 Au20'
_cell_volume   703.02819076
_cell_formula_units_Z   4
loop_
 _symmetry_equiv_pos_site_id
 _symmetry_equiv_pos_as_xyz
  1  'x, y, z'
loop_
 _atom_site_type_symbol
 _atom_site_label
 _atom_site_symmetry_multiplicity
 _atom_site_fract_x
 _atom_site_fract_y
 _atom_site_fract_z
 _atom_site_occupancy
  Ba  Ba0  1  0.25000000  0.24738900  0.12074700  1
  Ba  Ba1  1  0.25000000  0.74738900  0.37925300  1
  Ba  Ba2  1  0.75000000  0.75261100  0.87925300  1
  Ba  Ba3  1  0.75000000  0.25261100  0.62074700  1
  Ge  Ge4  1  0.25000000  0.04880600  0.61881500  1
  Ge  Ge5  1  0.25000000  0.54880600  0.88118500  1
  Ge  Ge6  1  0.75000000  0.95119400  0.38118500  1
  Ge  Ge7  1  0.75000000  0.45119400  0.11881500  1
  Ge  Ge8  1  0.25000000  0.34647200  0.46390800  1
  Ge  Ge9  1  0.25000000  0.84647200  0.03609200  1
  Ge  Ge10  1  0.75000000  0.65352800  0.53609200  1
  Ge  Ge11  1  0.75000000  0.15352800  0.96390800  1
  Au  Au12  1  0.05250600  0.10019800  0.39046800  1
  Au  Au13  1  0.44749400  0.60019800  0.10953200  1
  Au  Au14  1  0.55250600  0.89980200  0.60953200  1
  Au  Au15  1  0.94749400  0.39980200  0.89046800  1
  Au  Au16  1  0.94749400  0.89980200  0.60953200  1
  Au  Au17  1  0.55250600  0.39980200  0.89046800  1
  Au  Au18  1  0.44749400  0.10019800  0.39046800  1
  Au  Au19  1  0.05250600  0.60019800  0.10953200  1
  Au  Au20  1  0.04307100  0.07272700  0.85419700  1
  Au  Au21  1  0.45692900  0.57272700  0.64580300  1
  Au  Au22  1  0.54307100  0.92727300  0.14580300  1
  Au  Au23  1  0.95692900  0.42727300  0.35419700  1
  Au  Au24  1  0.95692900  0.92727300  0.14580300  1
  Au  Au25  1  0.54307100  0.42727300  0.35419700  1
  Au  Au26  1  0.45692900  0.07272700  0.85419700  1
  Au  Au27  1  0.04307100  0.57272700  0.64580300  1
  Au  Au28  1  0.25000000  0.30886100  0.71033300  1
  Au  Au29  1  0.25000000  0.80886100  0.78966700  1
  Au  Au30  1  0.75000000  0.69113900  0.28966700  1
  Au  Au31  1  0.75000000  0.19113900  0.21033300  1
