# generated using pymatgen
data_CeNiAs
_symmetry_space_group_name_H-M   'P 1'
_cell_length_a   4.10371660
_cell_length_b   4.10371660
_cell_length_c   3.96769900
_cell_angle_alpha   90.00000000
_cell_angle_beta   90.00000000
_cell_angle_gamma   120.00000969
_symmetry_Int_Tables_number   1
_chemical_formula_structural   CeNiAs
_chemical_formula_sum   'Ce1 Ni1 As1'
_cell_volume   57.86607554
_cell_formula_units_Z   1
loop_
 _symmetry_equiv_pos_site_id
 _symmetry_equiv_pos_as_xyz
  1  'x, y, z'
loop_
 _atom_site_type_symbol
 _atom_site_label
 _atom_site_symmetry_multiplicity
 _atom_site_fract_x
 _atom_site_fract_y
 _atom_site_fract_z
 _atom_site_occupancy
  Ce  Ce0  1  0.66666700  0.33333300  0.00000000  1
  Ni  Ni1  1  0.33333300  0.66666700  0.50000000  1
  As  As2  1  0.00000000  0.00000000  0.50000000  1
