# generated using pymatgen
data_Li2ZnCdP2
_symmetry_space_group_name_H-M   'P 1'
_cell_length_a   7.30188735
_cell_length_b   7.30188735
_cell_length_c   7.30188774
_cell_angle_alpha   33.49134939
_cell_angle_beta   33.49134939
_cell_angle_gamma   33.49135199
_symmetry_Int_Tables_number   1
_chemical_formula_structural   Li2ZnCdP2
_chemical_formula_sum   'Li2 Zn1 Cd1 P2'
_cell_volume   105.58011334
_cell_formula_units_Z   1
loop_
 _symmetry_equiv_pos_site_id
 _symmetry_equiv_pos_as_xyz
  1  'x, y, z'
loop_
 _atom_site_type_symbol
 _atom_site_label
 _atom_site_symmetry_multiplicity
 _atom_site_fract_x
 _atom_site_fract_y
 _atom_site_fract_z
 _atom_site_occupancy
  Li  Li0  1  0.12624600  0.12624600  0.12624600  1
  Li  Li1  1  0.62441700  0.62441700  0.62441700  1
  Zn  Zn2  1  0.87533900  0.87533900  0.87533900  1
  Cd  Cd3  1  0.37542600  0.37542600  0.37542600  1
  P  P4  1  0.99485400  0.99485400  0.99485400  1
  P  P5  1  0.50371700  0.50371700  0.50371700  1
