# generated using pymatgen
data_MgHAu2F11
_symmetry_space_group_name_H-M   'P 1'
_cell_length_a   16.01892400
_cell_length_b   5.45902000
_cell_length_c   10.55088513
_cell_angle_alpha   89.44045651
_cell_angle_beta   90.00000000
_cell_angle_gamma   90.00000000
_symmetry_Int_Tables_number   1
_chemical_formula_structural   MgHAu2F11
_chemical_formula_sum   'Mg4 H4 Au8 F44'
_cell_volume   922.60586451
_cell_formula_units_Z   4
loop_
 _symmetry_equiv_pos_site_id
 _symmetry_equiv_pos_as_xyz
  1  'x, y, z'
loop_
 _atom_site_type_symbol
 _atom_site_label
 _atom_site_symmetry_multiplicity
 _atom_site_fract_x
 _atom_site_fract_y
 _atom_site_fract_z
 _atom_site_occupancy
  Mg  Mg0  1  0.76628100  0.04699100  0.38534000  1
  Mg  Mg1  1  0.26628100  0.95300900  0.11466000  1
  Mg  Mg2  1  0.23371900  0.95300900  0.61466000  1
  Mg  Mg3  1  0.73371900  0.04699100  0.88534000  1
  H  H4  1  0.59111900  0.99109100  0.42117500  1
  H  H5  1  0.09111900  0.00890900  0.07882500  1
  H  H6  1  0.40888100  0.00890900  0.57882500  1
  H  H7  1  0.90888100  0.99109100  0.92117500  1
  Au  Au8  1  0.77902900  0.54582800  0.63594700  1
  Au  Au9  1  0.27902900  0.45417200  0.86405300  1
  Au  Au10  1  0.22097100  0.45417200  0.36405300  1
  Au  Au11  1  0.72097100  0.54582800  0.13594700  1
  Au  Au12  1  0.97405800  0.28763100  0.25474700  1
  Au  Au13  1  0.47405800  0.71236900  0.24525300  1
  Au  Au14  1  0.02594200  0.71236900  0.74525300  1
  Au  Au15  1  0.52594200  0.28763100  0.75474700  1
  F  F16  1  0.64930800  0.00872600  0.45373300  1
  F  F17  1  0.14930800  0.99127400  0.04626700  1
  F  F18  1  0.35069200  0.99127400  0.54626700  1
  F  F19  1  0.85069200  0.00872600  0.95373300  1
  F  F20  1  0.79356600  0.73554600  0.47857500  1
  F  F21  1  0.29356600  0.26445400  0.02142500  1
  F  F22  1  0.20643400  0.26445400  0.52142500  1
  F  F23  1  0.70643400  0.73554600  0.97857500  1
  F  F24  1  0.79654500  0.24280600  0.54044000  1
  F  F25  1  0.29654500  0.75719400  0.95956000  1
  F  F26  1  0.20345500  0.75719400  0.45956000  1
  F  F27  1  0.70345500  0.24280600  0.04044000  1
  F  F28  1  0.76750800  0.35509800  0.79437300  1
  F  F29  1  0.26750800  0.64490200  0.70562700  1
  F  F30  1  0.23249200  0.64490200  0.20562700  1
  F  F31  1  0.73249200  0.35509800  0.29437300  1
  F  F32  1  0.76218200  0.85058000  0.73028700  1
  F  F33  1  0.26218200  0.14942000  0.76971300  1
  F  F34  1  0.23781800  0.14942000  0.26971300  1
  F  F35  1  0.73781800  0.85058000  0.23028700  1
  F  F36  1  0.88468000  0.06757100  0.32037100  1
  F  F37  1  0.38468000  0.93242900  0.17962900  1
  F  F38  1  0.11532000  0.93242900  0.67962900  1
  F  F39  1  0.61532000  0.06757100  0.82037100  1
  F  F40  1  0.94379000  0.52847000  0.37884000  1
  F  F41  1  0.44379000  0.47153000  0.12116000  1
  F  F42  1  0.05621000  0.47153000  0.62116000  1
  F  F43  1  0.55621000  0.52847000  0.87884000  1
  F  F44  1  0.89351500  0.43563500  0.13786600  1
  F  F45  1  0.39351500  0.56436500  0.36213400  1
  F  F46  1  0.10648500  0.56436500  0.86213400  1
  F  F47  1  0.60648500  0.43563500  0.63786600  1
  F  F48  1  0.06150400  0.49619800  0.19174700  1
  F  F49  1  0.56150400  0.50380200  0.30825300  1
  F  F50  1  0.93849600  0.50380200  0.80825300  1
  F  F51  1  0.43849600  0.49619800  0.69174700  1
  F  F52  1  0.00588200  0.03968100  0.12660700  1
  F  F53  1  0.50588200  0.96031900  0.37339300  1
  F  F54  1  0.99411800  0.96031900  0.87339300  1
  F  F55  1  0.49411800  0.03968100  0.62660700  1
  F  F56  1  0.05495700  0.14278300  0.37091700  1
  F  F57  1  0.55495700  0.85721700  0.12908300  1
  F  F58  1  0.94504300  0.85721700  0.62908300  1
  F  F59  1  0.44504300  0.14278300  0.87091700  1
