# generated using pymatgen
data_HoSi3Ni5
_symmetry_space_group_name_H-M   'P 1'
_cell_length_a   3.76665100
_cell_length_b   6.69234900
_cell_length_c   18.62395700
_cell_angle_alpha   90.00000000
_cell_angle_beta   90.00000000
_cell_angle_gamma   90.00000000
_symmetry_Int_Tables_number   1
_chemical_formula_structural   HoSi3Ni5
_chemical_formula_sum   'Ho4 Si12 Ni20'
_cell_volume   469.46792269
_cell_formula_units_Z   4
loop_
 _symmetry_equiv_pos_site_id
 _symmetry_equiv_pos_as_xyz
  1  'x, y, z'
loop_
 _atom_site_type_symbol
 _atom_site_label
 _atom_site_symmetry_multiplicity
 _atom_site_fract_x
 _atom_site_fract_y
 _atom_site_fract_z
 _atom_site_occupancy
  Ho  Ho0  1  0.25000000  0.62212000  0.64355800  1
  Ho  Ho1  1  0.25000000  0.87788000  0.14355800  1
  Ho  Ho2  1  0.75000000  0.37788000  0.35644200  1
  Ho  Ho3  1  0.75000000  0.12212000  0.85644200  1
  Si  Si4  1  0.25000000  0.41296000  0.91544000  1
  Si  Si5  1  0.25000000  0.08704000  0.41544000  1
  Si  Si6  1  0.75000000  0.58704000  0.08456000  1
  Si  Si7  1  0.75000000  0.91296000  0.58456000  1
  Si  Si8  1  0.25000000  0.12184900  0.73728500  1
  Si  Si9  1  0.25000000  0.37815100  0.23728500  1
  Si  Si10  1  0.75000000  0.87815100  0.26271500  1
  Si  Si11  1  0.75000000  0.62184900  0.76271500  1
  Si  Si12  1  0.25000000  0.84691700  0.92440500  1
  Si  Si13  1  0.25000000  0.65308300  0.42440500  1
  Si  Si14  1  0.75000000  0.15308300  0.07559500  1
  Si  Si15  1  0.75000000  0.34691700  0.57559500  1
  Ni  Ni16  1  0.25000000  0.81453900  0.79874300  1
  Ni  Ni17  1  0.25000000  0.68546100  0.29874300  1
  Ni  Ni18  1  0.75000000  0.18546100  0.20125700  1
  Ni  Ni19  1  0.75000000  0.31453900  0.70125700  1
  Ni  Ni20  1  0.25000000  0.13158400  0.99380600  1
  Ni  Ni21  1  0.25000000  0.36841600  0.49380600  1
  Ni  Ni22  1  0.75000000  0.86841600  0.00619400  1
  Ni  Ni23  1  0.75000000  0.63158400  0.50619400  1
  Ni  Ni24  1  0.25000000  0.88113600  0.51384900  1
  Ni  Ni25  1  0.25000000  0.61886400  0.01384900  1
  Ni  Ni26  1  0.75000000  0.11886400  0.48615100  1
  Ni  Ni27  1  0.75000000  0.38113600  0.98615100  1
  Ni  Ni28  1  0.25000000  0.14417700  0.61390200  1
  Ni  Ni29  1  0.25000000  0.35582300  0.11390200  1
  Ni  Ni30  1  0.75000000  0.85582300  0.38609800  1
  Ni  Ni31  1  0.75000000  0.64417700  0.88609800  1
  Ni  Ni32  1  0.25000000  0.42929700  0.79475100  1
  Ni  Ni33  1  0.25000000  0.07070300  0.29475100  1
  Ni  Ni34  1  0.75000000  0.57070300  0.20524900  1
  Ni  Ni35  1  0.75000000  0.92929700  0.70524900  1
