# generated using pymatgen
data_ScGaNi
_symmetry_space_group_name_H-M   'P 1'
_cell_length_a   4.12841900
_cell_length_b   5.10865538
_cell_length_c   5.44287833
_cell_angle_alpha   91.32721552
_cell_angle_beta   112.28721541
_cell_angle_gamma   66.16768247
_symmetry_Int_Tables_number   1
_chemical_formula_structural   ScGaNi
_chemical_formula_sum   'Sc2 Ga2 Ni2'
_cell_volume   96.00689552
_cell_formula_units_Z   2
loop_
 _symmetry_equiv_pos_site_id
 _symmetry_equiv_pos_as_xyz
  1  'x, y, z'
loop_
 _atom_site_type_symbol
 _atom_site_label
 _atom_site_symmetry_multiplicity
 _atom_site_fract_x
 _atom_site_fract_y
 _atom_site_fract_z
 _atom_site_occupancy
  Sc  Sc0  1  0.74611500  0.70098800  0.19321700  1
  Sc  Sc1  1  0.25388500  0.29901200  0.80678300  1
  Ga  Ga2  1  0.56621700  0.26026900  0.39270300  1
  Ga  Ga3  1  0.43378300  0.73973100  0.60729700  1
  Ni  Ni4  1  0.03477400  0.12449900  0.19404700  1
  Ni  Ni5  1  0.96522600  0.87550100  0.80595300  1
