# generated using pymatgen
data_Ni(PtO2)3
_symmetry_space_group_name_H-M   'P 1'
_cell_length_a   6.42024500
_cell_length_b   6.95247598
_cell_length_c   11.92411474
_cell_angle_alpha   99.74935015
_cell_angle_beta   90.00047770
_cell_angle_gamma   62.50139236
_symmetry_Int_Tables_number   1
_chemical_formula_structural   Ni(PtO2)3
_chemical_formula_sum   'Ni4 Pt12 O24'
_cell_volume   463.43648338
_cell_formula_units_Z   4
loop_
 _symmetry_equiv_pos_site_id
 _symmetry_equiv_pos_as_xyz
  1  'x, y, z'
loop_
 _atom_site_type_symbol
 _atom_site_label
 _atom_site_symmetry_multiplicity
 _atom_site_fract_x
 _atom_site_fract_y
 _atom_site_fract_z
 _atom_site_occupancy
  Ni  Ni0  1  0.49999700  0.99998500  0.00000300  1
  Ni  Ni1  1  0.24998900  0.50000400  0.49999300  1
  Ni  Ni2  1  0.75000800  0.49999100  0.49999400  1
  Ni  Ni3  1  0.99999300  0.00001500  0.00000000  1
  Pt  Pt4  1  0.87500000  0.25000000  0.75000000  1
  Pt  Pt5  1  0.62500100  0.74999900  0.24999900  1
  Pt  Pt6  1  0.37500000  0.25000100  0.75000000  1
  Pt  Pt7  1  0.12499900  0.75000200  0.25000200  1
  Pt  Pt8  1  0.49999700  0.50000000  0.00000200  1
  Pt  Pt9  1  0.25000200  0.00000000  0.49999800  1
  Pt  Pt10  1  0.00000100  0.50000100  0.00000100  1
  Pt  Pt11  1  0.74999800  0.00000100  0.50000000  1
  Pt  Pt12  1  0.37499900  0.75000200  0.75000200  1
  Pt  Pt13  1  0.12500200  0.25000000  0.24999900  1
  Pt  Pt14  1  0.87500000  0.75000100  0.75000100  1
  Pt  Pt15  1  0.62500000  0.25000000  0.25000000  1
  O  O16  1  0.89061700  0.71879200  0.57293000  1
  O  O17  1  0.64058800  0.21878700  0.07292600  1
  O  O18  1  0.39058800  0.71879100  0.57293300  1
  O  O19  1  0.14062100  0.21878900  0.07292200  1
  O  O20  1  0.35941400  0.78121100  0.92706800  1
  O  O21  1  0.10941100  0.28121100  0.42707400  1
  O  O22  1  0.85938200  0.78120900  0.92707100  1
  O  O23  1  0.60938300  0.28121000  0.42707800  1
  O  O24  1  0.91739000  0.16521900  0.58103900  1
  O  O25  1  0.66739700  0.66520400  0.08104200  1
  O  O26  1  0.41739300  0.16521000  0.58104200  1
  O  O27  1  0.16739300  0.66521400  0.08104100  1
  O  O28  1  0.83261100  0.33478100  0.91896100  1
  O  O29  1  0.58260800  0.83478600  0.41895900  1
  O  O30  1  0.33260800  0.33479000  0.91895900  1
  O  O31  1  0.08260400  0.83479700  0.41895800  1
  O  O32  1  0.02292200  0.95415500  0.79209300  1
  O  O33  1  0.77292300  0.45415200  0.29209000  1
  O  O34  1  0.52292200  0.95415700  0.79209500  1
  O  O35  1  0.27292400  0.45415200  0.29209300  1
  O  O36  1  0.72707900  0.54584500  0.70790700  1
  O  O37  1  0.47707700  0.04584800  0.20790700  1
  O  O38  1  0.22707900  0.54584400  0.70790600  1
  O  O39  1  0.97707800  0.04584800  0.20791000  1
