# generated using pymatgen
data_Cu2As9P3S9I2
_symmetry_space_group_name_H-M   'P 1'
_cell_length_a   14.16973600
_cell_length_b   12.45402200
_cell_length_c   16.35090380
_cell_angle_alpha   87.33449412
_cell_angle_beta   90.00000000
_cell_angle_gamma   90.00000000
_symmetry_Int_Tables_number   1
_chemical_formula_structural   Cu2As9P3S9I2
_chemical_formula_sum   'Cu8 As36 P12 S36 I8'
_cell_volume   2882.32542810
_cell_formula_units_Z   4
loop_
 _symmetry_equiv_pos_site_id
 _symmetry_equiv_pos_as_xyz
  1  'x, y, z'
loop_
 _atom_site_type_symbol
 _atom_site_label
 _atom_site_symmetry_multiplicity
 _atom_site_fract_x
 _atom_site_fract_y
 _atom_site_fract_z
 _atom_site_occupancy
  Cu  Cu0  1  0.73740900  0.30453500  0.57929300  1
  Cu  Cu1  1  0.23740900  0.69546500  0.92070700  1
  Cu  Cu2  1  0.26259100  0.69546500  0.42070700  1
  Cu  Cu3  1  0.76259100  0.30453500  0.07929300  1
  Cu  Cu4  1  0.77731100  0.28310000  0.81701500  1
  Cu  Cu5  1  0.27731100  0.71690000  0.68298500  1
  Cu  Cu6  1  0.22268900  0.71690000  0.18298500  1
  Cu  Cu7  1  0.72268900  0.28310000  0.31701500  1
  As  As8  1  0.75551600  0.86292700  0.68453200  1
  As  As9  1  0.25551600  0.13707300  0.81546800  1
  As  As10  1  0.24448400  0.13707300  0.31546800  1
  As  As11  1  0.74448400  0.86292700  0.18453200  1
  As  As12  1  0.79060500  0.96895000  0.80835500  1
  As  As13  1  0.29060500  0.03105000  0.69164500  1
  As  As14  1  0.20939500  0.03105000  0.19164500  1
  As  As15  1  0.70939500  0.96895000  0.30835500  1
  As  As16  1  0.62287600  0.94239100  0.76306100  1
  As  As17  1  0.12287600  0.05760900  0.73693900  1
  As  As18  1  0.37712400  0.05760900  0.23693900  1
  As  As19  1  0.87712400  0.94239100  0.26306100  1
  As  As20  1  0.46044700  0.34213200  0.57473200  1
  As  As21  1  0.96044700  0.65786800  0.92526800  1
  As  As22  1  0.53955300  0.65786800  0.42526800  1
  As  As23  1  0.03955300  0.34213200  0.07473200  1
  As  As24  1  0.99021400  0.35244700  0.55760900  1
  As  As25  1  0.49021400  0.64755300  0.94239100  1
  As  As26  1  0.00978600  0.64755300  0.44239100  1
  As  As27  1  0.50978600  0.35244700  0.05760900  1
  As  As28  1  0.13848600  0.33706600  0.94759500  1
  As  As29  1  0.63848600  0.66293400  0.55240500  1
  As  As30  1  0.86151400  0.66293400  0.05240500  1
  As  As31  1  0.36151400  0.33706600  0.44759500  1
  As  As32  1  0.08038000  0.16484600  0.01617200  1
  As  As33  1  0.58038000  0.83515400  0.48382800  1
  As  As34  1  0.91962000  0.83515400  0.98382800  1
  As  As35  1  0.41962000  0.16484600  0.51617200  1
  As  As36  1  0.40611200  0.33043700  0.93448500  1
  As  As37  1  0.90611200  0.66956300  0.56551500  1
  As  As38  1  0.59388800  0.66956300  0.06551500  1
  As  As39  1  0.09388800  0.33043700  0.43448500  1
  As  As40  1  0.46734300  0.16758300  0.01390400  1
  As  As41  1  0.96734300  0.83241700  0.48609600  1
  As  As42  1  0.53265700  0.83241700  0.98609600  1
  As  As43  1  0.03265700  0.16758300  0.51390400  1
  P  P44  1  0.73205800  0.13611900  0.63673900  1
  P  P45  1  0.23205800  0.86388100  0.86326100  1
  P  P46  1  0.26794200  0.86388100  0.36326100  1
  P  P47  1  0.76794200  0.13611900  0.13673900  1
  P  P48  1  0.90655600  0.29201800  0.89964900  1
  P  P49  1  0.40655600  0.70798200  0.60035100  1
  P  P50  1  0.09344400  0.70798200  0.10035100  1
  P  P51  1  0.59344400  0.29201800  0.39964900  1
  P  P52  1  0.63599100  0.27921000  0.88338200  1
  P  P53  1  0.13599100  0.72079000  0.61661800  1
  P  P54  1  0.36400900  0.72079000  0.11661800  1
  P  P55  1  0.86400900  0.27921000  0.38338200  1
  S  S56  1  0.77520100  0.99369600  0.58363200  1
  S  S57  1  0.27520100  0.00630400  0.91636800  1
  S  S58  1  0.22479900  0.00630400  0.41636800  1
  S  S59  1  0.72479900  0.99369600  0.08363200  1
  S  S60  1  0.82192400  0.13365600  0.74180300  1
  S  S61  1  0.32192400  0.86634400  0.75819700  1
  S  S62  1  0.17807600  0.86634400  0.25819700  1
  S  S63  1  0.67807600  0.13365600  0.24180300  1
  S  S64  1  0.59963500  0.09790800  0.68705400  1
  S  S65  1  0.09963500  0.90209200  0.81294600  1
  S  S66  1  0.40036500  0.90209200  0.31294600  1
  S  S67  1  0.90036500  0.09790800  0.18705400  1
  S  S68  1  0.60401200  0.37288500  0.51171200  1
  S  S69  1  0.10401200  0.62711500  0.98828800  1
  S  S70  1  0.39598800  0.62711500  0.48828800  1
  S  S71  1  0.89598800  0.37288500  0.01171200  1
  S  S72  1  0.84992600  0.37421000  0.48837300  1
  S  S73  1  0.34992600  0.62579000  0.01162700  1
  S  S74  1  0.15007400  0.62579000  0.51162700  1
  S  S75  1  0.65007400  0.37421000  0.98837300  1
  S  S76  1  0.02704500  0.36389800  0.84794000  1
  S  S77  1  0.52704500  0.63610200  0.65206000  1
  S  S78  1  0.97295500  0.63610200  0.15206000  1
  S  S79  1  0.47295500  0.36389800  0.34794000  1
  S  S80  1  0.94947000  0.13752500  0.93938400  1
  S  S81  1  0.44947000  0.86247500  0.56061600  1
  S  S82  1  0.05053000  0.86247500  0.06061600  1
  S  S83  1  0.55053000  0.13752500  0.43938400  1
  S  S84  1  0.51334400  0.34593500  0.83067800  1
  S  S85  1  0.01334400  0.65406500  0.66932200  1
  S  S86  1  0.48665600  0.65406500  0.16932200  1
  S  S87  1  0.98665600  0.34593500  0.33067800  1
  S  S88  1  0.59420000  0.13018700  0.93442100  1
  S  S89  1  0.09420000  0.86981300  0.56557900  1
  S  S90  1  0.40580000  0.86981300  0.06557900  1
  S  S91  1  0.90580000  0.13018700  0.43442100  1
  I  I92  1  0.76712200  0.43457700  0.70051700  1
  I  I93  1  0.26712200  0.56542300  0.79948300  1
  I  I94  1  0.23287800  0.56542300  0.29948300  1
  I  I95  1  0.73287800  0.43457700  0.20051700  1
  I  I96  1  0.77805700  0.71943900  0.37551600  1
  I  I97  1  0.27805700  0.28056100  0.12448400  1
  I  I98  1  0.22194300  0.28056100  0.62448400  1
  I  I99  1  0.72194300  0.71943900  0.87551600  1
