# generated using pymatgen
data_RbSi
_symmetry_space_group_name_H-M   'P 1'
_cell_length_a   13.18716000
_cell_length_b   13.18716000
_cell_length_c   13.18716000
_cell_angle_alpha   90.00000000
_cell_angle_beta   90.00000000
_cell_angle_gamma   90.00000000
_symmetry_Int_Tables_number   1
_chemical_formula_structural   RbSi
_chemical_formula_sum   'Rb32 Si32'
_cell_volume   2293.26280176
_cell_formula_units_Z   32
loop_
 _symmetry_equiv_pos_site_id
 _symmetry_equiv_pos_as_xyz
  1  'x, y, z'
loop_
 _atom_site_type_symbol
 _atom_site_label
 _atom_site_symmetry_multiplicity
 _atom_site_fract_x
 _atom_site_fract_y
 _atom_site_fract_z
 _atom_site_occupancy
  Rb  Rb0  1  0.06607800  0.33730600  0.13984300  1
  Rb  Rb1  1  0.83730600  0.43392200  0.36015700  1
  Rb  Rb2  1  0.56607800  0.63984300  0.83730600  1
  Rb  Rb3  1  0.43392200  0.63984300  0.16269400  1
  Rb  Rb4  1  0.63984300  0.83730600  0.56607800  1
  Rb  Rb5  1  0.36015700  0.16269400  0.56607800  1
  Rb  Rb6  1  0.66269400  0.86015700  0.06607800  1
  Rb  Rb7  1  0.66269400  0.13984300  0.93392200  1
  Rb  Rb8  1  0.33730600  0.86015700  0.93392200  1
  Rb  Rb9  1  0.13984300  0.93392200  0.66269400  1
  Rb  Rb10  1  0.93392200  0.33730600  0.86015700  1
  Rb  Rb11  1  0.93392200  0.66269400  0.13984300  1
  Rb  Rb12  1  0.86015700  0.06607800  0.66269400  1
  Rb  Rb13  1  0.06607800  0.66269400  0.86015700  1
  Rb  Rb14  1  0.86015700  0.93392200  0.33730600  1
  Rb  Rb15  1  0.13984300  0.06607800  0.33730600  1
  Rb  Rb16  1  0.83730600  0.56607800  0.63984300  1
  Rb  Rb17  1  0.36015700  0.83730600  0.43392200  1
  Rb  Rb18  1  0.63984300  0.16269400  0.43392200  1
  Rb  Rb19  1  0.56607800  0.36015700  0.16269400  1
  Rb  Rb20  1  0.43392200  0.36015700  0.83730600  1
  Rb  Rb21  1  0.16269400  0.43392200  0.63984300  1
  Rb  Rb22  1  0.16269400  0.56607800  0.36015700  1
  Rb  Rb23  1  0.33730600  0.13984300  0.06607800  1
  Rb  Rb24  1  0.83387700  0.83387700  0.83387700  1
  Rb  Rb25  1  0.66612300  0.33387700  0.66612300  1
  Rb  Rb26  1  0.33387700  0.66612300  0.66612300  1
  Rb  Rb27  1  0.66612300  0.66612300  0.33387700  1
  Rb  Rb28  1  0.83387700  0.16612300  0.16612300  1
  Rb  Rb29  1  0.16612300  0.16612300  0.83387700  1
  Rb  Rb30  1  0.16612300  0.83387700  0.16612300  1
  Rb  Rb31  1  0.33387700  0.33387700  0.33387700  1
  Si  Si32  1  0.56020000  0.92920200  0.81454100  1
  Si  Si33  1  0.56020000  0.07079800  0.18545900  1
  Si  Si34  1  0.92920200  0.81454100  0.56020000  1
  Si  Si35  1  0.07079800  0.81454100  0.43980000  1
  Si  Si36  1  0.81454100  0.56020000  0.92920200  1
  Si  Si37  1  0.18545900  0.43980000  0.92920200  1
  Si  Si38  1  0.93980000  0.68545900  0.42920200  1
  Si  Si39  1  0.93980000  0.31454100  0.57079800  1
  Si  Si40  1  0.06020000  0.68545900  0.57079800  1
  Si  Si41  1  0.31454100  0.57079800  0.93980000  1
  Si  Si42  1  0.57079800  0.06020000  0.68545900  1
  Si  Si43  1  0.57079800  0.93980000  0.31454100  1
  Si  Si44  1  0.68545900  0.42920200  0.93980000  1
  Si  Si45  1  0.42920200  0.93980000  0.68545900  1
  Si  Si46  1  0.68545900  0.57079800  0.06020000  1
  Si  Si47  1  0.06532500  0.06532500  0.06532500  1
  Si  Si48  1  0.42920200  0.06020000  0.31454100  1
  Si  Si49  1  0.18545900  0.56020000  0.07079800  1
  Si  Si50  1  0.81454100  0.43980000  0.07079800  1
  Si  Si51  1  0.92920200  0.18545900  0.43980000  1
  Si  Si52  1  0.07079800  0.18545900  0.56020000  1
  Si  Si53  1  0.43980000  0.07079800  0.81454100  1
  Si  Si54  1  0.43980000  0.92920200  0.18545900  1
  Si  Si55  1  0.06020000  0.31454100  0.42920200  1
  Si  Si56  1  0.56532500  0.56532500  0.56532500  1
  Si  Si57  1  0.93467500  0.06532500  0.93467500  1
  Si  Si58  1  0.06532500  0.93467500  0.93467500  1
  Si  Si59  1  0.93467500  0.93467500  0.06532500  1
  Si  Si60  1  0.56532500  0.43467500  0.43467500  1
  Si  Si61  1  0.43467500  0.43467500  0.56532500  1
  Si  Si62  1  0.43467500  0.56532500  0.43467500  1
  Si  Si63  1  0.31454100  0.42920200  0.06020000  1
