# generated using pymatgen
data_Sr3Sn5
_symmetry_space_group_name_H-M   'P 1'
_cell_length_a   6.91375105
_cell_length_b   6.91375105
_cell_length_c   11.00725400
_cell_angle_alpha   90.00000000
_cell_angle_beta   90.00000000
_cell_angle_gamma   102.35460311
_symmetry_Int_Tables_number   1
_chemical_formula_structural   Sr3Sn5
_chemical_formula_sum   'Sr6 Sn10'
_cell_volume   513.96179439
_cell_formula_units_Z   2
loop_
 _symmetry_equiv_pos_site_id
 _symmetry_equiv_pos_as_xyz
  1  'x, y, z'
loop_
 _atom_site_type_symbol
 _atom_site_label
 _atom_site_symmetry_multiplicity
 _atom_site_fract_x
 _atom_site_fract_y
 _atom_site_fract_z
 _atom_site_occupancy
  Sr  Sr0  1  0.14591500  0.14591500  0.25000000  1
  Sr  Sr1  1  0.85408500  0.85408500  0.75000000  1
  Sr  Sr2  1  0.29722300  0.70277700  0.00000000  1
  Sr  Sr3  1  0.70277700  0.29722300  0.50000000  1
  Sr  Sr4  1  0.70277700  0.29722300  0.00000000  1
  Sr  Sr5  1  0.29722300  0.70277700  0.50000000  1
  Sn  Sn6  1  0.54253000  0.54253000  0.25000000  1
  Sn  Sn7  1  0.45747000  0.45747000  0.75000000  1
  Sn  Sn8  1  0.99230400  0.59149200  0.25000000  1
  Sn  Sn9  1  0.00769600  0.40850800  0.75000000  1
  Sn  Sn10  1  0.59149200  0.99230400  0.25000000  1
  Sn  Sn11  1  0.40850800  0.00769600  0.75000000  1
  Sn  Sn12  1  0.18780700  0.18780700  0.55323500  1
  Sn  Sn13  1  0.81219300  0.81219300  0.05323500  1
  Sn  Sn14  1  0.18780700  0.18780700  0.94676500  1
  Sn  Sn15  1  0.81219300  0.81219300  0.44676500  1
