# generated using pymatgen
data_RbVO3
_symmetry_space_group_name_H-M   'P 1'
_cell_length_a   5.49852800
_cell_length_b   5.82546800
_cell_length_c   11.62561900
_cell_angle_alpha   90.00000000
_cell_angle_beta   90.00000000
_cell_angle_gamma   90.00000000
_symmetry_Int_Tables_number   1
_chemical_formula_structural   RbVO3
_chemical_formula_sum   'Rb4 V4 O12'
_cell_volume   372.38600234
_cell_formula_units_Z   4
loop_
 _symmetry_equiv_pos_site_id
 _symmetry_equiv_pos_as_xyz
  1  'x, y, z'
loop_
 _atom_site_type_symbol
 _atom_site_label
 _atom_site_symmetry_multiplicity
 _atom_site_fract_x
 _atom_site_fract_y
 _atom_site_fract_z
 _atom_site_occupancy
  Rb  Rb0  1  0.93540900  0.75000000  0.89757000  1
  Rb  Rb1  1  0.93540900  0.25000000  0.60243000  1
  Rb  Rb2  1  0.06459100  0.25000000  0.10243000  1
  Rb  Rb3  1  0.06459100  0.75000000  0.39757000  1
  V  V4  1  0.47363300  0.75000000  0.66588000  1
  V  V5  1  0.47363300  0.25000000  0.83412000  1
  V  V6  1  0.52636700  0.25000000  0.33412000  1
  V  V7  1  0.52636700  0.75000000  0.16588000  1
  O  O8  1  0.42808400  0.50000000  0.25000000  1
  O  O9  1  0.57191600  0.00000000  0.75000000  1
  O  O10  1  0.57191600  0.50000000  0.75000000  1
  O  O11  1  0.42808400  0.00000000  0.25000000  1
  O  O12  1  0.61475900  0.75000000  0.53886200  1
  O  O13  1  0.61475900  0.25000000  0.96113800  1
  O  O14  1  0.38524100  0.25000000  0.46113800  1
  O  O15  1  0.38524100  0.75000000  0.03886200  1
  O  O16  1  0.82995200  0.75000000  0.14811400  1
  O  O17  1  0.82995200  0.25000000  0.35188600  1
  O  O18  1  0.17004800  0.25000000  0.85188600  1
  O  O19  1  0.17004800  0.75000000  0.64811400  1
