# generated using pymatgen
data_RbBa2Br5
_symmetry_space_group_name_H-M   'P 1'
_cell_length_a   8.82467900
_cell_length_b   9.91449800
_cell_length_c   14.13876812
_cell_angle_alpha   89.99241393
_cell_angle_beta   90.00000000
_cell_angle_gamma   90.00000000
_symmetry_Int_Tables_number   1
_chemical_formula_structural   RbBa2Br5
_chemical_formula_sum   'Rb4 Ba8 Br20'
_cell_volume   1237.03279840
_cell_formula_units_Z   4
loop_
 _symmetry_equiv_pos_site_id
 _symmetry_equiv_pos_as_xyz
  1  'x, y, z'
loop_
 _atom_site_type_symbol
 _atom_site_label
 _atom_site_symmetry_multiplicity
 _atom_site_fract_x
 _atom_site_fract_y
 _atom_site_fract_z
 _atom_site_occupancy
  Rb  Rb0  1  0.47769500  0.50400800  0.82308800  1
  Rb  Rb1  1  0.52230500  0.49599200  0.17691200  1
  Rb  Rb2  1  0.97769500  0.49599200  0.67691200  1
  Rb  Rb3  1  0.02230500  0.50400800  0.32308800  1
  Ba  Ba4  1  0.47561200  0.00177000  0.82229200  1
  Ba  Ba5  1  0.52438800  0.99823000  0.17770800  1
  Ba  Ba6  1  0.97561200  0.99823000  0.67770800  1
  Ba  Ba7  1  0.02438800  0.00177000  0.32229200  1
  Ba  Ba8  1  0.42659400  0.75057600  0.50729400  1
  Ba  Ba9  1  0.57340600  0.24942400  0.49270600  1
  Ba  Ba10  1  0.92659400  0.24942400  0.99270600  1
  Ba  Ba11  1  0.07340600  0.75057600  0.00729400  1
  Br  Br12  1  0.33749800  0.46078900  0.59217700  1
  Br  Br13  1  0.66250200  0.53921100  0.40782300  1
  Br  Br14  1  0.83749800  0.53921100  0.90782300  1
  Br  Br15  1  0.16250200  0.46078900  0.09217700  1
  Br  Br16  1  0.66692700  0.78330400  0.68499500  1
  Br  Br17  1  0.33307300  0.21669600  0.31500500  1
  Br  Br18  1  0.16692700  0.21669600  0.81500500  1
  Br  Br19  1  0.83307300  0.78330400  0.18499500  1
  Br  Br20  1  0.19863200  0.77011400  0.78234800  1
  Br  Br21  1  0.80136800  0.22988600  0.21765200  1
  Br  Br22  1  0.69863200  0.22988600  0.71765200  1
  Br  Br23  1  0.30136800  0.77011400  0.28234800  1
  Br  Br24  1  0.04568300  0.77924700  0.50251400  1
  Br  Br25  1  0.95431700  0.22075300  0.49748600  1
  Br  Br26  1  0.54568300  0.22075300  0.99748600  1
  Br  Br27  1  0.45431700  0.77924700  0.00251400  1
  Br  Br28  1  0.83761900  0.95840500  0.89986000  1
  Br  Br29  1  0.16238100  0.04159500  0.10014000  1
  Br  Br30  1  0.33761900  0.04159500  0.60014000  1
  Br  Br31  1  0.66238100  0.95840500  0.39986000  1
