# generated using pymatgen
data_Ba4Sc2Cu2O9
_symmetry_space_group_name_H-M   'P 1'
_cell_length_a   9.06785037
_cell_length_b   9.03654763
_cell_length_c   5.92674329
_cell_angle_alpha   71.17727849
_cell_angle_beta   70.60539670
_cell_angle_gamma   38.21732481
_symmetry_Int_Tables_number   1
_chemical_formula_structural   Ba4Sc2Cu2O9
_chemical_formula_sum   'Ba4 Sc2 Cu2 O9'
_cell_volume   281.80532450
_cell_formula_units_Z   1
loop_
 _symmetry_equiv_pos_site_id
 _symmetry_equiv_pos_as_xyz
  1  'x, y, z'
loop_
 _atom_site_type_symbol
 _atom_site_label
 _atom_site_symmetry_multiplicity
 _atom_site_fract_x
 _atom_site_fract_y
 _atom_site_fract_z
 _atom_site_occupancy
  Ba  Ba0  1  0.87796500  0.38824000  0.12203500  1
  Ba  Ba1  1  0.38824000  0.87796500  0.61176000  1
  Ba  Ba2  1  0.61176000  0.12203500  0.38824000  1
  Ba  Ba3  1  0.12203500  0.61176000  0.87796500  1
  Sc  Sc4  1  0.50000000  0.00000000  0.00000000  1
  Sc  Sc5  1  0.00000000  0.50000000  0.50000000  1
  Cu  Cu6  1  0.72651600  0.27348400  0.72651600  1
  Cu  Cu7  1  0.27348400  0.72651600  0.27348400  1
  O  O8  1  0.87480400  0.34902300  0.65097700  1
  O  O9  1  0.34902300  0.87480400  0.12519600  1
  O  O10  1  0.65097700  0.12519600  0.87480400  1
  O  O11  1  0.12519600  0.65097700  0.34902300  1
  O  O12  1  0.74760200  0.74760200  0.25239800  1
  O  O13  1  0.25239800  0.25239800  0.74760200  1
  O  O14  1  0.25000000  0.25000000  0.25000000  1
  O  O15  1  0.75000000  0.75000000  0.75000000  1
  O  O16  1  0.50000000  0.50000000  0.50000000  1
