# generated using pymatgen
data_CeZnCuP2
_symmetry_space_group_name_H-M   'P 1'
_cell_length_a   4.00393438
_cell_length_b   4.00393438
_cell_length_c   6.65384100
_cell_angle_alpha   90.00000000
_cell_angle_beta   90.00000000
_cell_angle_gamma   120.00000631
_symmetry_Int_Tables_number   1
_chemical_formula_structural   CeZnCuP2
_chemical_formula_sum   'Ce1 Zn1 Cu1 P2'
_cell_volume   92.37978045
_cell_formula_units_Z   1
loop_
 _symmetry_equiv_pos_site_id
 _symmetry_equiv_pos_as_xyz
  1  'x, y, z'
loop_
 _atom_site_type_symbol
 _atom_site_label
 _atom_site_symmetry_multiplicity
 _atom_site_fract_x
 _atom_site_fract_y
 _atom_site_fract_z
 _atom_site_occupancy
  Ce  Ce0  1  0.33333300  0.66666700  0.99013500  1
  Zn  Zn1  1  0.00000000  0.00000000  0.37273500  1
  Cu  Cu2  1  0.66666700  0.33333300  0.63909700  1
  P  P3  1  0.66666700  0.33333300  0.26160200  1
  P  P4  1  0.00000000  0.00000000  0.73643200  1
