# generated using pymatgen
data_Zr7Cu10
_symmetry_space_group_name_H-M   'P 1'
_cell_length_a   7.81910122
_cell_length_b   7.81910122
_cell_length_c   9.32958300
_cell_angle_alpha   90.00000000
_cell_angle_beta   90.00000000
_cell_angle_gamma   107.09848277
_symmetry_Int_Tables_number   1
_chemical_formula_structural   Zr7Cu10
_chemical_formula_sum   'Zr14 Cu20'
_cell_volume   545.18423987
_cell_formula_units_Z   2
loop_
 _symmetry_equiv_pos_site_id
 _symmetry_equiv_pos_as_xyz
  1  'x, y, z'
loop_
 _atom_site_type_symbol
 _atom_site_label
 _atom_site_symmetry_multiplicity
 _atom_site_fract_x
 _atom_site_fract_y
 _atom_site_fract_z
 _atom_site_occupancy
  Zr  Zr0  1  0.69098000  0.30902000  0.50000000  1
  Zr  Zr1  1  0.19098000  0.80902000  0.00000000  1
  Zr  Zr2  1  0.51991000  0.01991000  0.75000000  1
  Zr  Zr3  1  0.98009000  0.48009000  0.25000000  1
  Zr  Zr4  1  0.01991000  0.51991000  0.75000000  1
  Zr  Zr5  1  0.48008900  0.98008900  0.25000000  1
  Zr  Zr6  1  0.81090900  0.81090900  0.80448800  1
  Zr  Zr7  1  0.18909100  0.18909100  0.19551200  1
  Zr  Zr8  1  0.31090900  0.31090900  0.69551200  1
  Zr  Zr9  1  0.68909100  0.68909100  0.30448800  1
  Zr  Zr10  1  0.00000000  0.00000000  0.50000000  1
  Zr  Zr11  1  0.50000000  0.50000000  0.00000000  1
  Zr  Zr12  1  0.30902000  0.69098000  0.50000000  1
  Zr  Zr13  1  0.80902000  0.19098000  0.00000000  1
  Cu  Cu14  1  0.38035400  0.66895400  0.79421800  1
  Cu  Cu15  1  0.33104600  0.61964600  0.20578200  1
  Cu  Cu16  1  0.88035400  0.16895400  0.70578200  1
  Cu  Cu17  1  0.83104600  0.11964600  0.29421800  1
  Cu  Cu18  1  0.16895400  0.88035400  0.70578200  1
  Cu  Cu19  1  0.11964600  0.83104600  0.29421800  1
  Cu  Cu20  1  0.66895400  0.38035400  0.79421800  1
  Cu  Cu21  1  0.61964600  0.33104600  0.20578200  1
  Cu  Cu22  1  0.64925000  0.93996700  0.50858100  1
  Cu  Cu23  1  0.06003300  0.35075000  0.49141900  1
  Cu  Cu24  1  0.14925000  0.43996700  0.99141900  1
  Cu  Cu25  1  0.56003300  0.85075000  0.00858100  1
  Cu  Cu26  1  0.93996700  0.64925000  0.50858100  1
  Cu  Cu27  1  0.35075000  0.06003300  0.49141900  1
  Cu  Cu28  1  0.43996700  0.14925000  0.99141900  1
  Cu  Cu29  1  0.85075000  0.56003300  0.00858100  1
  Cu  Cu30  1  0.60634900  0.60634900  0.60041100  1
  Cu  Cu31  1  0.39365100  0.39365100  0.39958900  1
  Cu  Cu32  1  0.10634900  0.10634900  0.89958900  1
  Cu  Cu33  1  0.89365100  0.89365100  0.10041100  1
