# generated using pymatgen
data_MgNb2O6
_symmetry_space_group_name_H-M   'P 1'
_cell_length_a   5.09533400
_cell_length_b   5.82050000
_cell_length_c   14.40727800
_cell_angle_alpha   90.00000000
_cell_angle_beta   90.00000000
_cell_angle_gamma   90.00000000
_symmetry_Int_Tables_number   1
_chemical_formula_structural   MgNb2O6
_chemical_formula_sum   'Mg4 Nb8 O24'
_cell_volume   427.28228477
_cell_formula_units_Z   4
loop_
 _symmetry_equiv_pos_site_id
 _symmetry_equiv_pos_as_xyz
  1  'x, y, z'
loop_
 _atom_site_type_symbol
 _atom_site_label
 _atom_site_symmetry_multiplicity
 _atom_site_fract_x
 _atom_site_fract_y
 _atom_site_fract_z
 _atom_site_occupancy
  Mg  Mg0  1  0.75000000  0.83459400  0.00000000  1
  Mg  Mg1  1  0.25000000  0.66540600  0.50000000  1
  Mg  Mg2  1  0.25000000  0.16540600  0.00000000  1
  Mg  Mg3  1  0.75000000  0.33459400  0.50000000  1
  Nb  Nb4  1  0.75314600  0.81664200  0.65981300  1
  Nb  Nb5  1  0.25314600  0.68335800  0.84018700  1
  Nb  Nb6  1  0.74685400  0.81664200  0.34018700  1
  Nb  Nb7  1  0.24685400  0.68335800  0.15981300  1
  Nb  Nb8  1  0.75314600  0.31664200  0.84018700  1
  Nb  Nb9  1  0.25314600  0.18335800  0.65981300  1
  Nb  Nb10  1  0.74685400  0.31664200  0.15981300  1
  Nb  Nb11  1  0.24685400  0.18335800  0.34018700  1
  O  O12  1  0.41824000  0.37404500  0.24451900  1
  O  O13  1  0.91824000  0.12595500  0.25548100  1
  O  O14  1  0.08176000  0.37404500  0.75548100  1
  O  O15  1  0.58176000  0.12595500  0.74451900  1
  O  O16  1  0.58176000  0.62595500  0.75548100  1
  O  O17  1  0.08176000  0.87404500  0.74451900  1
  O  O18  1  0.91824000  0.62595500  0.24451900  1
  O  O19  1  0.41824000  0.87404500  0.25548100  1
  O  O20  1  0.09047400  0.38398500  0.42128400  1
  O  O21  1  0.59047400  0.11601500  0.07871600  1
  O  O22  1  0.40952600  0.38398500  0.57871600  1
  O  O23  1  0.90952600  0.11601500  0.92128400  1
  O  O24  1  0.57129300  0.60593900  0.09591700  1
  O  O25  1  0.07129300  0.89406100  0.40408300  1
  O  O26  1  0.92870700  0.60593900  0.90408300  1
  O  O27  1  0.42870700  0.89406100  0.59591700  1
  O  O28  1  0.42870700  0.39406100  0.90408300  1
  O  O29  1  0.92870700  0.10593900  0.59591700  1
  O  O30  1  0.07129300  0.39406100  0.09591700  1
  O  O31  1  0.57129300  0.10593900  0.40408300  1
  O  O32  1  0.09047400  0.88398500  0.07871600  1
  O  O33  1  0.59047400  0.61601500  0.42128400  1
  O  O34  1  0.40952600  0.88398500  0.92128400  1
  O  O35  1  0.90952600  0.61601500  0.57871600  1
