# generated using pymatgen
data_Mg(InTe2)2
_symmetry_space_group_name_H-M   'P 1'
_cell_length_a   7.80021096
_cell_length_b   7.80021096
_cell_length_c   7.80021096
_cell_angle_alpha   131.77158881
_cell_angle_beta   131.77158881
_cell_angle_gamma   70.59001763
_symmetry_Int_Tables_number   1
_chemical_formula_structural   Mg(InTe2)2
_chemical_formula_sum   'Mg1 In2 Te4'
_cell_volume   258.62709787
_cell_formula_units_Z   1
loop_
 _symmetry_equiv_pos_site_id
 _symmetry_equiv_pos_as_xyz
  1  'x, y, z'
loop_
 _atom_site_type_symbol
 _atom_site_label
 _atom_site_symmetry_multiplicity
 _atom_site_fract_x
 _atom_site_fract_y
 _atom_site_fract_z
 _atom_site_occupancy
  Mg  Mg0  1  0.75000000  0.25000000  0.50000000  1
  In  In1  1  0.00000000  0.00000000  0.00000000  1
  In  In2  1  0.25000000  0.75000000  0.50000000  1
  Te  Te3  1  0.38703800  0.84206800  0.00003900  1
  Te  Te4  1  0.84202900  0.38699900  0.99996100  1
  Te  Te5  1  0.61300100  0.61296200  0.45503000  1
  Te  Te6  1  0.15793200  0.15797100  0.54497000  1
