# generated using pymatgen
data_InCl2
_symmetry_space_group_name_H-M   'P 1'
_cell_length_a   7.70263900
_cell_length_b   10.19560600
_cell_length_c   10.51913300
_cell_angle_alpha   90.00000000
_cell_angle_beta   90.00000000
_cell_angle_gamma   90.00000000
_symmetry_Int_Tables_number   1
_chemical_formula_structural   InCl2
_chemical_formula_sum   'In8 Cl16'
_cell_volume   826.09983352
_cell_formula_units_Z   8
loop_
 _symmetry_equiv_pos_site_id
 _symmetry_equiv_pos_as_xyz
  1  'x, y, z'
loop_
 _atom_site_type_symbol
 _atom_site_label
 _atom_site_symmetry_multiplicity
 _atom_site_fract_x
 _atom_site_fract_y
 _atom_site_fract_z
 _atom_site_occupancy
  In  In0  1  0.75000000  0.68591500  0.50000000  1
  In  In1  1  0.25000000  0.31408500  0.50000000  1
  In  In2  1  0.75000000  0.81408500  0.00000000  1
  In  In3  1  0.25000000  0.18591500  0.00000000  1
  In  In4  1  0.17745500  0.75000000  0.75000000  1
  In  In5  1  0.82254500  0.25000000  0.25000000  1
  In  In6  1  0.32254500  0.75000000  0.25000000  1
  In  In7  1  0.67745500  0.25000000  0.75000000  1
  Cl  Cl8  1  0.49428200  0.81409500  0.53870600  1
  Cl  Cl9  1  0.50571800  0.18590500  0.46129400  1
  Cl  Cl10  1  0.00571800  0.81409500  0.46129400  1
  Cl  Cl11  1  0.00571800  0.68590500  0.03870600  1
  Cl  Cl12  1  0.99428200  0.18590500  0.53870600  1
  Cl  Cl13  1  0.99428200  0.31409500  0.96129400  1
  Cl  Cl14  1  0.49428200  0.68590500  0.96129400  1
  Cl  Cl15  1  0.50571800  0.31409500  0.03870600  1
  Cl  Cl16  1  0.83494200  0.55673700  0.68008900  1
  Cl  Cl17  1  0.16505800  0.44326300  0.31991100  1
  Cl  Cl18  1  0.66505800  0.55673700  0.31991100  1
  Cl  Cl19  1  0.66505800  0.94326300  0.18008900  1
  Cl  Cl20  1  0.33494200  0.44326300  0.68008900  1
  Cl  Cl21  1  0.33494200  0.05673700  0.81991100  1
  Cl  Cl22  1  0.83494200  0.94326300  0.81991100  1
  Cl  Cl23  1  0.16505800  0.05673700  0.18008900  1
