# generated using pymatgen
data_NpGa4
_symmetry_space_group_name_H-M   'P 1'
_cell_length_a   7.91092518
_cell_length_b   7.91092518
_cell_length_c   7.91092518
_cell_angle_alpha   147.95463227
_cell_angle_beta   133.28673495
_cell_angle_gamma   57.77279023
_symmetry_Int_Tables_number   1
_chemical_formula_structural   NpGa4
_chemical_formula_sum   'Np2 Ga8'
_cell_volume   189.74327304
_cell_formula_units_Z   2
loop_
 _symmetry_equiv_pos_site_id
 _symmetry_equiv_pos_as_xyz
  1  'x, y, z'
loop_
 _atom_site_type_symbol
 _atom_site_label
 _atom_site_symmetry_multiplicity
 _atom_site_fract_x
 _atom_site_fract_y
 _atom_site_fract_z
 _atom_site_occupancy
  Np  Np0  1  0.63702800  0.88702800  0.75000000  1
  Np  Np1  1  0.36297200  0.11297200  0.25000000  1
  Ga  Ga2  1  0.00000000  0.50000000  0.50000000  1
  Ga  Ga3  1  0.50000000  0.50000000  0.00000000  1
  Ga  Ga4  1  0.85576800  0.10576800  0.75000000  1
  Ga  Ga5  1  0.14423200  0.89423200  0.25000000  1
  Ga  Ga6  1  0.16966700  0.69839800  0.47126900  1
  Ga  Ga7  1  0.83033300  0.30160200  0.52873100  1
  Ga  Ga8  1  0.27287100  0.30160200  0.97126900  1
  Ga  Ga9  1  0.72712900  0.69839800  0.02873100  1
