# generated using pymatgen
data_Y3Rh
_symmetry_space_group_name_H-M   'P 1'
_cell_length_a   6.30358800
_cell_length_b   7.24215900
_cell_length_c   9.52673300
_cell_angle_alpha   90.00000000
_cell_angle_beta   90.00000000
_cell_angle_gamma   90.00000000
_symmetry_Int_Tables_number   1
_chemical_formula_structural   Y3Rh
_chemical_formula_sum   'Y12 Rh4'
_cell_volume   434.91047625
_cell_formula_units_Z   4
loop_
 _symmetry_equiv_pos_site_id
 _symmetry_equiv_pos_as_xyz
  1  'x, y, z'
loop_
 _atom_site_type_symbol
 _atom_site_label
 _atom_site_symmetry_multiplicity
 _atom_site_fract_x
 _atom_site_fract_y
 _atom_site_fract_z
 _atom_site_occupancy
  Y  Y0  1  0.63863800  0.03485500  0.25000000  1
  Y  Y1  1  0.36136200  0.96514500  0.75000000  1
  Y  Y2  1  0.13863800  0.46514500  0.75000000  1
  Y  Y3  1  0.86136200  0.53485500  0.25000000  1
  Y  Y4  1  0.17036300  0.17907600  0.06415500  1
  Y  Y5  1  0.82963700  0.82092400  0.93584500  1
  Y  Y6  1  0.67036300  0.32092400  0.93584500  1
  Y  Y7  1  0.82963700  0.82092400  0.56415500  1
  Y  Y8  1  0.32963700  0.67907600  0.06415500  1
  Y  Y9  1  0.17036300  0.17907600  0.43584500  1
  Y  Y10  1  0.32963700  0.67907600  0.43584500  1
  Y  Y11  1  0.67036300  0.32092400  0.56415500  1
  Rh  Rh12  1  0.44372600  0.38250900  0.25000000  1
  Rh  Rh13  1  0.55627400  0.61749100  0.75000000  1
  Rh  Rh14  1  0.94372600  0.11749100  0.75000000  1
  Rh  Rh15  1  0.05627400  0.88250900  0.25000000  1
