# generated using pymatgen
data_Rb5In(MoO4)4
_symmetry_space_group_name_H-M   'P 1'
_cell_length_a   8.16638400
_cell_length_b   11.35763300
_cell_length_c   11.65478578
_cell_angle_alpha   66.23886770
_cell_angle_beta   90.00000000
_cell_angle_gamma   90.00000000
_symmetry_Int_Tables_number   1
_chemical_formula_structural   Rb5In(MoO4)4
_chemical_formula_sum   'Rb10 In2 Mo8 O32'
_cell_volume   989.35851176
_cell_formula_units_Z   2
loop_
 _symmetry_equiv_pos_site_id
 _symmetry_equiv_pos_as_xyz
  1  'x, y, z'
loop_
 _atom_site_type_symbol
 _atom_site_label
 _atom_site_symmetry_multiplicity
 _atom_site_fract_x
 _atom_site_fract_y
 _atom_site_fract_z
 _atom_site_occupancy
  Rb  Rb0  1  0.34918500  0.84437100  0.10294200  1
  Rb  Rb1  1  0.65081500  0.15562900  0.89705800  1
  Rb  Rb2  1  0.34918500  0.65562900  0.89705800  1
  Rb  Rb3  1  0.65081500  0.34437100  0.10294200  1
  Rb  Rb4  1  0.86804700  0.35469100  0.59371700  1
  Rb  Rb5  1  0.13195300  0.64530900  0.40628300  1
  Rb  Rb6  1  0.86804700  0.14530900  0.40628300  1
  Rb  Rb7  1  0.13195300  0.85469100  0.59371700  1
  Rb  Rb8  1  0.61059000  0.75000000  0.50000000  1
  Rb  Rb9  1  0.38941000  0.25000000  0.50000000  1
  In  In10  1  0.91387600  0.75000000  0.00000000  1
  In  In11  1  0.08612400  0.25000000  0.00000000  1
  Mo  Mo12  1  0.66033900  0.55782400  0.28264600  1
  Mo  Mo13  1  0.33966100  0.44217600  0.71735400  1
  Mo  Mo14  1  0.66033900  0.94217600  0.71735400  1
  Mo  Mo15  1  0.33966100  0.05782400  0.28264600  1
  Mo  Mo16  1  0.85435600  0.94417700  0.19472200  1
  Mo  Mo17  1  0.14564400  0.05582300  0.80527800  1
  Mo  Mo18  1  0.85435600  0.55582300  0.80527800  1
  Mo  Mo19  1  0.14564400  0.44417700  0.19472200  1
  O  O20  1  0.89150100  0.11811800  0.11425100  1
  O  O21  1  0.10849900  0.88188200  0.88574900  1
  O  O22  1  0.89150100  0.38188200  0.88574900  1
  O  O23  1  0.10849900  0.61811800  0.11425100  1
  O  O24  1  0.72242500  0.62394400  0.11455700  1
  O  O25  1  0.27757500  0.37605600  0.88544300  1
  O  O26  1  0.72242500  0.87605600  0.88544300  1
  O  O27  1  0.27757500  0.12394400  0.11455700  1
  O  O28  1  0.90711100  0.89384200  0.35515200  1
  O  O29  1  0.09288900  0.10615800  0.64484800  1
  O  O30  1  0.90711100  0.60615800  0.64484800  1
  O  O31  1  0.09288900  0.39384200  0.35515200  1
  O  O32  1  0.45837600  0.60553900  0.30448600  1
  O  O33  1  0.54162400  0.39446100  0.69551400  1
  O  O34  1  0.45837600  0.89446100  0.69551400  1
  O  O35  1  0.54162400  0.10553900  0.30448600  1
  O  O36  1  0.97002600  0.85162900  0.12502600  1
  O  O37  1  0.02997400  0.14837100  0.87497400  1
  O  O38  1  0.97002600  0.64837100  0.87497400  1
  O  O39  1  0.02997400  0.35162900  0.12502600  1
  O  O40  1  0.64363200  0.91937600  0.17818000  1
  O  O41  1  0.35636800  0.08062400  0.82182000  1
  O  O42  1  0.64363200  0.58062400  0.82182000  1
  O  O43  1  0.35636800  0.41937600  0.17818000  1
  O  O44  1  0.32440500  0.88609600  0.34677700  1
  O  O45  1  0.67559500  0.11390400  0.65322300  1
  O  O46  1  0.32440500  0.61390400  0.65322300  1
  O  O47  1  0.67559500  0.38609600  0.34677700  1
  O  O48  1  0.79409400  0.61165600  0.37160500  1
  O  O49  1  0.20590600  0.38834400  0.62839500  1
  O  O50  1  0.79409400  0.88834400  0.62839500  1
  O  O51  1  0.20590600  0.11165600  0.37160500  1
