# generated using pymatgen
data_Y3In2(GaO4)3
_symmetry_space_group_name_H-M   'P 1'
_cell_length_a   11.02551144
_cell_length_b   11.02551144
_cell_length_c   11.02551144
_cell_angle_alpha   109.47122063
_cell_angle_beta   109.47122063
_cell_angle_gamma   109.47122063
_symmetry_Int_Tables_number   1
_chemical_formula_structural   Y3In2(GaO4)3
_chemical_formula_sum   'Y12 In8 Ga12 O48'
_cell_volume   1031.74967874
_cell_formula_units_Z   4
loop_
 _symmetry_equiv_pos_site_id
 _symmetry_equiv_pos_as_xyz
  1  'x, y, z'
loop_
 _atom_site_type_symbol
 _atom_site_label
 _atom_site_symmetry_multiplicity
 _atom_site_fract_x
 _atom_site_fract_y
 _atom_site_fract_z
 _atom_site_occupancy
  Y  Y0  1  0.25000000  0.37500000  0.12500000  1
  Y  Y1  1  0.75000000  0.62500000  0.87500000  1
  Y  Y2  1  0.75000000  0.12500000  0.37500000  1
  Y  Y3  1  0.12500000  0.25000000  0.37500000  1
  Y  Y4  1  0.37500000  0.75000000  0.12500000  1
  Y  Y5  1  0.25000000  0.87500000  0.62500000  1
  Y  Y6  1  0.87500000  0.75000000  0.62500000  1
  Y  Y7  1  0.62500000  0.25000000  0.87500000  1
  Y  Y8  1  0.37500000  0.12500000  0.25000000  1
  Y  Y9  1  0.62500000  0.87500000  0.75000000  1
  Y  Y10  1  0.12500000  0.37500000  0.75000000  1
  Y  Y11  1  0.87500000  0.62500000  0.25000000  1
  In  In12  1  0.00000000  0.00000000  0.00000000  1
  In  In13  1  0.50000000  0.00000000  0.50000000  1
  In  In14  1  0.00000000  0.50000000  0.50000000  1
  In  In15  1  0.50000000  0.00000000  0.00000000  1
  In  In16  1  0.50000000  0.50000000  0.00000000  1
  In  In17  1  0.50000000  0.50000000  0.50000000  1
  In  In18  1  0.00000000  0.00000000  0.50000000  1
  In  In19  1  0.00000000  0.50000000  0.00000000  1
  Ga  Ga20  1  0.25000000  0.62500000  0.37500000  1
  Ga  Ga21  1  0.75000000  0.37500000  0.62500000  1
  Ga  Ga22  1  0.75000000  0.87500000  0.12500000  1
  Ga  Ga23  1  0.37500000  0.25000000  0.62500000  1
  Ga  Ga24  1  0.62500000  0.75000000  0.37500000  1
  Ga  Ga25  1  0.25000000  0.12500000  0.87500000  1
  Ga  Ga26  1  0.12500000  0.75000000  0.87500000  1
  Ga  Ga27  1  0.87500000  0.25000000  0.12500000  1
  Ga  Ga28  1  0.62500000  0.37500000  0.25000000  1
  Ga  Ga29  1  0.37500000  0.62500000  0.75000000  1
  Ga  Ga30  1  0.87500000  0.12500000  0.75000000  1
  Ga  Ga31  1  0.12500000  0.87500000  0.25000000  1
  O  O32  1  0.46716300  0.37010600  0.28197500  1
  O  O33  1  0.53283700  0.62989400  0.71802500  1
  O  O34  1  0.58813100  0.18518800  0.21802500  1
  O  O35  1  0.91186900  0.12989400  0.59705700  1
  O  O36  1  0.28197500  0.46716300  0.37010600  1
  O  O37  1  0.31481200  0.91186900  0.28197500  1
  O  O38  1  0.41186900  0.81481200  0.78197500  1
  O  O39  1  0.08813100  0.87010600  0.40294300  1
  O  O40  1  0.71802500  0.53283700  0.62989400  1
  O  O41  1  0.68518800  0.08813100  0.71802500  1
  O  O42  1  0.03283700  0.31481200  0.90294300  1
  O  O43  1  0.21802500  0.58813100  0.18518800  1
  O  O44  1  0.12989400  0.03283700  0.21802500  1
  O  O45  1  0.96716300  0.68518800  0.09705700  1
  O  O46  1  0.78197500  0.41186900  0.81481200  1
  O  O47  1  0.87010600  0.96716300  0.78197500  1
  O  O48  1  0.59705700  0.91186900  0.12989400  1
  O  O49  1  0.18518800  0.46716300  0.59705700  1
  O  O50  1  0.40294300  0.08813100  0.87010600  1
  O  O51  1  0.81481200  0.53283700  0.40294300  1
  O  O52  1  0.90294300  0.03283700  0.31481200  1
  O  O53  1  0.37010600  0.58813100  0.90294300  1
  O  O54  1  0.09705700  0.96716300  0.68518800  1
  O  O55  1  0.62989400  0.41186900  0.09705700  1
  O  O56  1  0.37010600  0.28197500  0.46716300  1
  O  O57  1  0.58813100  0.90294300  0.37010600  1
  O  O58  1  0.62989400  0.71802500  0.53283700  1
  O  O59  1  0.41186900  0.09705700  0.62989400  1
  O  O60  1  0.12989400  0.59705700  0.91186900  1
  O  O61  1  0.03283700  0.21802500  0.12989400  1
  O  O62  1  0.87010600  0.40294300  0.08813100  1
  O  O63  1  0.96716300  0.78197500  0.87010600  1
  O  O64  1  0.31481200  0.90294300  0.03283700  1
  O  O65  1  0.91186900  0.28197500  0.31481200  1
  O  O66  1  0.68518800  0.09705700  0.96716300  1
  O  O67  1  0.08813100  0.71802500  0.68518800  1
  O  O68  1  0.18518800  0.21802500  0.58813100  1
  O  O69  1  0.46716300  0.59705700  0.18518800  1
  O  O70  1  0.81481200  0.78197500  0.41186900  1
  O  O71  1  0.53283700  0.40294300  0.81481200  1
  O  O72  1  0.28197500  0.31481200  0.91186900  1
  O  O73  1  0.71802500  0.68518800  0.08813100  1
  O  O74  1  0.21802500  0.12989400  0.03283700  1
  O  O75  1  0.78197500  0.87010600  0.96716300  1
  O  O76  1  0.90294300  0.37010600  0.58813100  1
  O  O77  1  0.09705700  0.62989400  0.41186900  1
  O  O78  1  0.59705700  0.18518800  0.46716300  1
  O  O79  1  0.40294300  0.81481200  0.53283700  1
