# generated using pymatgen
data_LiTmSn
_symmetry_space_group_name_H-M   'P 1'
_cell_length_a   9.31617729
_cell_length_b   9.31617729
_cell_length_c   7.18990700
_cell_angle_alpha   90.00000000
_cell_angle_beta   90.00000000
_cell_angle_gamma   119.99999499
_symmetry_Int_Tables_number   1
_chemical_formula_structural   LiTmSn
_chemical_formula_sum   'Li8 Tm8 Sn8'
_cell_volume   540.41751535
_cell_formula_units_Z   8
loop_
 _symmetry_equiv_pos_site_id
 _symmetry_equiv_pos_as_xyz
  1  'x, y, z'
loop_
 _atom_site_type_symbol
 _atom_site_label
 _atom_site_symmetry_multiplicity
 _atom_site_fract_x
 _atom_site_fract_y
 _atom_site_fract_z
 _atom_site_occupancy
  Li  Li0  1  0.83326700  0.66653400  0.71233600  1
  Li  Li1  1  0.83326700  0.16673300  0.71233600  1
  Li  Li2  1  0.33333300  0.66666700  0.82148000  1
  Li  Li3  1  0.66666700  0.33333300  0.32148000  1
  Li  Li4  1  0.66653400  0.83326700  0.21233600  1
  Li  Li5  1  0.16673300  0.33346600  0.21233600  1
  Li  Li6  1  0.16673300  0.83326700  0.21233600  1
  Li  Li7  1  0.33346600  0.16673300  0.71233600  1
  Tm  Tm8  1  0.00000000  0.00000000  0.00082400  1
  Tm  Tm9  1  0.00000000  0.00000000  0.50082400  1
  Tm  Tm10  1  0.51138500  0.48861500  0.00642200  1
  Tm  Tm11  1  0.02277000  0.51138500  0.50642200  1
  Tm  Tm12  1  0.48861500  0.97723000  0.50642200  1
  Tm  Tm13  1  0.51138500  0.02277000  0.00642200  1
  Tm  Tm14  1  0.97723000  0.48861500  0.00642200  1
  Tm  Tm15  1  0.48861500  0.51138500  0.50642200  1
  Sn  Sn16  1  0.16667500  0.83332500  0.76991900  1
  Sn  Sn17  1  0.66666700  0.33333300  0.74066500  1
  Sn  Sn18  1  0.33333300  0.66666700  0.24066500  1
  Sn  Sn19  1  0.83332500  0.16667500  0.26991900  1
  Sn  Sn20  1  0.16667500  0.33335100  0.76991900  1
  Sn  Sn21  1  0.33335100  0.16667500  0.26991900  1
  Sn  Sn22  1  0.83332500  0.66664900  0.26991900  1
  Sn  Sn23  1  0.66664900  0.83332500  0.76991900  1
