# generated using pymatgen
data_TiP2W
_symmetry_space_group_name_H-M   'P 1'
_cell_length_a   6.03223217
_cell_length_b   6.03223217
_cell_length_c   6.03223217
_cell_angle_alpha   148.92778168
_cell_angle_beta   148.31892276
_cell_angle_gamma   44.96796308
_symmetry_Int_Tables_number   1
_chemical_formula_structural   TiP2W
_chemical_formula_sum   'Ti1 P2 W1'
_cell_volume   59.31231581
_cell_formula_units_Z   1
loop_
 _symmetry_equiv_pos_site_id
 _symmetry_equiv_pos_as_xyz
  1  'x, y, z'
loop_
 _atom_site_type_symbol
 _atom_site_label
 _atom_site_symmetry_multiplicity
 _atom_site_fract_x
 _atom_site_fract_y
 _atom_site_fract_z
 _atom_site_occupancy
  Ti  Ti0  1  0.00288100  0.00288100  0.00000000  1
  P  P1  1  0.33523300  0.83523300  0.50000000  1
  P  P2  1  0.58207300  0.58207300  0.00000000  1
  W  W3  1  0.74781300  0.24781300  0.50000000  1
