# generated using pymatgen
data_NaZn2(BH4)5
_symmetry_space_group_name_H-M   'P 1'
_cell_length_a   16.75411300
_cell_length_b   9.15092200
_cell_length_c   9.29977654
_cell_angle_alpha   69.21405955
_cell_angle_beta   90.00000000
_cell_angle_gamma   90.00000000
_symmetry_Int_Tables_number   1
_chemical_formula_structural   NaZn2(BH4)5
_chemical_formula_sum   'Na4 Zn8 B20 H80'
_cell_volume   1332.99925480
_cell_formula_units_Z   4
loop_
 _symmetry_equiv_pos_site_id
 _symmetry_equiv_pos_as_xyz
  1  'x, y, z'
loop_
 _atom_site_type_symbol
 _atom_site_label
 _atom_site_symmetry_multiplicity
 _atom_site_fract_x
 _atom_site_fract_y
 _atom_site_fract_z
 _atom_site_occupancy
  Na  Na0  1  0.93539100  0.32915400  0.30545100  1
  Na  Na1  1  0.43539100  0.17084600  0.69454900  1
  Na  Na2  1  0.06460900  0.67084600  0.69454900  1
  Na  Na3  1  0.56460900  0.82915400  0.30545100  1
  Zn  Zn4  1  0.27163500  0.87543100  0.29517300  1
  Zn  Zn5  1  0.77163500  0.62456900  0.70482700  1
  Zn  Zn6  1  0.72836500  0.12456900  0.70482700  1
  Zn  Zn7  1  0.22836500  0.37543100  0.29517300  1
  Zn  Zn8  1  0.12675800  0.10900900  0.86543700  1
  Zn  Zn9  1  0.62675800  0.39099100  0.13456300  1
  Zn  Zn10  1  0.87324200  0.89099100  0.13456300  1
  Zn  Zn11  1  0.37324200  0.60900900  0.86543700  1
  B  B12  1  0.81674000  0.22288300  0.52261100  1
  B  B13  1  0.31674000  0.27711700  0.47738900  1
  B  B14  1  0.18326000  0.77711700  0.47738900  1
  B  B15  1  0.68326000  0.72288300  0.52261100  1
  B  B16  1  0.59909600  0.14651900  0.70519200  1
  B  B17  1  0.09909600  0.35348100  0.29480800  1
  B  B18  1  0.40090400  0.85348100  0.29480800  1
  B  B19  1  0.90090400  0.64651900  0.70519200  1
  B  B20  1  0.20963600  0.02345600  0.07289500  1
  B  B21  1  0.70963600  0.47654400  0.92710500  1
  B  B22  1  0.79036400  0.97654400  0.92710500  1
  B  B23  1  0.29036400  0.52345600  0.07289500  1
  B  B24  1  0.08822200  0.91449900  0.79602400  1
  B  B25  1  0.58822200  0.58550100  0.20397600  1
  B  B26  1  0.91177800  0.08550100  0.20397600  1
  B  B27  1  0.41177800  0.41449900  0.79602400  1
  B  B28  1  0.39652200  0.86053500  0.77513100  1
  B  B29  1  0.89652200  0.63946500  0.22486900  1
  B  B30  1  0.60347800  0.13946500  0.22486900  1
  B  B31  1  0.10347800  0.36053500  0.77513100  1
  H  H32  1  0.79160400  0.08414600  0.56349800  1
  H  H33  1  0.29160400  0.41585400  0.43650200  1
  H  H34  1  0.20839600  0.91585400  0.43650200  1
  H  H35  1  0.70839600  0.58414600  0.56349800  1
  H  H36  1  0.79857800  0.28265600  0.38857200  1
  H  H37  1  0.29857800  0.21734400  0.61142800  1
  H  H38  1  0.20142200  0.71734400  0.61142800  1
  H  H39  1  0.70142200  0.78265600  0.38857200  1
  H  H40  1  0.78503900  0.30416800  0.59098500  1
  H  H41  1  0.28503900  0.19583200  0.40901500  1
  H  H42  1  0.21496100  0.69583200  0.40901500  1
  H  H43  1  0.71496100  0.80416800  0.59098500  1
  H  H44  1  0.88684900  0.21186600  0.55764400  1
  H  H45  1  0.38684900  0.28813400  0.44235600  1
  H  H46  1  0.11315100  0.78813400  0.44235600  1
  H  H47  1  0.61315100  0.71186600  0.55764400  1
  H  H48  1  0.56019600  0.07751000  0.81910000  1
  H  H49  1  0.06019600  0.42249000  0.18090000  1
  H  H50  1  0.43980400  0.92249000  0.18090000  1
  H  H51  1  0.93980400  0.57751000  0.81910000  1
  H  H52  1  0.64447700  0.23607900  0.74328900  1
  H  H53  1  0.14447700  0.26392100  0.25671100  1
  H  H54  1  0.35552300  0.76392100  0.25671100  1
  H  H55  1  0.85552300  0.73607900  0.74328900  1
  H  H56  1  0.63392600  0.04209600  0.66932500  1
  H  H57  1  0.13392600  0.45790400  0.33067500  1
  H  H58  1  0.36607400  0.95790400  0.33067500  1
  H  H59  1  0.86607400  0.54209600  0.66932500  1
  H  H60  1  0.56518300  0.22799700  0.58976100  1
  H  H61  1  0.06518300  0.27200300  0.41023900  1
  H  H62  1  0.43481700  0.77200300  0.41023900  1
  H  H63  1  0.93481700  0.72799700  0.58976100  1
  H  H64  1  0.23919700  0.06829500  0.94370200  1
  H  H65  1  0.73919700  0.43170500  0.05629800  1
  H  H66  1  0.76080300  0.93170500  0.05629800  1
  H  H67  1  0.26080300  0.56829500  0.94370200  1
  H  H68  1  0.13838500  0.05163400  0.08629400  1
  H  H69  1  0.63838500  0.44836600  0.91370600  1
  H  H70  1  0.86161500  0.94836600  0.91370600  1
  H  H71  1  0.36161500  0.55163400  0.08629400  1
  H  H72  1  0.21514200  0.87903500  0.11998900  1
  H  H73  1  0.71514200  0.62096500  0.88001100  1
  H  H74  1  0.78485800  0.12096500  0.88001100  1
  H  H75  1  0.28485800  0.37903500  0.11998900  1
  H  H76  1  0.24627800  0.09337500  0.14308500  1
  H  H77  1  0.74627800  0.40662500  0.85691500  1
  H  H78  1  0.75372200  0.90662500  0.85691500  1
  H  H79  1  0.25372200  0.59337500  0.14308500  1
  H  H80  1  0.14662100  0.00371800  0.73803800  1
  H  H81  1  0.64662100  0.49628200  0.26196200  1
  H  H82  1  0.85337900  0.99628200  0.26196200  1
  H  H83  1  0.35337900  0.50371800  0.73803800  1
  H  H84  1  0.11714100  0.78620900  0.86181100  1
  H  H85  1  0.61714100  0.71379100  0.13818900  1
  H  H86  1  0.88285900  0.21379100  0.13818900  1
  H  H87  1  0.38285900  0.28620900  0.86181100  1
  H  H88  1  0.04792500  0.94776800  0.89398600  1
  H  H89  1  0.54792500  0.55223200  0.10601400  1
  H  H90  1  0.95207500  0.05223200  0.10601400  1
  H  H91  1  0.45207500  0.44776800  0.89398600  1
  H  H92  1  0.04505200  0.92997200  0.68767800  1
  H  H93  1  0.54505200  0.57002800  0.31232200  1
  H  H94  1  0.95494800  0.07002800  0.31232200  1
  H  H95  1  0.45494800  0.42997200  0.68767800  1
  H  H96  1  0.43053500  0.92642500  0.65488900  1
  H  H97  1  0.93053500  0.57357500  0.34511100  1
  H  H98  1  0.56946500  0.07357500  0.34511100  1
  H  H99  1  0.06946500  0.42642500  0.65488900  1
  H  H100  1  0.33454500  0.80348000  0.74052300  1
  H  H101  1  0.83454500  0.69652000  0.25947700  1
  H  H102  1  0.66545500  0.19652000  0.25947700  1
  H  H103  1  0.16545500  0.30348000  0.74052300  1
  H  H104  1  0.44576300  0.76215700  0.85789200  1
  H  H105  1  0.94576300  0.73784300  0.14210800  1
  H  H106  1  0.55423700  0.23784300  0.14210800  1
  H  H107  1  0.05423700  0.26215700  0.85789200  1
  H  H108  1  0.37468700  0.93701700  0.85129900  1
  H  H109  1  0.87468700  0.56298300  0.14870100  1
  H  H110  1  0.62531300  0.06298300  0.14870100  1
  H  H111  1  0.12531300  0.43701700  0.85129900  1
