# generated using pymatgen
data_TcF4
_symmetry_space_group_name_H-M   'P 1'
_cell_length_a   5.48498600
_cell_length_b   10.00239800
_cell_length_c   11.78177400
_cell_angle_alpha   90.00000000
_cell_angle_beta   90.00000000
_cell_angle_gamma   90.00000000
_symmetry_Int_Tables_number   1
_chemical_formula_structural   TcF4
_chemical_formula_sum   'Tc8 F32'
_cell_volume   646.38362008
_cell_formula_units_Z   8
loop_
 _symmetry_equiv_pos_site_id
 _symmetry_equiv_pos_as_xyz
  1  'x, y, z'
loop_
 _atom_site_type_symbol
 _atom_site_label
 _atom_site_symmetry_multiplicity
 _atom_site_fract_x
 _atom_site_fract_y
 _atom_site_fract_z
 _atom_site_occupancy
  Tc  Tc0  1  0.59448800  0.62787800  0.17610100  1
  Tc  Tc1  1  0.40551200  0.12787800  0.32389900  1
  Tc  Tc2  1  0.90551200  0.37212200  0.67610100  1
  Tc  Tc3  1  0.09448800  0.87212200  0.82389900  1
  Tc  Tc4  1  0.40551200  0.37212200  0.82389900  1
  Tc  Tc5  1  0.59448800  0.87212200  0.67610100  1
  Tc  Tc6  1  0.09448800  0.62787800  0.32389900  1
  Tc  Tc7  1  0.90551200  0.12787800  0.17610100  1
  F  F8  1  0.40900200  0.73143200  0.30639700  1
  F  F9  1  0.59099800  0.23143200  0.19360300  1
  F  F10  1  0.09099800  0.26856800  0.80639700  1
  F  F11  1  0.90900200  0.76856800  0.69360300  1
  F  F12  1  0.59099800  0.26856800  0.69360300  1
  F  F13  1  0.40900200  0.76856800  0.80639700  1
  F  F14  1  0.90900200  0.73143200  0.19360300  1
  F  F15  1  0.09099800  0.23143200  0.30639700  1
  F  F16  1  0.28071300  0.52421100  0.19391100  1
  F  F17  1  0.71928700  0.02421100  0.30608900  1
  F  F18  1  0.21928700  0.47578900  0.69391100  1
  F  F19  1  0.78071300  0.97578900  0.80608900  1
  F  F20  1  0.71928700  0.47578900  0.80608900  1
  F  F21  1  0.28071300  0.97578900  0.69391100  1
  F  F22  1  0.78071300  0.52421100  0.30608900  1
  F  F23  1  0.21928700  0.02421100  0.19391100  1
  F  F24  1  0.45634700  0.74522900  0.07157700  1
  F  F25  1  0.54365300  0.24522900  0.42842300  1
  F  F26  1  0.04365300  0.25477100  0.57157700  1
  F  F27  1  0.95634700  0.75477100  0.92842300  1
  F  F28  1  0.54365300  0.25477100  0.92842300  1
  F  F29  1  0.45634700  0.75477100  0.57157700  1
  F  F30  1  0.95634700  0.74522900  0.42842300  1
  F  F31  1  0.04365300  0.24522900  0.07157700  1
  F  F32  1  0.73152000  0.51023400  0.07149400  1
  F  F33  1  0.26848000  0.01023400  0.42850600  1
  F  F34  1  0.76848000  0.48976600  0.57149400  1
  F  F35  1  0.23152000  0.98976600  0.92850600  1
  F  F36  1  0.26848000  0.48976600  0.92850600  1
  F  F37  1  0.73152000  0.98976600  0.57149400  1
  F  F38  1  0.23152000  0.51023400  0.42850600  1
  F  F39  1  0.76848000  0.01023400  0.07149400  1
