# generated using pymatgen
data_Cs8Ga11
_symmetry_space_group_name_H-M   'P 1'
_cell_length_a   18.13348313
_cell_length_b   18.13348313
_cell_length_c   18.13348268
_cell_angle_alpha   32.43867149
_cell_angle_beta   32.43867149
_cell_angle_gamma   32.43867285
_symmetry_Int_Tables_number   1
_chemical_formula_structural   Cs8Ga11
_chemical_formula_sum   'Cs16 Ga22'
_cell_volume   1525.35830232
_cell_formula_units_Z   2
loop_
 _symmetry_equiv_pos_site_id
 _symmetry_equiv_pos_as_xyz
  1  'x, y, z'
loop_
 _atom_site_type_symbol
 _atom_site_label
 _atom_site_symmetry_multiplicity
 _atom_site_fract_x
 _atom_site_fract_y
 _atom_site_fract_z
 _atom_site_occupancy
  Cs  Cs0  1  0.40289000  0.18636200  0.84232300  1
  Cs  Cs1  1  0.84232300  0.40289000  0.18636200  1
  Cs  Cs2  1  0.18636200  0.84232300  0.40289000  1
  Cs  Cs3  1  0.34232300  0.68636200  0.90289000  1
  Cs  Cs4  1  0.90289000  0.34232300  0.68636200  1
  Cs  Cs5  1  0.68636200  0.90289000  0.34232300  1
  Cs  Cs6  1  0.59711000  0.81363800  0.15767700  1
  Cs  Cs7  1  0.15767700  0.59711000  0.81363800  1
  Cs  Cs8  1  0.81363800  0.15767700  0.59711000  1
  Cs  Cs9  1  0.65767700  0.31363800  0.09711000  1
  Cs  Cs10  1  0.09711000  0.65767700  0.31363800  1
  Cs  Cs11  1  0.31363800  0.09711000  0.65767700  1
  Cs  Cs12  1  0.42218400  0.42218400  0.42218400  1
  Cs  Cs13  1  0.92218400  0.92218400  0.92218400  1
  Cs  Cs14  1  0.57781600  0.57781600  0.57781600  1
  Cs  Cs15  1  0.07781600  0.07781600  0.07781600  1
  Ga  Ga16  1  0.43688600  0.06311400  0.25000000  1
  Ga  Ga17  1  0.25000000  0.43688600  0.06311400  1
  Ga  Ga18  1  0.06311400  0.25000000  0.43688600  1
  Ga  Ga19  1  0.75000000  0.56311400  0.93688600  1
  Ga  Ga20  1  0.93688600  0.75000000  0.56311400  1
  Ga  Ga21  1  0.56311400  0.93688600  0.75000000  1
  Ga  Ga22  1  0.79412700  0.79412700  0.79412700  1
  Ga  Ga23  1  0.29412700  0.29412700  0.29412700  1
  Ga  Ga24  1  0.20587300  0.20587300  0.20587300  1
  Ga  Ga25  1  0.70587300  0.70587300  0.70587300  1
  Ga  Ga26  1  0.03284300  0.52492300  0.77353900  1
  Ga  Ga27  1  0.77353900  0.03284300  0.52492300  1
  Ga  Ga28  1  0.52492300  0.77353900  0.03284300  1
  Ga  Ga29  1  0.27353900  0.02492300  0.53284300  1
  Ga  Ga30  1  0.53284300  0.27353900  0.02492300  1
  Ga  Ga31  1  0.02492300  0.53284300  0.27353900  1
  Ga  Ga32  1  0.96715700  0.47507700  0.22646100  1
  Ga  Ga33  1  0.22646100  0.96715700  0.47507700  1
  Ga  Ga34  1  0.47507700  0.22646100  0.96715700  1
  Ga  Ga35  1  0.72646100  0.97507700  0.46715700  1
  Ga  Ga36  1  0.46715700  0.72646100  0.97507700  1
  Ga  Ga37  1  0.97507700  0.46715700  0.72646100  1
