# generated using pymatgen
data_RbSc(WO4)2
_symmetry_space_group_name_H-M   'P 1'
_cell_length_a   7.49052521
_cell_length_b   7.49052521
_cell_length_c   7.38975964
_cell_angle_alpha   61.83686205
_cell_angle_beta   61.83686205
_cell_angle_gamma   86.43869701
_symmetry_Int_Tables_number   1
_chemical_formula_structural   RbSc(WO4)2
_chemical_formula_sum   'Rb2 Sc2 W4 O16'
_cell_volume   315.29985922
_cell_formula_units_Z   2
loop_
 _symmetry_equiv_pos_site_id
 _symmetry_equiv_pos_as_xyz
  1  'x, y, z'
loop_
 _atom_site_type_symbol
 _atom_site_label
 _atom_site_symmetry_multiplicity
 _atom_site_fract_x
 _atom_site_fract_y
 _atom_site_fract_z
 _atom_site_occupancy
  Rb  Rb0  1  0.19879000  0.80121000  0.75000000  1
  Rb  Rb1  1  0.80121000  0.19879000  0.25000000  1
  Sc  Sc2  1  0.78040000  0.21960000  0.75000000  1
  Sc  Sc3  1  0.21960000  0.78040000  0.25000000  1
  W  W4  1  0.70328900  0.69048500  0.79118500  1
  W  W5  1  0.29671100  0.30951500  0.20881500  1
  W  W6  1  0.30951500  0.29671100  0.70881500  1
  W  W7  1  0.69048500  0.70328900  0.29118500  1
  O  O8  1  0.61899800  0.75662300  0.56243000  1
  O  O9  1  0.38100200  0.24337700  0.43757000  1
  O  O10  1  0.24337700  0.38100200  0.93757000  1
  O  O11  1  0.75662300  0.61899800  0.06243000  1
  O  O12  1  0.34713500  0.04274700  0.89298800  1
  O  O13  1  0.65286500  0.95725300  0.10701200  1
  O  O14  1  0.95725300  0.65286500  0.60701200  1
  O  O15  1  0.04274700  0.34713500  0.39298800  1
  O  O16  1  0.60290000  0.37286800  0.95208700  1
  O  O17  1  0.39710000  0.62713200  0.04791300  1
  O  O18  1  0.62713200  0.39710000  0.54791300  1
  O  O19  1  0.37286800  0.60290000  0.45208700  1
  O  O20  1  0.76767700  0.96385000  0.70376500  1
  O  O21  1  0.23232300  0.03615000  0.29623500  1
  O  O22  1  0.03615000  0.23232300  0.79623500  1
  O  O23  1  0.96385000  0.76767700  0.20376500  1
