# generated using pymatgen
data_KFeAs3H7O13
_symmetry_space_group_name_H-M   'P 1'
_cell_length_a   4.76563082
_cell_length_b   8.73561300
_cell_length_c   14.25900582
_cell_angle_alpha   90.00000000
_cell_angle_beta   94.62827422
_cell_angle_gamma   90.00000000
_symmetry_Int_Tables_number   1
_chemical_formula_structural   KFeAs3H7O13
_chemical_formula_sum   'K2 Fe2 As6 H14 O26'
_cell_volume   591.67682309
_cell_formula_units_Z   2
loop_
 _symmetry_equiv_pos_site_id
 _symmetry_equiv_pos_as_xyz
  1  'x, y, z'
loop_
 _atom_site_type_symbol
 _atom_site_label
 _atom_site_symmetry_multiplicity
 _atom_site_fract_x
 _atom_site_fract_y
 _atom_site_fract_z
 _atom_site_occupancy
  K  K0  1  0.12751200  0.00645000  0.51259100  1
  K  K1  1  0.62751200  0.99355000  0.01259100  1
  Fe  Fe2  1  0.25072500  0.22714700  0.74933500  1
  Fe  Fe3  1  0.75072500  0.77285300  0.24933500  1
  As  As4  1  0.74951500  0.96522100  0.74871200  1
  As  As5  1  0.24951500  0.03477900  0.24871200  1
  As  As6  1  0.70768400  0.35469000  0.60175800  1
  As  As7  1  0.29637100  0.65446200  0.39640200  1
  As  As8  1  0.79637100  0.34553800  0.89640200  1
  As  As9  1  0.20768400  0.64531000  0.10175800  1
  H  H10  1  0.48465200  0.77036400  0.80598100  1
  H  H11  1  0.51417800  0.22935800  0.19222000  1
  H  H12  1  0.01417800  0.77064200  0.69222000  1
  H  H13  1  0.98465200  0.22963600  0.30598100  1
  H  H14  1  0.40858300  0.32573500  0.46985300  1
  H  H15  1  0.60632700  0.66305300  0.52681000  1
  H  H16  1  0.10632700  0.33694700  0.02681000  1
  H  H17  1  0.90858300  0.67426500  0.96985300  1
  H  H18  1  0.34980500  0.58266400  0.71043100  1
  H  H19  1  0.64991200  0.41571100  0.28911800  1
  H  H20  1  0.14991200  0.58428900  0.78911800  1
  H  H21  1  0.84980500  0.41733600  0.21043100  1
  H  H22  1  0.02334100  0.49715600  0.48455400  1
  H  H23  1  0.52334100  0.50284400  0.98455400  1
  O  O24  1  0.47880100  0.39246400  0.68636400  1
  O  O25  1  0.52876100  0.60707700  0.31623600  1
  O  O26  1  0.02876100  0.39292300  0.81623600  1
  O  O27  1  0.97880100  0.60753600  0.18636400  1
  O  O28  1  0.53448800  0.25180100  0.50595500  1
  O  O29  1  0.46112400  0.73916000  0.49813800  1
  O  O30  1  0.96112400  0.26084000  0.99813800  1
  O  O31  1  0.03448800  0.74819900  0.00595500  1
  O  O32  1  0.24915000  0.65660300  0.74921000  1
  O  O33  1  0.74915000  0.34339700  0.24921000  1
  O  O34  1  0.97471300  0.23025500  0.63473200  1
  O  O35  1  0.02668300  0.77700100  0.36657200  1
  O  O36  1  0.52668300  0.22299900  0.86657200  1
  O  O37  1  0.47471300  0.76974500  0.13473200  1
  O  O38  1  0.47330800  0.05834600  0.69092400  1
  O  O39  1  0.51601400  0.93663800  0.30804700  1
  O  O40  1  0.01601400  0.06336200  0.80804700  1
  O  O41  1  0.97330800  0.94165400  0.19092400  1
  O  O42  1  0.82339700  0.52281500  0.55762400  1
  O  O43  1  0.16681800  0.47791600  0.43263100  1
  O  O44  1  0.66681800  0.52208400  0.93263100  1
  O  O45  1  0.32339700  0.47718500  0.05762400  1
  O  O46  1  0.63428000  0.84216000  0.83545300  1
  O  O47  1  0.37435700  0.15324500  0.16145200  1
  O  O48  1  0.87435700  0.84675500  0.66145200  1
  O  O49  1  0.13428000  0.15784000  0.33545300  1
