# generated using pymatgen
data_BaP2
_symmetry_space_group_name_H-M   'P 1'
_cell_length_a   12.27642300
_cell_length_b   6.44397500
_cell_length_c   7.79450726
_cell_angle_alpha   53.29184492
_cell_angle_beta   90.00000000
_cell_angle_gamma   90.00000000
_symmetry_Int_Tables_number   1
_chemical_formula_structural   BaP2
_chemical_formula_sum   'Ba6 P12'
_cell_volume   494.33474253
_cell_formula_units_Z   6
loop_
 _symmetry_equiv_pos_site_id
 _symmetry_equiv_pos_as_xyz
  1  'x, y, z'
loop_
 _atom_site_type_symbol
 _atom_site_label
 _atom_site_symmetry_multiplicity
 _atom_site_fract_x
 _atom_site_fract_y
 _atom_site_fract_z
 _atom_site_occupancy
  Ba  Ba0  1  0.83805400  0.22794400  0.66789700  1
  Ba  Ba1  1  0.33805400  0.77205600  0.83210300  1
  Ba  Ba2  1  0.16194600  0.77205600  0.33210300  1
  Ba  Ba3  1  0.66194600  0.22794400  0.16789700  1
  Ba  Ba4  1  0.50000000  0.50000000  0.50000000  1
  Ba  Ba5  1  0.00000000  0.50000000  0.00000000  1
  P  P6  1  0.60749700  0.93252200  0.69627100  1
  P  P7  1  0.10749700  0.06747800  0.80372900  1
  P  P8  1  0.39250300  0.06747800  0.30372900  1
  P  P9  1  0.89250300  0.93252200  0.19627100  1
  P  P10  1  0.87267200  0.82055700  0.53252400  1
  P  P11  1  0.37267200  0.17944300  0.96747600  1
  P  P12  1  0.12732800  0.17944300  0.46747600  1
  P  P13  1  0.62732800  0.82055700  0.03252400  1
  P  P14  1  0.70506700  0.67952200  0.65285800  1
  P  P15  1  0.20506700  0.32047800  0.84714200  1
  P  P16  1  0.29493300  0.32047800  0.34714200  1
  P  P17  1  0.79493300  0.67952200  0.15285800  1
