# generated using pymatgen
data_CsCr(SO4)2
_symmetry_space_group_name_H-M   'P 1'
_cell_length_a   5.12121314
_cell_length_b   5.12112504
_cell_length_c   17.78481112
_cell_angle_alpha   89.98693918
_cell_angle_beta   89.99469572
_cell_angle_gamma   59.99509576
_symmetry_Int_Tables_number   1
_chemical_formula_structural   CsCr(SO4)2
_chemical_formula_sum   'Cs2 Cr2 S4 O16'
_cell_volume   403.92119643
_cell_formula_units_Z   2
loop_
 _symmetry_equiv_pos_site_id
 _symmetry_equiv_pos_as_xyz
  1  'x, y, z'
loop_
 _atom_site_type_symbol
 _atom_site_label
 _atom_site_symmetry_multiplicity
 _atom_site_fract_x
 _atom_site_fract_y
 _atom_site_fract_z
 _atom_site_occupancy
  Cs  Cs0  1  0.00038400  0.99949300  0.25003500  1
  Cs  Cs1  1  0.00039100  0.99974900  0.74993700  1
  Cr  Cr2  1  0.99998700  0.99989100  0.50002600  1
  Cr  Cr3  1  0.00035800  0.00002000  0.99988300  1
  S  S4  1  0.33323100  0.33340200  0.40312100  1
  S  S5  1  0.33337700  0.33340700  0.90306500  1
  S  S6  1  0.66668600  0.66663300  0.09690700  1
  S  S7  1  0.66658800  0.66666800  0.59696000  1
  O  O8  1  0.33309700  0.33372300  0.32089600  1
  O  O9  1  0.33364400  0.33316000  0.82084200  1
  O  O10  1  0.66677600  0.66632800  0.17913600  1
  O  O11  1  0.66633700  0.66686700  0.67918200  1
  O  O12  1  0.64741700  0.21859100  0.43031100  1
  O  O13  1  0.64730800  0.21879000  0.93033100  1
  O  O14  1  0.21855000  0.13392700  0.43030700  1
  O  O15  1  0.21863300  0.13404800  0.93026300  1
  O  O16  1  0.86591600  0.78157100  0.06969000  1
  O  O17  1  0.86607500  0.78130800  0.56974700  1
  O  O18  1  0.13387000  0.64751700  0.43031600  1
  O  O19  1  0.13380700  0.64757000  0.93022600  1
  O  O20  1  0.35246300  0.86613100  0.06969600  1
  O  O21  1  0.35250400  0.86610600  0.56970800  1
  O  O22  1  0.78129700  0.35257300  0.06966000  1
  O  O23  1  0.78130200  0.35252700  0.56975500  1
