# generated using pymatgen
data_Pr5As2ClO10
_symmetry_space_group_name_H-M   'P 1'
_cell_length_a   6.94793861
_cell_length_b   6.94793861
_cell_length_c   9.21679338
_cell_angle_alpha   66.03947535
_cell_angle_beta   66.03947535
_cell_angle_gamma   49.18524616
_symmetry_Int_Tables_number   1
_chemical_formula_structural   Pr5As2ClO10
_chemical_formula_sum   'Pr5 As2 Cl1 O10'
_cell_volume   301.28478454
_cell_formula_units_Z   1
loop_
 _symmetry_equiv_pos_site_id
 _symmetry_equiv_pos_as_xyz
  1  'x, y, z'
loop_
 _atom_site_type_symbol
 _atom_site_label
 _atom_site_symmetry_multiplicity
 _atom_site_fract_x
 _atom_site_fract_y
 _atom_site_fract_z
 _atom_site_occupancy
  Pr  Pr0  1  0.00000000  0.00000000  0.00000000  1
  Pr  Pr1  1  0.25223700  0.25223700  0.12925300  1
  Pr  Pr2  1  0.74776300  0.74776300  0.87074700  1
  Pr  Pr3  1  0.49976300  0.49976300  0.70803400  1
  Pr  Pr4  1  0.50023700  0.50023700  0.29196600  1
  As  As5  1  0.21535300  0.21535300  0.60942200  1
  As  As6  1  0.78464700  0.78464700  0.39057800  1
  Cl  Cl7  1  0.00000000  0.00000000  0.50000000  1
  O  O8  1  0.86673200  0.37418100  0.08379900  1
  O  O9  1  0.37418100  0.86673200  0.08379900  1
  O  O10  1  0.13326800  0.62581900  0.91620100  1
  O  O11  1  0.62581900  0.13326800  0.91620100  1
  O  O12  1  0.35900300  0.35900300  0.60329600  1
  O  O13  1  0.64099700  0.64099700  0.39670400  1
  O  O14  1  0.09292500  0.62383200  0.24647300  1
  O  O15  1  0.62383200  0.09292500  0.24647300  1
  O  O16  1  0.90707500  0.37616800  0.75352700  1
  O  O17  1  0.37616800  0.90707500  0.75352700  1
