# generated using pymatgen
data_Li3Lu(NO3)6
_symmetry_space_group_name_H-M   'P 1'
_cell_length_a   7.56761900
_cell_length_b   7.81839700
_cell_length_c   25.14951400
_cell_angle_alpha   73.14076340
_cell_angle_beta   90.00000000
_cell_angle_gamma   90.00000000
_symmetry_Int_Tables_number   1
_chemical_formula_structural   Li3Lu(NO3)6
_chemical_formula_sum   'Li12 Lu4 N24 O72'
_cell_volume   1424.05795132
_cell_formula_units_Z   4
loop_
 _symmetry_equiv_pos_site_id
 _symmetry_equiv_pos_as_xyz
  1  'x, y, z'
loop_
 _atom_site_type_symbol
 _atom_site_label
 _atom_site_symmetry_multiplicity
 _atom_site_fract_x
 _atom_site_fract_y
 _atom_site_fract_z
 _atom_site_occupancy
  Li  Li0  1  0.18423300  0.92771700  0.36601500  1
  Li  Li1  1  0.81576700  0.07228300  0.63398500  1
  Li  Li2  1  0.68423300  0.07228300  0.13398500  1
  Li  Li3  1  0.31576700  0.92771700  0.86601500  1
  Li  Li4  1  0.44207500  0.74430500  0.25468000  1
  Li  Li5  1  0.55792500  0.25569500  0.74532000  1
  Li  Li6  1  0.94207500  0.25569500  0.24532000  1
  Li  Li7  1  0.05792500  0.74430500  0.75468000  1
  Li  Li8  1  0.71007400  0.78339700  0.47401700  1
  Li  Li9  1  0.28992600  0.21660300  0.52598300  1
  Li  Li10  1  0.21007400  0.21660300  0.02598300  1
  Li  Li11  1  0.78992600  0.78339700  0.97401700  1
  Lu  Lu12  1  0.69396500  0.36696800  0.39031900  1
  Lu  Lu13  1  0.30603500  0.63303200  0.60968100  1
  Lu  Lu14  1  0.19396500  0.63303200  0.10968100  1
  Lu  Lu15  1  0.80603500  0.36696800  0.89031900  1
  N  N16  1  0.20180500  0.00005700  0.26463200  1
  N  N17  1  0.79819500  0.99994300  0.73536800  1
  N  N18  1  0.70180500  0.99994300  0.23536800  1
  N  N19  1  0.29819500  0.00005700  0.76463200  1
  N  N20  1  0.69796800  0.46827800  0.27075600  1
  N  N21  1  0.30203200  0.53172200  0.72924400  1
  N  N22  1  0.19796800  0.53172200  0.22924400  1
  N  N23  1  0.80203200  0.46827800  0.77075600  1
  N  N24  1  0.50576900  0.79974900  0.05443900  1
  N  N25  1  0.49423100  0.20025100  0.94556100  1
  N  N26  1  0.00576900  0.20025100  0.44556100  1
  N  N27  1  0.99423100  0.79974900  0.55443900  1
  N  N28  1  0.87258900  0.53554800  0.06429000  1
  N  N29  1  0.12741100  0.46445200  0.93571000  1
  N  N30  1  0.37258900  0.46445200  0.43571000  1
  N  N31  1  0.62741100  0.53554800  0.56429000  1
  N  N32  1  0.88486200  0.67957100  0.39336200  1
  N  N33  1  0.11513800  0.32042900  0.60663800  1
  N  N34  1  0.38486200  0.32042900  0.10663800  1
  N  N35  1  0.61513800  0.67957100  0.89336200  1
  N  N36  1  0.99369200  0.95463600  0.09759400  1
  N  N37  1  0.00630800  0.04536400  0.90240600  1
  N  N38  1  0.49369200  0.04536400  0.40240600  1
  N  N39  1  0.50630800  0.95463600  0.59759400  1
  O  O40  1  0.60309000  0.54771200  0.29910700  1
  O  O41  1  0.39691000  0.45228800  0.70089300  1
  O  O42  1  0.10309000  0.45228800  0.20089300  1
  O  O43  1  0.89691000  0.54771200  0.79910700  1
  O  O44  1  0.47461700  0.80403300  0.10378400  1
  O  O45  1  0.52538300  0.19596700  0.89621600  1
  O  O46  1  0.97461700  0.19596700  0.39621600  1
  O  O47  1  0.02538300  0.80403300  0.60378400  1
  O  O48  1  0.39031200  0.72050900  0.03250900  1
  O  O49  1  0.60968800  0.27949100  0.96749100  1
  O  O50  1  0.89031200  0.27949100  0.46749100  1
  O  O51  1  0.10968800  0.72050900  0.53250900  1
  O  O52  1  0.69973200  0.51111700  0.21997600  1
  O  O53  1  0.30026800  0.48888300  0.78002400  1
  O  O54  1  0.19973200  0.48888300  0.28002400  1
  O  O55  1  0.80026800  0.51111700  0.71997600  1
  O  O56  1  0.73676800  0.50089300  0.04239300  1
  O  O57  1  0.26323200  0.49910700  0.95760700  1
  O  O58  1  0.23676800  0.49910700  0.45760700  1
  O  O59  1  0.76323200  0.50089300  0.54239300  1
  O  O60  1  0.95204900  0.80779500  0.13288000  1
  O  O61  1  0.04795100  0.19220500  0.86712000  1
  O  O62  1  0.45204900  0.19220500  0.36712000  1
  O  O63  1  0.54795100  0.80779500  0.63288000  1
  O  O64  1  0.64118000  0.86898200  0.02900300  1
  O  O65  1  0.35882000  0.13101800  0.97099700  1
  O  O66  1  0.14118000  0.13101800  0.47099700  1
  O  O67  1  0.85882000  0.86898200  0.52900300  1
  O  O68  1  0.70375500  0.95868800  0.28671200  1
  O  O69  1  0.29624500  0.04131200  0.71328800  1
  O  O70  1  0.20375500  0.04131200  0.21328800  1
  O  O71  1  0.79624500  0.95868800  0.78671200  1
  O  O72  1  0.36084100  0.95489600  0.57075900  1
  O  O73  1  0.63915900  0.04510400  0.42924100  1
  O  O74  1  0.86084100  0.04510400  0.92924100  1
  O  O75  1  0.13915900  0.95489600  0.07075900  1
  O  O76  1  0.96647200  0.80805500  0.40077900  1
  O  O77  1  0.03352800  0.19194500  0.59922100  1
  O  O78  1  0.46647200  0.19194500  0.09922100  1
  O  O79  1  0.53352800  0.80805500  0.90077900  1
  O  O80  1  0.98028000  0.66137700  0.03581900  1
  O  O81  1  0.01972000  0.33862300  0.96418100  1
  O  O82  1  0.48028000  0.33862300  0.46418100  1
  O  O83  1  0.51972000  0.66137700  0.53581900  1
  O  O84  1  0.91834100  0.45940700  0.11365100  1
  O  O85  1  0.08165900  0.54059300  0.88634900  1
  O  O86  1  0.41834100  0.54059300  0.38634900  1
  O  O87  1  0.58165900  0.45940700  0.61365100  1
  O  O88  1  0.79182200  0.33798000  0.30112300  1
  O  O89  1  0.20817800  0.66202000  0.69887700  1
  O  O90  1  0.29182200  0.66202000  0.19887700  1
  O  O91  1  0.70817800  0.33798000  0.80112300  1
  O  O92  1  0.40217200  0.90836100  0.41185500  1
  O  O93  1  0.59782800  0.09163900  0.58814500  1
  O  O94  1  0.90217200  0.09163900  0.08814500  1
  O  O95  1  0.09782800  0.90836100  0.91185500  1
  O  O96  1  0.93573700  0.58812300  0.36219700  1
  O  O97  1  0.06426300  0.41187700  0.63780300  1
  O  O98  1  0.43573700  0.41187700  0.13780300  1
  O  O99  1  0.56426300  0.58812300  0.86219700  1
  O  O100  1  0.73712900  0.63138300  0.41925900  1
  O  O101  1  0.26287100  0.36861700  0.58074100  1
  O  O102  1  0.23712900  0.36861700  0.08074100  1
  O  O103  1  0.76287100  0.63138300  0.91925900  1
  O  O104  1  0.60840000  0.91424300  0.20882000  1
  O  O105  1  0.39160000  0.08575700  0.79118000  1
  O  O106  1  0.10840000  0.08575700  0.29118000  1
  O  O107  1  0.89160000  0.91424300  0.70882000  1
  O  O108  1  0.29181700  0.86938800  0.29523200  1
  O  O109  1  0.70818300  0.13061200  0.70476800  1
  O  O110  1  0.79181700  0.13061200  0.20476800  1
  O  O111  1  0.20818300  0.86938800  0.79523200  1
