# generated using pymatgen
data_Nd2Mo4O15
_symmetry_space_group_name_H-M   'P 1'
_cell_length_a   9.62446400
_cell_length_b   11.22211955
_cell_length_c   11.77715722
_cell_angle_alpha   104.46191729
_cell_angle_beta   109.42847958
_cell_angle_gamma   108.84862722
_symmetry_Int_Tables_number   1
_chemical_formula_structural   Nd2Mo4O15
_chemical_formula_sum   'Nd6 Mo12 O45'
_cell_volume   1040.36512688
_cell_formula_units_Z   3
loop_
 _symmetry_equiv_pos_site_id
 _symmetry_equiv_pos_as_xyz
  1  'x, y, z'
loop_
 _atom_site_type_symbol
 _atom_site_label
 _atom_site_symmetry_multiplicity
 _atom_site_fract_x
 _atom_site_fract_y
 _atom_site_fract_z
 _atom_site_occupancy
  Nd  Nd0  1  0.33249300  0.65744000  0.79747700  1
  Nd  Nd1  1  0.66750700  0.34256000  0.20252300  1
  Nd  Nd2  1  0.23293000  0.22344200  0.17446000  1
  Nd  Nd3  1  0.76707000  0.77655800  0.82554000  1
  Nd  Nd4  1  0.78270400  0.94326000  0.40922500  1
  Nd  Nd5  1  0.21729600  0.05674000  0.59077500  1
  Mo  Mo6  1  0.47388200  0.56317100  0.13101900  1
  Mo  Mo7  1  0.52611800  0.43682900  0.86898100  1
  Mo  Mo8  1  0.26713200  0.98313000  0.92149800  1
  Mo  Mo9  1  0.73286800  0.01687000  0.07850200  1
  Mo  Mo10  1  0.09346200  0.53576900  0.18131400  1
  Mo  Mo11  1  0.90653800  0.46423100  0.81868600  1
  Mo  Mo12  1  0.08315200  0.30887700  0.44815900  1
  Mo  Mo13  1  0.91684800  0.69112300  0.55184100  1
  Mo  Mo14  1  0.93252800  0.13185400  0.79660000  1
  Mo  Mo15  1  0.06747200  0.86814600  0.20340000  1
  Mo  Mo16  1  0.41643600  0.77738100  0.51949100  1
  Mo  Mo17  1  0.58356400  0.22261900  0.48050900  1
  O  O18  1  0.45147400  0.42560100  0.19368100  1
  O  O19  1  0.54852600  0.57439900  0.80631900  1
  O  O20  1  0.32459600  0.60855600  0.16152900  1
  O  O21  1  0.67540400  0.39144400  0.83847100  1
  O  O22  1  0.38504300  0.14345100  0.06807600  1
  O  O23  1  0.61495700  0.85654900  0.93192400  1
  O  O24  1  0.05754400  0.92027100  0.89279300  1
  O  O25  1  0.94245600  0.07972900  0.10720700  1
  O  O26  1  0.33466400  0.85573400  0.94276600  1
  O  O27  1  0.66533600  0.14426600  0.05723400  1
  O  O28  1  0.41121300  0.55441900  0.95757800  1
  O  O29  1  0.58878700  0.44558100  0.04242200  1
  O  O30  1  0.08825400  0.50436200  0.80091500  1
  O  O31  1  0.91174600  0.49563800  0.19908500  1
  O  O32  1  0.18876900  0.46015100  0.59540600  1
  O  O33  1  0.11438100  0.38356800  0.16748500  1
  O  O34  1  0.21918700  0.30638800  0.37571900  1
  O  O35  1  0.88561900  0.61643200  0.83251500  1
  O  O36  1  0.41625700  0.16231000  0.51830900  1
  O  O37  1  0.58374300  0.83769000  0.48169100  1
  O  O38  1  0.33914700  0.28815400  0.75500200  1
  O  O39  1  0.66085300  0.71184600  0.24499800  1
  O  O40  1  0.28441200  0.01728700  0.78494200  1
  O  O41  1  0.71558800  0.98271300  0.21505800  1
  O  O42  1  0.96611100  0.84367100  0.51379800  1
  O  O43  1  0.03388900  0.15632900  0.48620200  1
  O  O44  1  0.03207100  0.93051200  0.34264100  1
  O  O45  1  0.96792900  0.06948800  0.65735900  1
  O  O46  1  0.65506300  0.09651000  0.44782200  1
  O  O47  1  0.34493700  0.90349000  0.55217800  1
  O  O48  1  0.52651700  0.26853400  0.34108400  1
  O  O49  1  0.47348300  0.73146600  0.65891600  1
  O  O50  1  0.75139000  0.37710200  0.62144700  1
  O  O51  1  0.24861000  0.62289800  0.37855300  1
  O  O52  1  0.00000000  0.50000000  0.00000000  1
  O  O53  1  0.21734100  0.01061300  0.20191000  1
  O  O54  1  0.78265900  0.98938700  0.79809000  1
  O  O55  1  0.14808100  0.74396000  0.22040500  1
  O  O56  1  0.85191900  0.25604000  0.77959500  1
  O  O57  1  0.88300100  0.79171900  0.05406500  1
  O  O58  1  0.11699900  0.20828100  0.94593500  1
  O  O59  1  0.10332200  0.69792700  0.66050400  1
  O  O60  1  0.89667800  0.30207300  0.33949600  1
  O  O61  1  0.78081300  0.69361200  0.62428100  1
  O  O62  1  0.81123100  0.53984900  0.40459400  1
