# generated using pymatgen
data_BaNdCuS3
_symmetry_space_group_name_H-M   'P 1'
_cell_length_a   4.20777900
_cell_length_b   11.18536600
_cell_length_c   11.94068900
_cell_angle_alpha   90.00000000
_cell_angle_beta   90.00000000
_cell_angle_gamma   90.00000000
_symmetry_Int_Tables_number   1
_chemical_formula_structural   BaNdCuS3
_chemical_formula_sum   'Ba4 Nd4 Cu4 S12'
_cell_volume   561.99507322
_cell_formula_units_Z   4
loop_
 _symmetry_equiv_pos_site_id
 _symmetry_equiv_pos_as_xyz
  1  'x, y, z'
loop_
 _atom_site_type_symbol
 _atom_site_label
 _atom_site_symmetry_multiplicity
 _atom_site_fract_x
 _atom_site_fract_y
 _atom_site_fract_z
 _atom_site_occupancy
  Ba  Ba0  1  0.75000000  0.68583100  0.00609200  1
  Ba  Ba1  1  0.75000000  0.18583100  0.49390800  1
  Ba  Ba2  1  0.25000000  0.31416900  0.99390800  1
  Ba  Ba3  1  0.25000000  0.81416900  0.50609200  1
  Nd  Nd4  1  0.75000000  0.00933800  0.81444500  1
  Nd  Nd5  1  0.75000000  0.50933800  0.68555500  1
  Nd  Nd6  1  0.25000000  0.99066200  0.18555600  1
  Nd  Nd7  1  0.25000000  0.49066200  0.31444500  1
  Cu  Cu8  1  0.25000000  0.24777500  0.71036000  1
  Cu  Cu9  1  0.25000000  0.74777500  0.78964000  1
  Cu  Cu10  1  0.75000000  0.75222500  0.28964000  1
  Cu  Cu11  1  0.75000000  0.25222500  0.21036000  1
  S  S12  1  0.75000000  0.27284200  0.79925900  1
  S  S13  1  0.75000000  0.77284200  0.70074100  1
  S  S14  1  0.25000000  0.72715800  0.20074100  1
  S  S15  1  0.25000000  0.22715800  0.29925900  1
  S  S16  1  0.75000000  0.10656100  0.06386700  1
  S  S17  1  0.75000000  0.60656100  0.43613300  1
  S  S18  1  0.25000000  0.89343900  0.93613300  1
  S  S19  1  0.25000000  0.39343900  0.56386700  1
  S  S20  1  0.25000000  0.04913800  0.65162500  1
  S  S21  1  0.25000000  0.54913800  0.84837500  1
  S  S22  1  0.75000000  0.95086200  0.34837500  1
  S  S23  1  0.75000000  0.45086200  0.15162500  1
