# generated using pymatgen
data_Sc2Al
_symmetry_space_group_name_H-M   'P 1'
_cell_length_a   4.90069580
_cell_length_b   4.90069580
_cell_length_c   6.17185800
_cell_angle_alpha   90.00000000
_cell_angle_beta   90.00000000
_cell_angle_gamma   119.99999728
_symmetry_Int_Tables_number   1
_chemical_formula_structural   Sc2Al
_chemical_formula_sum   'Sc4 Al2'
_cell_volume   128.36956210
_cell_formula_units_Z   2
loop_
 _symmetry_equiv_pos_site_id
 _symmetry_equiv_pos_as_xyz
  1  'x, y, z'
loop_
 _atom_site_type_symbol
 _atom_site_label
 _atom_site_symmetry_multiplicity
 _atom_site_fract_x
 _atom_site_fract_y
 _atom_site_fract_z
 _atom_site_occupancy
  Sc  Sc0  1  0.00000000  0.00000000  0.50000000  1
  Sc  Sc1  1  0.00000000  0.00000000  0.00000000  1
  Sc  Sc2  1  0.33333300  0.66666700  0.75000000  1
  Sc  Sc3  1  0.66666700  0.33333300  0.25000000  1
  Al  Al4  1  0.33333300  0.66666700  0.25000000  1
  Al  Al5  1  0.66666700  0.33333300  0.75000000  1
