# generated using pymatgen
data_K3As(PSe3)3
_symmetry_space_group_name_H-M   'P 1'
_cell_length_a   23.86420300
_cell_length_b   8.29782400
_cell_length_c   12.45042449
_cell_angle_alpha   55.43282588
_cell_angle_beta   90.00000000
_cell_angle_gamma   90.00000000
_symmetry_Int_Tables_number   1
_chemical_formula_structural   K3As(PSe3)3
_chemical_formula_sum   'K12 As4 P12 Se36'
_cell_volume   2030.19916230
_cell_formula_units_Z   4
loop_
 _symmetry_equiv_pos_site_id
 _symmetry_equiv_pos_as_xyz
  1  'x, y, z'
loop_
 _atom_site_type_symbol
 _atom_site_label
 _atom_site_symmetry_multiplicity
 _atom_site_fract_x
 _atom_site_fract_y
 _atom_site_fract_z
 _atom_site_occupancy
  K  K0  1  0.83325400  0.89919700  0.72070900  1
  K  K1  1  0.33325400  0.10080300  0.77929100  1
  K  K2  1  0.16674600  0.10080300  0.27929100  1
  K  K3  1  0.66674600  0.89919700  0.22070900  1
  K  K4  1  0.69090700  0.37220100  0.74668900  1
  K  K5  1  0.19090700  0.62779900  0.75331100  1
  K  K6  1  0.30909300  0.62779900  0.25331100  1
  K  K7  1  0.80909300  0.37220100  0.24668900  1
  K  K8  1  0.97426800  0.34138700  0.76931500  1
  K  K9  1  0.47426800  0.65861300  0.73068500  1
  K  K10  1  0.02573200  0.65861300  0.23068500  1
  K  K11  1  0.52573200  0.34138700  0.26931500  1
  As  As12  1  0.57667200  0.96280600  0.72988600  1
  As  As13  1  0.07667200  0.03719400  0.77011400  1
  As  As14  1  0.42332800  0.03719400  0.27011400  1
  As  As15  1  0.92332800  0.96280600  0.22988600  1
  P  P16  1  0.66569500  0.94410500  0.52840400  1
  P  P17  1  0.16569500  0.05589500  0.97159600  1
  P  P18  1  0.33430500  0.05589500  0.47159600  1
  P  P19  1  0.83430500  0.94410500  0.02840400  1
  P  P20  1  0.02737400  0.87812700  0.58055600  1
  P  P21  1  0.52737400  0.12187300  0.91944400  1
  P  P22  1  0.97262600  0.12187300  0.41944400  1
  P  P23  1  0.47262600  0.87812700  0.08055600  1
  P  P24  1  0.32603000  0.73256000  0.54773000  1
  P  P25  1  0.82603000  0.26744000  0.95227000  1
  P  P26  1  0.67397000  0.26744000  0.45227000  1
  P  P27  1  0.17397000  0.73256000  0.04773000  1
  Se  Se28  1  0.60299000  0.94206400  0.92692800  1
  Se  Se29  1  0.10299000  0.05793600  0.57307200  1
  Se  Se30  1  0.39701000  0.05793600  0.07307200  1
  Se  Se31  1  0.89701000  0.94206400  0.42692800  1
  Se  Se32  1  0.91520500  0.88460600  0.97687200  1
  Se  Se33  1  0.41520500  0.11539400  0.52312800  1
  Se  Se34  1  0.08479500  0.11539400  0.02312800  1
  Se  Se35  1  0.58479500  0.88460600  0.47687200  1
  Se  Se36  1  0.75964000  0.85965300  0.97441800  1
  Se  Se37  1  0.25964000  0.14034700  0.52558200  1
  Se  Se38  1  0.24036000  0.14034700  0.02558200  1
  Se  Se39  1  0.74036000  0.85965300  0.47441800  1
  Se  Se40  1  0.66782500  0.80713600  0.74825400  1
  Se  Se41  1  0.16782500  0.19286400  0.75174600  1
  Se  Se42  1  0.33217500  0.19286400  0.25174600  1
  Se  Se43  1  0.83217500  0.80713600  0.24825400  1
  Se  Se44  1  0.98295600  0.75671200  0.76375500  1
  Se  Se45  1  0.48295600  0.24328800  0.73624500  1
  Se  Se46  1  0.01704400  0.24328800  0.23624500  1
  Se  Se47  1  0.51704400  0.75671200  0.26375500  1
  Se  Se48  1  0.05944800  0.68958900  0.52676700  1
  Se  Se49  1  0.55944800  0.31041100  0.97323300  1
  Se  Se50  1  0.94055200  0.31041100  0.47323300  1
  Se  Se51  1  0.44055200  0.68958900  0.02676700  1
  Se  Se52  1  0.83773800  0.44439800  0.74230000  1
  Se  Se53  1  0.33773800  0.55560200  0.75770000  1
  Se  Se54  1  0.16226200  0.55560200  0.25770000  1
  Se  Se55  1  0.66226200  0.44439800  0.24230000  1
  Se  Se56  1  0.75150900  0.31798900  0.51998900  1
  Se  Se57  1  0.25150900  0.68201100  0.98001100  1
  Se  Se58  1  0.24849100  0.68201100  0.48001100  1
  Se  Se59  1  0.74849100  0.31798900  0.01998900  1
  Se  Se60  1  0.59640800  0.30357200  0.55024300  1
  Se  Se61  1  0.09640800  0.69642800  0.94975700  1
  Se  Se62  1  0.40359200  0.69642800  0.44975700  1
  Se  Se63  1  0.90359200  0.30357200  0.05024300  1
