# generated using pymatgen
data_Na2Mg5(MoO4)6
_symmetry_space_group_name_H-M   'P 1'
_cell_length_a   7.05431305
_cell_length_b   8.66996664
_cell_length_c   10.40028931
_cell_angle_alpha   106.73021770
_cell_angle_beta   104.63118284
_cell_angle_gamma   103.08364035
_symmetry_Int_Tables_number   1
_chemical_formula_structural   Na2Mg5(MoO4)6
_chemical_formula_sum   'Na2 Mg5 Mo6 O24'
_cell_volume   557.86196645
_cell_formula_units_Z   1
loop_
 _symmetry_equiv_pos_site_id
 _symmetry_equiv_pos_as_xyz
  1  'x, y, z'
loop_
 _atom_site_type_symbol
 _atom_site_label
 _atom_site_symmetry_multiplicity
 _atom_site_fract_x
 _atom_site_fract_y
 _atom_site_fract_z
 _atom_site_occupancy
  Na  Na0  1  0.00517600  0.50243100  0.00671500  1
  Na  Na1  1  0.28586000  0.29221900  0.30050900  1
  Mg  Mg2  1  0.38097400  0.95678100  0.10696300  1
  Mg  Mg3  1  0.62952000  0.04724200  0.89782800  1
  Mg  Mg4  1  0.95482300  0.79697200  0.48145900  1
  Mg  Mg5  1  0.03701300  0.19651700  0.51368800  1
  Mg  Mg6  1  0.72312500  0.72161200  0.69830800  1
  Mo  Mo7  1  0.40682600  0.74224800  0.37504000  1
  Mo  Mo8  1  0.59548300  0.27173800  0.63299100  1
  Mo  Mo9  1  0.88201100  0.90251700  0.16553200  1
  Mo  Mo10  1  0.11436900  0.08660300  0.83005200  1
  Mo  Mo11  1  0.78580700  0.33600600  0.23780000  1
  Mo  Mo12  1  0.22045400  0.66527700  0.76120600  1
  O  O13  1  0.24567000  0.81268300  0.46909200  1
  O  O14  1  0.75336200  0.19535200  0.53824900  1
  O  O15  1  0.66849400  0.96423700  0.07398500  1
  O  O16  1  0.33165900  0.02523500  0.91567100  1
  O  O17  1  0.82544600  0.68507500  0.07782200  1
  O  O18  1  0.15976700  0.30107500  0.92075000  1
  O  O19  1  0.11811200  0.00360100  0.14334700  1
  O  O20  1  0.86957600  0.97082200  0.84052200  1
  O  O21  1  0.44585800  0.85847100  0.26201100  1
  O  O22  1  0.58170400  0.16751900  0.75749500  1
  O  O23  1  0.26450100  0.52982000  0.25847400  1
  O  O24  1  0.71417800  0.50076300  0.72560100  1
  O  O25  1  0.79256100  0.29147900  0.05881300  1
  O  O26  1  0.22371300  0.70619400  0.94079800  1
  O  O27  1  0.83288400  0.55629800  0.32836900  1
  O  O28  1  0.15780800  0.44463800  0.67200500  1
  O  O29  1  0.91832900  0.94024800  0.35373500  1
  O  O30  1  0.07958800  0.05618400  0.64523800  1
  O  O31  1  0.97618500  0.26770500  0.33958500  1
  O  O32  1  0.01797000  0.73537900  0.66721400  1
  O  O33  1  0.64920500  0.74980900  0.50514000  1
  O  O34  1  0.34258200  0.23237700  0.51130300  1
  O  O35  1  0.53470100  0.21845200  0.22794200  1
  O  O36  1  0.47470900  0.76841800  0.75874700  1
