# generated using pymatgen
data_K4Mn3P6(HO3)8
_symmetry_space_group_name_H-M   'P 1'
_cell_length_a   6.66580000
_cell_length_b   9.05672000
_cell_length_c   20.13239196
_cell_angle_alpha   66.21980617
_cell_angle_beta   90.00000000
_cell_angle_gamma   90.00000000
_symmetry_Int_Tables_number   1
_chemical_formula_structural   K4Mn3P6(HO3)8
_chemical_formula_sum   'K8 Mn6 P12 H16 O48'
_cell_volume   1112.20983499
_cell_formula_units_Z   2
loop_
 _symmetry_equiv_pos_site_id
 _symmetry_equiv_pos_as_xyz
  1  'x, y, z'
loop_
 _atom_site_type_symbol
 _atom_site_label
 _atom_site_symmetry_multiplicity
 _atom_site_fract_x
 _atom_site_fract_y
 _atom_site_fract_z
 _atom_site_occupancy
  K  K0  1  0.00741300  0.58089800  0.88831700  1
  K  K1  1  0.49258700  0.58089800  0.38831700  1
  K  K2  1  0.99258700  0.41910200  0.11168300  1
  K  K3  1  0.50741300  0.41910200  0.61168300  1
  K  K4  1  0.98779900  0.79646200  0.18317300  1
  K  K5  1  0.51220100  0.79646200  0.68317300  1
  K  K6  1  0.01220100  0.20353800  0.81682700  1
  K  K7  1  0.48779900  0.20353800  0.31682700  1
  Mn  Mn8  1  0.50000000  0.50000000  0.00000000  1
  Mn  Mn9  1  0.00000000  0.50000000  0.50000000  1
  Mn  Mn10  1  0.67511700  0.13537200  0.00543100  1
  Mn  Mn11  1  0.82488300  0.13537200  0.50543100  1
  Mn  Mn12  1  0.32488300  0.86462800  0.99456900  1
  Mn  Mn13  1  0.17511700  0.86462800  0.49456900  1
  P  P14  1  0.57968100  0.40939800  0.84760700  1
  P  P15  1  0.92031900  0.40939800  0.34760700  1
  P  P16  1  0.42031900  0.59060200  0.15239300  1
  P  P17  1  0.07968100  0.59060200  0.65239300  1
  P  P18  1  0.60448000  0.12317500  0.15191500  1
  P  P19  1  0.89552000  0.12317500  0.65191500  1
  P  P20  1  0.39552000  0.87682500  0.84808500  1
  P  P21  1  0.10448000  0.87682500  0.34808500  1
  P  P22  1  0.16701300  0.19784700  0.01428900  1
  P  P23  1  0.33298700  0.19784700  0.51428900  1
  P  P24  1  0.83298700  0.80215300  0.98571100  1
  P  P25  1  0.66701300  0.80215300  0.48571100  1
  H  H26  1  0.22219100  0.11360900  0.13187700  1
  H  H27  1  0.27780900  0.11360900  0.63187700  1
  H  H28  1  0.77780900  0.88639100  0.86812300  1
  H  H29  1  0.72219100  0.88639100  0.36812300  1
  H  H30  1  0.82188300  0.04141200  0.24628100  1
  H  H31  1  0.67811700  0.04141200  0.74628100  1
  H  H32  1  0.17811700  0.95858800  0.75371900  1
  H  H33  1  0.32188300  0.95858800  0.25371900  1
  H  H34  1  0.30533600  0.47259500  0.77627600  1
  H  H35  1  0.19466400  0.47259500  0.27627600  1
  H  H36  1  0.69466400  0.52740500  0.22372400  1
  H  H37  1  0.80533600  0.52740500  0.72372400  1
  H  H38  1  0.49604500  0.15272000  0.85526100  1
  H  H39  1  0.00395500  0.15272000  0.35526100  1
  H  H40  1  0.50395500  0.84728000  0.14473900  1
  H  H41  1  0.99604500  0.84728000  0.64473900  1
  O  O42  1  0.22519100  0.37141900  0.00110500  1
  O  O43  1  0.27480900  0.37141900  0.50110500  1
  O  O44  1  0.77480900  0.62858100  0.99889500  1
  O  O45  1  0.72519100  0.62858100  0.49889500  1
  O  O46  1  0.65211000  0.97251000  0.13607500  1
  O  O47  1  0.84789000  0.97251000  0.63607500  1
  O  O48  1  0.34789000  0.02749000  0.86392500  1
  O  O49  1  0.15211000  0.02749000  0.36392500  1
  O  O50  1  0.10802200  0.10858100  0.09928500  1
  O  O51  1  0.39197800  0.10858100  0.59928500  1
  O  O52  1  0.89197800  0.89141900  0.90071500  1
  O  O53  1  0.60802200  0.89141900  0.40071500  1
  O  O54  1  0.61813300  0.39832300  0.92448500  1
  O  O55  1  0.88186700  0.39832300  0.42448500  1
  O  O56  1  0.38186700  0.60167700  0.07551500  1
  O  O57  1  0.11813300  0.60167700  0.57551500  1
  O  O58  1  0.97801300  0.19035800  0.97250300  1
  O  O59  1  0.52198700  0.19035800  0.47250300  1
  O  O60  1  0.02198700  0.80964200  0.02749700  1
  O  O61  1  0.47801300  0.80964200  0.52749700  1
  O  O62  1  0.72519900  0.52440900  0.79197000  1
  O  O63  1  0.77480100  0.52440900  0.29197000  1
  O  O64  1  0.27480100  0.47559100  0.20803000  1
  O  O65  1  0.22519900  0.47559100  0.70803000  1
  O  O66  1  0.39688600  0.11224000  0.18750700  1
  O  O67  1  0.10311400  0.11224000  0.68750700  1
  O  O68  1  0.60311400  0.88776000  0.81249300  1
  O  O69  1  0.89688600  0.88776000  0.31249300  1
  O  O70  1  0.76861900  0.14375500  0.20548000  1
  O  O71  1  0.73138100  0.14375500  0.70548000  1
  O  O72  1  0.23138100  0.85624500  0.79452000  1
  O  O73  1  0.26861900  0.85624500  0.29452000  1
  O  O74  1  0.63027500  0.27208800  0.07976800  1
  O  O75  1  0.86972500  0.27208800  0.57976800  1
  O  O76  1  0.36972500  0.72791200  0.92023200  1
  O  O77  1  0.13027500  0.72791200  0.42023200  1
  O  O78  1  0.35310000  0.46132000  0.82752700  1
  O  O79  1  0.14690000  0.46132000  0.32752700  1
  O  O80  1  0.64690000  0.53868000  0.17247300  1
  O  O81  1  0.85310000  0.53868000  0.67247300  1
  O  O82  1  0.65614900  0.89828700  0.99966000  1
  O  O83  1  0.84385100  0.89828700  0.49966000  1
  O  O84  1  0.34385100  0.10171300  0.00034000  1
  O  O85  1  0.15614900  0.10171300  0.50034000  1
  O  O86  1  0.61269200  0.23644700  0.84752000  1
  O  O87  1  0.88730800  0.23644700  0.34752000  1
  O  O88  1  0.38730800  0.76355300  0.15248000  1
  O  O89  1  0.11269200  0.76355300  0.65248000  1
