# generated using pymatgen
data_Ho3Ni7B2
_symmetry_space_group_name_H-M   'P 1'
_cell_length_a   5.02167825
_cell_length_b   5.02167825
_cell_length_c   14.20718300
_cell_angle_alpha   90.00000000
_cell_angle_beta   90.00000000
_cell_angle_gamma   120.08001068
_symmetry_Int_Tables_number   1
_chemical_formula_structural   Ho3Ni7B2
_chemical_formula_sum   'Ho6 Ni14 B4'
_cell_volume   310.01710811
_cell_formula_units_Z   2
loop_
 _symmetry_equiv_pos_site_id
 _symmetry_equiv_pos_as_xyz
  1  'x, y, z'
loop_
 _atom_site_type_symbol
 _atom_site_label
 _atom_site_symmetry_multiplicity
 _atom_site_fract_x
 _atom_site_fract_y
 _atom_site_fract_z
 _atom_site_occupancy
  Ho  Ho0  1  0.66660100  0.33339900  0.03146700  1
  Ho  Ho1  1  0.33339900  0.66660100  0.96853300  1
  Ho  Ho2  1  0.33339900  0.66660100  0.53146700  1
  Ho  Ho3  1  0.66660100  0.33339900  0.46853300  1
  Ho  Ho4  1  0.66671200  0.33328800  0.25000000  1
  Ho  Ho5  1  0.33328800  0.66671200  0.75000000  1
  Ni  Ni6  1  0.83433600  0.66847300  0.64887500  1
  Ni  Ni7  1  0.83423500  0.16576500  0.64878300  1
  Ni  Ni8  1  0.33152700  0.16566400  0.64887500  1
  Ni  Ni9  1  0.16566400  0.33152700  0.35112500  1
  Ni  Ni10  1  0.16576500  0.83423500  0.35121700  1
  Ni  Ni11  1  0.66847300  0.83433600  0.35112500  1
  Ni  Ni12  1  0.16566400  0.33152700  0.14887500  1
  Ni  Ni13  1  0.16576500  0.83423500  0.14878300  1
  Ni  Ni14  1  0.66847300  0.83433600  0.14887500  1
  Ni  Ni15  1  0.83433600  0.66847300  0.85112500  1
  Ni  Ni16  1  0.83423500  0.16576500  0.85121700  1
  Ni  Ni17  1  0.33152700  0.16566400  0.85112500  1
  Ni  Ni18  1  0.00000000  0.00000000  0.50000000  1
  Ni  Ni19  1  0.00000000  0.00000000  0.00000000  1
  B  B20  1  0.66636700  0.33363300  0.75000000  1
  B  B21  1  0.33363300  0.66636700  0.25000000  1
  B  B22  1  0.00019100  0.99980900  0.75000000  1
  B  B23  1  0.99980900  0.00019100  0.25000000  1
