# generated using pymatgen
data_Mg3As2
_symmetry_space_group_name_H-M   'P 1'
_cell_length_a   10.80431643
_cell_length_b   10.80431643
_cell_length_c   10.80431643
_cell_angle_alpha   109.47122063
_cell_angle_beta   109.47122063
_cell_angle_gamma   109.47122063
_symmetry_Int_Tables_number   1
_chemical_formula_structural   Mg3As2
_chemical_formula_sum   'Mg24 As16'
_cell_volume   970.88992529
_cell_formula_units_Z   8
loop_
 _symmetry_equiv_pos_site_id
 _symmetry_equiv_pos_as_xyz
  1  'x, y, z'
loop_
 _atom_site_type_symbol
 _atom_site_label
 _atom_site_symmetry_multiplicity
 _atom_site_fract_x
 _atom_site_fract_y
 _atom_site_fract_z
 _atom_site_occupancy
  Mg  Mg0  1  0.23500100  0.26561700  0.75888600  1
  Mg  Mg1  1  0.00673000  0.47611500  0.74111400  1
  Mg  Mg2  1  0.26499900  0.02388500  0.03061500  1
  Mg  Mg3  1  0.74111400  0.00673000  0.47611500  1
  Mg  Mg4  1  0.26561700  0.75888600  0.23500100  1
  Mg  Mg5  1  0.23438300  0.46938500  0.49327000  1
  Mg  Mg6  1  0.46938500  0.49327000  0.23438300  1
  Mg  Mg7  1  0.47611500  0.74111400  0.00673000  1
  Mg  Mg8  1  0.03061500  0.26499900  0.02388500  1
  Mg  Mg9  1  0.02388500  0.03061500  0.26499900  1
  Mg  Mg10  1  0.75888600  0.23500100  0.26561700  1
  Mg  Mg11  1  0.49327000  0.23438300  0.46938500  1
  Mg  Mg12  1  0.76499900  0.73438300  0.24111400  1
  Mg  Mg13  1  0.99327000  0.52388500  0.25888600  1
  Mg  Mg14  1  0.73500100  0.97611500  0.96938500  1
  Mg  Mg15  1  0.25888600  0.99327000  0.52388500  1
  Mg  Mg16  1  0.50673000  0.76561700  0.53061500  1
  Mg  Mg17  1  0.24111400  0.76499900  0.73438300  1
  Mg  Mg18  1  0.97611500  0.96938500  0.73500100  1
  Mg  Mg19  1  0.96938500  0.73500100  0.97611500  1
  Mg  Mg20  1  0.52388500  0.25888600  0.99327000  1
  Mg  Mg21  1  0.53061500  0.50673000  0.76561700  1
  Mg  Mg22  1  0.76561700  0.53061500  0.50673000  1
  Mg  Mg23  1  0.73438300  0.24111400  0.76499900  1
  As  As24  1  0.72819500  0.75000000  0.47819500  1
  As  As25  1  0.25000000  0.02180500  0.77180500  1
  As  As26  1  0.47819500  0.72819500  0.75000000  1
  As  As27  1  0.75000000  0.47819500  0.72819500  1
  As  As28  1  0.02180500  0.77180500  0.25000000  1
  As  As29  1  0.77180500  0.25000000  0.02180500  1
  As  As30  1  0.27180500  0.25000000  0.52180500  1
  As  As31  1  0.75000000  0.97819500  0.22819500  1
  As  As32  1  0.52180500  0.27180500  0.25000000  1
  As  As33  1  0.25000000  0.52180500  0.27180500  1
  As  As34  1  0.97819500  0.22819500  0.75000000  1
  As  As35  1  0.22819500  0.75000000  0.97819500  1
  As  As36  1  0.50000000  0.50000000  0.00000000  1
  As  As37  1  0.00000000  0.00000000  0.00000000  1
  As  As38  1  0.00000000  0.50000000  0.50000000  1
  As  As39  1  0.50000000  0.00000000  0.50000000  1
