# generated using pymatgen
data_ErMg149
_symmetry_space_group_name_H-M   'P 1'
_cell_length_a   15.96391561
_cell_length_b   15.96392047
_cell_length_c   15.60336140
_cell_angle_alpha   90.00000000
_cell_angle_beta   90.00000000
_cell_angle_gamma   120.00001228
_symmetry_Int_Tables_number   1
_chemical_formula_structural   ErMg149
_chemical_formula_sum   'Er1 Mg149'
_cell_volume   3443.71914083
_cell_formula_units_Z   1
loop_
 _symmetry_equiv_pos_site_id
 _symmetry_equiv_pos_as_xyz
  1  'x, y, z'
loop_
 _atom_site_type_symbol
 _atom_site_label
 _atom_site_symmetry_multiplicity
 _atom_site_fract_x
 _atom_site_fract_y
 _atom_site_fract_z
 _atom_site_occupancy
  Er  Er0  1  0.00000000  0.00000000  0.00000000  1
  Mg  Mg1  1  0.59998135  0.19996270  0.00000000  1
  Mg  Mg2  1  0.40112876  0.20056388  0.00000000  1
  Mg  Mg3  1  0.79943612  0.20056388  0.00000000  1
  Mg  Mg4  1  0.20152524  0.20415452  0.00000000  1
  Mg  Mg5  1  0.00262928  0.20415452  0.00000000  1
  Mg  Mg6  1  0.00014404  0.40009479  0.00000000  1
  Mg  Mg7  1  0.39995075  0.40009479  0.00000000  1
  Mg  Mg8  1  0.59998135  0.40001865  0.00000000  1
  Mg  Mg9  1  0.80003730  0.40001865  0.00000000  1
  Mg  Mg10  1  0.20140677  0.40281354  0.00000000  1
  Mg  Mg11  1  0.79943612  0.59887124  0.00000000  1
  Mg  Mg12  1  0.39979782  0.60020218  0.00000000  1
  Mg  Mg13  1  0.20040436  0.60020218  0.00000000  1
  Mg  Mg14  1  0.59990521  0.60004825  0.00000000  1
  Mg  Mg15  1  0.00014404  0.60004925  0.00000000  1
  Mg  Mg16  1  0.20140677  0.79859323  0.00000000  1
  Mg  Mg17  1  0.59718646  0.79859323  0.00000000  1
  Mg  Mg18  1  0.00262928  0.79847476  0.00000000  1
  Mg  Mg19  1  0.79584548  0.79847476  0.00000000  1
  Mg  Mg20  1  0.39979782  0.79959564  0.00000000  1
  Mg  Mg21  1  0.79584548  0.99737072  0.00000000  1
  Mg  Mg22  1  0.20152524  0.99737072  0.00000000  1
  Mg  Mg23  1  0.39995075  0.99985696  0.00000000  1
  Mg  Mg24  1  0.59990521  0.99985696  0.00000000  1
  Mg  Mg25  1  0.26409312  0.13204706  0.16480578  1
  Mg  Mg26  1  0.86795394  0.13204706  0.16480578  1
  Mg  Mg27  1  0.86795394  0.73590688  0.16480578  1
  Mg  Mg28  1  0.66666700  0.33333300  0.16613540  1
  Mg  Mg29  1  0.66729299  0.13296129  0.16650655  1
  Mg  Mg30  1  0.46566830  0.13296129  0.16650655  1
  Mg  Mg31  1  0.86703871  0.33270701  0.16650655  1
  Mg  Mg32  1  0.46566830  0.33270701  0.16650655  1
  Mg  Mg33  1  0.86703871  0.53433170  0.16650655  1
  Mg  Mg34  1  0.66729299  0.53433170  0.16650655  1
  Mg  Mg35  1  0.46666226  0.53333774  0.16715282  1
  Mg  Mg36  1  0.06667549  0.53333774  0.16715282  1
  Mg  Mg37  1  0.46666226  0.93332451  0.16715282  1
  Mg  Mg38  1  0.26709174  0.53418349  0.16729142  1
  Mg  Mg39  1  0.26709174  0.73290826  0.16729142  1
  Mg  Mg40  1  0.46581551  0.73290826  0.16729142  1
  Mg  Mg41  1  0.06787985  0.33539591  0.16754756  1
  Mg  Mg42  1  0.26751606  0.33539591  0.16754756  1
  Mg  Mg43  1  0.66460409  0.73248394  0.16754756  1
  Mg  Mg44  1  0.06787985  0.73248394  0.16754756  1
  Mg  Mg45  1  0.66460409  0.93211915  0.16754756  1
  Mg  Mg46  1  0.26751606  0.93211915  0.16754756  1
  Mg  Mg47  1  0.06768179  0.13536258  0.16906772  1
  Mg  Mg48  1  0.06768179  0.93231821  0.16906772  1
  Mg  Mg49  1  0.86463742  0.93231921  0.16906772  1
  Mg  Mg50  1  0.80014741  0.19985359  0.33287211  1
  Mg  Mg51  1  0.39970717  0.19985359  0.33287211  1
  Mg  Mg52  1  0.80014741  0.60029383  0.33287211  1
  Mg  Mg53  1  0.59998243  0.19996586  0.33279648  1
  Mg  Mg54  1  0.59998243  0.40001657  0.33279648  1
  Mg  Mg55  1  0.80003414  0.40001757  0.33279648  1
  Mg  Mg56  1  0.20046003  0.00001456  0.33339736  1
  Mg  Mg57  1  0.79955453  0.00001456  0.33339736  1
  Mg  Mg58  1  0.20046003  0.20044547  0.33339736  1
  Mg  Mg59  1  0.99998544  0.20044547  0.33339736  1
  Mg  Mg60  1  0.99998544  0.79953997  0.33339736  1
  Mg  Mg61  1  0.79955453  0.79953997  0.33339736  1
  Mg  Mg62  1  0.59979567  0.00017265  0.33367382  1
  Mg  Mg63  1  0.40037798  0.00017265  0.33367382  1
  Mg  Mg64  1  0.99982735  0.40020433  0.33367382  1
  Mg  Mg65  1  0.40037798  0.40020533  0.33367382  1
  Mg  Mg66  1  0.99982735  0.59962202  0.33367382  1
  Mg  Mg67  1  0.59979567  0.59962302  0.33367382  1
  Mg  Mg68  1  0.40007332  0.59992568  0.33367426  1
  Mg  Mg69  1  0.19985236  0.59992668  0.33367426  1
  Mg  Mg70  1  0.40007332  0.80014764  0.33367426  1
  Mg  Mg71  1  0.20019882  0.40039764  0.33406200  1
  Mg  Mg72  1  0.20019882  0.79980118  0.33406200  1
  Mg  Mg73  1  0.59960236  0.79980118  0.33406200  1
  Mg  Mg74  1  0.00000000  0.00000000  0.33462005  1
  Mg  Mg75  1  0.26697732  0.13348916  0.50000000  1
  Mg  Mg76  1  0.86651084  0.13348916  0.50000000  1
  Mg  Mg77  1  0.06677945  0.13355891  0.50000000  1
  Mg  Mg78  1  0.66706744  0.13406930  0.50000000  1
  Mg  Mg79  1  0.46700186  0.13407030  0.50000000  1
  Mg  Mg80  1  0.86592970  0.33293156  0.50000000  1
  Mg  Mg81  1  0.46700186  0.33293156  0.50000000  1
  Mg  Mg82  1  0.66666700  0.33333300  0.50000000  1
  Mg  Mg83  1  0.06673064  0.33347636  0.50000000  1
  Mg  Mg84  1  0.26674571  0.33347736  0.50000000  1
  Mg  Mg85  1  0.66706744  0.53299814  0.50000000  1
  Mg  Mg86  1  0.86592970  0.53299814  0.50000000  1
  Mg  Mg87  1  0.46695815  0.53304285  0.50000000  1
  Mg  Mg88  1  0.06608470  0.53304285  0.50000000  1
  Mg  Mg89  1  0.26673147  0.53346294  0.50000000  1
  Mg  Mg90  1  0.86651084  0.73302268  0.50000000  1
  Mg  Mg91  1  0.66652364  0.73325329  0.50000000  1
  Mg  Mg92  1  0.06673064  0.73325429  0.50000000  1
  Mg  Mg93  1  0.26673147  0.73326853  0.50000000  1
  Mg  Mg94  1  0.46653706  0.73326853  0.50000000  1
  Mg  Mg95  1  0.06677945  0.93322055  0.50000000  1
  Mg  Mg96  1  0.86644109  0.93322055  0.50000000  1
  Mg  Mg97  1  0.26674571  0.93326936  0.50000000  1
  Mg  Mg98  1  0.66652364  0.93326936  0.50000000  1
  Mg  Mg99  1  0.46695815  0.93391530  0.50000000  1
  Mg  Mg100  1  0.00000000  0.00000000  0.66537995  1
  Mg  Mg101  1  0.20019882  0.40039764  0.66593800  1
  Mg  Mg102  1  0.20019882  0.79980118  0.66593800  1
  Mg  Mg103  1  0.59960236  0.79980118  0.66593800  1
  Mg  Mg104  1  0.40007332  0.59992568  0.66632674  1
  Mg  Mg105  1  0.19985236  0.59992668  0.66632674  1
  Mg  Mg106  1  0.40007332  0.80014764  0.66632674  1
  Mg  Mg107  1  0.59979567  0.00017265  0.66632518  1
  Mg  Mg108  1  0.40037798  0.00017265  0.66632518  1
  Mg  Mg109  1  0.99982735  0.40020433  0.66632518  1
  Mg  Mg110  1  0.40037798  0.40020533  0.66632518  1
  Mg  Mg111  1  0.99982735  0.59962202  0.66632518  1
  Mg  Mg112  1  0.59979567  0.59962302  0.66632518  1
  Mg  Mg113  1  0.20046003  0.00001456  0.66660364  1
  Mg  Mg114  1  0.79955453  0.00001456  0.66660364  1
  Mg  Mg115  1  0.20046003  0.20044547  0.66660364  1
  Mg  Mg116  1  0.99998544  0.20044547  0.66660364  1
  Mg  Mg117  1  0.99998544  0.79953997  0.66660364  1
  Mg  Mg118  1  0.79955453  0.79953997  0.66660364  1
  Mg  Mg119  1  0.59998243  0.19996586  0.66720352  1
  Mg  Mg120  1  0.59998243  0.40001657  0.66720352  1
  Mg  Mg121  1  0.80003414  0.40001757  0.66720352  1
  Mg  Mg122  1  0.80014741  0.19985359  0.66712789  1
  Mg  Mg123  1  0.39970717  0.19985359  0.66712789  1
  Mg  Mg124  1  0.80014741  0.60029383  0.66712789  1
  Mg  Mg125  1  0.06768179  0.13536258  0.83093228  1
  Mg  Mg126  1  0.06768179  0.93231821  0.83093228  1
  Mg  Mg127  1  0.86463742  0.93231921  0.83093228  1
  Mg  Mg128  1  0.06787985  0.33539591  0.83245244  1
  Mg  Mg129  1  0.26751606  0.33539591  0.83245244  1
  Mg  Mg130  1  0.66460409  0.73248394  0.83245244  1
  Mg  Mg131  1  0.06787985  0.73248394  0.83245244  1
  Mg  Mg132  1  0.66460409  0.93211915  0.83245244  1
  Mg  Mg133  1  0.26751606  0.93211915  0.83245244  1
  Mg  Mg134  1  0.26709174  0.53418349  0.83270958  1
  Mg  Mg135  1  0.26709174  0.73290826  0.83270958  1
  Mg  Mg136  1  0.46581551  0.73290826  0.83270958  1
  Mg  Mg137  1  0.46666226  0.53333774  0.83284718  1
  Mg  Mg138  1  0.06667549  0.53333774  0.83284718  1
  Mg  Mg139  1  0.46666226  0.93332451  0.83284718  1
  Mg  Mg140  1  0.66729299  0.13296129  0.83349345  1
  Mg  Mg141  1  0.46566830  0.13296129  0.83349345  1
  Mg  Mg142  1  0.86703871  0.33270701  0.83349345  1
  Mg  Mg143  1  0.46566830  0.33270701  0.83349345  1
  Mg  Mg144  1  0.86703871  0.53433170  0.83349345  1
  Mg  Mg145  1  0.66729299  0.53433170  0.83349345  1
  Mg  Mg146  1  0.66666700  0.33333300  0.83386460  1
  Mg  Mg147  1  0.26409312  0.13204706  0.83519522  1
  Mg  Mg148  1  0.86795394  0.13204706  0.83519522  1
  Mg  Mg149  1  0.86795394  0.73590688  0.83519522  1
