# generated using pymatgen
data_BaMo2(P2O7)2
_symmetry_space_group_name_H-M   'P 1'
_cell_length_a   7.75348824
_cell_length_b   7.75348835
_cell_length_c   10.08673681
_cell_angle_alpha   80.12039145
_cell_angle_beta   80.12039452
_cell_angle_gamma   89.32204189
_symmetry_Int_Tables_number   1
_chemical_formula_structural   BaMo2(P2O7)2
_chemical_formula_sum   'Ba2 Mo4 P8 O28'
_cell_volume   588.43195295
_cell_formula_units_Z   2
loop_
 _symmetry_equiv_pos_site_id
 _symmetry_equiv_pos_as_xyz
  1  'x, y, z'
loop_
 _atom_site_type_symbol
 _atom_site_label
 _atom_site_symmetry_multiplicity
 _atom_site_fract_x
 _atom_site_fract_y
 _atom_site_fract_z
 _atom_site_occupancy
  Ba  Ba0  1  0.00000000  0.49999900  0.00000000  1
  Ba  Ba1  1  0.50000000  0.00000000  0.50000100  1
  Mo  Mo2  1  0.00000000  0.99999900  0.50000000  1
  Mo  Mo3  1  0.00000000  0.00000000  0.00000000  1
  Mo  Mo4  1  0.45479900  0.54520200  0.25000000  1
  Mo  Mo5  1  0.54520200  0.45479900  0.75000000  1
  P  P6  1  0.82061400  0.73186400  0.30009800  1
  P  P7  1  0.26813700  0.17938700  0.19990300  1
  P  P8  1  0.17938700  0.26813600  0.69990300  1
  P  P9  1  0.73186400  0.82061300  0.80009800  1
  P  P10  1  0.74775600  0.36697700  0.44382300  1
  P  P11  1  0.63302300  0.25224500  0.05617700  1
  P  P12  1  0.25224500  0.63302300  0.55617700  1
  P  P13  1  0.36697600  0.74775600  0.94382300  1
  O  O14  1  0.94633500  0.77640900  0.16357800  1
  O  O15  1  0.22359100  0.05366600  0.33642100  1
  O  O16  1  0.05366600  0.22359100  0.83642200  1
  O  O17  1  0.77640800  0.94633400  0.66357800  1
  O  O18  1  0.62571100  0.74123500  0.28985200  1
  O  O19  1  0.25876400  0.37428900  0.21014900  1
  O  O20  1  0.37428900  0.25876400  0.71014800  1
  O  O21  1  0.74123600  0.62571100  0.78985200  1
  O  O22  1  0.85161100  0.83476600  0.40953100  1
  O  O23  1  0.16523500  0.14838800  0.09046800  1
  O  O24  1  0.14838800  0.16523500  0.59046800  1
  O  O25  1  0.83476500  0.85161200  0.90953100  1
  O  O26  1  0.86415200  0.52552200  0.34391500  1
  O  O27  1  0.47447800  0.13584800  0.15608600  1
  O  O28  1  0.38798200  0.73978500  0.09128700  1
  O  O29  1  0.26021500  0.61201900  0.40871300  1
  O  O30  1  0.61201900  0.26021500  0.90871300  1
  O  O31  1  0.73978400  0.38798200  0.59128700  1
  O  O32  1  0.36225600  0.56568200  0.90098500  1
  O  O33  1  0.43431800  0.63774300  0.59901400  1
  O  O34  1  0.63774300  0.43431800  0.09901400  1
  O  O35  1  0.13584800  0.47447800  0.65608600  1
  O  O36  1  0.20051000  0.84192800  0.91148600  1
  O  O37  1  0.15807200  0.79949000  0.58851400  1
  O  O38  1  0.79948900  0.15807100  0.08851400  1
  O  O39  1  0.84192800  0.20051100  0.41148500  1
  O  O40  1  0.52552200  0.86415200  0.84391400  1
  O  O41  1  0.56568200  0.36225700  0.40098500  1
