# generated using pymatgen
data_La2(Ga3Ru)3
_symmetry_space_group_name_H-M   'P 1'
_cell_length_a   7.60069213
_cell_length_b   7.60069213
_cell_length_c   9.97689100
_cell_angle_alpha   90.00000000
_cell_angle_beta   90.00000000
_cell_angle_gamma   119.35833409
_symmetry_Int_Tables_number   1
_chemical_formula_structural   La2(Ga3Ru)3
_chemical_formula_sum   'La4 Ga18 Ru6'
_cell_volume   502.34729435
_cell_formula_units_Z   2
loop_
 _symmetry_equiv_pos_site_id
 _symmetry_equiv_pos_as_xyz
  1  'x, y, z'
loop_
 _atom_site_type_symbol
 _atom_site_label
 _atom_site_symmetry_multiplicity
 _atom_site_fract_x
 _atom_site_fract_y
 _atom_site_fract_z
 _atom_site_occupancy
  La  La0  1  0.99702300  0.66923600  0.25000000  1
  La  La1  1  0.00297700  0.33076400  0.75000000  1
  La  La2  1  0.66923600  0.99702300  0.25000000  1
  La  La3  1  0.33076400  0.00297700  0.75000000  1
  Ga  Ga4  1  0.13023500  0.13023500  0.25000000  1
  Ga  Ga5  1  0.86976500  0.86976500  0.75000000  1
  Ga  Ga6  1  0.00845500  0.33520700  0.07149400  1
  Ga  Ga7  1  0.99154500  0.66479300  0.92850600  1
  Ga  Ga8  1  0.99154500  0.66479300  0.57149500  1
  Ga  Ga9  1  0.33520700  0.00845500  0.42850500  1
  Ga  Ga10  1  0.00845500  0.33520700  0.42850500  1
  Ga  Ga11  1  0.66479300  0.99154500  0.57149500  1
  Ga  Ga12  1  0.66479300  0.99154500  0.92850500  1
  Ga  Ga13  1  0.33520700  0.00845500  0.07149500  1
  Ga  Ga14  1  0.33919800  0.33919800  0.55336900  1
  Ga  Ga15  1  0.66080200  0.66080200  0.44663100  1
  Ga  Ga16  1  0.66080200  0.66080200  0.05336900  1
  Ga  Ga17  1  0.33919800  0.33919800  0.94663100  1
  Ga  Ga18  1  0.33594800  0.54266000  0.25000000  1
  Ga  Ga19  1  0.66405200  0.45734000  0.75000000  1
  Ga  Ga20  1  0.54266000  0.33594800  0.25000000  1
  Ga  Ga21  1  0.45734000  0.66405200  0.75000000  1
  Ru  Ru22  1  0.67260700  0.32739300  0.00000000  1
  Ru  Ru23  1  0.32739300  0.67260700  0.00000000  1
  Ru  Ru24  1  0.32739300  0.67260700  0.50000000  1
  Ru  Ru25  1  0.67260700  0.32739300  0.50000000  1
  Ru  Ru26  1  0.00000000  0.00000000  0.00000000  1
  Ru  Ru27  1  0.00000000  0.00000000  0.50000000  1
