# generated using pymatgen
data_KHo(MoO4)2
_symmetry_space_group_name_H-M   'P 1'
_cell_length_a   5.13431600
_cell_length_b   8.09256500
_cell_length_c   18.44612000
_cell_angle_alpha   90.00000000
_cell_angle_beta   90.00000000
_cell_angle_gamma   90.00000000
_symmetry_Int_Tables_number   1
_chemical_formula_structural   KHo(MoO4)2
_chemical_formula_sum   'K4 Ho4 Mo8 O32'
_cell_volume   766.43233780
_cell_formula_units_Z   4
loop_
 _symmetry_equiv_pos_site_id
 _symmetry_equiv_pos_as_xyz
  1  'x, y, z'
loop_
 _atom_site_type_symbol
 _atom_site_label
 _atom_site_symmetry_multiplicity
 _atom_site_fract_x
 _atom_site_fract_y
 _atom_site_fract_z
 _atom_site_occupancy
  K  K0  1  0.00000000  0.75000000  0.76994600  1
  K  K1  1  0.00000000  0.25000000  0.23005400  1
  K  K2  1  0.50000000  0.25000000  0.73005400  1
  K  K3  1  0.50000000  0.75000000  0.26994600  1
  Ho  Ho4  1  0.00000000  0.75000000  0.00588800  1
  Ho  Ho5  1  0.00000000  0.25000000  0.99411200  1
  Ho  Ho6  1  0.50000000  0.25000000  0.49411200  1
  Ho  Ho7  1  0.50000000  0.75000000  0.50588800  1
  Mo  Mo8  1  0.02255100  0.51618400  0.39917500  1
  Mo  Mo9  1  0.97744900  0.48381600  0.60082500  1
  Mo  Mo10  1  0.47744900  0.01618400  0.10082500  1
  Mo  Mo11  1  0.97744900  0.98381600  0.39917500  1
  Mo  Mo12  1  0.52255100  0.98381600  0.89917500  1
  Mo  Mo13  1  0.02255100  0.01618400  0.60082500  1
  Mo  Mo14  1  0.52255100  0.48381600  0.10082500  1
  Mo  Mo15  1  0.47744900  0.51618400  0.89917500  1
  O  O16  1  0.10223400  0.97439600  0.31067700  1
  O  O17  1  0.89776600  0.02560400  0.68932300  1
  O  O18  1  0.39776600  0.47439600  0.18932300  1
  O  O19  1  0.89776600  0.52560400  0.31067700  1
  O  O20  1  0.60223400  0.52560400  0.81067700  1
  O  O21  1  0.10223400  0.47439600  0.68932300  1
  O  O22  1  0.60223400  0.02560400  0.18932300  1
  O  O23  1  0.39776600  0.97439600  0.81067700  1
  O  O24  1  0.26862000  0.83782200  0.09872600  1
  O  O25  1  0.73138000  0.16217800  0.90127400  1
  O  O26  1  0.23138000  0.33782200  0.40127400  1
  O  O27  1  0.73138000  0.66217800  0.09872600  1
  O  O28  1  0.76862000  0.66217800  0.59872600  1
  O  O29  1  0.26862000  0.33782200  0.90127400  1
  O  O30  1  0.76862000  0.16217800  0.40127400  1
  O  O31  1  0.23138000  0.83782200  0.59872600  1
  O  O32  1  0.24789300  0.50460100  0.03476300  1
  O  O33  1  0.75210700  0.49539900  0.96523700  1
  O  O34  1  0.25210700  0.00460100  0.46523700  1
  O  O35  1  0.75210700  0.99539900  0.03476300  1
  O  O36  1  0.74789300  0.99539900  0.53476300  1
  O  O37  1  0.24789300  0.00460100  0.96523700  1
  O  O38  1  0.74789300  0.49539900  0.46523700  1
  O  O39  1  0.25210700  0.50460100  0.53476300  1
  O  O40  1  0.24650100  0.68998900  0.40762600  1
  O  O41  1  0.75349900  0.31001100  0.59237400  1
  O  O42  1  0.25349900  0.18998900  0.09237400  1
  O  O43  1  0.75349900  0.81001100  0.40762600  1
  O  O44  1  0.74650100  0.81001100  0.90762600  1
  O  O45  1  0.24650100  0.18998900  0.59237400  1
  O  O46  1  0.74650100  0.31001100  0.09237400  1
  O  O47  1  0.25349900  0.68998900  0.90762600  1
