# generated using pymatgen
data_TiTeSe
_symmetry_space_group_name_H-M   'P 1'
_cell_length_a   3.66558064
_cell_length_b   3.66558100
_cell_length_c   6.56202400
_cell_angle_alpha   90.00078832
_cell_angle_beta   90.00078792
_cell_angle_gamma   60.00087665
_symmetry_Int_Tables_number   1
_chemical_formula_structural   TiTeSe
_chemical_formula_sum   'Ti1 Te1 Se1'
_cell_volume   76.35858675
_cell_formula_units_Z   1
loop_
 _symmetry_equiv_pos_site_id
 _symmetry_equiv_pos_as_xyz
  1  'x, y, z'
loop_
 _atom_site_type_symbol
 _atom_site_label
 _atom_site_symmetry_multiplicity
 _atom_site_fract_x
 _atom_site_fract_y
 _atom_site_fract_z
 _atom_site_occupancy
  Ti  Ti0  1  0.99998100  0.99998100  0.02229100  1
  Te  Te1  1  0.33331400  0.33331400  0.74227600  1
  Se  Se2  1  0.66670500  0.66670500  0.23543300  1
