# generated using pymatgen
data_SrCo6O11
_symmetry_space_group_name_H-M   'P 1'
_cell_length_a   5.63919104
_cell_length_b   5.63919104
_cell_length_c   12.81793300
_cell_angle_alpha   90.00000000
_cell_angle_beta   90.00000000
_cell_angle_gamma   120.00001223
_symmetry_Int_Tables_number   1
_chemical_formula_structural   SrCo6O11
_chemical_formula_sum   'Sr2 Co12 O22'
_cell_volume   353.00608422
_cell_formula_units_Z   2
loop_
 _symmetry_equiv_pos_site_id
 _symmetry_equiv_pos_as_xyz
  1  'x, y, z'
loop_
 _atom_site_type_symbol
 _atom_site_label
 _atom_site_symmetry_multiplicity
 _atom_site_fract_x
 _atom_site_fract_y
 _atom_site_fract_z
 _atom_site_occupancy
  Sr  Sr0  1  0.66666700  0.33333300  0.75000000  1
  Sr  Sr1  1  0.33333300  0.66666700  0.25000000  1
  Co  Co2  1  0.33333300  0.66666700  0.75000000  1
  Co  Co3  1  0.66666700  0.33333300  0.25000000  1
  Co  Co4  1  0.00000000  0.00000000  0.35091600  1
  Co  Co5  1  0.00000000  0.00000000  0.85091600  1
  Co  Co6  1  0.00000000  0.00000000  0.64908400  1
  Co  Co7  1  0.00000000  0.00000000  0.14908400  1
  Co  Co8  1  0.50000000  0.50000000  0.50000000  1
  Co  Co9  1  0.00000000  0.50000000  0.00000000  1
  Co  Co10  1  0.50000000  0.00000000  0.00000000  1
  Co  Co11  1  0.50000000  0.00000000  0.50000000  1
  Co  Co12  1  0.00000000  0.50000000  0.50000000  1
  Co  Co13  1  0.50000000  0.50000000  0.00000000  1
  O  O14  1  0.66666700  0.33333300  0.07830800  1
  O  O15  1  0.33333300  0.66666700  0.57830800  1
  O  O16  1  0.33333300  0.66666700  0.92169200  1
  O  O17  1  0.66666700  0.33333300  0.42169200  1
  O  O18  1  0.85689000  0.14311000  0.25000000  1
  O  O19  1  0.71378100  0.85689000  0.75000000  1
  O  O20  1  0.14311000  0.28621900  0.75000000  1
  O  O21  1  0.85689000  0.71378100  0.25000000  1
  O  O22  1  0.28621900  0.14311000  0.25000000  1
  O  O23  1  0.14311000  0.85689000  0.75000000  1
  O  O24  1  0.17558900  0.35117800  0.42104200  1
  O  O25  1  0.64882200  0.82441100  0.42104200  1
  O  O26  1  0.17558900  0.82441100  0.42104200  1
  O  O27  1  0.82441100  0.17558900  0.92104200  1
  O  O28  1  0.17558900  0.82441100  0.07895800  1
  O  O29  1  0.35117800  0.17558900  0.57895800  1
  O  O30  1  0.82441100  0.64882200  0.57895800  1
  O  O31  1  0.17558900  0.35117800  0.07895800  1
  O  O32  1  0.64882200  0.82441100  0.07895800  1
  O  O33  1  0.35117800  0.17558900  0.92104200  1
  O  O34  1  0.82441100  0.64882200  0.92104200  1
  O  O35  1  0.82441100  0.17558900  0.57895800  1
