# generated using pymatgen
data_Ba5Mn3O12F
_symmetry_space_group_name_H-M   'P 1'
_cell_length_a   10.57936762
_cell_length_b   10.57936762
_cell_length_c   7.93673800
_cell_angle_alpha   90.00000000
_cell_angle_beta   90.00000000
_cell_angle_gamma   119.99999760
_symmetry_Int_Tables_number   1
_chemical_formula_structural   Ba5Mn3O12F
_chemical_formula_sum   'Ba10 Mn6 O24 F2'
_cell_volume   769.29357103
_cell_formula_units_Z   2
loop_
 _symmetry_equiv_pos_site_id
 _symmetry_equiv_pos_as_xyz
  1  'x, y, z'
loop_
 _atom_site_type_symbol
 _atom_site_label
 _atom_site_symmetry_multiplicity
 _atom_site_fract_x
 _atom_site_fract_y
 _atom_site_fract_z
 _atom_site_occupancy
  Ba  Ba0  1  0.33333300  0.66666700  0.99780800  1
  Ba  Ba1  1  0.66666700  0.33333300  0.00219200  1
  Ba  Ba2  1  0.66666700  0.33333300  0.49780800  1
  Ba  Ba3  1  0.33333300  0.66666700  0.50219200  1
  Ba  Ba4  1  0.24329200  0.25151600  0.25000000  1
  Ba  Ba5  1  0.75670800  0.74848400  0.75000000  1
  Ba  Ba6  1  0.74848400  0.99177600  0.25000000  1
  Ba  Ba7  1  0.25151600  0.00822400  0.75000000  1
  Ba  Ba8  1  0.00822400  0.75670800  0.25000000  1
  Ba  Ba9  1  0.99177600  0.24329200  0.75000000  1
  Mn  Mn10  1  0.39848800  0.02829900  0.25000000  1
  Mn  Mn11  1  0.60151200  0.97170100  0.75000000  1
  Mn  Mn12  1  0.97170100  0.37018900  0.25000000  1
  Mn  Mn13  1  0.02829900  0.62981100  0.75000000  1
  Mn  Mn14  1  0.62981100  0.60151200  0.25000000  1
  Mn  Mn15  1  0.37018900  0.39848800  0.75000000  1
  O  O16  1  0.15766900  0.48323500  0.25000000  1
  O  O17  1  0.84233100  0.51676500  0.75000000  1
  O  O18  1  0.51676500  0.67443400  0.25000000  1
  O  O19  1  0.48323500  0.32556600  0.75000000  1
  O  O20  1  0.32556600  0.84233100  0.25000000  1
  O  O21  1  0.67443400  0.15766900  0.75000000  1
  O  O22  1  0.58682200  0.12309900  0.25000000  1
  O  O23  1  0.41317800  0.87690100  0.75000000  1
  O  O24  1  0.87690100  0.46372300  0.25000000  1
  O  O25  1  0.12309900  0.53627700  0.75000000  1
  O  O26  1  0.53627700  0.41317800  0.25000000  1
  O  O27  1  0.46372300  0.58682200  0.75000000  1
  O  O28  1  0.34329500  0.08608900  0.07728100  1
  O  O29  1  0.65670500  0.91391100  0.92271900  1
  O  O30  1  0.91391100  0.25720700  0.07728100  1
  O  O31  1  0.65670500  0.91391100  0.57728100  1
  O  O32  1  0.08608900  0.74279300  0.92271900  1
  O  O33  1  0.34329500  0.08608900  0.42271900  1
  O  O34  1  0.74279300  0.65670500  0.07728100  1
  O  O35  1  0.08608900  0.74279300  0.57728100  1
  O  O36  1  0.25720700  0.34329500  0.92271900  1
  O  O37  1  0.91391100  0.25720700  0.42271900  1
  O  O38  1  0.25720700  0.34329500  0.57728100  1
  O  O39  1  0.74279300  0.65670500  0.42271900  1
  F  F40  1  0.00000000  0.00000000  0.25000000  1
  F  F41  1  0.00000000  0.00000000  0.75000000  1
