# generated using pymatgen
data_Sm2Re3Si5
_symmetry_space_group_name_H-M   'P 1'
_cell_length_a   11.02338500
_cell_length_b   11.02338500
_cell_length_c   5.67791400
_cell_angle_alpha   90.00000000
_cell_angle_beta   90.00000000
_cell_angle_gamma   90.00000000
_symmetry_Int_Tables_number   1
_chemical_formula_structural   Sm2Re3Si5
_chemical_formula_sum   'Sm8 Re12 Si20'
_cell_volume   689.95181543
_cell_formula_units_Z   4
loop_
 _symmetry_equiv_pos_site_id
 _symmetry_equiv_pos_as_xyz
  1  'x, y, z'
loop_
 _atom_site_type_symbol
 _atom_site_label
 _atom_site_symmetry_multiplicity
 _atom_site_fract_x
 _atom_site_fract_y
 _atom_site_fract_z
 _atom_site_occupancy
  Sm  Sm0  1  0.57612900  0.73789700  0.50000000  1
  Sm  Sm1  1  0.42387100  0.26210300  0.50000000  1
  Sm  Sm2  1  0.07612900  0.76210300  0.00000000  1
  Sm  Sm3  1  0.92387100  0.23789700  0.00000000  1
  Sm  Sm4  1  0.26210300  0.57612900  0.50000000  1
  Sm  Sm5  1  0.73789700  0.42387100  0.50000000  1
  Sm  Sm6  1  0.23789700  0.07612900  0.00000000  1
  Sm  Sm7  1  0.76210300  0.92387100  0.00000000  1
  Re  Re8  1  0.87503300  0.85292400  0.50000000  1
  Re  Re9  1  0.12496700  0.14707600  0.50000000  1
  Re  Re10  1  0.37503300  0.64707600  0.00000000  1
  Re  Re11  1  0.62496700  0.35292400  0.00000000  1
  Re  Re12  1  0.14707600  0.87503300  0.50000000  1
  Re  Re13  1  0.85292400  0.12496700  0.50000000  1
  Re  Re14  1  0.35292400  0.37503300  0.00000000  1
  Re  Re15  1  0.64707600  0.62496700  0.00000000  1
  Re  Re16  1  0.50000000  0.00000000  0.25000000  1
  Re  Re17  1  0.00000000  0.50000000  0.75000000  1
  Re  Re18  1  0.00000000  0.50000000  0.25000000  1
  Re  Re19  1  0.50000000  0.00000000  0.75000000  1
  Si  Si20  1  0.67297000  0.17297000  0.25000000  1
  Si  Si21  1  0.32703000  0.82703000  0.25000000  1
  Si  Si22  1  0.17297000  0.32703000  0.75000000  1
  Si  Si23  1  0.82703000  0.67297000  0.75000000  1
  Si  Si24  1  0.82703000  0.67297000  0.25000000  1
  Si  Si25  1  0.17297000  0.32703000  0.25000000  1
  Si  Si26  1  0.67297000  0.17297000  0.75000000  1
  Si  Si27  1  0.32703000  0.82703000  0.75000000  1
  Si  Si28  1  0.50000000  0.50000000  0.24563400  1
  Si  Si29  1  0.00000000  0.00000000  0.74563400  1
  Si  Si30  1  0.50000000  0.50000000  0.75436600  1
  Si  Si31  1  0.00000000  0.00000000  0.25436600  1
  Si  Si32  1  0.68398300  0.97592200  0.50000000  1
  Si  Si33  1  0.31601700  0.02407800  0.50000000  1
  Si  Si34  1  0.18398300  0.52407800  0.00000000  1
  Si  Si35  1  0.81601700  0.47592200  0.00000000  1
  Si  Si36  1  0.02407800  0.68398300  0.50000000  1
  Si  Si37  1  0.97592200  0.31601700  0.50000000  1
  Si  Si38  1  0.47592200  0.18398300  0.00000000  1
  Si  Si39  1  0.52407800  0.81601700  0.00000000  1
