# generated using pymatgen
data_Na4Zr2TiMnSi4(O8F)2
_symmetry_space_group_name_H-M   'P 1'
_cell_length_a   7.19201700
_cell_length_b   5.66398000
_cell_length_c   18.73015790
_cell_angle_alpha   77.21159818
_cell_angle_beta   90.00000000
_cell_angle_gamma   90.00000000
_symmetry_Int_Tables_number   1
_chemical_formula_structural   Na4Zr2TiMnSi4(O8F)2
_chemical_formula_sum   'Na8 Zr4 Ti2 Mn2 Si8 O32 F4'
_cell_volume   744.05485765
_cell_formula_units_Z   2
loop_
 _symmetry_equiv_pos_site_id
 _symmetry_equiv_pos_as_xyz
  1  'x, y, z'
loop_
 _atom_site_type_symbol
 _atom_site_label
 _atom_site_symmetry_multiplicity
 _atom_site_fract_x
 _atom_site_fract_y
 _atom_site_fract_z
 _atom_site_occupancy
  Na  Na0  1  0.65339600  0.00000000  0.75000000  1
  Na  Na1  1  0.34660400  0.00000000  0.25000000  1
  Na  Na2  1  0.88636600  0.70316500  0.92905700  1
  Na  Na3  1  0.11363400  0.29683500  0.07094300  1
  Na  Na4  1  0.88636600  0.29683500  0.57094300  1
  Na  Na5  1  0.11363400  0.70316500  0.42905700  1
  Na  Na6  1  0.88949700  0.50000000  0.75000000  1
  Na  Na7  1  0.11050300  0.50000000  0.25000000  1
  Zr  Zr8  1  0.37841900  0.69734700  0.92472800  1
  Zr  Zr9  1  0.62158100  0.30265300  0.07527200  1
  Zr  Zr10  1  0.37841900  0.30265300  0.57527200  1
  Zr  Zr11  1  0.62158100  0.69734700  0.42472800  1
  Ti  Ti12  1  0.39247300  0.50000000  0.75000000  1
  Ti  Ti13  1  0.60752700  0.50000000  0.25000000  1
  Mn  Mn14  1  0.15287700  0.00000000  0.75000000  1
  Mn  Mn15  1  0.84712300  0.00000000  0.25000000  1
  Si  Si16  1  0.65846900  0.77893400  0.60439600  1
  Si  Si17  1  0.34153100  0.22106600  0.39560400  1
  Si  Si18  1  0.65846900  0.22106600  0.89560400  1
  Si  Si19  1  0.34153100  0.77893400  0.10439600  1
  Si  Si20  1  0.88622400  0.77834300  0.10532700  1
  Si  Si21  1  0.11377600  0.22165700  0.89467300  1
  Si  Si22  1  0.88622400  0.22165700  0.39467300  1
  Si  Si23  1  0.11377600  0.77834300  0.60532700  1
  O  O24  1  0.59315500  0.59771300  0.55098600  1
  O  O25  1  0.40684500  0.40228700  0.44901400  1
  O  O26  1  0.59315500  0.40228700  0.94901400  1
  O  O27  1  0.40684500  0.59771300  0.05098600  1
  O  O28  1  0.17393900  0.94343300  0.93271700  1
  O  O29  1  0.82606100  0.05656700  0.06728300  1
  O  O30  1  0.17393900  0.05656700  0.56728300  1
  O  O31  1  0.82606100  0.94343300  0.43271700  1
  O  O32  1  0.59543700  0.94081800  0.92273400  1
  O  O33  1  0.40456300  0.05918200  0.07726600  1
  O  O34  1  0.59543700  0.05918200  0.57726600  1
  O  O35  1  0.40456300  0.94081800  0.42273400  1
  O  O36  1  0.82408000  0.58041700  0.05882300  1
  O  O37  1  0.17592000  0.41958300  0.94117700  1
  O  O38  1  0.82408000  0.41958300  0.44117700  1
  O  O39  1  0.17592000  0.58041700  0.55882300  1
  O  O40  1  0.37231700  0.73143300  0.81413500  1
  O  O41  1  0.62768300  0.26856700  0.18586500  1
  O  O42  1  0.37231700  0.26856700  0.68586500  1
  O  O43  1  0.62768300  0.73143300  0.31413500  1
  O  O44  1  0.88542000  0.76449100  0.61039000  1
  O  O45  1  0.11458000  0.23550900  0.38961000  1
  O  O46  1  0.88542000  0.23550900  0.88961000  1
  O  O47  1  0.11458000  0.76449100  0.11039000  1
  O  O48  1  0.58457500  0.67639500  0.68847400  1
  O  O49  1  0.41542500  0.32360500  0.31152600  1
  O  O50  1  0.58457500  0.32360500  0.81152600  1
  O  O51  1  0.41542500  0.67639500  0.18847400  1
  O  O52  1  0.81030800  0.71290000  0.19039000  1
  O  O53  1  0.18969200  0.28710000  0.80961000  1
  O  O54  1  0.81030800  0.28710000  0.30961000  1
  O  O55  1  0.18969200  0.71290000  0.69039000  1
  F  F56  1  0.92097100  0.80404500  0.80710000  1
  F  F57  1  0.07902900  0.19595500  0.19290000  1
  F  F58  1  0.92097100  0.19595500  0.69290000  1
  F  F59  1  0.07902900  0.80404500  0.30710000  1
