# generated using pymatgen
data_Nd4InSbS9
_symmetry_space_group_name_H-M   'P 1'
_cell_length_a   10.21022300
_cell_length_b   10.21022300
_cell_length_c   28.11183200
_cell_angle_alpha   90.00000000
_cell_angle_beta   90.00000000
_cell_angle_gamma   90.00000000
_symmetry_Int_Tables_number   1
_chemical_formula_structural   Nd4InSbS9
_chemical_formula_sum   'Nd32 In8 Sb8 S72'
_cell_volume   2930.62063931
_cell_formula_units_Z   8
loop_
 _symmetry_equiv_pos_site_id
 _symmetry_equiv_pos_as_xyz
  1  'x, y, z'
loop_
 _atom_site_type_symbol
 _atom_site_label
 _atom_site_symmetry_multiplicity
 _atom_site_fract_x
 _atom_site_fract_y
 _atom_site_fract_z
 _atom_site_occupancy
  Nd  Nd0  1  0.05941100  0.72426300  0.16155400  1
  Nd  Nd1  1  0.94058900  0.27573700  0.66155400  1
  Nd  Nd2  1  0.22426300  0.44058900  0.41155400  1
  Nd  Nd3  1  0.77573700  0.55941100  0.91155400  1
  Nd  Nd4  1  0.27573700  0.94058900  0.33844600  1
  Nd  Nd5  1  0.72426300  0.05941100  0.83844600  1
  Nd  Nd6  1  0.44058900  0.22426300  0.58844600  1
  Nd  Nd7  1  0.55941100  0.77573700  0.08844600  1
  Nd  Nd8  1  0.01080500  0.65030100  0.30283700  1
  Nd  Nd9  1  0.98919500  0.34969900  0.80283700  1
  Nd  Nd10  1  0.15030100  0.48919500  0.55283700  1
  Nd  Nd11  1  0.84969900  0.51080500  0.05283700  1
  Nd  Nd12  1  0.34969900  0.98919500  0.19716300  1
  Nd  Nd13  1  0.65030100  0.01080500  0.69716300  1
  Nd  Nd14  1  0.48919500  0.15030100  0.44716300  1
  Nd  Nd15  1  0.51080500  0.84969900  0.94716300  1
  Nd  Nd16  1  0.73348800  0.50232000  0.19921000  1
  Nd  Nd17  1  0.26651200  0.49768000  0.69921000  1
  Nd  Nd18  1  0.00232000  0.76651200  0.44921000  1
  Nd  Nd19  1  0.99768000  0.23348800  0.94921000  1
  Nd  Nd20  1  0.49768000  0.26651200  0.30079000  1
  Nd  Nd21  1  0.50232000  0.73348800  0.80079000  1
  Nd  Nd22  1  0.76651200  0.00232000  0.55079000  1
  Nd  Nd23  1  0.23348800  0.99768000  0.05079000  1
  Nd  Nd24  1  0.05643000  0.27268000  0.15762300  1
  Nd  Nd25  1  0.94357000  0.72732000  0.65762300  1
  Nd  Nd26  1  0.77268000  0.44357000  0.40762300  1
  Nd  Nd27  1  0.22732000  0.55643000  0.90762300  1
  Nd  Nd28  1  0.72732000  0.94357000  0.34237700  1
  Nd  Nd29  1  0.27268000  0.05643000  0.84237700  1
  Nd  Nd30  1  0.44357000  0.77268000  0.59237700  1
  Nd  Nd31  1  0.55643000  0.22732000  0.09237700  1
  In  In32  1  0.29611900  0.51333000  0.04685000  1
  In  In33  1  0.70388100  0.48667000  0.54685000  1
  In  In34  1  0.01333000  0.20388100  0.29685000  1
  In  In35  1  0.98667000  0.79611900  0.79685000  1
  In  In36  1  0.48667000  0.70388100  0.45315000  1
  In  In37  1  0.51333000  0.29611900  0.95315000  1
  In  In38  1  0.20388100  0.01333000  0.70315000  1
  In  In39  1  0.79611900  0.98667000  0.20315000  1
  Sb  Sb40  1  0.35817700  0.49091800  0.19447300  1
  Sb  Sb41  1  0.64182300  0.50908200  0.69447300  1
  Sb  Sb42  1  0.99091800  0.14182300  0.44447300  1
  Sb  Sb43  1  0.00908200  0.85817700  0.94447300  1
  Sb  Sb44  1  0.50908200  0.64182300  0.30552700  1
  Sb  Sb45  1  0.49091800  0.35817700  0.80552700  1
  Sb  Sb46  1  0.14182300  0.99091800  0.55552700  1
  Sb  Sb47  1  0.85817700  0.00908200  0.05552700  1
  S  S48  1  0.51063900  0.67706200  0.21159900  1
  S  S49  1  0.48936100  0.32293800  0.71159900  1
  S  S50  1  0.17706200  0.98936100  0.46159900  1
  S  S51  1  0.82293800  0.01063900  0.96159900  1
  S  S52  1  0.32293800  0.48936100  0.28840100  1
  S  S53  1  0.67706200  0.51063900  0.78840100  1
  S  S54  1  0.98936100  0.17706200  0.53840100  1
  S  S55  1  0.01063900  0.82293800  0.03840100  1
  S  S56  1  0.02041200  0.18831900  0.04974000  1
  S  S57  1  0.97958800  0.81168100  0.54974000  1
  S  S58  1  0.68831900  0.47958800  0.29974000  1
  S  S59  1  0.31168100  0.52041200  0.79974000  1
  S  S60  1  0.81168100  0.97958800  0.45026000  1
  S  S61  1  0.18831900  0.02041200  0.95026000  1
  S  S62  1  0.47958800  0.68831900  0.70026000  1
  S  S63  1  0.52041200  0.31168100  0.20026000  1
  S  S64  1  0.99039300  0.99528700  0.14872800  1
  S  S65  1  0.00960700  0.00471300  0.64872800  1
  S  S66  1  0.49528700  0.50960700  0.39872800  1
  S  S67  1  0.50471300  0.49039300  0.89872800  1
  S  S68  1  0.00471300  0.00960700  0.35127200  1
  S  S69  1  0.99528700  0.99039300  0.85127200  1
  S  S70  1  0.50960700  0.49528700  0.60127200  1
  S  S71  1  0.49039300  0.50471300  0.10127200  1
  S  S72  1  0.10127800  0.50359000  0.09930000  1
  S  S73  1  0.89872200  0.49641000  0.59930000  1
  S  S74  1  0.00359000  0.39872200  0.34930000  1
  S  S75  1  0.99641000  0.60127800  0.84930000  1
  S  S76  1  0.49641000  0.89872200  0.40070000  1
  S  S77  1  0.50359000  0.10127800  0.90070000  1
  S  S78  1  0.39872200  0.00359000  0.65070000  1
  S  S79  1  0.60127800  0.99641000  0.15070000  1
  S  S80  1  0.30598500  0.30598500  0.00000000  1
  S  S81  1  0.69401500  0.69401500  0.50000000  1
  S  S82  1  0.80598500  0.19401500  0.25000000  1
  S  S83  1  0.19401500  0.80598500  0.75000000  1
  S  S84  1  0.20706400  0.19753700  0.24398600  1
  S  S85  1  0.79293600  0.80246300  0.74398600  1
  S  S86  1  0.69753700  0.29293600  0.49398600  1
  S  S87  1  0.30246300  0.70706400  0.99398600  1
  S  S88  1  0.80246300  0.79293600  0.25601400  1
  S  S89  1  0.19753700  0.20706400  0.75601400  1
  S  S90  1  0.29293600  0.69753700  0.50601400  1
  S  S91  1  0.70706400  0.30246300  0.00601400  1
  S  S92  1  0.00318900  0.49937000  0.21837800  1
  S  S93  1  0.99681100  0.50063000  0.71837800  1
  S  S94  1  0.99937000  0.49681100  0.46837800  1
  S  S95  1  0.00063000  0.50318900  0.96837800  1
  S  S96  1  0.50063000  0.99681100  0.28162200  1
  S  S97  1  0.49937000  0.00318900  0.78162200  1
  S  S98  1  0.49681100  0.99937000  0.53162200  1
  S  S99  1  0.50318900  0.00063000  0.03162200  1
  S  S100  1  0.29847900  0.17672300  0.12359400  1
  S  S101  1  0.70152100  0.82327700  0.62359400  1
  S  S102  1  0.67672300  0.20152100  0.37359400  1
  S  S103  1  0.32327700  0.79847900  0.87359400  1
  S  S104  1  0.82327700  0.70152100  0.37640600  1
  S  S105  1  0.17672300  0.29847900  0.87640600  1
  S  S106  1  0.20152100  0.67672300  0.62640600  1
  S  S107  1  0.79847900  0.32327700  0.12640600  1
  S  S108  1  0.29817300  0.81074800  0.12207500  1
  S  S109  1  0.70182700  0.18925200  0.62207500  1
  S  S110  1  0.31074800  0.20182700  0.37207500  1
  S  S111  1  0.68925200  0.79817300  0.87207500  1
  S  S112  1  0.18925200  0.70182700  0.37792500  1
  S  S113  1  0.81074800  0.29817300  0.87792500  1
  S  S114  1  0.20182700  0.31074800  0.62792500  1
  S  S115  1  0.79817300  0.68925200  0.12792500  1
  S  S116  1  0.18317900  0.81682100  0.25000000  1
  S  S117  1  0.81682100  0.18317900  0.75000000  1
  S  S118  1  0.31682100  0.31682100  0.50000000  1
  S  S119  1  0.68317900  0.68317900  0.00000000  1
