# generated using pymatgen
data_Sc(GaFe)6
_symmetry_space_group_name_H-M   'P 1'
_cell_length_a   6.51835948
_cell_length_b   6.51835948
_cell_length_c   6.51835948
_cell_angle_alpha   134.95796676
_cell_angle_beta   99.40436309
_cell_angle_gamma   97.47023178
_symmetry_Int_Tables_number   1
_chemical_formula_structural   Sc(GaFe)6
_chemical_formula_sum   'Sc1 Ga6 Fe6'
_cell_volume   181.00246205
_cell_formula_units_Z   1
loop_
 _symmetry_equiv_pos_site_id
 _symmetry_equiv_pos_as_xyz
  1  'x, y, z'
loop_
 _atom_site_type_symbol
 _atom_site_label
 _atom_site_symmetry_multiplicity
 _atom_site_fract_x
 _atom_site_fract_y
 _atom_site_fract_z
 _atom_site_occupancy
  Sc  Sc0  1  0.00000000  0.00000000  0.00000000  1
  Ga  Ga1  1  0.32655400  0.00000000  0.32655400  1
  Ga  Ga2  1  0.34061000  0.34061000  0.00000000  1
  Ga  Ga3  1  0.65939000  0.65939000  0.00000000  1
  Ga  Ga4  1  0.82336200  0.32336200  0.50000000  1
  Ga  Ga5  1  0.17663800  0.67663800  0.50000000  1
  Ga  Ga6  1  0.67344600  0.00000000  0.67344600  1
  Fe  Fe7  1  0.75627600  0.50000000  0.25627600  1
  Fe  Fe8  1  0.00000000  0.00000000  0.50000000  1
  Fe  Fe9  1  0.00000000  0.50000000  0.00000000  1
  Fe  Fe10  1  0.50000000  0.00000000  0.00000000  1
  Fe  Fe11  1  0.50000000  0.50000000  0.50000000  1
  Fe  Fe12  1  0.24372400  0.50000000  0.74372400  1
