# generated using pymatgen
data_KNd(MoO4)2
_symmetry_space_group_name_H-M   'P 1'
_cell_length_a   7.64089498
_cell_length_b   7.64089498
_cell_length_c   7.93454786
_cell_angle_alpha   61.64075232
_cell_angle_beta   61.64075232
_cell_angle_gamma   88.45251170
_symmetry_Int_Tables_number   1
_chemical_formula_structural   KNd(MoO4)2
_chemical_formula_sum   'K2 Nd2 Mo4 O16'
_cell_volume   346.72568039
_cell_formula_units_Z   2
loop_
 _symmetry_equiv_pos_site_id
 _symmetry_equiv_pos_as_xyz
  1  'x, y, z'
loop_
 _atom_site_type_symbol
 _atom_site_label
 _atom_site_symmetry_multiplicity
 _atom_site_fract_x
 _atom_site_fract_y
 _atom_site_fract_z
 _atom_site_occupancy
  K  K0  1  0.20037200  0.79962800  0.75000000  1
  K  K1  1  0.79962800  0.20037200  0.25000000  1
  Nd  Nd2  1  0.77037000  0.22963000  0.75000000  1
  Nd  Nd3  1  0.22963000  0.77037000  0.25000000  1
  Mo  Mo4  1  0.69245500  0.69654800  0.76058200  1
  Mo  Mo5  1  0.30754500  0.30345200  0.23941800  1
  Mo  Mo6  1  0.30345200  0.30754500  0.73941800  1
  Mo  Mo7  1  0.69654800  0.69245500  0.26058200  1
  O  O8  1  0.61422300  0.76680700  0.56342300  1
  O  O9  1  0.38577700  0.23319300  0.43657700  1
  O  O10  1  0.23319300  0.38577700  0.93657700  1
  O  O11  1  0.76680700  0.61422300  0.06342300  1
  O  O12  1  0.38490000  0.07317400  0.86903500  1
  O  O13  1  0.61510000  0.92682600  0.13096500  1
  O  O14  1  0.92682600  0.61510000  0.63096500  1
  O  O15  1  0.07317400  0.38490000  0.36903500  1
  O  O16  1  0.58192200  0.36895700  0.97490500  1
  O  O17  1  0.41807800  0.63104300  0.02509500  1
  O  O18  1  0.63104300  0.41807800  0.52509500  1
  O  O19  1  0.36895700  0.58192200  0.47490500  1
  O  O20  1  0.79392600  0.94711900  0.69040100  1
  O  O21  1  0.20607400  0.05288100  0.30959900  1
  O  O22  1  0.05288100  0.20607400  0.80959900  1
  O  O23  1  0.94711900  0.79392600  0.19040100  1
