# generated using pymatgen
data_Pr23Cd4Pt7
_symmetry_space_group_name_H-M   'P 1'
_cell_length_a   10.17547042
_cell_length_b   10.17547042
_cell_length_c   23.02334900
_cell_angle_alpha   90.00000000
_cell_angle_beta   90.00000000
_cell_angle_gamma   120.00000273
_symmetry_Int_Tables_number   1
_chemical_formula_structural   Pr23Cd4Pt7
_chemical_formula_sum   'Pr46 Cd8 Pt14'
_cell_volume   2064.46777785
_cell_formula_units_Z   2
loop_
 _symmetry_equiv_pos_site_id
 _symmetry_equiv_pos_as_xyz
  1  'x, y, z'
loop_
 _atom_site_type_symbol
 _atom_site_label
 _atom_site_symmetry_multiplicity
 _atom_site_fract_x
 _atom_site_fract_y
 _atom_site_fract_z
 _atom_site_occupancy
  Pr  Pr0  1  0.20525400  0.41050800  0.72089300  1
  Pr  Pr1  1  0.20525400  0.79474600  0.72089300  1
  Pr  Pr2  1  0.79474600  0.58949200  0.22089300  1
  Pr  Pr3  1  0.58949200  0.79474600  0.72089300  1
  Pr  Pr4  1  0.79474600  0.20525400  0.22089300  1
  Pr  Pr5  1  0.41050800  0.20525400  0.22089300  1
  Pr  Pr6  1  0.79444600  0.58889200  0.94531900  1
  Pr  Pr7  1  0.79444600  0.20555400  0.94531900  1
  Pr  Pr8  1  0.20555400  0.41110800  0.44531900  1
  Pr  Pr9  1  0.41110800  0.20555400  0.94531900  1
  Pr  Pr10  1  0.20555400  0.79444600  0.44531900  1
  Pr  Pr11  1  0.58889200  0.79444600  0.44531900  1
  Pr  Pr12  1  0.21115500  0.42231100  0.98954800  1
  Pr  Pr13  1  0.21115500  0.78884500  0.98954800  1
  Pr  Pr14  1  0.78884500  0.57768900  0.48954800  1
  Pr  Pr15  1  0.57768900  0.78884500  0.98954800  1
  Pr  Pr16  1  0.78884500  0.21115500  0.48954800  1
  Pr  Pr17  1  0.42231100  0.21115500  0.48954800  1
  Pr  Pr18  1  0.87144000  0.74288000  0.63632800  1
  Pr  Pr19  1  0.87144000  0.12856000  0.63632800  1
  Pr  Pr20  1  0.12856000  0.25712000  0.13632800  1
  Pr  Pr21  1  0.25712000  0.12856000  0.63632800  1
  Pr  Pr22  1  0.12856000  0.87144000  0.13632800  1
  Pr  Pr23  1  0.74288000  0.87144000  0.13632800  1
  Pr  Pr24  1  0.45661500  0.91322900  0.85622200  1
  Pr  Pr25  1  0.45661500  0.54338500  0.85622200  1
  Pr  Pr26  1  0.54338500  0.08677100  0.35622200  1
  Pr  Pr27  1  0.08677100  0.54338500  0.85622200  1
  Pr  Pr28  1  0.54338500  0.45661500  0.35622200  1
  Pr  Pr29  1  0.91322900  0.45661500  0.35622200  1
  Pr  Pr30  1  0.00000000  0.00000000  0.99615300  1
  Pr  Pr31  1  0.00000000  0.00000000  0.49615300  1
  Pr  Pr32  1  0.46122700  0.92245300  0.58489300  1
  Pr  Pr33  1  0.46122700  0.53877300  0.58489300  1
  Pr  Pr34  1  0.53877300  0.07754700  0.08489300  1
  Pr  Pr35  1  0.07754700  0.53877300  0.58489300  1
  Pr  Pr36  1  0.53877300  0.46122700  0.08489300  1
  Pr  Pr37  1  0.92245300  0.46122700  0.08489300  1
  Pr  Pr38  1  0.80098800  0.60197500  0.78393100  1
  Pr  Pr39  1  0.80098800  0.19901200  0.78393100  1
  Pr  Pr40  1  0.19901200  0.39802500  0.28393100  1
  Pr  Pr41  1  0.39802500  0.19901200  0.78393100  1
  Pr  Pr42  1  0.19901200  0.80098800  0.28393100  1
  Pr  Pr43  1  0.60197500  0.80098800  0.28393100  1
  Pr  Pr44  1  0.66666700  0.33333300  0.64277900  1
  Pr  Pr45  1  0.33333300  0.66666700  0.14277900  1
  Cd  Cd46  1  0.00000000  0.00000000  0.74897200  1
  Cd  Cd47  1  0.00000000  0.00000000  0.24897200  1
  Cd  Cd48  1  0.10723700  0.21447400  0.86324700  1
  Cd  Cd49  1  0.10723700  0.89276300  0.86324700  1
  Cd  Cd50  1  0.89276300  0.78552600  0.36324700  1
  Cd  Cd51  1  0.78552600  0.89276300  0.86324700  1
  Cd  Cd52  1  0.89276300  0.10723700  0.36324700  1
  Cd  Cd53  1  0.21447400  0.10723700  0.36324700  1
  Pt  Pt54  1  0.52270200  0.04540500  0.71079900  1
  Pt  Pt55  1  0.52270200  0.47729800  0.71079900  1
  Pt  Pt56  1  0.47729800  0.95459500  0.21079900  1
  Pt  Pt57  1  0.95459500  0.47729800  0.71079900  1
  Pt  Pt58  1  0.47729800  0.52270200  0.21079900  1
  Pt  Pt59  1  0.04540500  0.52270200  0.21079900  1
  Pt  Pt60  1  0.66666700  0.33333300  0.86143000  1
  Pt  Pt61  1  0.33333300  0.66666700  0.36143000  1
  Pt  Pt62  1  0.14273600  0.28547200  0.56461600  1
  Pt  Pt63  1  0.14273600  0.85726400  0.56461600  1
  Pt  Pt64  1  0.85726400  0.71452800  0.06461600  1
  Pt  Pt65  1  0.71452800  0.85726400  0.56461600  1
  Pt  Pt66  1  0.85726400  0.14273600  0.06461600  1
  Pt  Pt67  1  0.28547200  0.14273600  0.06461600  1
