# generated using pymatgen
data_InSiPt5
_symmetry_space_group_name_H-M   'P 1'
_cell_length_a   4.00079300
_cell_length_b   4.00079300
_cell_length_c   7.14766200
_cell_angle_alpha   90.00000000
_cell_angle_beta   90.00000000
_cell_angle_gamma   90.00000000
_symmetry_Int_Tables_number   1
_chemical_formula_structural   InSiPt5
_chemical_formula_sum   'In1 Si1 Pt5'
_cell_volume   114.40794126
_cell_formula_units_Z   1
loop_
 _symmetry_equiv_pos_site_id
 _symmetry_equiv_pos_as_xyz
  1  'x, y, z'
loop_
 _atom_site_type_symbol
 _atom_site_label
 _atom_site_symmetry_multiplicity
 _atom_site_fract_x
 _atom_site_fract_y
 _atom_site_fract_z
 _atom_site_occupancy
  In  In0  1  0.50000000  0.50000000  0.00000000  1
  Si  Si1  1  0.00000000  0.00000000  0.50000000  1
  Pt  Pt2  1  0.00000000  0.00000000  0.00000000  1
  Pt  Pt3  1  0.50000000  0.00000000  0.70309900  1
  Pt  Pt4  1  0.00000000  0.50000000  0.70309900  1
  Pt  Pt5  1  0.50000000  0.00000000  0.29690100  1
  Pt  Pt6  1  0.00000000  0.50000000  0.29690100  1
