# generated using pymatgen
data_Dy2Pt
_symmetry_space_group_name_H-M   'P 1'
_cell_length_a   4.77656600
_cell_length_b   7.17624600
_cell_length_c   8.80479400
_cell_angle_alpha   90.00000000
_cell_angle_beta   90.00000000
_cell_angle_gamma   90.00000000
_symmetry_Int_Tables_number   1
_chemical_formula_structural   Dy2Pt
_chemical_formula_sum   'Dy8 Pt4'
_cell_volume   301.80907916
_cell_formula_units_Z   4
loop_
 _symmetry_equiv_pos_site_id
 _symmetry_equiv_pos_as_xyz
  1  'x, y, z'
loop_
 _atom_site_type_symbol
 _atom_site_label
 _atom_site_symmetry_multiplicity
 _atom_site_fract_x
 _atom_site_fract_y
 _atom_site_fract_z
 _atom_site_occupancy
  Dy  Dy0  1  0.25000000  0.14514400  0.91975400  1
  Dy  Dy1  1  0.25000000  0.64514400  0.58024600  1
  Dy  Dy2  1  0.75000000  0.85485600  0.08024600  1
  Dy  Dy3  1  0.75000000  0.35485600  0.41975400  1
  Dy  Dy4  1  0.25000000  0.01152500  0.33124900  1
  Dy  Dy5  1  0.25000000  0.51152500  0.16875100  1
  Dy  Dy6  1  0.75000000  0.98847500  0.66875100  1
  Dy  Dy7  1  0.75000000  0.48847500  0.83124900  1
  Pt  Pt8  1  0.25000000  0.24146000  0.59372400  1
  Pt  Pt9  1  0.25000000  0.74146000  0.90627600  1
  Pt  Pt10  1  0.75000000  0.75854000  0.40627600  1
  Pt  Pt11  1  0.75000000  0.25854000  0.09372400  1
