# generated using pymatgen
data_NaSrGaF6
_symmetry_space_group_name_H-M   'P 1'
_cell_length_a   5.44689400
_cell_length_b   9.37702600
_cell_length_c   10.48264300
_cell_angle_alpha   90.00000000
_cell_angle_beta   90.00000000
_cell_angle_gamma   90.00000000
_symmetry_Int_Tables_number   1
_chemical_formula_structural   NaSrGaF6
_chemical_formula_sum   'Na4 Sr4 Ga4 F24'
_cell_volume   535.40797955
_cell_formula_units_Z   4
loop_
 _symmetry_equiv_pos_site_id
 _symmetry_equiv_pos_as_xyz
  1  'x, y, z'
loop_
 _atom_site_type_symbol
 _atom_site_label
 _atom_site_symmetry_multiplicity
 _atom_site_fract_x
 _atom_site_fract_y
 _atom_site_fract_z
 _atom_site_occupancy
  Na  Na0  1  0.04383300  0.64637300  0.08297100  1
  Na  Na1  1  0.45616700  0.35362700  0.58297100  1
  Na  Na2  1  0.95616700  0.14637300  0.41702900  1
  Na  Na3  1  0.54383300  0.85362700  0.91702900  1
  Sr  Sr4  1  0.50553900  0.31448200  0.17749700  1
  Sr  Sr5  1  0.99446100  0.68551800  0.67749700  1
  Sr  Sr6  1  0.49446100  0.81448200  0.32250300  1
  Sr  Sr7  1  0.00553900  0.18551800  0.82250300  1
  Ga  Ga8  1  0.03682800  0.00089000  0.12633800  1
  Ga  Ga9  1  0.46317200  0.99911000  0.62633800  1
  Ga  Ga10  1  0.96317200  0.50089000  0.37366200  1
  Ga  Ga11  1  0.53682800  0.49911000  0.87366200  1
  F  F12  1  0.21352700  0.14103200  0.58657800  1
  F  F13  1  0.28647300  0.85896800  0.08657800  1
  F  F14  1  0.78647300  0.64103200  0.91342200  1
  F  F15  1  0.71352700  0.35896800  0.41342200  1
  F  F16  1  0.20847400  0.62075900  0.29693100  1
  F  F17  1  0.29152600  0.37924100  0.79693100  1
  F  F18  1  0.79152600  0.12075900  0.20306900  1
  F  F19  1  0.70847400  0.87924100  0.70306900  1
  F  F20  1  0.21676400  0.15765500  0.04890600  1
  F  F21  1  0.28323600  0.84234500  0.54890600  1
  F  F22  1  0.78323600  0.65765500  0.45109400  1
  F  F23  1  0.71676400  0.34234500  0.95109400  1
  F  F24  1  0.15544900  0.33981800  0.31804800  1
  F  F25  1  0.34455100  0.66018200  0.81804800  1
  F  F26  1  0.84455100  0.83981800  0.18195200  1
  F  F27  1  0.65544900  0.16018200  0.68195200  1
  F  F28  1  0.36259500  0.50428300  0.03212000  1
  F  F29  1  0.13740500  0.49571700  0.53212000  1
  F  F30  1  0.63740500  0.00428300  0.46788000  1
  F  F31  1  0.86259500  0.99571700  0.96788000  1
  F  F32  1  0.21767600  0.02167500  0.28284400  1
  F  F33  1  0.28232400  0.97832500  0.78284400  1
  F  F34  1  0.78232400  0.52167500  0.21715600  1
  F  F35  1  0.71767600  0.47832500  0.71715600  1
