# generated using pymatgen
data_Rb5Tl9
_symmetry_space_group_name_H-M   'P 1'
_cell_length_a   10.58983240
_cell_length_b   10.58983240
_cell_length_c   18.21107500
_cell_angle_alpha   90.00000000
_cell_angle_beta   90.00000000
_cell_angle_gamma   120.00000252
_symmetry_Int_Tables_number   1
_chemical_formula_structural   Rb5Tl9
_chemical_formula_sum   'Rb15 Tl27'
_cell_volume   1768.66009609
_cell_formula_units_Z   3
loop_
 _symmetry_equiv_pos_site_id
 _symmetry_equiv_pos_as_xyz
  1  'x, y, z'
loop_
 _atom_site_type_symbol
 _atom_site_label
 _atom_site_symmetry_multiplicity
 _atom_site_fract_x
 _atom_site_fract_y
 _atom_site_fract_z
 _atom_site_occupancy
  Rb  Rb0  1  0.38744200  0.38744200  0.81662400  1
  Rb  Rb1  1  0.61255800  0.00000000  0.81662400  1
  Rb  Rb2  1  0.00000000  0.61255800  0.81662400  1
  Rb  Rb3  1  0.38744200  0.38744200  0.18337600  1
  Rb  Rb4  1  0.61255800  0.00000000  0.18337600  1
  Rb  Rb5  1  0.00000000  0.61255800  0.18337600  1
  Rb  Rb6  1  0.33333300  0.66666700  0.00000000  1
  Rb  Rb7  1  0.66666700  0.33333300  0.00000000  1
  Rb  Rb8  1  0.72899400  0.72899400  0.68860500  1
  Rb  Rb9  1  0.27100600  0.00000000  0.68860500  1
  Rb  Rb10  1  0.00000000  0.27100600  0.68860500  1
  Rb  Rb11  1  0.72899400  0.72899400  0.31139500  1
  Rb  Rb12  1  0.27100600  0.00000000  0.31139500  1
  Rb  Rb13  1  0.00000000  0.27100600  0.31139500  1
  Rb  Rb14  1  0.00000000  0.00000000  0.50000000  1
  Tl  Tl15  1  0.00000000  0.00000000  0.85039800  1
  Tl  Tl16  1  0.00000000  0.00000000  0.14960200  1
  Tl  Tl17  1  0.21165400  0.21165400  0.00000000  1
  Tl  Tl18  1  0.78834600  0.00000000  0.00000000  1
  Tl  Tl19  1  0.00000000  0.78834600  0.00000000  1
  Tl  Tl20  1  0.71548100  0.71548100  0.90908100  1
  Tl  Tl21  1  0.28451900  0.00000000  0.90908100  1
  Tl  Tl22  1  0.00000000  0.28451900  0.90908100  1
  Tl  Tl23  1  0.71548100  0.71548100  0.09091900  1
  Tl  Tl24  1  0.28451900  0.00000000  0.09091900  1
  Tl  Tl25  1  0.00000000  0.28451900  0.09091900  1
  Tl  Tl26  1  0.82777900  0.29328100  0.50000000  1
  Tl  Tl27  1  0.70671900  0.53449700  0.50000000  1
  Tl  Tl28  1  0.46550300  0.17222100  0.50000000  1
  Tl  Tl29  1  0.29328100  0.82777900  0.50000000  1
  Tl  Tl30  1  0.53449700  0.70671900  0.50000000  1
  Tl  Tl31  1  0.17222100  0.46550300  0.50000000  1
  Tl  Tl32  1  0.38133100  0.38133100  0.59983300  1
  Tl  Tl33  1  0.61866900  0.00000000  0.59983300  1
  Tl  Tl34  1  0.00000000  0.61866900  0.59983300  1
  Tl  Tl35  1  0.38133100  0.38133100  0.40016700  1
  Tl  Tl36  1  0.61866900  0.00000000  0.40016700  1
  Tl  Tl37  1  0.00000000  0.61866900  0.40016700  1
  Tl  Tl38  1  0.66666700  0.33333300  0.65527600  1
  Tl  Tl39  1  0.66666700  0.33333300  0.34472400  1
  Tl  Tl40  1  0.33333300  0.66666700  0.65527600  1
  Tl  Tl41  1  0.33333300  0.66666700  0.34472400  1
