# generated using pymatgen
data_Al3BC3
_symmetry_space_group_name_H-M   'P 1'
_cell_length_a   5.93351412
_cell_length_b   5.93351412
_cell_length_c   15.93134300
_cell_angle_alpha   90.00000000
_cell_angle_beta   90.00000000
_cell_angle_gamma   120.00000137
_symmetry_Int_Tables_number   1
_chemical_formula_structural   Al3BC3
_chemical_formula_sum   'Al18 B6 C18'
_cell_volume   485.74347405
_cell_formula_units_Z   6
loop_
 _symmetry_equiv_pos_site_id
 _symmetry_equiv_pos_as_xyz
  1  'x, y, z'
loop_
 _atom_site_type_symbol
 _atom_site_label
 _atom_site_symmetry_multiplicity
 _atom_site_fract_x
 _atom_site_fract_y
 _atom_site_fract_z
 _atom_site_occupancy
  Al  Al0  1  0.67787400  0.00000000  0.12182000  1
  Al  Al1  1  0.00000000  0.67787400  0.12182000  1
  Al  Al2  1  0.32212600  0.32212600  0.12182000  1
  Al  Al3  1  0.67787400  0.67787400  0.62182000  1
  Al  Al4  1  0.32212600  0.00000000  0.62182000  1
  Al  Al5  1  0.00000000  0.32212600  0.62182000  1
  Al  Al6  1  0.00000000  0.34539400  0.87688100  1
  Al  Al7  1  0.65460600  0.65460600  0.87688100  1
  Al  Al8  1  0.34539400  0.00000000  0.87688100  1
  Al  Al9  1  0.00000000  0.65460600  0.37688100  1
  Al  Al10  1  0.34539400  0.34539400  0.37688100  1
  Al  Al11  1  0.65460600  0.00000000  0.37688100  1
  Al  Al12  1  0.33333300  0.66666700  0.74292800  1
  Al  Al13  1  0.33333300  0.66666700  0.24292800  1
  Al  Al14  1  0.66666700  0.33333300  0.74292800  1
  Al  Al15  1  0.66666700  0.33333300  0.24292800  1
  Al  Al16  1  0.00000000  0.00000000  0.26447400  1
  Al  Al17  1  0.00000000  0.00000000  0.76447400  1
  B  B18  1  0.00000000  0.00000000  0.49107400  1
  B  B19  1  0.00000000  0.00000000  0.99107400  1
  B  B20  1  0.66666700  0.33333300  0.50633800  1
  B  B21  1  0.66666700  0.33333300  0.00633800  1
  B  B22  1  0.33333300  0.66666700  0.50633800  1
  B  B23  1  0.33333300  0.66666700  0.00633800  1
  C  C24  1  0.00000000  0.00000000  0.40093900  1
  C  C25  1  0.00000000  0.00000000  0.90093900  1
  C  C26  1  0.66666700  0.33333300  0.59657100  1
  C  C27  1  0.66666700  0.33333300  0.09657100  1
  C  C28  1  0.00000000  0.66696600  0.24932300  1
  C  C29  1  0.33303400  0.33303400  0.24932300  1
  C  C30  1  0.66696600  0.00000000  0.24932300  1
  C  C31  1  0.00000000  0.33303400  0.74932300  1
  C  C32  1  0.66696600  0.66696600  0.74932300  1
  C  C33  1  0.33303400  0.00000000  0.74932300  1
  C  C34  1  0.00000000  0.00000000  0.58169800  1
  C  C35  1  0.00000000  0.00000000  0.08169800  1
  C  C36  1  0.66666700  0.33333300  0.41561000  1
  C  C37  1  0.66666700  0.33333300  0.91561000  1
  C  C38  1  0.33333300  0.66666700  0.59657100  1
  C  C39  1  0.33333300  0.66666700  0.09657100  1
  C  C40  1  0.33333300  0.66666700  0.41561000  1
  C  C41  1  0.33333300  0.66666700  0.91561000  1
