# generated using pymatgen
data_SrAl2H6C2O11
_symmetry_space_group_name_H-M   'P 1'
_cell_length_a   5.65124000
_cell_length_b   9.16582200
_cell_length_c   16.18138000
_cell_angle_alpha   90.00000000
_cell_angle_beta   90.00000000
_cell_angle_gamma   90.00000000
_symmetry_Int_Tables_number   1
_chemical_formula_structural   SrAl2H6C2O11
_chemical_formula_sum   'Sr4 Al8 H24 C8 O44'
_cell_volume   838.16732709
_cell_formula_units_Z   4
loop_
 _symmetry_equiv_pos_site_id
 _symmetry_equiv_pos_as_xyz
  1  'x, y, z'
loop_
 _atom_site_type_symbol
 _atom_site_label
 _atom_site_symmetry_multiplicity
 _atom_site_fract_x
 _atom_site_fract_y
 _atom_site_fract_z
 _atom_site_occupancy
  Sr  Sr0  1  0.25000000  0.47558500  0.41420500  1
  Sr  Sr1  1  0.75000000  0.52441500  0.58579500  1
  Sr  Sr2  1  0.75000000  0.97558500  0.08579500  1
  Sr  Sr3  1  0.25000000  0.02441500  0.91420500  1
  Al  Al4  1  0.50183000  0.17226400  0.29581000  1
  Al  Al5  1  0.49817000  0.82773600  0.70419000  1
  Al  Al6  1  0.49817000  0.67226400  0.20419000  1
  Al  Al7  1  0.00183000  0.82773600  0.70419000  1
  Al  Al8  1  0.50183000  0.32773600  0.79581000  1
  Al  Al9  1  0.99817000  0.17226400  0.29581000  1
  Al  Al10  1  0.99817000  0.32773600  0.79581000  1
  Al  Al11  1  0.00183000  0.67226400  0.20419000  1
  H  H12  1  0.25000000  0.86966600  0.28068900  1
  H  H13  1  0.75000000  0.13033400  0.71931100  1
  H  H14  1  0.75000000  0.36966600  0.21931100  1
  H  H15  1  0.25000000  0.63033400  0.78068900  1
  H  H16  1  0.11082500  0.34115500  0.02993500  1
  H  H17  1  0.88917500  0.65884500  0.97006500  1
  H  H18  1  0.88917500  0.84115500  0.47006500  1
  H  H19  1  0.61082500  0.65884500  0.97006500  1
  H  H20  1  0.11082500  0.15884500  0.52993500  1
  H  H21  1  0.38917500  0.34115500  0.02993500  1
  H  H22  1  0.38917500  0.15884500  0.52993500  1
  H  H23  1  0.61082500  0.84115500  0.47006500  1
  H  H24  1  0.25000000  0.03392900  0.39444700  1
  H  H25  1  0.75000000  0.96607100  0.60555300  1
  H  H26  1  0.75000000  0.53392900  0.10555300  1
  H  H27  1  0.25000000  0.46607100  0.89444700  1
  H  H28  1  0.25000000  0.38795000  0.24368600  1
  H  H29  1  0.75000000  0.61205000  0.75631400  1
  H  H30  1  0.75000000  0.88795000  0.25631400  1
  H  H31  1  0.25000000  0.11205000  0.74368600  1
  H  H32  1  0.25000000  0.48380800  0.13214000  1
  H  H33  1  0.75000000  0.51619200  0.86786000  1
  H  H34  1  0.75000000  0.98380800  0.36786000  1
  H  H35  1  0.25000000  0.01619200  0.63214000  1
  C  C36  1  0.25000000  0.08151800  0.14596900  1
  C  C37  1  0.75000000  0.91848200  0.85403100  1
  C  C38  1  0.75000000  0.58151800  0.35403100  1
  C  C39  1  0.25000000  0.41848200  0.64596900  1
  C  C40  1  0.25000000  0.74832500  0.05044500  1
  C  C41  1  0.75000000  0.25167500  0.94955500  1
  C  C42  1  0.75000000  0.24832500  0.44955500  1
  C  C43  1  0.25000000  0.75167500  0.55044500  1
  O  O44  1  0.25000000  0.30586200  0.28543000  1
  O  O45  1  0.75000000  0.69413800  0.71457000  1
  O  O46  1  0.75000000  0.80586200  0.21457000  1
  O  O47  1  0.25000000  0.19413800  0.78543000  1
  O  O48  1  0.25000000  0.78673800  0.24172300  1
  O  O49  1  0.75000000  0.21326200  0.75827700  1
  O  O50  1  0.75000000  0.28673800  0.25827700  1
  O  O51  1  0.25000000  0.71326200  0.74172300  1
  O  O52  1  0.25000000  0.04554500  0.06907800  1
  O  O53  1  0.75000000  0.95445500  0.93092200  1
  O  O54  1  0.75000000  0.54554500  0.43092200  1
  O  O55  1  0.25000000  0.45445500  0.56907800  1
  O  O56  1  0.04967400  0.09830300  0.18437000  1
  O  O57  1  0.95032600  0.90169700  0.81563000  1
  O  O58  1  0.95032600  0.59830300  0.31563000  1
  O  O59  1  0.54967400  0.90169700  0.81563000  1
  O  O60  1  0.04967400  0.40169700  0.68437000  1
  O  O61  1  0.45032600  0.09830300  0.18437000  1
  O  O62  1  0.45032600  0.40169700  0.68437000  1
  O  O63  1  0.54967400  0.59830300  0.31563000  1
  O  O64  1  0.54821400  0.24015000  0.40944300  1
  O  O65  1  0.45178600  0.75985000  0.59055700  1
  O  O66  1  0.45178600  0.74015000  0.09055700  1
  O  O67  1  0.04821400  0.75985000  0.59055700  1
  O  O68  1  0.54821400  0.25985000  0.90944300  1
  O  O69  1  0.95178600  0.24015000  0.40944300  1
  O  O70  1  0.95178600  0.25985000  0.90944300  1
  O  O71  1  0.04821400  0.74015000  0.09055700  1
  O  O72  1  0.25000000  0.40265400  0.04086800  1
  O  O73  1  0.75000000  0.59734600  0.95913200  1
  O  O74  1  0.75000000  0.90265400  0.45913200  1
  O  O75  1  0.25000000  0.09734600  0.54086800  1
  O  O76  1  0.25000000  0.53351200  0.18770200  1
  O  O77  1  0.75000000  0.46648800  0.81229800  1
  O  O78  1  0.75000000  0.03351200  0.31229800  1
  O  O79  1  0.25000000  0.96648800  0.68770200  1
  O  O80  1  0.25000000  0.73530800  0.47223000  1
  O  O81  1  0.75000000  0.26469200  0.52777000  1
  O  O82  1  0.75000000  0.23530800  0.02777000  1
  O  O83  1  0.25000000  0.76469200  0.97223000  1
  O  O84  1  0.25000000  0.04633800  0.33434200  1
  O  O85  1  0.75000000  0.95366200  0.66565800  1
  O  O86  1  0.75000000  0.54633800  0.16565800  1
  O  O87  1  0.25000000  0.45366200  0.83434200  1
