# generated using pymatgen
data_Sm2NiB10
_symmetry_space_group_name_H-M   'P 1'
_cell_length_a   4.17402200
_cell_length_b   5.60586800
_cell_length_c   11.16386500
_cell_angle_alpha   90.00000000
_cell_angle_beta   90.00000000
_cell_angle_gamma   90.00000000
_symmetry_Int_Tables_number   1
_chemical_formula_structural   Sm2NiB10
_chemical_formula_sum   'Sm4 Ni2 B20'
_cell_volume   261.22345979
_cell_formula_units_Z   2
loop_
 _symmetry_equiv_pos_site_id
 _symmetry_equiv_pos_as_xyz
  1  'x, y, z'
loop_
 _atom_site_type_symbol
 _atom_site_label
 _atom_site_symmetry_multiplicity
 _atom_site_fract_x
 _atom_site_fract_y
 _atom_site_fract_z
 _atom_site_occupancy
  Sm  Sm0  1  0.50000000  0.19325200  0.36363400  1
  Sm  Sm1  1  0.50000000  0.80674800  0.63636600  1
  Sm  Sm2  1  0.50000000  0.30674800  0.86363400  1
  Sm  Sm3  1  0.50000000  0.69325200  0.13636600  1
  Ni  Ni4  1  0.00000000  0.00000000  0.00000000  1
  Ni  Ni5  1  0.00000000  0.50000000  0.50000000  1
  B  B6  1  0.00000000  0.37479700  0.04120300  1
  B  B7  1  0.00000000  0.62520300  0.95879700  1
  B  B8  1  0.00000000  0.12520300  0.54120300  1
  B  B9  1  0.00000000  0.87479700  0.45879700  1
  B  B10  1  0.00000000  0.34581700  0.19732300  1
  B  B11  1  0.00000000  0.65418300  0.80267700  1
  B  B12  1  0.00000000  0.15418300  0.69732300  1
  B  B13  1  0.00000000  0.84581700  0.30267700  1
  B  B14  1  0.00000000  0.03653700  0.18804000  1
  B  B15  1  0.00000000  0.96346300  0.81196000  1
  B  B16  1  0.00000000  0.46346300  0.68804000  1
  B  B17  1  0.00000000  0.53653700  0.31196000  1
  B  B18  1  0.30027200  0.20344500  0.11379400  1
  B  B19  1  0.69972800  0.79655500  0.88620600  1
  B  B20  1  0.30027200  0.79655500  0.88620600  1
  B  B21  1  0.69972800  0.29655500  0.61379400  1
  B  B22  1  0.69972800  0.20344500  0.11379400  1
  B  B23  1  0.30027200  0.70344500  0.38620600  1
  B  B24  1  0.69972800  0.70344500  0.38620600  1
  B  B25  1  0.30027200  0.29655500  0.61379400  1
