# generated using pymatgen
data_CsZr2Al(PO4)4
_symmetry_space_group_name_H-M   'P 1'
_cell_length_a   8.86450100
_cell_length_b   9.55197000
_cell_length_c   18.27578300
_cell_angle_alpha   90.00000000
_cell_angle_beta   90.00000000
_cell_angle_gamma   90.00000000
_symmetry_Int_Tables_number   1
_chemical_formula_structural   CsZr2Al(PO4)4
_chemical_formula_sum   'Cs4 Zr8 Al4 P16 O64'
_cell_volume   1547.47355451
_cell_formula_units_Z   4
loop_
 _symmetry_equiv_pos_site_id
 _symmetry_equiv_pos_as_xyz
  1  'x, y, z'
loop_
 _atom_site_type_symbol
 _atom_site_label
 _atom_site_symmetry_multiplicity
 _atom_site_fract_x
 _atom_site_fract_y
 _atom_site_fract_z
 _atom_site_occupancy
  Cs  Cs0  1  0.34734100  0.75015100  0.25000000  1
  Cs  Cs1  1  0.65265900  0.24984900  0.75000000  1
  Cs  Cs2  1  0.34734100  0.74984900  0.75000000  1
  Cs  Cs3  1  0.65265900  0.25015100  0.25000000  1
  Zr  Zr4  1  0.24870000  0.03110200  0.42859700  1
  Zr  Zr5  1  0.75130000  0.96889800  0.92859700  1
  Zr  Zr6  1  0.24870000  0.46889800  0.57140300  1
  Zr  Zr7  1  0.75130000  0.53110200  0.07140300  1
  Zr  Zr8  1  0.75130000  0.96889800  0.57140300  1
  Zr  Zr9  1  0.24870000  0.03110200  0.07140300  1
  Zr  Zr10  1  0.75130000  0.53110200  0.42859700  1
  Zr  Zr11  1  0.24870000  0.46889800  0.92859700  1
  Al  Al12  1  0.80049700  0.89737400  0.25000000  1
  Al  Al13  1  0.19950300  0.10262600  0.75000000  1
  Al  Al14  1  0.80049700  0.60262600  0.75000000  1
  Al  Al15  1  0.19950300  0.39737400  0.25000000  1
  P  P16  1  0.09876900  0.07687900  0.25000000  1
  P  P17  1  0.90123100  0.92312100  0.75000000  1
  P  P18  1  0.09876900  0.42312100  0.75000000  1
  P  P19  1  0.90123100  0.57687900  0.25000000  1
  P  P20  1  0.03498000  0.75000000  0.50000000  1
  P  P21  1  0.96502000  0.25000000  0.00000000  1
  P  P22  1  0.96502000  0.25000000  0.50000000  1
  P  P23  1  0.03498000  0.75000000  0.00000000  1
  P  P24  1  0.60866700  0.87348700  0.39831500  1
  P  P25  1  0.39133300  0.12651300  0.89831500  1
  P  P26  1  0.60866700  0.62651300  0.60168500  1
  P  P27  1  0.39133300  0.37348700  0.10168500  1
  P  P28  1  0.39133300  0.12651300  0.60168500  1
  P  P29  1  0.60866700  0.87348700  0.10168500  1
  P  P30  1  0.39133300  0.37348700  0.39831500  1
  P  P31  1  0.60866700  0.62651300  0.89831500  1
  O  O32  1  0.10343200  0.23846300  0.25000000  1
  O  O33  1  0.89656800  0.76153700  0.75000000  1
  O  O34  1  0.10343200  0.26153700  0.75000000  1
  O  O35  1  0.89656800  0.73846300  0.25000000  1
  O  O36  1  0.92952400  0.03677800  0.25000000  1
  O  O37  1  0.07047600  0.96322200  0.75000000  1
  O  O38  1  0.92952400  0.46322200  0.75000000  1
  O  O39  1  0.07047600  0.53677800  0.25000000  1
  O  O40  1  0.17742200  0.01737600  0.31798600  1
  O  O41  1  0.82257800  0.98262400  0.81798600  1
  O  O42  1  0.17742200  0.48262400  0.68201400  1
  O  O43  1  0.82257800  0.51737600  0.18201400  1
  O  O44  1  0.82257800  0.98262400  0.68201400  1
  O  O45  1  0.17742200  0.01737600  0.18201400  1
  O  O46  1  0.82257800  0.51737600  0.31798600  1
  O  O47  1  0.17742200  0.48262400  0.81798600  1
  O  O48  1  0.06411600  0.16016800  0.44880400  1
  O  O49  1  0.93588400  0.83983200  0.94880400  1
  O  O50  1  0.06411600  0.33983200  0.55119600  1
  O  O51  1  0.93588400  0.66016800  0.05119600  1
  O  O52  1  0.93588400  0.83983200  0.55119600  1
  O  O53  1  0.06411600  0.16016800  0.05119600  1
  O  O54  1  0.93588400  0.66016800  0.44880400  1
  O  O55  1  0.06411600  0.33983200  0.94880400  1
  O  O56  1  0.13509700  0.84749100  0.45315500  1
  O  O57  1  0.86490300  0.15250900  0.95315500  1
  O  O58  1  0.13509700  0.65250900  0.54684500  1
  O  O59  1  0.86490300  0.34749100  0.04684500  1
  O  O60  1  0.86490300  0.15250900  0.54684500  1
  O  O61  1  0.13509700  0.84749100  0.04684500  1
  O  O62  1  0.86490300  0.34749100  0.45315500  1
  O  O63  1  0.13509700  0.65250900  0.95315500  1
  O  O64  1  0.44020700  0.91356900  0.39596100  1
  O  O65  1  0.55979300  0.08643100  0.89596100  1
  O  O66  1  0.44020700  0.58643100  0.60403900  1
  O  O67  1  0.55979300  0.41356900  0.10403900  1
  O  O68  1  0.55979300  0.08643100  0.60403900  1
  O  O69  1  0.44020700  0.91356900  0.10403900  1
  O  O70  1  0.55979300  0.41356900  0.39596100  1
  O  O71  1  0.44020700  0.58643100  0.89596100  1
  O  O72  1  0.68584100  0.94744900  0.46275400  1
  O  O73  1  0.31415900  0.05255100  0.96275400  1
  O  O74  1  0.68584100  0.55255100  0.53724600  1
  O  O75  1  0.31415900  0.44744900  0.03724600  1
  O  O76  1  0.31415900  0.05255100  0.53724600  1
  O  O77  1  0.68584100  0.94744900  0.03724600  1
  O  O78  1  0.31415900  0.44744900  0.46275400  1
  O  O79  1  0.68584100  0.55255100  0.96275400  1
  O  O80  1  0.62458500  0.71357800  0.40193700  1
  O  O81  1  0.37541500  0.28642200  0.90193700  1
  O  O82  1  0.62458500  0.78642200  0.59806300  1
  O  O83  1  0.37541500  0.21357800  0.09806300  1
  O  O84  1  0.37541500  0.28642200  0.59806300  1
  O  O85  1  0.62458500  0.71357800  0.09806300  1
  O  O86  1  0.37541500  0.21357800  0.40193700  1
  O  O87  1  0.62458500  0.78642200  0.90193700  1
  O  O88  1  0.68132500  0.92508300  0.32529100  1
  O  O89  1  0.31867500  0.07491700  0.82529100  1
  O  O90  1  0.68132500  0.57491700  0.67470900  1
  O  O91  1  0.31867500  0.42508300  0.17470900  1
  O  O92  1  0.31867500  0.07491700  0.67470900  1
  O  O93  1  0.68132500  0.92508300  0.17470900  1
  O  O94  1  0.31867500  0.42508300  0.32529100  1
  O  O95  1  0.68132500  0.57491700  0.82529100  1
