# generated using pymatgen
data_Na3VP8O23
_symmetry_space_group_name_H-M   'P 1'
_cell_length_a   12.17756500
_cell_length_b   12.17756500
_cell_length_c   12.17756500
_cell_angle_alpha   90.00000000
_cell_angle_beta   90.00000000
_cell_angle_gamma   90.00000000
_symmetry_Int_Tables_number   1
_chemical_formula_structural   Na3VP8O23
_chemical_formula_sum   'Na12 V4 P32 O92'
_cell_volume   1805.84873436
_cell_formula_units_Z   4
loop_
 _symmetry_equiv_pos_site_id
 _symmetry_equiv_pos_as_xyz
  1  'x, y, z'
loop_
 _atom_site_type_symbol
 _atom_site_label
 _atom_site_symmetry_multiplicity
 _atom_site_fract_x
 _atom_site_fract_y
 _atom_site_fract_z
 _atom_site_occupancy
  Na  Na0  1  0.37500000  0.95557000  0.79443000  1
  Na  Na1  1  0.87500000  0.54443000  0.20557000  1
  Na  Na2  1  0.04443000  0.29443000  0.12500000  1
  Na  Na3  1  0.95557000  0.79443000  0.37500000  1
  Na  Na4  1  0.20557000  0.87500000  0.54443000  1
  Na  Na5  1  0.29443000  0.12500000  0.04443000  1
  Na  Na6  1  0.45557000  0.70557000  0.62500000  1
  Na  Na7  1  0.79443000  0.37500000  0.95557000  1
  Na  Na8  1  0.70557000  0.62500000  0.45557000  1
  Na  Na9  1  0.54443000  0.20557000  0.87500000  1
  Na  Na10  1  0.62500000  0.45557000  0.70557000  1
  Na  Na11  1  0.12500000  0.04443000  0.29443000  1
  V  V12  1  0.87500000  0.12500000  0.62500000  1
  V  V13  1  0.12500000  0.62500000  0.87500000  1
  V  V14  1  0.62500000  0.87500000  0.12500000  1
  V  V15  1  0.37500000  0.37500000  0.37500000  1
  P  P16  1  0.06852800  0.35902700  0.85400200  1
  P  P17  1  0.89599800  0.39097300  0.68147200  1
  P  P18  1  0.35902700  0.85400200  0.06852800  1
  P  P19  1  0.85902700  0.64599800  0.93147200  1
  P  P20  1  0.64097300  0.35400200  0.43147200  1
  P  P21  1  0.64599800  0.93147200  0.85902700  1
  P  P22  1  0.43147200  0.64097300  0.35400200  1
  P  P23  1  0.93147200  0.85902700  0.64599800  1
  P  P24  1  0.85400200  0.06852800  0.35902700  1
  P  P25  1  0.60400200  0.60902700  0.18147200  1
  P  P26  1  0.35400200  0.43147200  0.64097300  1
  P  P27  1  0.14599800  0.56852800  0.14097300  1
  P  P28  1  0.81852800  0.10400200  0.89097300  1
  P  P29  1  0.39599800  0.10902700  0.31852800  1
  P  P30  1  0.10400200  0.89097300  0.81852800  1
  P  P31  1  0.68147200  0.89599800  0.39097300  1
  P  P32  1  0.31852800  0.39599800  0.10902700  1
  P  P33  1  0.89097300  0.81852800  0.10400200  1
  P  P34  1  0.39097300  0.68147200  0.89599800  1
  P  P35  1  0.14097300  0.14599800  0.56852800  1
  P  P36  1  0.18147200  0.60400200  0.60902700  1
  P  P37  1  0.10902700  0.31852800  0.39599800  1
  P  P38  1  0.60902700  0.18147200  0.60400200  1
  P  P39  1  0.01730500  0.01730500  0.01730500  1
  P  P40  1  0.26730500  0.23269500  0.76730500  1
  P  P41  1  0.76730500  0.26730500  0.23269500  1
  P  P42  1  0.23269500  0.76730500  0.26730500  1
  P  P43  1  0.48269500  0.98269500  0.51730500  1
  P  P44  1  0.51730500  0.48269500  0.98269500  1
  P  P45  1  0.98269500  0.51730500  0.48269500  1
  P  P46  1  0.73269500  0.73269500  0.73269500  1
  P  P47  1  0.56852800  0.14097300  0.14599800  1
  O  O48  1  0.66238800  0.66238800  0.66238800  1
  O  O49  1  0.91238800  0.58761200  0.41238800  1
  O  O50  1  0.58761200  0.41238800  0.91238800  1
  O  O51  1  0.41238800  0.91238800  0.58761200  1
  O  O52  1  0.16238800  0.83761200  0.33761200  1
  O  O53  1  0.83761200  0.33761200  0.16238800  1
  O  O54  1  0.33761200  0.16238800  0.83761200  1
  O  O55  1  0.08761200  0.08761200  0.08761200  1
  O  O56  1  0.43661900  0.51129900  0.68212600  1
  O  O57  1  0.93661900  0.98870100  0.31787400  1
  O  O58  1  0.51129900  0.68212600  0.43661900  1
  O  O59  1  0.48870100  0.18212600  0.06338100  1
  O  O60  1  0.68212600  0.43661900  0.51129900  1
  O  O61  1  0.81787400  0.56338100  0.01129900  1
  O  O62  1  0.18661900  0.93212600  0.73870100  1
  O  O63  1  0.68661900  0.56787400  0.26129900  1
  O  O64  1  0.81338100  0.43212600  0.76129900  1
  O  O65  1  0.56787400  0.26129900  0.68661900  1
  O  O66  1  0.76129900  0.81338100  0.43212600  1
  O  O67  1  0.26129900  0.68661900  0.56787400  1
  O  O68  1  0.93212600  0.73870100  0.18661900  1
  O  O69  1  0.73870100  0.18661900  0.93212600  1
  O  O70  1  0.43212600  0.76129900  0.81338100  1
  O  O71  1  0.06787400  0.23870100  0.31338100  1
  O  O72  1  0.23870100  0.31338100  0.06787400  1
  O  O73  1  0.31787400  0.93661900  0.98870100  1
  O  O74  1  0.18212600  0.06338100  0.48870100  1
  O  O75  1  0.01129900  0.81787400  0.56338100  1
  O  O76  1  0.98870100  0.31787400  0.93661900  1
  O  O77  1  0.06338100  0.48870100  0.18212600  1
  O  O78  1  0.56338100  0.01129900  0.81787400  1
  O  O79  1  0.31338100  0.06787400  0.23870100  1
  O  O80  1  0.62500000  0.23389000  0.48389000  1
  O  O81  1  0.76611000  0.98389000  0.87500000  1
  O  O82  1  0.74031000  0.32529600  0.34548100  1
  O  O83  1  0.48389000  0.62500000  0.23389000  1
  O  O84  1  0.23389000  0.48389000  0.62500000  1
  O  O85  1  0.51611000  0.12500000  0.26611000  1
  O  O86  1  0.98389000  0.87500000  0.76611000  1
  O  O87  1  0.73389000  0.01611000  0.37500000  1
  O  O88  1  0.26611000  0.51611000  0.12500000  1
  O  O89  1  0.87500000  0.76611000  0.98389000  1
  O  O90  1  0.37500000  0.73389000  0.01611000  1
  O  O91  1  0.12500000  0.26611000  0.51611000  1
  O  O92  1  0.32529600  0.34548100  0.74031000  1
  O  O93  1  0.82529600  0.15451900  0.25969000  1
  O  O94  1  0.34548100  0.74031000  0.32529600  1
  O  O95  1  0.65451900  0.24031000  0.17470400  1
  O  O96  1  0.04071800  0.12048300  0.63576000  1
  O  O97  1  0.29071800  0.61424000  0.87048300  1
  O  O98  1  0.79071800  0.88576000  0.12951700  1
  O  O99  1  0.38576000  0.37048300  0.20928200  1
  O  O100  1  0.61424000  0.87048300  0.29071800  1
  O  O101  1  0.12951700  0.79071800  0.88576000  1
  O  O102  1  0.37048300  0.20928200  0.38576000  1
  O  O103  1  0.63576000  0.04071800  0.12048300  1
  O  O104  1  0.12048300  0.63576000  0.04071800  1
  O  O105  1  0.37951700  0.36424000  0.54071800  1
  O  O106  1  0.13576000  0.45928200  0.87951700  1
  O  O107  1  0.87951700  0.13576000  0.45928200  1
  O  O108  1  0.86424000  0.95928200  0.62048300  1
  O  O109  1  0.36424000  0.54071800  0.37951700  1
  O  O110  1  0.62048300  0.86424000  0.95928200  1
  O  O111  1  0.54071800  0.37951700  0.36424000  1
  O  O112  1  0.95928200  0.62048300  0.86424000  1
  O  O113  1  0.45928200  0.87951700  0.13576000  1
  O  O114  1  0.87048300  0.29071800  0.61424000  1
  O  O115  1  0.62951700  0.70928200  0.11424000  1
  O  O116  1  0.88576000  0.12951700  0.79071800  1
  O  O117  1  0.11424000  0.62951700  0.70928200  1
  O  O118  1  0.20928200  0.38576000  0.37048300  1
  O  O119  1  0.70928200  0.11424000  0.62951700  1
  O  O120  1  0.42470400  0.00969000  0.40451900  1
  O  O121  1  0.67470400  0.84548100  0.75969000  1
  O  O122  1  0.17470400  0.65451900  0.24031000  1
  O  O123  1  0.15451900  0.25969000  0.82529600  1
  O  O124  1  0.84548100  0.75969000  0.67470400  1
  O  O125  1  0.24031000  0.17470400  0.65451900  1
  O  O126  1  0.25969000  0.82529600  0.15451900  1
  O  O127  1  0.40451900  0.42470400  0.00969000  1
  O  O128  1  0.00969000  0.40451900  0.42470400  1
  O  O129  1  0.49031000  0.59548100  0.92470400  1
  O  O130  1  0.90451900  0.07529600  0.99031000  1
  O  O131  1  0.99031000  0.90451900  0.07529600  1
  O  O132  1  0.09548100  0.57529600  0.50969000  1
  O  O133  1  0.59548100  0.92470400  0.49031000  1
  O  O134  1  0.50969000  0.09548100  0.57529600  1
  O  O135  1  0.92470400  0.49031000  0.59548100  1
  O  O136  1  0.57529600  0.50969000  0.09548100  1
  O  O137  1  0.07529600  0.99031000  0.90451900  1
  O  O138  1  0.75969000  0.67470400  0.84548100  1
  O  O139  1  0.01611000  0.37500000  0.73389000  1
