# generated using pymatgen
data_Ba2Cu2Te4Br2O11
_symmetry_space_group_name_H-M   'P 1'
_cell_length_a   9.39356700
_cell_length_b   9.39958761
_cell_length_c   9.69537468
_cell_angle_alpha   99.58845879
_cell_angle_beta   99.72849295
_cell_angle_gamma   108.33099596
_symmetry_Int_Tables_number   1
_chemical_formula_structural   Ba2Cu2Te4Br2O11
_chemical_formula_sum   'Ba4 Cu4 Te8 Br4 O22'
_cell_volume   778.53490031
_cell_formula_units_Z   2
loop_
 _symmetry_equiv_pos_site_id
 _symmetry_equiv_pos_as_xyz
  1  'x, y, z'
loop_
 _atom_site_type_symbol
 _atom_site_label
 _atom_site_symmetry_multiplicity
 _atom_site_fract_x
 _atom_site_fract_y
 _atom_site_fract_z
 _atom_site_occupancy
  Ba  Ba0  1  0.98230000  0.73590700  0.42974500  1
  Ba  Ba1  1  0.01770000  0.26409300  0.57025500  1
  Ba  Ba2  1  0.48119700  0.23061200  0.43029900  1
  Ba  Ba3  1  0.51880300  0.76938800  0.56970100  1
  Cu  Cu4  1  0.19852300  0.44958900  0.30078800  1
  Cu  Cu5  1  0.80147700  0.55041100  0.69921200  1
  Cu  Cu6  1  0.30199200  0.05100600  0.70135400  1
  Cu  Cu7  1  0.69800800  0.94899400  0.29864600  1
  Te  Te8  1  0.79180700  0.31412200  0.21312500  1
  Te  Te9  1  0.20819300  0.68587800  0.78687500  1
  Te  Te10  1  0.06592200  0.04251700  0.21316900  1
  Te  Te11  1  0.93407800  0.95748300  0.78683100  1
  Te  Te12  1  0.69782600  0.20354800  0.80068700  1
  Te  Te13  1  0.30217400  0.79645200  0.19931300  1
  Te  Te14  1  0.46059800  0.44290100  0.80464400  1
  Te  Te15  1  0.53940200  0.55709900  0.19535600  1
  Br  Br16  1  0.64884200  0.89703200  0.95339600  1
  Br  Br17  1  0.35115800  0.10296800  0.04660400  1
  Br  Br18  1  0.92084800  0.67337600  0.04297400  1
  Br  Br19  1  0.07915200  0.32662400  0.95702600  1
  O  O20  1  0.23379200  0.67192100  0.33022100  1
  O  O21  1  0.76620800  0.32807900  0.66977900  1
  O  O22  1  0.42170700  0.48741500  0.32923600  1
  O  O23  1  0.57829300  0.51258500  0.67076400  1
  O  O24  1  0.00876800  0.57510100  0.66554100  1
  O  O25  1  0.99123200  0.42489900  0.33445900  1
  O  O26  1  0.32208400  0.25859800  0.67237800  1
  O  O27  1  0.67791600  0.74140200  0.32762200  1
  O  O28  1  0.17717800  0.24391900  0.33560000  1
  O  O29  1  0.82282200  0.75608100  0.66440000  1
  O  O30  1  0.26586900  0.82927200  0.67185100  1
  O  O31  1  0.73413100  0.17072800  0.32814900  1
  O  O32  1  0.07785900  0.00707300  0.66777200  1
  O  O33  1  0.92214100  0.99292700  0.33222800  1
  O  O34  1  0.50889000  0.07444000  0.66585600  1
  O  O35  1  0.49111000  0.92556000  0.33414400  1
  O  O36  1  0.70501000  0.44792600  0.30969700  1
  O  O37  1  0.29499000  0.55207400  0.69030300  1
  O  O38  1  0.19926800  0.95953000  0.32010900  1
  O  O39  1  0.80073200  0.04047000  0.67989100  1
  O  O40  1  0.40027500  0.65500600  0.10774300  1
  O  O41  1  0.59972500  0.34499400  0.89225700  1
