# generated using pymatgen
data_RbYBeF6
_symmetry_space_group_name_H-M   'P 1'
_cell_length_a   5.91297500
_cell_length_b   6.56510200
_cell_length_c   7.25924503
_cell_angle_alpha   66.32612737
_cell_angle_beta   90.00000000
_cell_angle_gamma   90.00000000
_symmetry_Int_Tables_number   1
_chemical_formula_structural   RbYBeF6
_chemical_formula_sum   'Rb2 Y2 Be2 F12'
_cell_volume   258.08414795
_cell_formula_units_Z   2
loop_
 _symmetry_equiv_pos_site_id
 _symmetry_equiv_pos_as_xyz
  1  'x, y, z'
loop_
 _atom_site_type_symbol
 _atom_site_label
 _atom_site_symmetry_multiplicity
 _atom_site_fract_x
 _atom_site_fract_y
 _atom_site_fract_z
 _atom_site_occupancy
  Rb  Rb0  1  0.25000000  0.07850200  0.78771400  1
  Rb  Rb1  1  0.75000000  0.92149800  0.21228600  1
  Y  Y2  1  0.25000000  0.39145000  0.18036500  1
  Y  Y3  1  0.75000000  0.60855000  0.81963500  1
  Be  Be4  1  0.25000000  0.76730700  0.46439600  1
  Be  Be5  1  0.75000000  0.23269300  0.53560400  1
  F  F6  1  0.46401200  0.75856100  0.59513400  1
  F  F7  1  0.53598800  0.24143900  0.40486600  1
  F  F8  1  0.96401200  0.24143900  0.40486600  1
  F  F9  1  0.03598800  0.75856100  0.59513400  1
  F  F10  1  0.25000000  0.56945500  0.39888400  1
  F  F11  1  0.75000000  0.43054500  0.60111600  1
  F  F12  1  0.49901200  0.67559200  0.03101400  1
  F  F13  1  0.50098800  0.32440800  0.96898600  1
  F  F14  1  0.99901200  0.32440800  0.96898600  1
  F  F15  1  0.00098800  0.67559200  0.03101400  1
  F  F16  1  0.25000000  0.99371000  0.27233900  1
  F  F17  1  0.75000000  0.00629000  0.72766100  1
