# generated using pymatgen
data_Ba2U(PO5)2
_symmetry_space_group_name_H-M   'P 1'
_cell_length_a   6.84068100
_cell_length_b   8.80010645
_cell_length_c   9.17649618
_cell_angle_alpha   105.20768523
_cell_angle_beta   93.54910829
_cell_angle_gamma   111.72644259
_symmetry_Int_Tables_number   1
_chemical_formula_structural   Ba2U(PO5)2
_chemical_formula_sum   'Ba4 U2 P4 O20'
_cell_volume   487.34775625
_cell_formula_units_Z   2
loop_
 _symmetry_equiv_pos_site_id
 _symmetry_equiv_pos_as_xyz
  1  'x, y, z'
loop_
 _atom_site_type_symbol
 _atom_site_label
 _atom_site_symmetry_multiplicity
 _atom_site_fract_x
 _atom_site_fract_y
 _atom_site_fract_z
 _atom_site_occupancy
  Ba  Ba0  1  0.33940900  0.95064300  0.23826300  1
  Ba  Ba1  1  0.66059100  0.04935700  0.76173700  1
  Ba  Ba2  1  0.68777600  0.58196400  0.29479300  1
  Ba  Ba3  1  0.31222400  0.41803600  0.70520700  1
  U  U4  1  0.00565000  0.25277700  0.21788500  1
  U  U5  1  0.99435000  0.74722300  0.78211500  1
  P  P6  1  0.27839700  0.68819300  0.46568200  1
  P  P7  1  0.72160300  0.31180700  0.53431800  1
  P  P8  1  0.29582900  0.18209900  0.96805100  1
  P  P9  1  0.70417100  0.81790100  0.03194900  1
  O  O10  1  0.50691000  0.80718700  0.46050500  1
  O  O11  1  0.49309000  0.19281300  0.53949500  1
  O  O12  1  0.24985600  0.71392500  0.63841100  1
  O  O13  1  0.75014400  0.28607500  0.36158900  1
  O  O14  1  0.25460400  0.49505600  0.40323600  1
  O  O15  1  0.74539600  0.50494400  0.59676400  1
  O  O16  1  0.10871800  0.71830300  0.37503400  1
  O  O17  1  0.89128200  0.28169700  0.62496600  1
  O  O18  1  0.34496700  0.25679800  0.14835000  1
  O  O19  1  0.65503300  0.74320200  0.85165000  1
  O  O20  1  0.28687000  0.99296600  0.92616700  1
  O  O21  1  0.71313000  0.00703400  0.07383300  1
  O  O22  1  0.06192400  0.12980000  0.33566100  1
  O  O23  1  0.93807600  0.87020000  0.66433900  1
  O  O24  1  0.47082000  0.28604700  0.89494700  1
  O  O25  1  0.52918000  0.71395300  0.10505300  1
  O  O26  1  0.92828000  0.38670800  0.12436900  1
  O  O27  1  0.07172000  0.61329200  0.87563100  1
  O  O28  1  0.07132500  0.17576300  0.92242900  1
  O  O29  1  0.92867500  0.82423700  0.07757100  1
