# generated using pymatgen
data_TmAsS
_symmetry_space_group_name_H-M   'P 1'
_cell_length_a   3.78984500
_cell_length_b   3.80088100
_cell_length_c   16.83063400
_cell_angle_alpha   90.00000000
_cell_angle_beta   90.00000000
_cell_angle_gamma   90.00000000
_symmetry_Int_Tables_number   1
_chemical_formula_structural   TmAsS
_chemical_formula_sum   'Tm4 As4 S4'
_cell_volume   242.44107264
_cell_formula_units_Z   4
loop_
 _symmetry_equiv_pos_site_id
 _symmetry_equiv_pos_as_xyz
  1  'x, y, z'
loop_
 _atom_site_type_symbol
 _atom_site_label
 _atom_site_symmetry_multiplicity
 _atom_site_fract_x
 _atom_site_fract_y
 _atom_site_fract_z
 _atom_site_occupancy
  Tm  Tm0  1  0.25000000  0.22059900  0.85419400  1
  Tm  Tm1  1  0.25000000  0.27940100  0.35419400  1
  Tm  Tm2  1  0.75000000  0.77940100  0.14580600  1
  Tm  Tm3  1  0.75000000  0.72059900  0.64580600  1
  As  As4  1  0.75000000  0.22352200  0.50142600  1
  As  As5  1  0.75000000  0.27647800  0.00142600  1
  As  As6  1  0.25000000  0.77647800  0.49857400  1
  As  As7  1  0.25000000  0.72352200  0.99857400  1
  S  S8  1  0.25000000  0.22044500  0.68741100  1
  S  S9  1  0.25000000  0.27955500  0.18741100  1
  S  S10  1  0.75000000  0.77955500  0.31258900  1
  S  S11  1  0.75000000  0.72044500  0.81258900  1
