# generated using pymatgen
data_K2Zn3S4
_symmetry_space_group_name_H-M   'P 1'
_cell_length_a   9.14667974
_cell_length_b   9.14667974
_cell_length_c   9.14667974
_cell_angle_alpha   143.15318681
_cell_angle_beta   105.95409720
_cell_angle_gamma   85.69252498
_symmetry_Int_Tables_number   1
_chemical_formula_structural   K2Zn3S4
_chemical_formula_sum   'K4 Zn6 S8'
_cell_volume   427.06390239
_cell_formula_units_Z   2
loop_
 _symmetry_equiv_pos_site_id
 _symmetry_equiv_pos_as_xyz
  1  'x, y, z'
loop_
 _atom_site_type_symbol
 _atom_site_label
 _atom_site_symmetry_multiplicity
 _atom_site_fract_x
 _atom_site_fract_y
 _atom_site_fract_z
 _atom_site_occupancy
  K  K0  1  0.62160600  0.73466600  0.35627200  1
  K  K1  1  0.37839400  0.26533400  0.64372800  1
  K  K2  1  0.12160600  0.76533400  0.88694000  1
  K  K3  1  0.87839400  0.23466600  0.11306000  1
  Zn  Zn4  1  0.75000000  0.25000000  0.50000000  1
  Zn  Zn5  1  0.25000000  0.75000000  0.50000000  1
  Zn  Zn6  1  0.97325300  0.75000000  0.22325300  1
  Zn  Zn7  1  0.52674700  0.75000000  0.77674700  1
  Zn  Zn8  1  0.02674700  0.25000000  0.77674700  1
  Zn  Zn9  1  0.47325300  0.25000000  0.22325300  1
  S  S10  1  0.01531100  0.86962800  0.58900700  1
  S  S11  1  0.28062000  0.42630400  0.41099300  1
  S  S12  1  0.21938000  0.63037200  0.14568400  1
  S  S13  1  0.48468900  0.07369600  0.85431600  1
  S  S14  1  0.98468900  0.13037200  0.41099300  1
  S  S15  1  0.71938000  0.57369600  0.58900700  1
  S  S16  1  0.78062000  0.36962800  0.85431600  1
  S  S17  1  0.51531100  0.92630400  0.14568400  1
