# generated using pymatgen
data_Ca5As3ClO12
_symmetry_space_group_name_H-M   'P 1'
_cell_length_a   10.25733192
_cell_length_b   10.25733192
_cell_length_c   6.87579200
_cell_angle_alpha   90.00000000
_cell_angle_beta   90.00000000
_cell_angle_gamma   119.99999951
_symmetry_Int_Tables_number   1
_chemical_formula_structural   Ca5As3ClO12
_chemical_formula_sum   'Ca10 As6 Cl2 O24'
_cell_volume   626.50159785
_cell_formula_units_Z   2
loop_
 _symmetry_equiv_pos_site_id
 _symmetry_equiv_pos_as_xyz
  1  'x, y, z'
loop_
 _atom_site_type_symbol
 _atom_site_label
 _atom_site_symmetry_multiplicity
 _atom_site_fract_x
 _atom_site_fract_y
 _atom_site_fract_z
 _atom_site_occupancy
  Ca  Ca0  1  0.33333300  0.66666700  0.99563600  1
  Ca  Ca1  1  0.66666700  0.33333300  0.49563600  1
  Ca  Ca2  1  0.66666700  0.33333300  0.00432000  1
  Ca  Ca3  1  0.33333300  0.66666700  0.50432000  1
  Ca  Ca4  1  0.97614100  0.72844200  0.74932700  1
  Ca  Ca5  1  0.75230100  0.02385900  0.74932700  1
  Ca  Ca6  1  0.27155800  0.24769900  0.74932700  1
  Ca  Ca7  1  0.02385900  0.27155800  0.24932700  1
  Ca  Ca8  1  0.24769900  0.97614100  0.24932700  1
  Ca  Ca9  1  0.72844200  0.75230100  0.24932700  1
  As  As10  1  0.62066100  0.59093500  0.75047500  1
  As  As11  1  0.97027400  0.37933900  0.75047500  1
  As  As12  1  0.40906500  0.02972600  0.75047500  1
  As  As13  1  0.37933900  0.40906500  0.25047500  1
  As  As14  1  0.02972600  0.62066100  0.25047500  1
  As  As15  1  0.59093500  0.97027400  0.25047500  1
  Cl  Cl16  1  0.00000000  0.00000000  0.86919100  1
  Cl  Cl17  1  0.00000000  0.00000000  0.36919100  1
  O  O18  1  0.35255300  0.84249600  0.75015400  1
  O  O19  1  0.48994200  0.64744700  0.75015400  1
  O  O20  1  0.15750400  0.51005800  0.75015400  1
  O  O21  1  0.64744700  0.15750400  0.25015400  1
  O  O22  1  0.51005800  0.35255300  0.25015400  1
  O  O23  1  0.84249600  0.48994200  0.25015400  1
  O  O24  1  0.86010700  0.46511800  0.74974600  1
  O  O25  1  0.60501100  0.13989300  0.74974600  1
  O  O26  1  0.53488200  0.39498900  0.74974600  1
  O  O27  1  0.13989300  0.53488200  0.24974600  1
  O  O28  1  0.39498900  0.86010700  0.24974600  1
  O  O29  1  0.46511800  0.60501100  0.24974600  1
  O  O30  1  0.73867400  0.64841000  0.94961700  1
  O  O31  1  0.90973600  0.26132600  0.94961700  1
  O  O32  1  0.35159000  0.09026400  0.94961700  1
  O  O33  1  0.26132600  0.35159000  0.44961700  1
  O  O34  1  0.09026400  0.73867400  0.44961700  1
  O  O35  1  0.64841000  0.90973600  0.44961700  1
  O  O36  1  0.25998000  0.34928900  0.05220100  1
  O  O37  1  0.08930800  0.74002000  0.05220100  1
  O  O38  1  0.65071100  0.91069200  0.05220100  1
  O  O39  1  0.74002000  0.65071100  0.55220100  1
  O  O40  1  0.91069200  0.25998000  0.55220100  1
  O  O41  1  0.34928900  0.08930800  0.55220100  1
