# generated using pymatgen
data_Na3Sr3GaSb4
_symmetry_space_group_name_H-M   'P 1'
_cell_length_a   10.30882893
_cell_length_b   10.30882893
_cell_length_c   7.99553700
_cell_angle_alpha   90.00000000
_cell_angle_beta   90.00000000
_cell_angle_gamma   120.00000594
_symmetry_Int_Tables_number   1
_chemical_formula_structural   Na3Sr3GaSb4
_chemical_formula_sum   'Na6 Sr6 Ga2 Sb8'
_cell_volume   735.86290099
_cell_formula_units_Z   2
loop_
 _symmetry_equiv_pos_site_id
 _symmetry_equiv_pos_as_xyz
  1  'x, y, z'
loop_
 _atom_site_type_symbol
 _atom_site_label
 _atom_site_symmetry_multiplicity
 _atom_site_fract_x
 _atom_site_fract_y
 _atom_site_fract_z
 _atom_site_occupancy
  Na  Na0  1  0.85542000  0.71084000  0.95660700  1
  Na  Na1  1  0.85542000  0.14458000  0.95660700  1
  Na  Na2  1  0.14458000  0.28916000  0.45660700  1
  Na  Na3  1  0.28916000  0.14458000  0.95660700  1
  Na  Na4  1  0.14458000  0.85542000  0.45660700  1
  Na  Na5  1  0.71084000  0.85542000  0.45660700  1
  Sr  Sr6  1  0.48151400  0.96302700  0.78140900  1
  Sr  Sr7  1  0.48151400  0.51848600  0.78140900  1
  Sr  Sr8  1  0.51848600  0.03697300  0.28140900  1
  Sr  Sr9  1  0.03697300  0.51848600  0.78140900  1
  Sr  Sr10  1  0.51848600  0.48151400  0.28140900  1
  Sr  Sr11  1  0.96302700  0.48151400  0.28140900  1
  Ga  Ga12  1  0.66666700  0.33333300  0.64867100  1
  Ga  Ga13  1  0.33333300  0.66666700  0.14867100  1
  Sb  Sb14  1  0.66666700  0.33333300  0.00268800  1
  Sb  Sb15  1  0.33333300  0.66666700  0.50268800  1
  Sb  Sb16  1  0.81323000  0.62646100  0.55366500  1
  Sb  Sb17  1  0.81323000  0.18677000  0.55366500  1
  Sb  Sb18  1  0.18677000  0.37353900  0.05366500  1
  Sb  Sb19  1  0.37353900  0.18677000  0.55366500  1
  Sb  Sb20  1  0.18677000  0.81323000  0.05366500  1
  Sb  Sb21  1  0.62646100  0.81323000  0.05366500  1
