# generated using pymatgen
data_EuNiGe2
_symmetry_space_group_name_H-M   'P 1'
_cell_length_a   8.76025273
_cell_length_b   8.76025273
_cell_length_c   4.18499800
_cell_angle_alpha   90.00000000
_cell_angle_beta   90.00000000
_cell_angle_gamma   151.49411644
_symmetry_Int_Tables_number   1
_chemical_formula_structural   EuNiGe2
_chemical_formula_sum   'Eu2 Ni2 Ge4'
_cell_volume   153.27578695
_cell_formula_units_Z   2
loop_
 _symmetry_equiv_pos_site_id
 _symmetry_equiv_pos_as_xyz
  1  'x, y, z'
loop_
 _atom_site_type_symbol
 _atom_site_label
 _atom_site_symmetry_multiplicity
 _atom_site_fract_x
 _atom_site_fract_y
 _atom_site_fract_z
 _atom_site_occupancy
  Eu  Eu0  1  0.89214700  0.10785300  0.75000000  1
  Eu  Eu1  1  0.10785300  0.89214700  0.25000000  1
  Ni  Ni2  1  0.68103100  0.31896900  0.75000000  1
  Ni  Ni3  1  0.31896900  0.68103100  0.25000000  1
  Ge  Ge4  1  0.54373100  0.45626900  0.75000000  1
  Ge  Ge5  1  0.45626900  0.54373100  0.25000000  1
  Ge  Ge6  1  0.24955300  0.75044700  0.75000000  1
  Ge  Ge7  1  0.75044700  0.24955300  0.25000000  1
