# generated using pymatgen
data_Ho(AlGe)2
_symmetry_space_group_name_H-M   'P 1'
_cell_length_a   4.29212277
_cell_length_b   4.29212277
_cell_length_c   6.57146000
_cell_angle_alpha   90.00000000
_cell_angle_beta   90.00000000
_cell_angle_gamma   119.99998104
_symmetry_Int_Tables_number   1
_chemical_formula_structural   Ho(AlGe)2
_chemical_formula_sum   'Ho1 Al2 Ge2'
_cell_volume   104.84237611
_cell_formula_units_Z   1
loop_
 _symmetry_equiv_pos_site_id
 _symmetry_equiv_pos_as_xyz
  1  'x, y, z'
loop_
 _atom_site_type_symbol
 _atom_site_label
 _atom_site_symmetry_multiplicity
 _atom_site_fract_x
 _atom_site_fract_y
 _atom_site_fract_z
 _atom_site_occupancy
  Ho  Ho0  1  0.00000000  0.00000000  0.00000000  1
  Al  Al1  1  0.66666700  0.33333300  0.35516300  1
  Al  Al2  1  0.33333300  0.66666700  0.64483700  1
  Ge  Ge3  1  0.66666700  0.33333300  0.74374500  1
  Ge  Ge4  1  0.33333300  0.66666700  0.25625500  1
