# generated using pymatgen
data_Er2TlCu3S5
_symmetry_space_group_name_H-M   'P 1'
_cell_length_a   7.17991349
_cell_length_b   7.17991349
_cell_length_c   16.31123300
_cell_angle_alpha   90.00000000
_cell_angle_beta   90.00000000
_cell_angle_gamma   148.40422328
_symmetry_Int_Tables_number   1
_chemical_formula_structural   Er2TlCu3S5
_chemical_formula_sum   'Er4 Tl2 Cu6 S10'
_cell_volume   440.54754113
_cell_formula_units_Z   2
loop_
 _symmetry_equiv_pos_site_id
 _symmetry_equiv_pos_as_xyz
  1  'x, y, z'
loop_
 _atom_site_type_symbol
 _atom_site_label
 _atom_site_symmetry_multiplicity
 _atom_site_fract_x
 _atom_site_fract_y
 _atom_site_fract_z
 _atom_site_occupancy
  Er  Er0  1  0.80833000  0.19167000  0.09371900  1
  Er  Er1  1  0.19167000  0.80833000  0.90628100  1
  Er  Er2  1  0.80833000  0.19167000  0.40628100  1
  Er  Er3  1  0.19167000  0.80833000  0.59371900  1
  Tl  Tl4  1  0.07093600  0.92906400  0.25000000  1
  Tl  Tl5  1  0.92906400  0.07093600  0.75000000  1
  Cu  Cu6  1  0.35282800  0.64717200  0.25000000  1
  Cu  Cu7  1  0.64717200  0.35282800  0.75000000  1
  Cu  Cu8  1  0.58287400  0.41712600  0.45907700  1
  Cu  Cu9  1  0.41712600  0.58287400  0.54092300  1
  Cu  Cu10  1  0.58287400  0.41712600  0.04092300  1
  Cu  Cu11  1  0.41712600  0.58287400  0.95907700  1
  S  S12  1  0.75888800  0.24111200  0.25000000  1
  S  S13  1  0.24111200  0.75888800  0.75000000  1
  S  S14  1  0.56148700  0.43851300  0.88473700  1
  S  S15  1  0.43851300  0.56148700  0.11526300  1
  S  S16  1  0.56148700  0.43851300  0.61526300  1
  S  S17  1  0.43851300  0.56148700  0.38473700  1
  S  S18  1  0.83163600  0.16836400  0.92981300  1
  S  S19  1  0.16836400  0.83163600  0.07018700  1
  S  S20  1  0.83163600  0.16836400  0.57018700  1
  S  S21  1  0.16836400  0.83163600  0.42981300  1
