# generated using pymatgen
data_VPHO5
_symmetry_space_group_name_H-M   'P 1'
_cell_length_a   6.80627417
_cell_length_b   7.37648841
_cell_length_c   7.96585179
_cell_angle_alpha   92.08766835
_cell_angle_beta   90.37446150
_cell_angle_gamma   62.33862981
_symmetry_Int_Tables_number   1
_chemical_formula_structural   VPHO5
_chemical_formula_sum   'V4 P4 H4 O20'
_cell_volume   353.96728051
_cell_formula_units_Z   4
loop_
 _symmetry_equiv_pos_site_id
 _symmetry_equiv_pos_as_xyz
  1  'x, y, z'
loop_
 _atom_site_type_symbol
 _atom_site_label
 _atom_site_symmetry_multiplicity
 _atom_site_fract_x
 _atom_site_fract_y
 _atom_site_fract_z
 _atom_site_occupancy
  V  V0  1  0.99965500  0.49992400  0.49990900  1
  V  V1  1  0.50013600  0.49998600  0.00003800  1
  V  V2  1  0.00011200  0.99992900  0.00009500  1
  V  V3  1  0.49995000  0.00014000  0.49993600  1
  P  P4  1  0.27587700  0.22938000  0.16667600  1
  P  P5  1  0.77584600  0.22933700  0.66686200  1
  P  P6  1  0.72416900  0.77064000  0.83324500  1
  P  P7  1  0.22411700  0.77059100  0.33337500  1
  H  H8  1  0.84585300  0.32488500  0.17165700  1
  H  H9  1  0.34556700  0.32508300  0.67159900  1
  H  H10  1  0.15448500  0.67487600  0.82826300  1
  H  H11  1  0.65422600  0.67508600  0.32817300  1
  O  O12  1  0.72731300  0.72645900  0.41162800  1
  O  O13  1  0.22741800  0.72652000  0.91160300  1
  O  O14  1  0.27255400  0.27347200  0.58829800  1
  O  O15  1  0.77266800  0.27354600  0.08827300  1
  O  O16  1  0.06172600  0.37015500  0.27086200  1
  O  O17  1  0.56179100  0.37022300  0.77106500  1
  O  O18  1  0.93818500  0.62980100  0.72893700  1
  O  O19  1  0.43823900  0.62987400  0.22915300  1
  O  O20  1  0.66800400  0.63859600  0.95077700  1
  O  O21  1  0.16785000  0.63854100  0.45074900  1
  O  O22  1  0.33217600  0.36145900  0.04936000  1
  O  O23  1  0.83201400  0.36139800  0.54932200  1
  O  O24  1  0.23302300  0.07495300  0.05839600  1
  O  O25  1  0.73280800  0.07509400  0.55846100  1
  O  O26  1  0.76717900  0.92491100  0.94161100  1
  O  O27  1  0.26696000  0.92505900  0.44167600  1
  O  O28  1  0.47363300  0.11531100  0.28496600  1
  O  O29  1  0.97368900  0.11519300  0.78492800  1
  O  O30  1  0.52636400  0.88484300  0.71506900  1
  O  O31  1  0.02641300  0.88473400  0.21503600  1
