# generated using pymatgen
data_LuAlNi
_symmetry_space_group_name_H-M   'P 1'
_cell_length_a   6.91512532
_cell_length_b   6.91512532
_cell_length_c   3.76450500
_cell_angle_alpha   90.00000000
_cell_angle_beta   90.00000000
_cell_angle_gamma   119.99999348
_symmetry_Int_Tables_number   1
_chemical_formula_structural   LuAlNi
_chemical_formula_sum   'Lu3 Al3 Ni3'
_cell_volume   155.89731968
_cell_formula_units_Z   3
loop_
 _symmetry_equiv_pos_site_id
 _symmetry_equiv_pos_as_xyz
  1  'x, y, z'
loop_
 _atom_site_type_symbol
 _atom_site_label
 _atom_site_symmetry_multiplicity
 _atom_site_fract_x
 _atom_site_fract_y
 _atom_site_fract_z
 _atom_site_occupancy
  Lu  Lu0  1  0.00000000  0.41629700  0.50000000  1
  Lu  Lu1  1  0.58370300  0.58370300  0.50000000  1
  Lu  Lu2  1  0.41629700  0.00000000  0.50000000  1
  Al  Al3  1  0.00000000  0.76071600  0.00000000  1
  Al  Al4  1  0.23928400  0.23928400  0.00000000  1
  Al  Al5  1  0.76071600  0.00000000  0.00000000  1
  Ni  Ni6  1  0.33333300  0.66666700  0.00000000  1
  Ni  Ni7  1  0.66666700  0.33333300  0.00000000  1
  Ni  Ni8  1  0.00000000  0.00000000  0.50000000  1
