# generated using pymatgen
data_Na3SbS3
_symmetry_space_group_name_H-M   'P 1'
_cell_length_a   8.71965500
_cell_length_b   8.71965500
_cell_length_c   8.71965500
_cell_angle_alpha   90.00000000
_cell_angle_beta   90.00000000
_cell_angle_gamma   90.00000000
_symmetry_Int_Tables_number   1
_chemical_formula_structural   Na3SbS3
_chemical_formula_sum   'Na12 Sb4 S12'
_cell_volume   662.97615137
_cell_formula_units_Z   4
loop_
 _symmetry_equiv_pos_site_id
 _symmetry_equiv_pos_as_xyz
  1  'x, y, z'
loop_
 _atom_site_type_symbol
 _atom_site_label
 _atom_site_symmetry_multiplicity
 _atom_site_fract_x
 _atom_site_fract_y
 _atom_site_fract_z
 _atom_site_occupancy
  Na  Na0  1  0.44012900  0.94012900  0.55987100  1
  Na  Na1  1  0.94012900  0.55987100  0.44012900  1
  Na  Na2  1  0.55987100  0.44012900  0.94012900  1
  Na  Na3  1  0.05987100  0.05987100  0.05987100  1
  Na  Na4  1  0.93160500  0.43160500  0.06839500  1
  Na  Na5  1  0.43160500  0.06839500  0.93160500  1
  Na  Na6  1  0.06839500  0.93160500  0.43160500  1
  Na  Na7  1  0.56839500  0.56839500  0.56839500  1
  Na  Na8  1  0.67493500  0.17493500  0.32506500  1
  Na  Na9  1  0.17493500  0.32506500  0.67493500  1
  Na  Na10  1  0.32506500  0.67493500  0.17493500  1
  Na  Na11  1  0.82506500  0.82506500  0.82506500  1
  Sb  Sb12  1  0.21420500  0.71420500  0.78579500  1
  Sb  Sb13  1  0.71420500  0.78579500  0.21420500  1
  Sb  Sb14  1  0.78579500  0.21420500  0.71420500  1
  Sb  Sb15  1  0.28579500  0.28579500  0.28579500  1
  S  S16  1  0.14099200  0.98488700  0.74989500  1
  S  S17  1  0.25010500  0.64099200  0.51511300  1
  S  S18  1  0.48488700  0.75010500  0.85900800  1
  S  S19  1  0.64099200  0.51511300  0.25010500  1
  S  S20  1  0.75010500  0.85900800  0.48488700  1
  S  S21  1  0.98488700  0.74989500  0.14099200  1
  S  S22  1  0.85900800  0.48488700  0.75010500  1
  S  S23  1  0.74989500  0.14099200  0.98488700  1
  S  S24  1  0.51511300  0.25010500  0.64099200  1
  S  S25  1  0.35900800  0.01511300  0.24989500  1
  S  S26  1  0.24989500  0.35900800  0.01511300  1
  S  S27  1  0.01511300  0.24989500  0.35900800  1
