# generated using pymatgen
data_AlNi2BO5
_symmetry_space_group_name_H-M   'P 1'
_cell_length_a   2.92506300
_cell_length_b   9.27397700
_cell_length_c   12.09879900
_cell_angle_alpha   90.00000000
_cell_angle_beta   90.00000000
_cell_angle_gamma   90.00000000
_symmetry_Int_Tables_number   1
_chemical_formula_structural   AlNi2BO5
_chemical_formula_sum   'Al4 Ni8 B4 O20'
_cell_volume   328.20372104
_cell_formula_units_Z   4
loop_
 _symmetry_equiv_pos_site_id
 _symmetry_equiv_pos_as_xyz
  1  'x, y, z'
loop_
 _atom_site_type_symbol
 _atom_site_label
 _atom_site_symmetry_multiplicity
 _atom_site_fract_x
 _atom_site_fract_y
 _atom_site_fract_z
 _atom_site_occupancy
  Al  Al0  1  0.00000000  0.23852300  0.38608200  1
  Al  Al1  1  0.00000000  0.76147700  0.61391800  1
  Al  Al2  1  0.00000000  0.26147700  0.88608200  1
  Al  Al3  1  0.00000000  0.73852300  0.11391800  1
  Ni  Ni4  1  0.50000000  0.00000000  0.50000000  1
  Ni  Ni5  1  0.50000000  0.50000000  0.00000000  1
  Ni  Ni6  1  0.50000000  0.99819200  0.21920300  1
  Ni  Ni7  1  0.50000000  0.00180800  0.78079700  1
  Ni  Ni8  1  0.50000000  0.50180800  0.71920300  1
  Ni  Ni9  1  0.50000000  0.49819200  0.28079700  1
  Ni  Ni10  1  0.00000000  0.00000000  0.00000000  1
  Ni  Ni11  1  0.00000000  0.50000000  0.50000000  1
  B  B12  1  0.00000000  0.26987400  0.13961900  1
  B  B13  1  0.00000000  0.73012600  0.86038100  1
  B  B14  1  0.00000000  0.23012600  0.63961900  1
  B  B15  1  0.00000000  0.76987400  0.36038100  1
  O  O16  1  0.50000000  0.37303900  0.42226000  1
  O  O17  1  0.50000000  0.62696100  0.57774000  1
  O  O18  1  0.50000000  0.12696100  0.92226000  1
  O  O19  1  0.50000000  0.87303900  0.07774000  1
  O  O20  1  0.00000000  0.12135200  0.14005900  1
  O  O21  1  0.00000000  0.87864800  0.85994100  1
  O  O22  1  0.00000000  0.37864800  0.64005900  1
  O  O23  1  0.00000000  0.62135200  0.35994100  1
  O  O24  1  0.00000000  0.34515200  0.04000500  1
  O  O25  1  0.00000000  0.65484800  0.95999500  1
  O  O26  1  0.00000000  0.15484800  0.54000500  1
  O  O27  1  0.00000000  0.84515200  0.45999500  1
  O  O28  1  0.00000000  0.34132600  0.24024200  1
  O  O29  1  0.00000000  0.65867400  0.75975800  1
  O  O30  1  0.00000000  0.15867400  0.74024200  1
  O  O31  1  0.00000000  0.84132600  0.25975800  1
  O  O32  1  0.50000000  0.11551100  0.35682400  1
  O  O33  1  0.50000000  0.88448900  0.64317600  1
  O  O34  1  0.50000000  0.38448900  0.85682400  1
  O  O35  1  0.50000000  0.61551100  0.14317600  1
