# generated using pymatgen
data_Ba3Y2WO9
_symmetry_space_group_name_H-M   'P 1'
_cell_length_a   6.10607919
_cell_length_b   8.65401000
_cell_length_c   10.59578764
_cell_angle_alpha   65.89749923
_cell_angle_beta   73.25353587
_cell_angle_gamma   90.00000000
_symmetry_Int_Tables_number   1
_chemical_formula_structural   Ba3Y2WO9
_chemical_formula_sum   'Ba6 Y4 W2 O18'
_cell_volume   484.95862492
_cell_formula_units_Z   2
loop_
 _symmetry_equiv_pos_site_id
 _symmetry_equiv_pos_as_xyz
  1  'x, y, z'
loop_
 _atom_site_type_symbol
 _atom_site_label
 _atom_site_symmetry_multiplicity
 _atom_site_fract_x
 _atom_site_fract_y
 _atom_site_fract_z
 _atom_site_occupancy
  Ba  Ba0  1  0.50000000  0.26608900  0.00000000  1
  Ba  Ba1  1  0.83959100  0.57979300  0.32081700  1
  Ba  Ba2  1  0.16040900  0.90061100  0.67918300  1
  Ba  Ba3  1  0.50000000  0.73391100  0.00000000  1
  Ba  Ba4  1  0.83959100  0.09938900  0.32081700  1
  Ba  Ba5  1  0.16040900  0.42020700  0.67918300  1
  Y  Y6  1  0.00000000  0.00000000  0.00000000  1
  Y  Y7  1  0.32797000  0.32797000  0.34405900  1
  Y  Y8  1  0.67203000  0.67203000  0.65594100  1
  Y  Y9  1  0.00000000  0.50000000  0.00000000  1
  W  W10  1  0.33409800  0.83409800  0.33180300  1
  W  W11  1  0.66590200  0.16590200  0.66819600  1
  O  O12  1  0.00000000  0.24655900  0.00000000  1
  O  O13  1  0.33023900  0.60177400  0.33952000  1
  O  O14  1  0.66976100  0.94129600  0.66048000  1
  O  O15  1  0.16133100  0.41057800  0.17884400  1
  O  O16  1  0.48894400  0.75942500  0.48114900  1
  O  O17  1  0.81822700  0.09015100  0.81969600  1
  O  O18  1  0.34017400  0.58942200  0.82115600  1
  O  O19  1  0.63792400  0.90984900  0.18030400  1
  O  O20  1  0.97009400  0.24057500  0.51885100  1
  O  O21  1  0.00000000  0.75344100  0.00000000  1
  O  O22  1  0.33023900  0.05870400  0.33952000  1
  O  O23  1  0.66976100  0.39822600  0.66048000  1
  O  O24  1  0.83866900  0.58942200  0.82115600  1
  O  O25  1  0.18177300  0.90984900  0.18030400  1
  O  O26  1  0.51105600  0.24057500  0.51885100  1
  O  O27  1  0.65982600  0.41057800  0.17884400  1
  O  O28  1  0.02990600  0.75942500  0.48114900  1
  O  O29  1  0.36207600  0.09015100  0.81969600  1
