# generated using pymatgen
data_Sr5(CoN2)2
_symmetry_space_group_name_H-M   'P 1'
_cell_length_a   8.72079900
_cell_length_b   8.72079900
_cell_length_c   12.46718000
_cell_angle_alpha   90.00000000
_cell_angle_beta   90.00000000
_cell_angle_gamma   90.00000000
_symmetry_Int_Tables_number   1
_chemical_formula_structural   Sr5(CoN2)2
_chemical_formula_sum   'Sr20 Co8 N16'
_cell_volume   948.15815234
_cell_formula_units_Z   4
loop_
 _symmetry_equiv_pos_site_id
 _symmetry_equiv_pos_as_xyz
  1  'x, y, z'
loop_
 _atom_site_type_symbol
 _atom_site_label
 _atom_site_symmetry_multiplicity
 _atom_site_fract_x
 _atom_site_fract_y
 _atom_site_fract_z
 _atom_site_occupancy
  Sr  Sr0  1  0.75000000  0.75000000  0.34594300  1
  Sr  Sr1  1  0.75000000  0.75000000  0.84594300  1
  Sr  Sr2  1  0.25000000  0.25000000  0.65405700  1
  Sr  Sr3  1  0.25000000  0.25000000  0.15405700  1
  Sr  Sr4  1  0.13235400  0.57659000  0.40121300  1
  Sr  Sr5  1  0.36764600  0.57659000  0.90121300  1
  Sr  Sr6  1  0.13235400  0.92341000  0.90121300  1
  Sr  Sr7  1  0.36764600  0.92341000  0.40121300  1
  Sr  Sr8  1  0.57659000  0.13235400  0.90121300  1
  Sr  Sr9  1  0.92341000  0.13235400  0.40121300  1
  Sr  Sr10  1  0.57659000  0.36764600  0.40121300  1
  Sr  Sr11  1  0.92341000  0.36764600  0.90121300  1
  Sr  Sr12  1  0.86764600  0.42341000  0.59878700  1
  Sr  Sr13  1  0.63235400  0.42341000  0.09878700  1
  Sr  Sr14  1  0.86764600  0.07659000  0.09878700  1
  Sr  Sr15  1  0.63235400  0.07659000  0.59878700  1
  Sr  Sr16  1  0.42341000  0.86764600  0.09878700  1
  Sr  Sr17  1  0.07659000  0.86764600  0.59878700  1
  Sr  Sr18  1  0.42341000  0.63235400  0.59878700  1
  Sr  Sr19  1  0.07659000  0.63235400  0.09878700  1
  Co  Co20  1  0.09108200  0.90891800  0.25000000  1
  Co  Co21  1  0.40891800  0.90891800  0.75000000  1
  Co  Co22  1  0.09108200  0.59108200  0.75000000  1
  Co  Co23  1  0.40891800  0.59108200  0.25000000  1
  Co  Co24  1  0.90891800  0.09108200  0.75000000  1
  Co  Co25  1  0.59108200  0.09108200  0.25000000  1
  Co  Co26  1  0.90891800  0.40891800  0.25000000  1
  Co  Co27  1  0.59108200  0.40891800  0.75000000  1
  N  N28  1  0.64065900  0.05015700  0.38716800  1
  N  N29  1  0.85934100  0.05015700  0.88716800  1
  N  N30  1  0.64065900  0.44984300  0.88716800  1
  N  N31  1  0.85934100  0.44984300  0.38716800  1
  N  N32  1  0.05015700  0.64065900  0.88716800  1
  N  N33  1  0.44984300  0.64065900  0.38716800  1
  N  N34  1  0.05015700  0.85934100  0.38716800  1
  N  N35  1  0.44984300  0.85934100  0.88716800  1
  N  N36  1  0.35934100  0.94984300  0.61283200  1
  N  N37  1  0.14065900  0.94984300  0.11283200  1
  N  N38  1  0.35934100  0.55015700  0.11283200  1
  N  N39  1  0.14065900  0.55015700  0.61283200  1
  N  N40  1  0.94984300  0.35934100  0.11283200  1
  N  N41  1  0.55015700  0.35934100  0.61283200  1
  N  N42  1  0.94984300  0.14065900  0.61283200  1
  N  N43  1  0.55015700  0.14065900  0.11283200  1
