# generated using pymatgen
data_Mg149Zn
_symmetry_space_group_name_H-M   'P 1'
_cell_length_a   15.96150659
_cell_length_b   15.96151213
_cell_length_c   15.63120047
_cell_angle_alpha   90.00000000
_cell_angle_beta   90.00000000
_cell_angle_gamma   120.00001372
_symmetry_Int_Tables_number   1
_chemical_formula_structural   Mg149Zn
_chemical_formula_sum   'Mg149 Zn1'
_cell_volume   3448.82230394
_cell_formula_units_Z   1
loop_
 _symmetry_equiv_pos_site_id
 _symmetry_equiv_pos_as_xyz
  1  'x, y, z'
loop_
 _atom_site_type_symbol
 _atom_site_label
 _atom_site_symmetry_multiplicity
 _atom_site_fract_x
 _atom_site_fract_y
 _atom_site_fract_z
 _atom_site_occupancy
  Mg  Mg0  1  0.19706758  0.00095252  -0.00000000  1
  Mg  Mg1  1  0.80388494  0.00095252  -0.00000000  1
  Mg  Mg2  1  0.19706758  0.19611506  -0.00000000  1
  Mg  Mg3  1  0.99904748  0.19611506  -0.00000000  1
  Mg  Mg4  1  0.39904439  0.19952270  -0.00000000  1
  Mg  Mg5  1  0.80047730  0.19952270  -0.00000000  1
  Mg  Mg6  1  0.59985769  0.19971639  -0.00000000  1
  Mg  Mg7  1  0.19916515  0.39833129  -0.00000000  1
  Mg  Mg8  1  0.39933011  0.39938516  -0.00000000  1
  Mg  Mg9  1  0.00005505  0.39938516  -0.00000000  1
  Mg  Mg10  1  0.59985769  0.40014131  -0.00000000  1
  Mg  Mg11  1  0.80028361  0.40014131  -0.00000000  1
  Mg  Mg12  1  0.19981130  0.59990565  -0.00000000  1
  Mg  Mg13  1  0.40009435  0.59990565  -0.00000000  1
  Mg  Mg14  1  0.60061484  0.60066889  -0.00000000  1
  Mg  Mg15  1  0.00005505  0.60066989  -0.00000000  1
  Mg  Mg16  1  0.80047730  0.60095561  -0.00000000  1
  Mg  Mg17  1  0.40009435  0.80018870  -0.00000000  1
  Mg  Mg18  1  0.19916515  0.80083385  -0.00000000  1
  Mg  Mg19  1  0.60166871  0.80083385  -0.00000000  1
  Mg  Mg20  1  0.80388494  0.80293242  -0.00000000  1
  Mg  Mg21  1  0.99904748  0.80293242  -0.00000000  1
  Mg  Mg22  1  0.60061484  0.99994595  -0.00000000  1
  Mg  Mg23  1  0.39933011  0.99994595  -0.00000000  1
  Mg  Mg24  1  0.06547307  0.13094515  0.16379022  1
  Mg  Mg25  1  0.06547307  0.93452693  0.16379022  1
  Mg  Mg26  1  0.86905485  0.93452693  0.16379022  1
  Mg  Mg27  1  0.06622802  0.33220557  0.16607900  1
  Mg  Mg28  1  0.26597755  0.33220557  0.16607900  1
  Mg  Mg29  1  0.66779443  0.73402245  0.16607900  1
  Mg  Mg30  1  0.06622802  0.73402245  0.16607900  1
  Mg  Mg31  1  0.66779443  0.93377198  0.16607900  1
  Mg  Mg32  1  0.26597755  0.93377198  0.16607900  1
  Mg  Mg33  1  0.26643863  0.53287826  0.16639968  1
  Mg  Mg34  1  0.26643863  0.73356037  0.16639968  1
  Mg  Mg35  1  0.46712174  0.73356137  0.16639968  1
  Mg  Mg36  1  0.46668943  0.53330957  0.16637816  1
  Mg  Mg37  1  0.06662014  0.53331057  0.16637816  1
  Mg  Mg38  1  0.46668943  0.93337886  0.16637816  1
  Mg  Mg39  1  0.66666700  0.33333300  0.16658001  1
  Mg  Mg40  1  0.46675062  0.13332462  0.16651790  1
  Mg  Mg41  1  0.66657400  0.13332462  0.16651790  1
  Mg  Mg42  1  0.46675062  0.33342600  0.16651790  1
  Mg  Mg43  1  0.86667538  0.33342600  0.16651790  1
  Mg  Mg44  1  0.66657400  0.53324938  0.16651790  1
  Mg  Mg45  1  0.86667538  0.53324938  0.16651790  1
  Mg  Mg46  1  0.26725067  0.13362583  0.16702748  1
  Mg  Mg47  1  0.86637517  0.13362583  0.16702748  1
  Mg  Mg48  1  0.86637517  0.73274933  0.16702748  1
  Mg  Mg49  1  0.00000000  -0.00000000  0.33223049  1
  Mg  Mg50  1  0.80043241  0.99981884  0.33291602  1
  Mg  Mg51  1  0.19938643  0.99981984  0.33291602  1
  Mg  Mg52  1  0.00018016  0.19956759  0.33291602  1
  Mg  Mg53  1  0.19938643  0.19956759  0.33291602  1
  Mg  Mg54  1  0.80043241  0.80061257  0.33291602  1
  Mg  Mg55  1  0.00018016  0.80061357  0.33291602  1
  Mg  Mg56  1  0.60025076  0.99993163  0.33304444  1
  Mg  Mg57  1  0.39967987  0.99993163  0.33304444  1
  Mg  Mg58  1  0.00006937  0.39974824  0.33304444  1
  Mg  Mg59  1  0.39967987  0.39974824  0.33304444  1
  Mg  Mg60  1  0.00006937  0.60032013  0.33304444  1
  Mg  Mg61  1  0.60025076  0.60032013  0.33304444  1
  Mg  Mg62  1  0.19988910  0.39977819  0.33302182  1
  Mg  Mg63  1  0.60022081  0.80011090  0.33302182  1
  Mg  Mg64  1  0.19988910  0.80011090  0.33302182  1
  Mg  Mg65  1  0.59997712  0.19995423  0.33317660  1
  Mg  Mg66  1  0.59997712  0.40002288  0.33317660  1
  Mg  Mg67  1  0.80004577  0.40002288  0.33317660  1
  Mg  Mg68  1  0.20001353  0.60000676  0.33319480  1
  Mg  Mg69  1  0.39999324  0.60000676  0.33319480  1
  Mg  Mg70  1  0.39999324  0.79998547  0.33319480  1
  Mg  Mg71  1  0.80009057  0.19990843  0.33338168  1
  Mg  Mg72  1  0.39981886  0.19990943  0.33338168  1
  Mg  Mg73  1  0.80009057  0.60018214  0.33338168  1
  Mg  Mg74  1  0.06649854  0.13299709  0.50000000  1
  Mg  Mg75  1  0.86680371  0.13319629  0.50000000  1
  Mg  Mg76  1  0.26639258  0.13319629  0.50000000  1
  Mg  Mg77  1  0.66659184  0.13326021  0.50000000  1
  Mg  Mg78  1  0.46666937  0.13326121  0.50000000  1
  Mg  Mg79  1  0.06640264  0.33297216  0.50000000  1
  Mg  Mg80  1  0.26656952  0.33297216  0.50000000  1
  Mg  Mg81  1  0.66666700  0.33333300  0.50000000  1
  Mg  Mg82  1  0.86673879  0.33340816  0.50000000  1
  Mg  Mg83  1  0.46666937  0.33340816  0.50000000  1
  Mg  Mg84  1  0.26652607  0.53305314  0.50000000  1
  Mg  Mg85  1  0.46677292  0.53322708  0.50000000  1
  Mg  Mg86  1  0.06645416  0.53322708  0.50000000  1
  Mg  Mg87  1  0.86673879  0.53333163  0.50000000  1
  Mg  Mg88  1  0.66659184  0.53333163  0.50000000  1
  Mg  Mg89  1  0.26652607  0.73347393  0.50000000  1
  Mg  Mg90  1  0.46694686  0.73347393  0.50000000  1
  Mg  Mg91  1  0.06640264  0.73343048  0.50000000  1
  Mg  Mg92  1  0.66702784  0.73343048  0.50000000  1
  Mg  Mg93  1  0.86680371  0.73360742  0.50000000  1
  Mg  Mg94  1  0.06649854  0.93350146  0.50000000  1
  Mg  Mg95  1  0.86700291  0.93350146  0.50000000  1
  Mg  Mg96  1  0.46677292  0.93354584  0.50000000  1
  Mg  Mg97  1  0.26656952  0.93359736  0.50000000  1
  Mg  Mg98  1  0.66702784  0.93359736  0.50000000  1
  Mg  Mg99  1  0.80009057  0.19990843  0.66661732  1
  Mg  Mg100  1  0.39981886  0.19990943  0.66661732  1
  Mg  Mg101  1  0.80009057  0.60018214  0.66661732  1
  Mg  Mg102  1  0.20001353  0.60000676  0.66680520  1
  Mg  Mg103  1  0.39999324  0.60000676  0.66680520  1
  Mg  Mg104  1  0.39999324  0.79998547  0.66680520  1
  Mg  Mg105  1  0.59997712  0.19995423  0.66682340  1
  Mg  Mg106  1  0.59997712  0.40002288  0.66682340  1
  Mg  Mg107  1  0.80004577  0.40002288  0.66682340  1
  Mg  Mg108  1  0.19988910  0.39977819  0.66697818  1
  Mg  Mg109  1  0.60022081  0.80011090  0.66697818  1
  Mg  Mg110  1  0.19988910  0.80011090  0.66697818  1
  Mg  Mg111  1  0.60025076  0.99993163  0.66695556  1
  Mg  Mg112  1  0.39967987  0.99993163  0.66695556  1
  Mg  Mg113  1  0.00006937  0.39974824  0.66695556  1
  Mg  Mg114  1  0.39967987  0.39974824  0.66695556  1
  Mg  Mg115  1  0.00006937  0.60032013  0.66695556  1
  Mg  Mg116  1  0.60025076  0.60032013  0.66695556  1
  Mg  Mg117  1  0.80043241  0.99981884  0.66708398  1
  Mg  Mg118  1  0.19938643  0.99981984  0.66708398  1
  Mg  Mg119  1  0.00018016  0.19956759  0.66708398  1
  Mg  Mg120  1  0.19938643  0.19956759  0.66708398  1
  Mg  Mg121  1  0.80043241  0.80061257  0.66708398  1
  Mg  Mg122  1  0.00018016  0.80061357  0.66708398  1
  Mg  Mg123  1  0.00000000  -0.00000000  0.66776851  1
  Mg  Mg124  1  0.26725067  0.13362583  0.83297252  1
  Mg  Mg125  1  0.86637517  0.13362583  0.83297252  1
  Mg  Mg126  1  0.86637517  0.73274933  0.83297252  1
  Mg  Mg127  1  0.46675062  0.13332462  0.83348210  1
  Mg  Mg128  1  0.66657400  0.13332462  0.83348210  1
  Mg  Mg129  1  0.46675062  0.33342600  0.83348210  1
  Mg  Mg130  1  0.86667538  0.33342600  0.83348210  1
  Mg  Mg131  1  0.66657400  0.53324938  0.83348210  1
  Mg  Mg132  1  0.86667538  0.53324938  0.83348210  1
  Mg  Mg133  1  0.66666700  0.33333300  0.83341999  1
  Mg  Mg134  1  0.46668943  0.53330957  0.83362184  1
  Mg  Mg135  1  0.06662014  0.53331057  0.83362184  1
  Mg  Mg136  1  0.46668943  0.93337886  0.83362184  1
  Mg  Mg137  1  0.26643863  0.53287826  0.83360032  1
  Mg  Mg138  1  0.26643863  0.73356037  0.83360032  1
  Mg  Mg139  1  0.46712174  0.73356137  0.83360032  1
  Mg  Mg140  1  0.06622802  0.33220557  0.83392000  1
  Mg  Mg141  1  0.26597755  0.33220557  0.83392000  1
  Mg  Mg142  1  0.66779443  0.73402245  0.83392000  1
  Mg  Mg143  1  0.06622802  0.73402245  0.83392000  1
  Mg  Mg144  1  0.66779443  0.93377198  0.83392000  1
  Mg  Mg145  1  0.26597755  0.93377198  0.83392000  1
  Mg  Mg146  1  0.06547307  0.13094515  0.83620978  1
  Mg  Mg147  1  0.06547307  0.93452693  0.83620978  1
  Mg  Mg148  1  0.86905485  0.93452693  0.83620978  1
  Zn  Zn149  1  0.00000000  -0.00000000  -0.00000000  1
