# generated using pymatgen
data_KErP2O7
_symmetry_space_group_name_H-M   'P 1'
_cell_length_a   10.97179000
_cell_length_b   7.80072400
_cell_length_c   8.76161892
_cell_angle_alpha   73.73869379
_cell_angle_beta   90.00000000
_cell_angle_gamma   90.00000000
_symmetry_Int_Tables_number   1
_chemical_formula_structural   KErP2O7
_chemical_formula_sum   'K4 Er4 P8 O28'
_cell_volume   719.88903171
_cell_formula_units_Z   4
loop_
 _symmetry_equiv_pos_site_id
 _symmetry_equiv_pos_as_xyz
  1  'x, y, z'
loop_
 _atom_site_type_symbol
 _atom_site_label
 _atom_site_symmetry_multiplicity
 _atom_site_fract_x
 _atom_site_fract_y
 _atom_site_fract_z
 _atom_site_occupancy
  K  K0  1  0.81974900  0.82214400  0.55716100  1
  K  K1  1  0.18025100  0.17785600  0.44283900  1
  K  K2  1  0.31974900  0.17785600  0.94283900  1
  K  K3  1  0.68025100  0.82214400  0.05716100  1
  Er  Er4  1  0.39992200  0.76254900  0.75808600  1
  Er  Er5  1  0.60007800  0.23745100  0.24191400  1
  Er  Er6  1  0.89992200  0.23745100  0.74191400  1
  Er  Er7  1  0.10007800  0.76254900  0.25808600  1
  P  P8  1  0.13351400  0.56470900  0.69347400  1
  P  P9  1  0.86648600  0.43529100  0.30652600  1
  P  P10  1  0.63351400  0.43529100  0.80652600  1
  P  P11  1  0.36648600  0.56470900  0.19347400  1
  P  P12  1  0.09774400  0.86882900  0.82273800  1
  P  P13  1  0.90225600  0.13117100  0.17726200  1
  P  P14  1  0.59774400  0.13117100  0.67726200  1
  P  P15  1  0.40225600  0.86882900  0.32273800  1
  O  O16  1  0.07476800  0.37990400  0.73596400  1
  O  O17  1  0.92523200  0.62009600  0.26403600  1
  O  O18  1  0.57476800  0.62009600  0.76403600  1
  O  O19  1  0.42523200  0.37990400  0.23596400  1
  O  O20  1  0.22615000  0.92158000  0.75532000  1
  O  O21  1  0.77385000  0.07842000  0.24468000  1
  O  O22  1  0.72615000  0.07842000  0.74468000  1
  O  O23  1  0.27385000  0.92158000  0.25532000  1
  O  O24  1  0.26829800  0.54925500  0.74175900  1
  O  O25  1  0.73170200  0.45074500  0.25824100  1
  O  O26  1  0.76829800  0.45074500  0.75824100  1
  O  O27  1  0.23170200  0.54925500  0.24175900  1
  O  O28  1  0.10861000  0.67205700  0.52169400  1
  O  O29  1  0.89139000  0.32794300  0.47830600  1
  O  O30  1  0.60861000  0.32794300  0.97830600  1
  O  O31  1  0.39139000  0.67205700  0.02169400  1
  O  O32  1  0.40933500  0.85171600  0.49892500  1
  O  O33  1  0.59066500  0.14828400  0.50107500  1
  O  O34  1  0.90933500  0.14828400  0.00107500  1
  O  O35  1  0.09066500  0.85171600  0.99892500  1
  O  O36  1  0.06422400  0.67176400  0.80351400  1
  O  O37  1  0.93577600  0.32823600  0.19648600  1
  O  O38  1  0.56422400  0.32823600  0.69648600  1
  O  O39  1  0.43577600  0.67176400  0.30351400  1
  O  O40  1  0.50143500  0.00535600  0.77601900  1
  O  O41  1  0.49856500  0.99464400  0.22398100  1
  O  O42  1  0.00143500  0.99464400  0.72398100  1
  O  O43  1  0.99856500  0.00535600  0.27601900  1
