# generated using pymatgen
data_Cd2Ni6Te3PbO18
_symmetry_space_group_name_H-M   'P 1'
_cell_length_a   9.49125480
_cell_length_b   9.49125480
_cell_length_c   9.03425100
_cell_angle_alpha   90.00000000
_cell_angle_beta   90.00000000
_cell_angle_gamma   120.00000557
_symmetry_Int_Tables_number   1
_chemical_formula_structural   Cd2Ni6Te3PbO18
_chemical_formula_sum   'Cd4 Ni12 Te6 Pb2 O36'
_cell_volume   704.80670134
_cell_formula_units_Z   2
loop_
 _symmetry_equiv_pos_site_id
 _symmetry_equiv_pos_as_xyz
  1  'x, y, z'
loop_
 _atom_site_type_symbol
 _atom_site_label
 _atom_site_symmetry_multiplicity
 _atom_site_fract_x
 _atom_site_fract_y
 _atom_site_fract_z
 _atom_site_occupancy
  Cd  Cd0  1  0.33333300  0.66666700  0.43534800  1
  Cd  Cd1  1  0.66666700  0.33333300  0.93534800  1
  Cd  Cd2  1  0.66666700  0.33333300  0.56465200  1
  Cd  Cd3  1  0.33333300  0.66666700  0.06465200  1
  Ni  Ni4  1  0.35739100  0.00695800  0.58812600  1
  Ni  Ni5  1  0.64956800  0.64260900  0.58812600  1
  Ni  Ni6  1  0.99304200  0.35043200  0.58812600  1
  Ni  Ni7  1  0.64260900  0.99304200  0.08812600  1
  Ni  Ni8  1  0.35043200  0.35739100  0.08812600  1
  Ni  Ni9  1  0.00695800  0.64956800  0.08812600  1
  Ni  Ni10  1  0.64260900  0.99304200  0.41187400  1
  Ni  Ni11  1  0.35043200  0.35739100  0.41187400  1
  Ni  Ni12  1  0.00695800  0.64956800  0.41187400  1
  Ni  Ni13  1  0.35739100  0.00695800  0.91187400  1
  Ni  Ni14  1  0.64956800  0.64260900  0.91187400  1
  Ni  Ni15  1  0.99304200  0.35043200  0.91187400  1
  Te  Te16  1  0.66436400  0.64149200  0.25000000  1
  Te  Te17  1  0.97712800  0.33563600  0.25000000  1
  Te  Te18  1  0.35850800  0.02287200  0.25000000  1
  Te  Te19  1  0.33563600  0.35850800  0.75000000  1
  Te  Te20  1  0.02287200  0.66436400  0.75000000  1
  Te  Te21  1  0.64149200  0.97712800  0.75000000  1
  Pb  Pb22  1  0.00000000  0.00000000  0.50000000  1
  Pb  Pb23  1  0.00000000  0.00000000  0.00000000  1
  O  O24  1  0.20238300  0.89823600  0.40808900  1
  O  O25  1  0.69585300  0.79761700  0.40808900  1
  O  O26  1  0.10176400  0.30414700  0.40808900  1
  O  O27  1  0.79761700  0.10176400  0.90808900  1
  O  O28  1  0.30414700  0.20238300  0.90808900  1
  O  O29  1  0.89823600  0.69585300  0.90808900  1
  O  O30  1  0.79761700  0.10176400  0.59191100  1
  O  O31  1  0.30414700  0.20238300  0.59191100  1
  O  O32  1  0.89823600  0.69585300  0.59191100  1
  O  O33  1  0.20238300  0.89823600  0.09191100  1
  O  O34  1  0.69585300  0.79761700  0.09191100  1
  O  O35  1  0.10176400  0.30414700  0.09191100  1
  O  O36  1  0.48351300  0.87699800  0.58887100  1
  O  O37  1  0.39348500  0.51648700  0.58887100  1
  O  O38  1  0.12300200  0.60651500  0.58887100  1
  O  O39  1  0.51648700  0.12300200  0.08887100  1
  O  O40  1  0.60651500  0.48351300  0.08887100  1
  O  O41  1  0.87699800  0.39348500  0.08887100  1
  O  O42  1  0.51648700  0.12300200  0.41112900  1
  O  O43  1  0.60651500  0.48351300  0.41112900  1
  O  O44  1  0.87699800  0.39348500  0.41112900  1
  O  O45  1  0.48351300  0.87699800  0.91112900  1
  O  O46  1  0.39348500  0.51648700  0.91112900  1
  O  O47  1  0.12300200  0.60651500  0.91112900  1
  O  O48  1  0.12744300  0.58022600  0.25000000  1
  O  O49  1  0.45278300  0.87255700  0.25000000  1
  O  O50  1  0.41977400  0.54721700  0.25000000  1
  O  O51  1  0.87255700  0.41977400  0.75000000  1
  O  O52  1  0.54721700  0.12744300  0.75000000  1
  O  O53  1  0.58022600  0.45278300  0.75000000  1
  O  O54  1  0.89319800  0.70759600  0.25000000  1
  O  O55  1  0.81439800  0.10680200  0.25000000  1
  O  O56  1  0.29240400  0.18560200  0.25000000  1
  O  O57  1  0.10680200  0.29240400  0.75000000  1
  O  O58  1  0.18560200  0.89319800  0.75000000  1
  O  O59  1  0.70759600  0.81439800  0.75000000  1
