# generated using pymatgen
data_Sc57Pt13
_symmetry_space_group_name_H-M   'P 1'
_cell_length_a   14.50173938
_cell_length_b   14.50173938
_cell_length_c   14.50173938
_cell_angle_alpha   90.00000000
_cell_angle_beta   90.00000000
_cell_angle_gamma   90.00000000
_symmetry_Int_Tables_number   1
_chemical_formula_structural   Sc57Pt13
_chemical_formula_sum   'Sc114 Pt26'
_cell_volume   3049.72224555
_cell_formula_units_Z   2
loop_
 _symmetry_equiv_pos_site_id
 _symmetry_equiv_pos_as_xyz
  1  'x, y, z'
loop_
 _atom_site_type_symbol
 _atom_site_label
 _atom_site_symmetry_multiplicity
 _atom_site_fract_x
 _atom_site_fract_y
 _atom_site_fract_z
 _atom_site_occupancy
  Sc  Sc0  1  -0.00000000  0.37431108  0.00000000  1
  Sc  Sc1  1  -0.00000000  0.62568892  0.00000000  1
  Sc  Sc2  1  -0.00000000  -0.00000000  0.37431108  1
  Sc  Sc3  1  -0.00000000  -0.00000000  0.62568892  1
  Sc  Sc4  1  0.37431108  -0.00000000  0.00000000  1
  Sc  Sc5  1  0.62568892  -0.00000000  0.00000000  1
  Sc  Sc6  1  -0.00000000  0.22274381  0.50000000  1
  Sc  Sc7  1  -0.00000000  0.77725619  0.50000000  1
  Sc  Sc8  1  0.50000000  -0.00000000  0.22274381  1
  Sc  Sc9  1  0.50000000  -0.00000000  0.77725619  1
  Sc  Sc10  1  0.22274381  0.50000000  0.00000000  1
  Sc  Sc11  1  0.77725619  0.50000000  0.00000000  1
  Sc  Sc12  1  0.50000000  0.85941218  0.50000000  1
  Sc  Sc13  1  0.50000000  0.14058782  0.50000000  1
  Sc  Sc14  1  0.50000000  0.50000000  0.85941218  1
  Sc  Sc15  1  0.50000000  0.50000000  0.14058782  1
  Sc  Sc16  1  0.85941218  0.50000000  0.50000000  1
  Sc  Sc17  1  0.14058782  0.50000000  0.50000000  1
  Sc  Sc18  1  0.62734536  -0.00000000  0.39251874  1
  Sc  Sc19  1  0.37265464  -0.00000000  0.60748126  1
  Sc  Sc20  1  0.37265464  -0.00000000  0.39251874  1
  Sc  Sc21  1  0.62734536  -0.00000000  0.60748126  1
  Sc  Sc22  1  0.39251874  0.62734536  0.00000000  1
  Sc  Sc23  1  0.60748126  0.37265464  0.00000000  1
  Sc  Sc24  1  0.39251874  0.37265464  0.00000000  1
  Sc  Sc25  1  0.60748126  0.62734536  0.00000000  1
  Sc  Sc26  1  -0.00000000  0.39251874  0.62734536  1
  Sc  Sc27  1  -0.00000000  0.60748126  0.37265464  1
  Sc  Sc28  1  -0.00000000  0.39251874  0.37265464  1
  Sc  Sc29  1  -0.00000000  0.60748126  0.62734536  1
  Sc  Sc30  1  0.89314251  -0.00000000  0.17663347  1
  Sc  Sc31  1  0.10685749  -0.00000000  0.82336653  1
  Sc  Sc32  1  0.10685749  -0.00000000  0.17663347  1
  Sc  Sc33  1  0.89314251  -0.00000000  0.82336653  1
  Sc  Sc34  1  0.17663347  0.89314251  0.00000000  1
  Sc  Sc35  1  0.82336653  0.10685749  0.00000000  1
  Sc  Sc36  1  0.17663347  0.10685749  0.00000000  1
  Sc  Sc37  1  0.82336653  0.89314251  0.00000000  1
  Sc  Sc38  1  -0.00000000  0.17663347  0.89314251  1
  Sc  Sc39  1  -0.00000000  0.82336653  0.10685749  1
  Sc  Sc40  1  -0.00000000  0.17663347  0.10685749  1
  Sc  Sc41  1  -0.00000000  0.82336653  0.89314251  1
  Sc  Sc42  1  0.10135184  0.50000000  0.82586071  1
  Sc  Sc43  1  0.89864816  0.50000000  0.17413929  1
  Sc  Sc44  1  0.89864816  0.50000000  0.82586071  1
  Sc  Sc45  1  0.10135184  0.50000000  0.17413929  1
  Sc  Sc46  1  0.82586071  0.10135184  0.50000000  1
  Sc  Sc47  1  0.17413929  0.89864816  0.50000000  1
  Sc  Sc48  1  0.82586071  0.89864816  0.50000000  1
  Sc  Sc49  1  0.17413929  0.10135184  0.50000000  1
  Sc  Sc50  1  0.50000000  0.82586071  0.10135184  1
  Sc  Sc51  1  0.50000000  0.17413929  0.89864816  1
  Sc  Sc52  1  0.50000000  0.82586071  0.89864816  1
  Sc  Sc53  1  0.50000000  0.17413929  0.10135184  1
  Sc  Sc54  1  0.39196580  0.50000000  0.67315893  1
  Sc  Sc55  1  0.60803420  0.50000000  0.32684107  1
  Sc  Sc56  1  0.60803420  0.50000000  0.67315893  1
  Sc  Sc57  1  0.39196580  0.50000000  0.32684107  1
  Sc  Sc58  1  0.67315893  0.39196580  0.50000000  1
  Sc  Sc59  1  0.32684107  0.60803420  0.50000000  1
  Sc  Sc60  1  0.67315893  0.60803420  0.50000000  1
  Sc  Sc61  1  0.32684107  0.39196580  0.50000000  1
  Sc  Sc62  1  0.50000000  0.67315893  0.39196580  1
  Sc  Sc63  1  0.50000000  0.32684107  0.60803420  1
  Sc  Sc64  1  0.50000000  0.67315893  0.60803420  1
  Sc  Sc65  1  0.50000000  0.32684107  0.39196580  1
  Sc  Sc66  1  0.70279912  0.11087138  0.18703052  1
  Sc  Sc67  1  0.29720088  0.11087138  0.81296948  1
  Sc  Sc68  1  0.29720088  0.88912862  0.18703052  1
  Sc  Sc69  1  0.70279912  0.88912862  0.81296948  1
  Sc  Sc70  1  0.18703052  0.70279912  0.11087138  1
  Sc  Sc71  1  0.81296948  0.29720088  0.11087138  1
  Sc  Sc72  1  0.18703052  0.29720088  0.88912862  1
  Sc  Sc73  1  0.81296948  0.70279912  0.88912862  1
  Sc  Sc74  1  0.11087138  0.18703052  0.70279912  1
  Sc  Sc75  1  0.11087138  0.81296948  0.29720088  1
  Sc  Sc76  1  0.88912862  0.18703052  0.29720088  1
  Sc  Sc77  1  0.88912862  0.81296948  0.70279912  1
  Sc  Sc78  1  0.29720088  0.88912862  0.81296948  1
  Sc  Sc79  1  0.70279912  0.88912862  0.18703052  1
  Sc  Sc80  1  0.70279912  0.11087138  0.81296948  1
  Sc  Sc81  1  0.29720088  0.11087138  0.18703052  1
  Sc  Sc82  1  0.81296948  0.29720088  0.88912862  1
  Sc  Sc83  1  0.18703052  0.70279912  0.88912862  1
  Sc  Sc84  1  0.81296948  0.70279912  0.11087138  1
  Sc  Sc85  1  0.18703052  0.29720088  0.11087138  1
  Sc  Sc86  1  0.88912862  0.81296948  0.29720088  1
  Sc  Sc87  1  0.88912862  0.18703052  0.70279912  1
  Sc  Sc88  1  0.11087138  0.81296948  0.70279912  1
  Sc  Sc89  1  0.11087138  0.18703052  0.29720088  1
  Sc  Sc90  1  0.20853356  0.61432914  0.67756087  1
  Sc  Sc91  1  0.79146644  0.61432914  0.32243913  1
  Sc  Sc92  1  0.79146644  0.38567086  0.67756087  1
  Sc  Sc93  1  0.20853356  0.38567086  0.32243913  1
  Sc  Sc94  1  0.67756087  0.20853356  0.61432914  1
  Sc  Sc95  1  0.32243913  0.79146644  0.61432914  1
  Sc  Sc96  1  0.67756087  0.79146644  0.38567086  1
  Sc  Sc97  1  0.32243913  0.20853356  0.38567086  1
  Sc  Sc98  1  0.61432914  0.67756087  0.20853356  1
  Sc  Sc99  1  0.61432914  0.32243913  0.79146644  1
  Sc  Sc100  1  0.38567086  0.67756087  0.79146644  1
  Sc  Sc101  1  0.38567086  0.32243913  0.20853356  1
  Sc  Sc102  1  0.79146644  0.38567086  0.32243913  1
  Sc  Sc103  1  0.20853356  0.38567086  0.67756087  1
  Sc  Sc104  1  0.20853356  0.61432914  0.32243913  1
  Sc  Sc105  1  0.79146644  0.61432914  0.67756087  1
  Sc  Sc106  1  0.32243913  0.79146644  0.38567086  1
  Sc  Sc107  1  0.67756087  0.20853356  0.38567086  1
  Sc  Sc108  1  0.32243913  0.20853356  0.61432914  1
  Sc  Sc109  1  0.67756087  0.79146644  0.61432914  1
  Sc  Sc110  1  0.38567086  0.32243913  0.79146644  1
  Sc  Sc111  1  0.38567086  0.67756087  0.20853356  1
  Sc  Sc112  1  0.61432914  0.32243913  0.20853356  1
  Sc  Sc113  1  0.61432914  0.67756087  0.79146644  1
  Pt  Pt114  1  -0.00000000  -0.00000000  0.00000000  1
  Pt  Pt115  1  0.50000000  0.50000000  0.50000000  1
  Pt  Pt116  1  0.79853753  -0.00000000  0.33294949  1
  Pt  Pt117  1  0.20146247  -0.00000000  0.66705051  1
  Pt  Pt118  1  0.20146247  -0.00000000  0.33294949  1
  Pt  Pt119  1  0.79853753  -0.00000000  0.66705051  1
  Pt  Pt120  1  0.33294949  0.79853753  0.00000000  1
  Pt  Pt121  1  0.66705051  0.20146247  0.00000000  1
  Pt  Pt122  1  0.33294949  0.20146247  0.00000000  1
  Pt  Pt123  1  0.66705051  0.79853753  0.00000000  1
  Pt  Pt124  1  -0.00000000  0.33294949  0.79853753  1
  Pt  Pt125  1  -0.00000000  0.66705051  0.20146247  1
  Pt  Pt126  1  -0.00000000  0.33294949  0.20146247  1
  Pt  Pt127  1  -0.00000000  0.66705051  0.79853753  1
  Pt  Pt128  1  0.30003943  0.50000000  0.83262727  1
  Pt  Pt129  1  0.69996057  0.50000000  0.16737273  1
  Pt  Pt130  1  0.69996057  0.50000000  0.83262727  1
  Pt  Pt131  1  0.30003943  0.50000000  0.16737273  1
  Pt  Pt132  1  0.83262727  0.30003943  0.50000000  1
  Pt  Pt133  1  0.16737273  0.69996057  0.50000000  1
  Pt  Pt134  1  0.83262727  0.69996057  0.50000000  1
  Pt  Pt135  1  0.16737273  0.30003943  0.50000000  1
  Pt  Pt136  1  0.50000000  0.83262727  0.30003943  1
  Pt  Pt137  1  0.50000000  0.16737273  0.69996057  1
  Pt  Pt138  1  0.50000000  0.83262727  0.69996057  1
  Pt  Pt139  1  0.50000000  0.16737273  0.30003943  1
