# generated using pymatgen
data_Ba4SiSb2Se11
_symmetry_space_group_name_H-M   'P 1'
_cell_length_a   13.86976451
_cell_length_b   13.86976451
_cell_length_c   8.92694700
_cell_angle_alpha   90.00000000
_cell_angle_beta   90.00000000
_cell_angle_gamma   139.68236033
_symmetry_Int_Tables_number   1
_chemical_formula_structural   Ba4SiSb2Se11
_chemical_formula_sum   'Ba8 Si2 Sb4 Se22'
_cell_volume   1111.12237117
_cell_formula_units_Z   2
loop_
 _symmetry_equiv_pos_site_id
 _symmetry_equiv_pos_as_xyz
  1  'x, y, z'
loop_
 _atom_site_type_symbol
 _atom_site_label
 _atom_site_symmetry_multiplicity
 _atom_site_fract_x
 _atom_site_fract_y
 _atom_site_fract_z
 _atom_site_occupancy
  Ba  Ba0  1  0.96252200  0.54258700  0.99923100  1
  Ba  Ba1  1  0.45741300  0.03747800  0.99923100  1
  Ba  Ba2  1  0.03747800  0.45741300  0.49923100  1
  Ba  Ba3  1  0.54258700  0.96252200  0.49923100  1
  Ba  Ba4  1  0.78665000  0.70653300  0.23918000  1
  Ba  Ba5  1  0.29346700  0.21335000  0.23918000  1
  Ba  Ba6  1  0.21335000  0.29346700  0.73918000  1
  Ba  Ba7  1  0.70653300  0.78665000  0.73918000  1
  Si  Si8  1  0.92049400  0.07950600  0.40724800  1
  Si  Si9  1  0.07950600  0.92049400  0.90724800  1
  Sb  Sb10  1  0.35106100  0.64893900  0.06883700  1
  Sb  Sb11  1  0.64893900  0.35106100  0.56883700  1
  Sb  Sb12  1  0.85575700  0.14424300  0.06965000  1
  Sb  Sb13  1  0.14424300  0.85575700  0.56965000  1
  Se  Se14  1  0.61699300  0.38300700  0.09507200  1
  Se  Se15  1  0.38300700  0.61699300  0.59507200  1
  Se  Se16  1  0.55554900  0.44445100  0.89327600  1
  Se  Se17  1  0.44445100  0.55554900  0.39327600  1
  Se  Se18  1  0.52700400  0.47299600  0.52222000  1
  Se  Se19  1  0.47299600  0.52700400  0.02222000  1
  Se  Se20  1  0.73346300  0.26653700  0.72597700  1
  Se  Se21  1  0.26653700  0.73346300  0.22597700  1
  Se  Se22  1  0.88113100  0.55209200  0.39492600  1
  Se  Se23  1  0.44790800  0.11886900  0.39492600  1
  Se  Se24  1  0.11886900  0.44790800  0.89492600  1
  Se  Se25  1  0.55209200  0.88113100  0.89492600  1
  Se  Se26  1  0.76882700  0.23117300  0.20779000  1
  Se  Se27  1  0.23117300  0.76882700  0.70779000  1
  Se  Se28  1  0.90936000  0.71060400  0.75975100  1
  Se  Se29  1  0.28939600  0.09064000  0.75975100  1
  Se  Se30  1  0.09064000  0.28939600  0.25975100  1
  Se  Se31  1  0.71060400  0.90936000  0.25975100  1
  Se  Se32  1  0.87519900  0.12480100  0.62525700  1
  Se  Se33  1  0.12480100  0.87519900  0.12525700  1
  Se  Se34  1  0.00476100  0.99523900  0.48209600  1
  Se  Se35  1  0.99523900  0.00476100  0.98209600  1
