# generated using pymatgen
data_CeCu2SiGe
_symmetry_space_group_name_H-M   'P 1'
_cell_length_a   5.78352332
_cell_length_b   5.78352332
_cell_length_c   5.78352332
_cell_angle_alpha   138.17854723
_cell_angle_beta   138.17854723
_cell_angle_gamma   60.62965504
_symmetry_Int_Tables_number   1
_chemical_formula_structural   CeCu2SiGe
_chemical_formula_sum   'Ce1 Cu2 Si1 Ge1'
_cell_volume   85.09538973
_cell_formula_units_Z   1
loop_
 _symmetry_equiv_pos_site_id
 _symmetry_equiv_pos_as_xyz
  1  'x, y, z'
loop_
 _atom_site_type_symbol
 _atom_site_label
 _atom_site_symmetry_multiplicity
 _atom_site_fract_x
 _atom_site_fract_y
 _atom_site_fract_z
 _atom_site_occupancy
  Ce  Ce0  1  0.00185800  0.00185800  0.00000000  1
  Cu  Cu1  1  0.74568600  0.24568600  0.50000000  1
  Cu  Cu2  1  0.24568600  0.74568600  0.50000000  1
  Si  Si3  1  0.62486200  0.62486200  0.00000000  1
  Ge  Ge4  1  0.38190800  0.38190800  0.00000000  1
