# generated using pymatgen
data_Ni(BW)3
_symmetry_space_group_name_H-M   'P 1'
_cell_length_a   4.51514018
_cell_length_b   4.51514018
_cell_length_c   10.79072800
_cell_angle_alpha   90.00000000
_cell_angle_beta   90.00000000
_cell_angle_gamma   138.41565669
_symmetry_Int_Tables_number   1
_chemical_formula_structural   Ni(BW)3
_chemical_formula_sum   'Ni2 B6 W6'
_cell_volume   146.00890129
_cell_formula_units_Z   2
loop_
 _symmetry_equiv_pos_site_id
 _symmetry_equiv_pos_as_xyz
  1  'x, y, z'
loop_
 _atom_site_type_symbol
 _atom_site_label
 _atom_site_symmetry_multiplicity
 _atom_site_fract_x
 _atom_site_fract_y
 _atom_site_fract_z
 _atom_site_occupancy
  Ni  Ni0  1  0.50000000  0.50000000  0.50000000  1
  Ni  Ni1  1  0.50000000  0.50000000  0.00000000  1
  B  B2  1  0.08864100  0.91135900  0.39570500  1
  B  B3  1  0.91135900  0.08864100  0.60429500  1
  B  B4  1  0.08864100  0.91135900  0.10429500  1
  B  B5  1  0.91135900  0.08864100  0.89570500  1
  B  B6  1  0.20927900  0.79072100  0.25000000  1
  B  B7  1  0.79072100  0.20927900  0.75000000  1
  W  W8  1  0.78821500  0.21178500  0.39153600  1
  W  W9  1  0.21178500  0.78821500  0.60846400  1
  W  W10  1  0.78821500  0.21178500  0.10846400  1
  W  W11  1  0.21178500  0.78821500  0.89153600  1
  W  W12  1  0.50261800  0.49738200  0.25000000  1
  W  W13  1  0.49738200  0.50261800  0.75000000  1
