# generated using pymatgen
data_Y5(Si7Os2)2
_symmetry_space_group_name_H-M   'P 1'
_cell_length_a   8.06904400
_cell_length_b   7.97114200
_cell_length_c   12.82413034
_cell_angle_alpha   81.19718024
_cell_angle_beta   90.00000000
_cell_angle_gamma   90.00000000
_symmetry_Int_Tables_number   1
_chemical_formula_structural   Y5(Si7Os2)2
_chemical_formula_sum   'Y10 Si28 Os8'
_cell_volume   815.12566215
_cell_formula_units_Z   2
loop_
 _symmetry_equiv_pos_site_id
 _symmetry_equiv_pos_as_xyz
  1  'x, y, z'
loop_
 _atom_site_type_symbol
 _atom_site_label
 _atom_site_symmetry_multiplicity
 _atom_site_fract_x
 _atom_site_fract_y
 _atom_site_fract_z
 _atom_site_occupancy
  Y  Y0  1  0.74612500  0.34163800  0.63614500  1
  Y  Y1  1  0.24612500  0.15836200  0.36385500  1
  Y  Y2  1  0.25387500  0.65836200  0.36385500  1
  Y  Y3  1  0.75387500  0.84163800  0.63614500  1
  Y  Y4  1  0.74837200  0.16185000  0.36591800  1
  Y  Y5  1  0.24837200  0.33815000  0.63408200  1
  Y  Y6  1  0.25162800  0.83815000  0.63408200  1
  Y  Y7  1  0.75162800  0.66185000  0.36591800  1
  Y  Y8  1  0.50000000  0.00000000  0.00000000  1
  Y  Y9  1  0.00000000  0.50000000  0.00000000  1
  Si  Si10  1  0.99972700  0.60547300  0.55929800  1
  Si  Si11  1  0.49972700  0.89452700  0.44070200  1
  Si  Si12  1  0.00027300  0.39452700  0.44070200  1
  Si  Si13  1  0.50027300  0.10547300  0.55929800  1
  Si  Si14  1  0.50065100  0.38763000  0.44697400  1
  Si  Si15  1  0.00065100  0.11237000  0.55302600  1
  Si  Si16  1  0.49934900  0.61237000  0.55302600  1
  Si  Si17  1  0.99934900  0.88763000  0.44697400  1
  Si  Si18  1  0.00523100  0.82256800  0.82094300  1
  Si  Si19  1  0.50523100  0.67743200  0.17905700  1
  Si  Si20  1  0.99476900  0.17743200  0.17905700  1
  Si  Si21  1  0.49476900  0.32256800  0.82094300  1
  Si  Si22  1  0.50767800  0.76284900  0.82065100  1
  Si  Si23  1  0.00767800  0.73715100  0.17934900  1
  Si  Si24  1  0.49232200  0.23715100  0.17934900  1
  Si  Si25  1  0.99232200  0.26284900  0.82065100  1
  Si  Si26  1  0.27914400  0.53803400  0.82050000  1
  Si  Si27  1  0.77914400  0.96196600  0.17950000  1
  Si  Si28  1  0.33238500  0.66612300  0.99961500  1
  Si  Si29  1  0.83238500  0.83387700  0.00038500  1
  Si  Si30  1  0.66761500  0.33387700  0.00038500  1
  Si  Si31  1  0.16761500  0.16612300  0.99961500  1
  Si  Si32  1  0.77944300  0.05012600  0.82107000  1
  Si  Si33  1  0.27944300  0.44987400  0.17893000  1
  Si  Si34  1  0.22055700  0.94987400  0.17893000  1
  Si  Si35  1  0.72055700  0.55012600  0.82107000  1
  Si  Si36  1  0.22085600  0.03803400  0.82050000  1
  Si  Si37  1  0.72085600  0.46196600  0.17950000  1
  Os  Os38  1  0.12619500  0.87137300  0.99863700  1
  Os  Os39  1  0.62619500  0.62862700  0.00136300  1
  Os  Os40  1  0.87380500  0.12862700  0.00136300  1
  Os  Os41  1  0.37380500  0.37137300  0.99863700  1
  Os  Os42  1  0.49900300  0.06183400  0.74694500  1
  Os  Os43  1  0.99900300  0.43816600  0.25305500  1
  Os  Os44  1  0.50099700  0.93816600  0.25305500  1
  Os  Os45  1  0.00099700  0.56183400  0.74694500  1
