# generated using pymatgen
data_Lu(FeB)2
_symmetry_space_group_name_H-M   'P 1'
_cell_length_a   5.22407704
_cell_length_b   5.22407704
_cell_length_c   5.22407704
_cell_angle_alpha   141.19321726
_cell_angle_beta   141.19321726
_cell_angle_gamma   56.04597006
_symmetry_Int_Tables_number   1
_chemical_formula_structural   Lu(FeB)2
_chemical_formula_sum   'Lu1 Fe2 B2'
_cell_volume   55.56157641
_cell_formula_units_Z   1
loop_
 _symmetry_equiv_pos_site_id
 _symmetry_equiv_pos_as_xyz
  1  'x, y, z'
loop_
 _atom_site_type_symbol
 _atom_site_label
 _atom_site_symmetry_multiplicity
 _atom_site_fract_x
 _atom_site_fract_y
 _atom_site_fract_z
 _atom_site_occupancy
  Lu  Lu0  1  0.00000000  0.00000000  0.00000000  1
  Fe  Fe1  1  0.75000000  0.25000000  0.50000000  1
  Fe  Fe2  1  0.25000000  0.75000000  0.50000000  1
  B  B3  1  0.61121800  0.61121800  0.00000000  1
  B  B4  1  0.38878200  0.38878200  0.00000000  1
