# generated using pymatgen
data_TaAs
_symmetry_space_group_name_H-M   'P 1'
_cell_length_a   6.35971866
_cell_length_b   6.35971866
_cell_length_c   6.35971866
_cell_angle_alpha   148.34042440
_cell_angle_beta   148.34042440
_cell_angle_gamma   45.38308113
_symmetry_Int_Tables_number   1
_chemical_formula_structural   TaAs
_chemical_formula_sum   'Ta2 As2'
_cell_volume   70.63360143
_cell_formula_units_Z   2
loop_
 _symmetry_equiv_pos_site_id
 _symmetry_equiv_pos_as_xyz
  1  'x, y, z'
loop_
 _atom_site_type_symbol
 _atom_site_label
 _atom_site_symmetry_multiplicity
 _atom_site_fract_x
 _atom_site_fract_y
 _atom_site_fract_z
 _atom_site_occupancy
  Ta  Ta0  1  0.49993600  0.99993600  0.50000000  1
  Ta  Ta1  1  0.74993600  0.74993600  0.00000000  1
  As  As2  1  0.91776400  0.41776400  0.50000000  1
  As  As3  1  0.16776400  0.16776400  0.00000000  1
