# generated using pymatgen
data_Na2Zn3H4(Se2O7)2
_symmetry_space_group_name_H-M   'P 1'
_cell_length_a   8.89230887
_cell_length_b   8.89230887
_cell_length_c   15.12795032
_cell_angle_alpha   73.87461051
_cell_angle_beta   73.87461051
_cell_angle_gamma   44.20571156
_symmetry_Int_Tables_number   1
_chemical_formula_structural   Na2Zn3H4(Se2O7)2
_chemical_formula_sum   'Na4 Zn6 H8 Se8 O28'
_cell_volume   795.68808505
_cell_formula_units_Z   2
loop_
 _symmetry_equiv_pos_site_id
 _symmetry_equiv_pos_as_xyz
  1  'x, y, z'
loop_
 _atom_site_type_symbol
 _atom_site_label
 _atom_site_symmetry_multiplicity
 _atom_site_fract_x
 _atom_site_fract_y
 _atom_site_fract_z
 _atom_site_occupancy
  Na  Na0  1  0.25871300  0.53085600  0.49088700  1
  Na  Na1  1  0.46914400  0.74128700  0.00911300  1
  Na  Na2  1  0.74128700  0.46914400  0.50911300  1
  Na  Na3  1  0.53085600  0.25871300  0.99088700  1
  Zn  Zn4  1  0.85009500  0.17257800  0.11862100  1
  Zn  Zn5  1  0.82742200  0.14990500  0.38137900  1
  Zn  Zn6  1  0.14990500  0.82742200  0.88137900  1
  Zn  Zn7  1  0.17257800  0.85009500  0.61862100  1
  Zn  Zn8  1  0.32295600  0.67704400  0.25000000  1
  Zn  Zn9  1  0.67704400  0.32295600  0.75000000  1
  H  H10  1  0.78781600  0.79543200  0.38898900  1
  H  H11  1  0.20456800  0.21218400  0.11101100  1
  H  H12  1  0.21218400  0.20456800  0.61101100  1
  H  H13  1  0.79543200  0.78781600  0.88898900  1
  H  H14  1  0.99110100  0.55090400  0.38242100  1
  H  H15  1  0.44909600  0.00889900  0.11757900  1
  H  H16  1  0.00889900  0.44909600  0.61757900  1
  H  H17  1  0.55090400  0.99110100  0.88242100  1
  Se  Se18  1  0.07119400  0.72161100  0.10689700  1
  Se  Se19  1  0.27838900  0.92880600  0.39310300  1
  Se  Se20  1  0.92880600  0.27838900  0.89310300  1
  Se  Se21  1  0.72161100  0.07119400  0.60689700  1
  Se  Se22  1  0.76764300  0.51781400  0.22071400  1
  Se  Se23  1  0.48218600  0.23235700  0.27928600  1
  Se  Se24  1  0.23235700  0.48218600  0.77928600  1
  Se  Se25  1  0.51781400  0.76764300  0.72071400  1
  O  O26  1  0.12183500  0.85050900  0.14847600  1
  O  O27  1  0.14949100  0.87816500  0.35152400  1
  O  O28  1  0.87816500  0.14949100  0.85152400  1
  O  O29  1  0.85050900  0.12183500  0.64847600  1
  O  O30  1  0.24270500  0.64413700  0.00442200  1
  O  O31  1  0.35586300  0.75729500  0.49557800  1
  O  O32  1  0.75729500  0.35586300  0.99557800  1
  O  O33  1  0.64413700  0.24270500  0.50442200  1
  O  O34  1  0.95558900  0.82384200  0.57661000  1
  O  O35  1  0.17615800  0.04441100  0.92339000  1
  O  O36  1  0.04441100  0.17615800  0.42339000  1
  O  O37  1  0.82384200  0.95558900  0.07661000  1
  O  O38  1  0.29232800  0.46873300  0.33263000  1
  O  O39  1  0.53126700  0.70767200  0.16737000  1
  O  O40  1  0.70767200  0.53126700  0.66737000  1
  O  O41  1  0.46873300  0.29232800  0.83263000  1
  O  O42  1  0.83732200  0.65164300  0.40805800  1
  O  O43  1  0.34835700  0.16267800  0.09194200  1
  O  O44  1  0.16267800  0.34835700  0.59194200  1
  O  O45  1  0.65164300  0.83732200  0.90805800  1
  O  O46  1  0.94240800  0.28925100  0.16395700  1
  O  O47  1  0.71074900  0.05759200  0.33604300  1
  O  O48  1  0.05759200  0.71074900  0.83604300  1
  O  O49  1  0.28925100  0.94240800  0.66395700  1
  O  O50  1  0.65553500  0.45752700  0.32002600  1
  O  O51  1  0.54247300  0.34446500  0.17997400  1
  O  O52  1  0.34446500  0.54247300  0.67997400  1
  O  O53  1  0.45752700  0.65553500  0.82002600  1
