# generated using pymatgen
data_Na2Mo2O7
_symmetry_space_group_name_H-M   'P 1'
_cell_length_a   7.04258114
_cell_length_b   7.04258114
_cell_length_c   15.12861600
_cell_angle_alpha   90.00000000
_cell_angle_beta   90.00000000
_cell_angle_gamma   117.41069216
_symmetry_Int_Tables_number   1
_chemical_formula_structural   Na2Mo2O7
_chemical_formula_sum   'Na8 Mo8 O28'
_cell_volume   666.10633693
_cell_formula_units_Z   4
loop_
 _symmetry_equiv_pos_site_id
 _symmetry_equiv_pos_as_xyz
  1  'x, y, z'
loop_
 _atom_site_type_symbol
 _atom_site_label
 _atom_site_symmetry_multiplicity
 _atom_site_fract_x
 _atom_site_fract_y
 _atom_site_fract_z
 _atom_site_occupancy
  Na  Na0  1  0.31720200  0.68279800  0.34850900  1
  Na  Na1  1  0.18279800  0.81720200  0.84850900  1
  Na  Na2  1  0.68279800  0.31720200  0.65149100  1
  Na  Na3  1  0.81720200  0.18279800  0.15149100  1
  Na  Na4  1  0.25005100  0.25005100  0.00000000  1
  Na  Na5  1  0.24994900  0.24994900  0.50000000  1
  Na  Na6  1  0.74994900  0.74994900  0.00000000  1
  Na  Na7  1  0.75005100  0.75005100  0.50000000  1
  Mo  Mo8  1  0.24404100  0.75595900  0.08648800  1
  Mo  Mo9  1  0.25595900  0.74404100  0.58648800  1
  Mo  Mo10  1  0.75595900  0.24404100  0.91351200  1
  Mo  Mo11  1  0.74404100  0.25595900  0.41351200  1
  Mo  Mo12  1  0.32918900  0.17081100  0.25000000  1
  Mo  Mo13  1  0.17081100  0.32918900  0.75000000  1
  Mo  Mo14  1  0.67081100  0.82918900  0.75000000  1
  Mo  Mo15  1  0.82918900  0.67081100  0.25000000  1
  O  O16  1  0.36141600  0.63858400  0.50298700  1
  O  O17  1  0.13858400  0.86141600  0.00298700  1
  O  O18  1  0.63858400  0.36141600  0.49701300  1
  O  O19  1  0.86141600  0.13858400  0.99701300  1
  O  O20  1  0.37508700  0.62491300  0.03344100  1
  O  O21  1  0.12491300  0.87508700  0.53344100  1
  O  O22  1  0.62491300  0.37508700  0.96655900  1
  O  O23  1  0.87508700  0.12491300  0.46655900  1
  O  O24  1  0.11774600  0.88225400  0.28189000  1
  O  O25  1  0.38225400  0.61774600  0.78189000  1
  O  O26  1  0.88225400  0.11774600  0.71811000  1
  O  O27  1  0.61774600  0.38225400  0.21811000  1
  O  O28  1  0.71245100  0.68847400  0.66275000  1
  O  O29  1  0.78754900  0.81152600  0.16275000  1
  O  O30  1  0.68847400  0.71245100  0.33725000  1
  O  O31  1  0.81152600  0.78754900  0.83725000  1
  O  O32  1  0.92925900  0.47440300  0.34443500  1
  O  O33  1  0.57074100  0.02559700  0.84443500  1
  O  O34  1  0.47440300  0.92925900  0.65556500  1
  O  O35  1  0.02559700  0.57074100  0.15556500  1
  O  O36  1  0.07074100  0.52559700  0.65556500  1
  O  O37  1  0.42925900  0.97440300  0.15556500  1
  O  O38  1  0.52559700  0.07074100  0.34443500  1
  O  O39  1  0.97440300  0.42925900  0.84443500  1
  O  O40  1  0.18847400  0.21245100  0.16275000  1
  O  O41  1  0.31152600  0.28754900  0.66275000  1
  O  O42  1  0.21245100  0.18847400  0.83725000  1
  O  O43  1  0.28754900  0.31152600  0.33725000  1
