# generated using pymatgen
data_Na4Sn(GeS3)2
_symmetry_space_group_name_H-M   'P 1'
_cell_length_a   6.90694338
_cell_length_b   6.90694338
_cell_length_c   7.76706885
_cell_angle_alpha   81.56825859
_cell_angle_beta   81.56825859
_cell_angle_gamma   119.56642854
_symmetry_Int_Tables_number   1
_chemical_formula_structural   Na4Sn(GeS3)2
_chemical_formula_sum   'Na4 Sn1 Ge2 S6'
_cell_volume   308.30294299
_cell_formula_units_Z   1
loop_
 _symmetry_equiv_pos_site_id
 _symmetry_equiv_pos_as_xyz
  1  'x, y, z'
loop_
 _atom_site_type_symbol
 _atom_site_label
 _atom_site_symmetry_multiplicity
 _atom_site_fract_x
 _atom_site_fract_y
 _atom_site_fract_z
 _atom_site_occupancy
  Na  Na0  1  0.50220600  0.49779400  0.00000000  1
  Na  Na1  1  0.66781000  0.33219000  0.50000000  1
  Na  Na2  1  0.33164800  0.66835200  0.50000000  1
  Na  Na3  1  0.17440500  0.82559500  0.00000000  1
  Sn  Sn4  1  0.82965700  0.17034300  0.00000000  1
  Ge  Ge5  1  0.06071100  0.05826500  0.33643600  1
  Ge  Ge6  1  0.94173500  0.93928900  0.66356400  1
  S  S7  1  0.08766100  0.39732700  0.24591800  1
  S  S8  1  0.39727600  0.08414100  0.24955800  1
  S  S9  1  0.91585900  0.60272400  0.75044200  1
  S  S10  1  0.60267300  0.91233900  0.75408200  1
  S  S11  1  0.77956000  0.79120200  0.23516600  1
  S  S12  1  0.20879800  0.22044000  0.76483400  1
