# generated using pymatgen
data_RbNi4(PO4)3
_symmetry_space_group_name_H-M   'P 1'
_cell_length_a   6.24317400
_cell_length_b   9.58384200
_cell_length_c   16.52598900
_cell_angle_alpha   90.00000000
_cell_angle_beta   90.00000000
_cell_angle_gamma   90.00000000
_symmetry_Int_Tables_number   1
_chemical_formula_structural   RbNi4(PO4)3
_chemical_formula_sum   'Rb4 Ni16 P12 O48'
_cell_volume   988.80930296
_cell_formula_units_Z   4
loop_
 _symmetry_equiv_pos_site_id
 _symmetry_equiv_pos_as_xyz
  1  'x, y, z'
loop_
 _atom_site_type_symbol
 _atom_site_label
 _atom_site_symmetry_multiplicity
 _atom_site_fract_x
 _atom_site_fract_y
 _atom_site_fract_z
 _atom_site_occupancy
  Rb  Rb0  1  0.50000000  0.69670100  0.03127600  1
  Rb  Rb1  1  0.50000000  0.30329900  0.96872400  1
  Rb  Rb2  1  0.00000000  0.19670100  0.46872400  1
  Rb  Rb3  1  0.00000000  0.80329900  0.53127600  1
  Ni  Ni4  1  0.50000000  0.53197400  0.59240400  1
  Ni  Ni5  1  0.50000000  0.46802600  0.40759600  1
  Ni  Ni6  1  0.00000000  0.03197400  0.90759600  1
  Ni  Ni7  1  0.00000000  0.96802600  0.09240400  1
  Ni  Ni8  1  0.50000000  0.01332400  0.35710800  1
  Ni  Ni9  1  0.50000000  0.98667600  0.64289200  1
  Ni  Ni10  1  0.00000000  0.51332400  0.14289200  1
  Ni  Ni11  1  0.00000000  0.48667600  0.85710800  1
  Ni  Ni12  1  0.75014700  0.75348600  0.29582500  1
  Ni  Ni13  1  0.75014700  0.24651400  0.70417500  1
  Ni  Ni14  1  0.74985300  0.25348600  0.20417500  1
  Ni  Ni15  1  0.74985300  0.74651400  0.79582500  1
  Ni  Ni16  1  0.24985300  0.24651400  0.70417500  1
  Ni  Ni17  1  0.24985300  0.75348600  0.29582500  1
  Ni  Ni18  1  0.25014700  0.74651400  0.79582500  1
  Ni  Ni19  1  0.25014700  0.25348600  0.20417500  1
  P  P20  1  0.50000000  0.96324000  0.16335200  1
  P  P21  1  0.50000000  0.03676000  0.83664800  1
  P  P22  1  0.00000000  0.46324000  0.33664800  1
  P  P23  1  0.00000000  0.53676000  0.66335200  1
  P  P24  1  0.50000000  0.54800300  0.22159200  1
  P  P25  1  0.50000000  0.45199700  0.77840800  1
  P  P26  1  0.00000000  0.04800300  0.27840800  1
  P  P27  1  0.00000000  0.95199700  0.72159200  1
  P  P28  1  0.50000000  0.79545000  0.46269700  1
  P  P29  1  0.50000000  0.20455000  0.53730300  1
  P  P30  1  0.00000000  0.29545000  0.03730300  1
  P  P31  1  0.00000000  0.70455000  0.96269700  1
  O  O32  1  0.50000000  0.12515800  0.17560800  1
  O  O33  1  0.50000000  0.87484200  0.82439200  1
  O  O34  1  0.00000000  0.62515800  0.32439200  1
  O  O35  1  0.00000000  0.37484200  0.67560800  1
  O  O36  1  0.50000000  0.61345800  0.77392600  1
  O  O37  1  0.50000000  0.38654200  0.22607400  1
  O  O38  1  0.00000000  0.11345800  0.72607400  1
  O  O39  1  0.00000000  0.88654200  0.27392700  1
  O  O40  1  0.70098900  0.91640800  0.11868300  1
  O  O41  1  0.70098900  0.08359200  0.88131700  1
  O  O42  1  0.79901100  0.41640800  0.38131700  1
  O  O43  1  0.79901100  0.58359200  0.61868300  1
  O  O44  1  0.29901100  0.08359200  0.88131700  1
  O  O45  1  0.29901100  0.91640800  0.11868300  1
  O  O46  1  0.20098900  0.58359200  0.61868300  1
  O  O47  1  0.20098900  0.41640800  0.38131700  1
  O  O48  1  0.50000000  0.61106400  0.31103100  1
  O  O49  1  0.50000000  0.38893600  0.68896900  1
  O  O50  1  0.00000000  0.11106400  0.18896900  1
  O  O51  1  0.00000000  0.88893600  0.81103100  1
  O  O52  1  0.50000000  0.88988600  0.25206800  1
  O  O53  1  0.50000000  0.11011400  0.74793200  1
  O  O54  1  0.00000000  0.38988600  0.24793200  1
  O  O55  1  0.00000000  0.61011400  0.75206800  1
  O  O56  1  0.50000000  0.13316600  0.45536700  1
  O  O57  1  0.50000000  0.86683400  0.54463300  1
  O  O58  1  0.00000000  0.63316600  0.04463300  1
  O  O59  1  0.00000000  0.36683400  0.95536700  1
  O  O60  1  0.69557400  0.84200900  0.40857700  1
  O  O61  1  0.69557400  0.15799100  0.59142300  1
  O  O62  1  0.80442600  0.34200900  0.09142300  1
  O  O63  1  0.80442600  0.65799100  0.90857700  1
  O  O64  1  0.30442600  0.15799100  0.59142300  1
  O  O65  1  0.30442600  0.84200900  0.40857700  1
  O  O66  1  0.19557400  0.65799100  0.90857700  1
  O  O67  1  0.19557400  0.34200900  0.09142300  1
  O  O68  1  0.70806200  0.60754800  0.18433200  1
  O  O69  1  0.70806200  0.39245200  0.81566800  1
  O  O70  1  0.79193800  0.10754800  0.31566800  1
  O  O71  1  0.79193800  0.89245200  0.68433200  1
  O  O72  1  0.29193800  0.39245200  0.81566800  1
  O  O73  1  0.29193800  0.60754800  0.18433200  1
  O  O74  1  0.20806200  0.89245200  0.68433200  1
  O  O75  1  0.20806200  0.10754800  0.31566800  1
  O  O76  1  0.50000000  0.63583400  0.48000900  1
  O  O77  1  0.50000000  0.36416600  0.51999100  1
  O  O78  1  0.00000000  0.13583400  0.01999100  1
  O  O79  1  0.00000000  0.86416600  0.98000900  1
