# generated using pymatgen
data_BaNb2V2O11
_symmetry_space_group_name_H-M   'P 1'
_cell_length_a   10.17590121
_cell_length_b   10.17590121
_cell_length_c   10.17590070
_cell_angle_alpha   32.27713541
_cell_angle_beta   32.27713541
_cell_angle_gamma   32.27713584
_symmetry_Int_Tables_number   1
_chemical_formula_structural   BaNb2V2O11
_chemical_formula_sum   'Ba1 Nb2 V2 O11'
_cell_volume   267.09771894
_cell_formula_units_Z   1
loop_
 _symmetry_equiv_pos_site_id
 _symmetry_equiv_pos_as_xyz
  1  'x, y, z'
loop_
 _atom_site_type_symbol
 _atom_site_label
 _atom_site_symmetry_multiplicity
 _atom_site_fract_x
 _atom_site_fract_y
 _atom_site_fract_z
 _atom_site_occupancy
  Ba  Ba0  1  0.00000000  0.00000000  0.00000000  1
  Nb  Nb1  1  0.86887900  0.86887900  0.86887900  1
  Nb  Nb2  1  0.13112100  0.13112100  0.13112100  1
  V  V3  1  0.59999800  0.59999800  0.59999800  1
  V  V4  1  0.40000200  0.40000200  0.40000200  1
  O  O5  1  0.50000000  0.00000000  0.00000000  1
  O  O6  1  0.00000000  0.50000000  0.00000000  1
  O  O7  1  0.00000000  0.00000000  0.50000000  1
  O  O8  1  0.75475300  0.75475300  0.23770600  1
  O  O9  1  0.23770600  0.75475300  0.75475300  1
  O  O10  1  0.75475300  0.23770600  0.75475300  1
  O  O11  1  0.24524700  0.24524700  0.76229400  1
  O  O12  1  0.76229400  0.24524700  0.24524700  1
  O  O13  1  0.24524700  0.76229400  0.24524700  1
  O  O14  1  0.65810200  0.65810200  0.65810200  1
  O  O15  1  0.34189800  0.34189800  0.34189800  1
