# generated using pymatgen
data_Sm2ReO5
_symmetry_space_group_name_H-M   'P 1'
_cell_length_a   8.69738700
_cell_length_b   8.69738700
_cell_length_c   5.82761300
_cell_angle_alpha   90.00000000
_cell_angle_beta   90.00000000
_cell_angle_gamma   90.00000000
_symmetry_Int_Tables_number   1
_chemical_formula_structural   Sm2ReO5
_chemical_formula_sum   'Sm8 Re4 O20'
_cell_volume   440.82710834
_cell_formula_units_Z   4
loop_
 _symmetry_equiv_pos_site_id
 _symmetry_equiv_pos_as_xyz
  1  'x, y, z'
loop_
 _atom_site_type_symbol
 _atom_site_label
 _atom_site_symmetry_multiplicity
 _atom_site_fract_x
 _atom_site_fract_y
 _atom_site_fract_z
 _atom_site_occupancy
  Sm  Sm0  1  0.35834900  0.65049400  0.24978900  1
  Sm  Sm1  1  0.15049400  0.14165100  0.24978900  1
  Sm  Sm2  1  0.84950600  0.85834900  0.24978900  1
  Sm  Sm3  1  0.64165100  0.34950600  0.24978900  1
  Sm  Sm4  1  0.85834900  0.15049400  0.75021100  1
  Sm  Sm5  1  0.65049400  0.64165100  0.75021100  1
  Sm  Sm6  1  0.34950600  0.35834900  0.75021100  1
  Sm  Sm7  1  0.14165100  0.84950600  0.75021100  1
  Re  Re8  1  0.00000000  0.50000000  0.15062000  1
  Re  Re9  1  0.50000000  0.00000000  0.84938000  1
  Re  Re10  1  0.00000000  0.50000000  0.54023800  1
  Re  Re11  1  0.50000000  0.00000000  0.45976200  1
  O  O12  1  0.70010300  0.09045000  0.39909000  1
  O  O13  1  0.59045000  0.79989700  0.39909000  1
  O  O14  1  0.40955000  0.20010300  0.39909000  1
  O  O15  1  0.29989700  0.90955000  0.39909000  1
  O  O16  1  0.79989700  0.40955000  0.60091000  1
  O  O17  1  0.90955000  0.70010300  0.60091000  1
  O  O18  1  0.09045000  0.29989700  0.60091000  1
  O  O19  1  0.20010300  0.59045000  0.60091000  1
  O  O20  1  0.69994100  0.90745200  0.90191000  1
  O  O21  1  0.40745200  0.80005900  0.90191000  1
  O  O22  1  0.59254800  0.19994100  0.90191000  1
  O  O23  1  0.30005900  0.09254800  0.90191000  1
  O  O24  1  0.50000000  0.50000000  0.00000000  1
  O  O25  1  0.00000000  0.00000000  0.00000000  1
  O  O26  1  0.50000000  0.50000000  0.50000000  1
  O  O27  1  0.00000000  0.00000000  0.50000000  1
  O  O28  1  0.19994100  0.40745200  0.09809000  1
  O  O29  1  0.90745200  0.30005900  0.09809000  1
  O  O30  1  0.09254800  0.69994100  0.09809000  1
  O  O31  1  0.80005900  0.59254800  0.09809000  1
