# generated using pymatgen
data_Cs3Er2Br9
_symmetry_space_group_name_H-M   'P 1'
_cell_length_a   10.47526878
_cell_length_b   10.47526878
_cell_length_c   10.47526901
_cell_angle_alpha   83.18078869
_cell_angle_beta   83.18078869
_cell_angle_gamma   83.18078634
_symmetry_Int_Tables_number   1
_chemical_formula_structural   Cs3Er2Br9
_chemical_formula_sum   'Cs6 Er4 Br18'
_cell_volume   1126.85782473
_cell_formula_units_Z   2
loop_
 _symmetry_equiv_pos_site_id
 _symmetry_equiv_pos_as_xyz
  1  'x, y, z'
loop_
 _atom_site_type_symbol
 _atom_site_label
 _atom_site_symmetry_multiplicity
 _atom_site_fract_x
 _atom_site_fract_y
 _atom_site_fract_z
 _atom_site_occupancy
  Cs  Cs0  1  0.58976100  0.91023900  0.25000000  1
  Cs  Cs1  1  0.25000000  0.58976100  0.91023900  1
  Cs  Cs2  1  0.91023900  0.25000000  0.58976100  1
  Cs  Cs3  1  0.75000000  0.41023900  0.08976100  1
  Cs  Cs4  1  0.08976100  0.75000000  0.41023900  1
  Cs  Cs5  1  0.41023900  0.08976100  0.75000000  1
  Er  Er6  1  0.84643700  0.84643700  0.84643700  1
  Er  Er7  1  0.34643700  0.34643700  0.34643700  1
  Er  Er8  1  0.15356300  0.15356300  0.15356300  1
  Er  Er9  1  0.65356300  0.65356300  0.65356300  1
  Br  Br10  1  0.09646000  0.40354000  0.25000000  1
  Br  Br11  1  0.25000000  0.09646000  0.40354000  1
  Br  Br12  1  0.40354000  0.25000000  0.09646000  1
  Br  Br13  1  0.75000000  0.90354000  0.59646000  1
  Br  Br14  1  0.59646000  0.75000000  0.90354000  1
  Br  Br15  1  0.90354000  0.59646000  0.75000000  1
  Br  Br16  1  0.23623000  0.41525100  0.57727900  1
  Br  Br17  1  0.57727900  0.23623000  0.41525100  1
  Br  Br18  1  0.41525100  0.57727900  0.23623000  1
  Br  Br19  1  0.07727900  0.91525100  0.73623000  1
  Br  Br20  1  0.73623000  0.07727900  0.91525100  1
  Br  Br21  1  0.91525100  0.73623000  0.07727900  1
  Br  Br22  1  0.76377000  0.58474900  0.42272100  1
  Br  Br23  1  0.42272100  0.76377000  0.58474900  1
  Br  Br24  1  0.58474900  0.42272100  0.76377000  1
  Br  Br25  1  0.92272100  0.08474900  0.26377000  1
  Br  Br26  1  0.26377000  0.92272100  0.08474900  1
  Br  Br27  1  0.08474900  0.26377000  0.92272100  1
