# generated using pymatgen
data_ErAlFe
_symmetry_space_group_name_H-M   'P 1'
_cell_length_a   5.29007630
_cell_length_b   5.29007630
_cell_length_c   8.67446200
_cell_angle_alpha   90.00000000
_cell_angle_beta   90.00000000
_cell_angle_gamma   119.02535649
_symmetry_Int_Tables_number   1
_chemical_formula_structural   ErAlFe
_chemical_formula_sum   'Er4 Al4 Fe4'
_cell_volume   212.26534040
_cell_formula_units_Z   4
loop_
 _symmetry_equiv_pos_site_id
 _symmetry_equiv_pos_as_xyz
  1  'x, y, z'
loop_
 _atom_site_type_symbol
 _atom_site_label
 _atom_site_symmetry_multiplicity
 _atom_site_fract_x
 _atom_site_fract_y
 _atom_site_fract_z
 _atom_site_occupancy
  Er  Er0  1  0.66662400  0.33337600  0.30362600  1
  Er  Er1  1  0.33079800  0.66920200  0.17591100  1
  Er  Er2  1  0.33079800  0.66920200  0.82408900  1
  Er  Er3  1  0.66662400  0.33337600  0.69637400  1
  Al  Al4  1  0.00526400  0.99473600  0.23599000  1
  Al  Al5  1  0.00526400  0.99473600  0.76401000  1
  Al  Al6  1  0.66019300  0.83456700  0.50000000  1
  Al  Al7  1  0.16543300  0.33980700  0.50000000  1
  Fe  Fe8  1  0.16707800  0.83292200  0.50000000  1
  Fe  Fe9  1  0.35328500  0.17862500  0.00000000  1
  Fe  Fe10  1  0.82137500  0.64671500  0.00000000  1
  Fe  Fe11  1  0.82707800  0.17292200  0.00000000  1
