# generated using pymatgen
data_SmGa3Ni
_symmetry_space_group_name_H-M   'P 1'
_cell_length_a   4.24372786
_cell_length_b   4.24372786
_cell_length_c   5.91944521
_cell_angle_alpha   68.96357613
_cell_angle_beta   68.96357613
_cell_angle_gamma   89.91931002
_symmetry_Int_Tables_number   1
_chemical_formula_structural   SmGa3Ni
_chemical_formula_sum   'Sm1 Ga3 Ni1'
_cell_volume   91.86909539
_cell_formula_units_Z   1
loop_
 _symmetry_equiv_pos_site_id
 _symmetry_equiv_pos_as_xyz
  1  'x, y, z'
loop_
 _atom_site_type_symbol
 _atom_site_label
 _atom_site_symmetry_multiplicity
 _atom_site_fract_x
 _atom_site_fract_y
 _atom_site_fract_z
 _atom_site_occupancy
  Sm  Sm0  1  0.00437300  0.00437300  0.99125400  1
  Ga  Ga1  1  0.75584700  0.25584700  0.48830700  1
  Ga  Ga2  1  0.25584700  0.75584700  0.48830700  1
  Ga  Ga3  1  0.59000900  0.59000900  0.81998200  1
  Ni  Ni4  1  0.36292500  0.36292500  0.27415000  1
