# generated using pymatgen
data_TbUTe4
_symmetry_space_group_name_H-M   'P 1'
_cell_length_a   8.00490902
_cell_length_b   8.00490902
_cell_length_c   8.00490902
_cell_angle_alpha   149.46036595
_cell_angle_beta   135.17458577
_cell_angle_gamma   55.21238991
_symmetry_Int_Tables_number   1
_chemical_formula_structural   TbUTe4
_chemical_formula_sum   'Tb1 U1 Te4'
_cell_volume   182.57227296
_cell_formula_units_Z   1
loop_
 _symmetry_equiv_pos_site_id
 _symmetry_equiv_pos_as_xyz
  1  'x, y, z'
loop_
 _atom_site_type_symbol
 _atom_site_label
 _atom_site_symmetry_multiplicity
 _atom_site_fract_x
 _atom_site_fract_y
 _atom_site_fract_z
 _atom_site_occupancy
  Tb  Tb0  1  0.13866400  0.13866400  0.00000000  1
  U  U1  1  0.86297500  0.86297500  0.00000000  1
  Te  Te2  1  0.70599500  0.20599500  0.50000000  1
  Te  Te3  1  0.29756700  0.79756700  0.50000000  1
  Te  Te4  1  0.74946400  0.49740000  0.25206500  1
  Te  Te5  1  0.24533500  0.49740000  0.74793500  1
