# generated using pymatgen
data_Rb2Cd(IBr)2
_symmetry_space_group_name_H-M   'P 1'
_cell_length_a   7.46358322
_cell_length_b   7.46358322
_cell_length_c   12.01011800
_cell_angle_alpha   90.00000000
_cell_angle_beta   90.00000000
_cell_angle_gamma   109.58452763
_symmetry_Int_Tables_number   1
_chemical_formula_structural   Rb2Cd(IBr)2
_chemical_formula_sum   'Rb4 Cd2 I4 Br4'
_cell_volume   630.32011512
_cell_formula_units_Z   2
loop_
 _symmetry_equiv_pos_site_id
 _symmetry_equiv_pos_as_xyz
  1  'x, y, z'
loop_
 _atom_site_type_symbol
 _atom_site_label
 _atom_site_symmetry_multiplicity
 _atom_site_fract_x
 _atom_site_fract_y
 _atom_site_fract_z
 _atom_site_occupancy
  Rb  Rb0  1  0.61255400  0.61255400  0.50000000  1
  Rb  Rb1  1  0.61255400  0.61255400  0.00000000  1
  Rb  Rb2  1  0.25015900  0.89400700  0.25000000  1
  Rb  Rb3  1  0.89400700  0.25015900  0.75000000  1
  Cd  Cd4  1  0.84738800  0.29890100  0.25000000  1
  Cd  Cd5  1  0.29890100  0.84738800  0.75000000  1
  I  I6  1  0.05032700  0.47332900  0.44146800  1
  I  I7  1  0.47332900  0.05032700  0.55853200  1
  I  I8  1  0.05032700  0.47332900  0.05853200  1
  I  I9  1  0.47332900  0.05032700  0.94146800  1
  Br  Br10  1  0.51698000  0.36203400  0.25000000  1
  Br  Br11  1  0.36203400  0.51698000  0.75000000  1
  Br  Br12  1  0.77106100  0.92504900  0.25000000  1
  Br  Br13  1  0.92504900  0.77106100  0.75000000  1
