# generated using pymatgen
data_AlCuBr4
_symmetry_space_group_name_H-M   'P 1'
_cell_length_a   5.79431300
_cell_length_b   5.79431300
_cell_length_c   10.72024100
_cell_angle_alpha   90.00000000
_cell_angle_beta   90.00000000
_cell_angle_gamma   90.00000000
_symmetry_Int_Tables_number   1
_chemical_formula_structural   AlCuBr4
_chemical_formula_sum   'Al2 Cu2 Br8'
_cell_volume   359.92204823
_cell_formula_units_Z   2
loop_
 _symmetry_equiv_pos_site_id
 _symmetry_equiv_pos_as_xyz
  1  'x, y, z'
loop_
 _atom_site_type_symbol
 _atom_site_label
 _atom_site_symmetry_multiplicity
 _atom_site_fract_x
 _atom_site_fract_y
 _atom_site_fract_z
 _atom_site_occupancy
  Al  Al0  1  0.00000000  0.50000000  0.75000000  1
  Al  Al1  1  0.50000000  0.00000000  0.25000000  1
  Cu  Cu2  1  0.50000000  0.50000000  0.00000000  1
  Cu  Cu3  1  0.50000000  0.50000000  0.50000000  1
  Br  Br4  1  0.23206900  0.73993100  0.87372000  1
  Br  Br5  1  0.76793100  0.26006900  0.87372000  1
  Br  Br6  1  0.23206900  0.26006900  0.62628000  1
  Br  Br7  1  0.76793100  0.73993100  0.62628000  1
  Br  Br8  1  0.73993100  0.76793100  0.12628000  1
  Br  Br9  1  0.26006900  0.23206900  0.12628000  1
  Br  Br10  1  0.26006900  0.76793100  0.37372000  1
  Br  Br11  1  0.73993100  0.23206900  0.37372000  1
