# generated using pymatgen
data_CsEuAsS3
_symmetry_space_group_name_H-M   'P 1'
_cell_length_a   8.47103100
_cell_length_b   8.93312400
_cell_length_c   9.62952210
_cell_angle_alpha   75.72952937
_cell_angle_beta   90.00000000
_cell_angle_gamma   90.00000000
_symmetry_Int_Tables_number   1
_chemical_formula_structural   CsEuAsS3
_chemical_formula_sum   'Cs4 Eu4 As4 S12'
_cell_volume   706.20727540
_cell_formula_units_Z   4
loop_
 _symmetry_equiv_pos_site_id
 _symmetry_equiv_pos_as_xyz
  1  'x, y, z'
loop_
 _atom_site_type_symbol
 _atom_site_label
 _atom_site_symmetry_multiplicity
 _atom_site_fract_x
 _atom_site_fract_y
 _atom_site_fract_z
 _atom_site_occupancy
  Cs  Cs0  1  0.57285600  0.22676100  0.40650300  1
  Cs  Cs1  1  0.07285600  0.27323900  0.59349700  1
  Cs  Cs2  1  0.42714400  0.77323900  0.59349700  1
  Cs  Cs3  1  0.92714400  0.72676100  0.40650300  1
  Eu  Eu4  1  0.21693800  0.46917200  0.06398900  1
  Eu  Eu5  1  0.71693800  0.03082800  0.93601100  1
  Eu  Eu6  1  0.78306200  0.53082800  0.93601100  1
  Eu  Eu7  1  0.28306200  0.96917200  0.06398900  1
  As  As8  1  0.95272400  0.15463400  0.21424200  1
  As  As9  1  0.45272400  0.34536600  0.78575800  1
  As  As10  1  0.04727600  0.84536600  0.78575800  1
  As  As11  1  0.54727600  0.65463400  0.21424200  1
  S  S12  1  0.51692200  0.28508000  0.02536000  1
  S  S13  1  0.01692200  0.21492000  0.97464000  1
  S  S14  1  0.48307800  0.71492000  0.97464000  1
  S  S15  1  0.98307800  0.78508000  0.02536000  1
  S  S16  1  0.91778100  0.40089400  0.23238100  1
  S  S17  1  0.41778100  0.09910600  0.76761900  1
  S  S18  1  0.08221900  0.59910600  0.76761900  1
  S  S19  1  0.58221900  0.90089400  0.23238100  1
  S  S20  1  0.69076300  0.41605100  0.68569200  1
  S  S21  1  0.19076300  0.08394900  0.31430800  1
  S  S22  1  0.30923700  0.58394900  0.31430800  1
  S  S23  1  0.80923700  0.91605100  0.68569200  1
