# generated using pymatgen
data_Sm5Ir2
_symmetry_space_group_name_H-M   'P 1'
_cell_length_a   8.84067046
_cell_length_b   8.84067046
_cell_length_c   7.27713059
_cell_angle_alpha   83.56120780
_cell_angle_beta   83.56120780
_cell_angle_gamma   43.90030722
_symmetry_Int_Tables_number   1
_chemical_formula_structural   Sm5Ir2
_chemical_formula_sum   'Sm10 Ir4'
_cell_volume   391.48958593
_cell_formula_units_Z   2
loop_
 _symmetry_equiv_pos_site_id
 _symmetry_equiv_pos_as_xyz
  1  'x, y, z'
loop_
 _atom_site_type_symbol
 _atom_site_label
 _atom_site_symmetry_multiplicity
 _atom_site_fract_x
 _atom_site_fract_y
 _atom_site_fract_z
 _atom_site_occupancy
  Sm  Sm0  1  0.02239300  0.79302500  0.41959000  1
  Sm  Sm1  1  0.20697500  0.97760700  0.08041000  1
  Sm  Sm2  1  0.97760700  0.20697500  0.58041000  1
  Sm  Sm3  1  0.79302500  0.02239300  0.91959000  1
  Sm  Sm4  1  0.34798400  0.21476700  0.31633900  1
  Sm  Sm5  1  0.78523300  0.65201600  0.18366100  1
  Sm  Sm6  1  0.65201600  0.78523300  0.68366100  1
  Sm  Sm7  1  0.21476700  0.34798400  0.81633900  1
  Sm  Sm8  1  0.56772800  0.43227200  0.25000000  1
  Sm  Sm9  1  0.43227200  0.56772800  0.75000000  1
  Ir  Ir10  1  0.17692200  0.60067700  0.07312500  1
  Ir  Ir11  1  0.39932300  0.82307800  0.42687500  1
  Ir  Ir12  1  0.82307800  0.39932300  0.92687500  1
  Ir  Ir13  1  0.60067700  0.17692200  0.57312500  1
