# generated using pymatgen
data_Ho6MnTe2
_symmetry_space_group_name_H-M   'P 1'
_cell_length_a   4.08169000
_cell_length_b   8.25801991
_cell_length_c   8.26963956
_cell_angle_alpha   119.95352935
_cell_angle_beta   90.00000000
_cell_angle_gamma   90.00000000
_symmetry_Int_Tables_number   1
_chemical_formula_structural   Ho6MnTe2
_chemical_formula_sum   'Ho6 Mn1 Te2'
_cell_volume   241.51067509
_cell_formula_units_Z   1
loop_
 _symmetry_equiv_pos_site_id
 _symmetry_equiv_pos_as_xyz
  1  'x, y, z'
loop_
 _atom_site_type_symbol
 _atom_site_label
 _atom_site_symmetry_multiplicity
 _atom_site_fract_x
 _atom_site_fract_y
 _atom_site_fract_z
 _atom_site_occupancy
  Ho  Ho0  1  0.50000000  0.60576900  0.00000000  1
  Ho  Ho1  1  0.50000000  0.39397500  0.39391100  1
  Ho  Ho2  1  0.50000000  0.00006300  0.60608900  1
  Ho  Ho3  1  0.00000000  0.23767800  0.00000000  1
  Ho  Ho4  1  0.00000000  0.76236100  0.76203900  1
  Ho  Ho5  1  0.00000000  0.00032200  0.23796100  1
  Mn  Mn6  1  0.50000000  0.99980600  0.00000000  1
  Te  Te7  1  0.00000000  0.33331300  0.66669900  1
  Te  Te8  1  0.00000000  0.66661400  0.33330100  1
