# generated using pymatgen
data_Ba2GaS4
_symmetry_space_group_name_H-M   'P 1'
_cell_length_a   6.29208100
_cell_length_b   12.87008000
_cell_length_c   20.14404299
_cell_angle_alpha   75.68642327
_cell_angle_beta   90.00000000
_cell_angle_gamma   90.00000000
_symmetry_Int_Tables_number   1
_chemical_formula_structural   Ba2GaS4
_chemical_formula_sum   'Ba16 Ga8 S32'
_cell_volume   1580.61745676
_cell_formula_units_Z   8
loop_
 _symmetry_equiv_pos_site_id
 _symmetry_equiv_pos_as_xyz
  1  'x, y, z'
loop_
 _atom_site_type_symbol
 _atom_site_label
 _atom_site_symmetry_multiplicity
 _atom_site_fract_x
 _atom_site_fract_y
 _atom_site_fract_z
 _atom_site_occupancy
  Ba  Ba0  1  0.23558800  0.89510500  0.21351600  1
  Ba  Ba1  1  0.73558800  0.10489500  0.28648400  1
  Ba  Ba2  1  0.76441200  0.10489500  0.78648400  1
  Ba  Ba3  1  0.26441200  0.89510500  0.71351600  1
  Ba  Ba4  1  0.74222400  0.85390600  0.04886600  1
  Ba  Ba5  1  0.24222400  0.14609400  0.45113400  1
  Ba  Ba6  1  0.25777600  0.14609400  0.95113400  1
  Ba  Ba7  1  0.75777600  0.85390600  0.54886600  1
  Ba  Ba8  1  0.23526400  0.61656200  0.03734500  1
  Ba  Ba9  1  0.73526400  0.38343800  0.46265500  1
  Ba  Ba10  1  0.76473600  0.38343800  0.96265500  1
  Ba  Ba11  1  0.26473600  0.61656200  0.53734500  1
  Ba  Ba12  1  0.23085200  0.52692800  0.31236600  1
  Ba  Ba13  1  0.73085200  0.47307200  0.18763400  1
  Ba  Ba14  1  0.76914800  0.47307200  0.68763400  1
  Ba  Ba15  1  0.26914800  0.52692800  0.81236600  1
  Ga  Ga16  1  0.31716600  0.88269300  0.40144200  1
  Ga  Ga17  1  0.81716600  0.11730700  0.09855800  1
  Ga  Ga18  1  0.68283400  0.11730700  0.59855800  1
  Ga  Ga19  1  0.18283400  0.88269300  0.90144200  1
  Ga  Ga20  1  0.31246200  0.30312900  0.10062200  1
  Ga  Ga21  1  0.81246200  0.69687100  0.39937800  1
  Ga  Ga22  1  0.68753800  0.69687100  0.89937800  1
  Ga  Ga23  1  0.18753800  0.30312900  0.60062200  1
  S  S24  1  0.40131700  0.68616800  0.17287500  1
  S  S25  1  0.90131700  0.31383200  0.32712500  1
  S  S26  1  0.59868300  0.31383200  0.82712500  1
  S  S27  1  0.09868300  0.68616800  0.67287500  1
  S  S28  1  0.06564900  0.68586000  0.17237700  1
  S  S29  1  0.56564900  0.31414000  0.32762300  1
  S  S30  1  0.93435100  0.31414000  0.82762300  1
  S  S31  1  0.43435100  0.68586000  0.67237700  1
  S  S32  1  0.73570400  0.96215200  0.17660200  1
  S  S33  1  0.23570400  0.03784800  0.32339800  1
  S  S34  1  0.26429600  0.03784800  0.82339800  1
  S  S35  1  0.76429600  0.96215200  0.67660200  1
  S  S36  1  0.24519100  0.88364200  0.01186300  1
  S  S37  1  0.74519100  0.11635800  0.48813700  1
  S  S38  1  0.75480900  0.11635800  0.98813700  1
  S  S39  1  0.25480900  0.88364200  0.51186300  1
  S  S40  1  0.68206600  0.86829300  0.38441100  1
  S  S41  1  0.18206600  0.13170700  0.11558900  1
  S  S42  1  0.31793400  0.13170700  0.61558900  1
  S  S43  1  0.81793400  0.86829300  0.88441100  1
  S  S44  1  0.17650800  0.73088800  0.37347300  1
  S  S45  1  0.67650800  0.26911200  0.12652700  1
  S  S46  1  0.82349200  0.26911200  0.62652700  1
  S  S47  1  0.32349200  0.73088800  0.87347300  1
  S  S48  1  0.22550700  0.41851800  0.16406800  1
  S  S49  1  0.72550700  0.58148200  0.33593200  1
  S  S50  1  0.77449300  0.58148200  0.83593200  1
  S  S51  1  0.27449300  0.41851800  0.66406800  1
  S  S52  1  0.23278200  0.38734200  0.48497600  1
  S  S53  1  0.73278200  0.61265800  0.01502400  1
  S  S54  1  0.76721800  0.61265800  0.51502400  1
  S  S55  1  0.26721800  0.38734200  0.98497600  1
