# generated using pymatgen
data_Rb2NbCuSe4
_symmetry_space_group_name_H-M   'P 1'
_cell_length_a   14.46854400
_cell_length_b   12.91482560
_cell_length_c   7.70575853
_cell_angle_alpha   85.14867078
_cell_angle_beta   62.79998488
_cell_angle_gamma   32.05134435
_symmetry_Int_Tables_number   1
_chemical_formula_structural   Rb2NbCuSe4
_chemical_formula_sum   'Rb4 Nb2 Cu2 Se8'
_cell_volume   521.26859519
_cell_formula_units_Z   2
loop_
 _symmetry_equiv_pos_site_id
 _symmetry_equiv_pos_as_xyz
  1  'x, y, z'
loop_
 _atom_site_type_symbol
 _atom_site_label
 _atom_site_symmetry_multiplicity
 _atom_site_fract_x
 _atom_site_fract_y
 _atom_site_fract_z
 _atom_site_occupancy
  Rb  Rb0  1  0.82123000  0.82123000  0.17877000  1
  Rb  Rb1  1  0.17877000  0.17877000  0.82123000  1
  Rb  Rb2  1  0.07123000  0.07123000  0.42877000  1
  Rb  Rb3  1  0.42877000  0.42877000  0.07123000  1
  Nb  Nb4  1  0.25000000  0.25000000  0.25000000  1
  Nb  Nb5  1  0.00000000  0.00000000  0.00000000  1
  Cu  Cu6  1  0.75000000  0.75000000  0.75000000  1
  Cu  Cu7  1  0.50000000  0.50000000  0.50000000  1
  Se  Se8  1  0.71118300  0.39922800  0.09211700  1
  Se  Se9  1  0.79747200  0.09211700  0.39922800  1
  Se  Se10  1  0.09211700  0.79747200  0.71118300  1
  Se  Se11  1  0.39922800  0.71118300  0.79747200  1
  Se  Se12  1  0.15788300  0.45252800  0.53881700  1
  Se  Se13  1  0.85077200  0.53881700  0.45252800  1
  Se  Se14  1  0.45252800  0.15788300  0.85077200  1
  Se  Se15  1  0.53881700  0.85077200  0.15788300  1
