# generated using pymatgen
data_PrGePd
_symmetry_space_group_name_H-M   'P 1'
_cell_length_a   4.54472800
_cell_length_b   7.71070900
_cell_length_c   22.19422700
_cell_angle_alpha   90.00000000
_cell_angle_beta   90.00000000
_cell_angle_gamma   90.00000000
_symmetry_Int_Tables_number   1
_chemical_formula_structural   PrGePd
_chemical_formula_sum   'Pr12 Ge12 Pd12'
_cell_volume   777.75396337
_cell_formula_units_Z   12
loop_
 _symmetry_equiv_pos_site_id
 _symmetry_equiv_pos_as_xyz
  1  'x, y, z'
loop_
 _atom_site_type_symbol
 _atom_site_label
 _atom_site_symmetry_multiplicity
 _atom_site_fract_x
 _atom_site_fract_y
 _atom_site_fract_z
 _atom_site_occupancy
  Pr  Pr0  1  0.25000000  0.70959600  0.33319200  1
  Pr  Pr1  1  0.75000000  0.29040400  0.66680800  1
  Pr  Pr2  1  0.75000000  0.20959600  0.16680800  1
  Pr  Pr3  1  0.25000000  0.79040400  0.83319200  1
  Pr  Pr4  1  0.25000000  0.79090200  0.16629800  1
  Pr  Pr5  1  0.75000000  0.20909800  0.83370200  1
  Pr  Pr6  1  0.75000000  0.29090200  0.33370200  1
  Pr  Pr7  1  0.25000000  0.70909800  0.66629800  1
  Pr  Pr8  1  0.25000000  0.71692900  0.00142100  1
  Pr  Pr9  1  0.75000000  0.28307100  0.99857900  1
  Pr  Pr10  1  0.75000000  0.21692900  0.49857900  1
  Pr  Pr11  1  0.25000000  0.78307100  0.50142100  1
  Ge  Ge12  1  0.25000000  0.08825000  0.07089100  1
  Ge  Ge13  1  0.75000000  0.91175000  0.92910900  1
  Ge  Ge14  1  0.75000000  0.58825000  0.42910900  1
  Ge  Ge15  1  0.25000000  0.41175000  0.57089100  1
  Ge  Ge16  1  0.25000000  0.08226400  0.26969500  1
  Ge  Ge17  1  0.75000000  0.91773600  0.73030500  1
  Ge  Ge18  1  0.75000000  0.58226400  0.23030500  1
  Ge  Ge19  1  0.25000000  0.41773600  0.76969500  1
  Ge  Ge20  1  0.25000000  0.08398000  0.39722200  1
  Ge  Ge21  1  0.75000000  0.91602000  0.60277800  1
  Ge  Ge22  1  0.75000000  0.58398000  0.10277800  1
  Ge  Ge23  1  0.25000000  0.41602000  0.89722200  1
  Pd  Pd24  1  0.25000000  0.41628000  0.23760600  1
  Pd  Pd25  1  0.75000000  0.58372000  0.76239400  1
  Pd  Pd26  1  0.75000000  0.91628000  0.26239400  1
  Pd  Pd27  1  0.25000000  0.08372000  0.73760600  1
  Pd  Pd28  1  0.25000000  0.41779100  0.43469200  1
  Pd  Pd29  1  0.75000000  0.58220900  0.56530800  1
  Pd  Pd30  1  0.75000000  0.91779100  0.06530800  1
  Pd  Pd31  1  0.25000000  0.08220900  0.93469200  1
  Pd  Pd32  1  0.25000000  0.42005600  0.09362800  1
  Pd  Pd33  1  0.75000000  0.57994400  0.90637200  1
  Pd  Pd34  1  0.75000000  0.92005600  0.40637200  1
  Pd  Pd35  1  0.25000000  0.07994400  0.59362800  1
