# generated using pymatgen
data_GdMoBrO4
_symmetry_space_group_name_H-M   'P 1'
_cell_length_a   6.97585400
_cell_length_b   7.37872871
_cell_length_c   11.20958052
_cell_angle_alpha   106.30070761
_cell_angle_beta   107.11826499
_cell_angle_gamma   92.33254164
_symmetry_Int_Tables_number   1
_chemical_formula_structural   GdMoBrO4
_chemical_formula_sum   'Gd4 Mo4 Br4 O16'
_cell_volume   524.45797404
_cell_formula_units_Z   4
loop_
 _symmetry_equiv_pos_site_id
 _symmetry_equiv_pos_as_xyz
  1  'x, y, z'
loop_
 _atom_site_type_symbol
 _atom_site_label
 _atom_site_symmetry_multiplicity
 _atom_site_fract_x
 _atom_site_fract_y
 _atom_site_fract_z
 _atom_site_occupancy
  Gd  Gd0  1  0.64199900  0.12361000  0.73013000  1
  Gd  Gd1  1  0.35800100  0.87639000  0.26987000  1
  Gd  Gd2  1  0.39486800  0.64732200  0.76929100  1
  Gd  Gd3  1  0.60513200  0.35267800  0.23070900  1
  Mo  Mo4  1  0.73608300  0.81568700  0.13411600  1
  Mo  Mo5  1  0.26391700  0.18431300  0.86588400  1
  Mo  Mo6  1  0.77466300  0.59102800  0.63085100  1
  Mo  Mo7  1  0.22533700  0.40897200  0.36914900  1
  Br  Br8  1  0.25810400  0.98208700  0.51637700  1
  Br  Br9  1  0.74189600  0.01791300  0.48362300  1
  Br  Br10  1  0.19707100  0.71686200  0.98147500  1
  Br  Br11  1  0.80292900  0.28313800  0.01852500  1
  O  O12  1  0.67352100  0.72786500  0.96067200  1
  O  O13  1  0.32647900  0.27213500  0.03932800  1
  O  O14  1  0.00327300  0.86543100  0.20693600  1
  O  O15  1  0.99672700  0.13456900  0.79306400  1
  O  O16  1  0.62558700  0.65460400  0.20047800  1
  O  O17  1  0.37441300  0.34539600  0.79952200  1
  O  O18  1  0.38901900  0.97661300  0.81814100  1
  O  O19  1  0.61098100  0.02338700  0.18185900  1
  O  O20  1  0.04214100  0.63722400  0.67734100  1
  O  O21  1  0.95785900  0.36277600  0.32265900  1
  O  O22  1  0.69889600  0.42288800  0.70323900  1
  O  O23  1  0.30110400  0.57711200  0.29676100  1
  O  O24  1  0.67834500  0.50582100  0.45587900  1
  O  O25  1  0.32165500  0.49417900  0.54412100  1
  O  O26  1  0.65984800  0.79736500  0.70062900  1
  O  O27  1  0.34015200  0.20263500  0.29937100  1
