# generated using pymatgen
data_Dy2CrSbO7
_symmetry_space_group_name_H-M   'P 1'
_cell_length_a   7.28266217
_cell_length_b   7.28266217
_cell_length_c   7.28266217
_cell_angle_alpha   120.19731010
_cell_angle_beta   119.52789778
_cell_angle_gamma   90.23911573
_symmetry_Int_Tables_number   1
_chemical_formula_structural   Dy2CrSbO7
_chemical_formula_sum   'Dy4 Cr2 Sb2 O14'
_cell_volume   273.67425757
_cell_formula_units_Z   2
loop_
 _symmetry_equiv_pos_site_id
 _symmetry_equiv_pos_as_xyz
  1  'x, y, z'
loop_
 _atom_site_type_symbol
 _atom_site_label
 _atom_site_symmetry_multiplicity
 _atom_site_fract_x
 _atom_site_fract_y
 _atom_site_fract_z
 _atom_site_occupancy
  Dy  Dy0  1  0.50000000  0.00000000  0.00000000  1
  Dy  Dy1  1  0.50000000  0.50000000  0.50000000  1
  Dy  Dy2  1  0.50000000  0.00000000  0.50000000  1
  Dy  Dy3  1  0.00000000  0.00000000  0.00000000  1
  Cr  Cr4  1  0.00000000  0.50000000  0.00000000  1
  Cr  Cr5  1  0.00000000  0.00000000  0.50000000  1
  Sb  Sb6  1  0.00000000  0.50000000  0.50000000  1
  Sb  Sb7  1  0.50000000  0.50000000  0.00000000  1
  O  O8  1  0.90989100  0.15989100  0.75000000  1
  O  O9  1  0.33211400  0.58211400  0.75000000  1
  O  O10  1  0.91137600  0.57977300  0.74288100  1
  O  O11  1  0.33689200  0.16849500  0.75711900  1
  O  O12  1  0.91137600  0.16849500  0.33160300  1
  O  O13  1  0.33689200  0.57977300  0.16839700  1
  O  O14  1  0.09010900  0.84010900  0.25000000  1
  O  O15  1  0.66788600  0.41788600  0.25000000  1
  O  O16  1  0.08862400  0.42022700  0.25711900  1
  O  O17  1  0.66310800  0.83150500  0.24288100  1
  O  O18  1  0.08862400  0.83150500  0.66839700  1
  O  O19  1  0.66310800  0.42022700  0.83160300  1
  O  O20  1  0.62244200  0.87244200  0.75000000  1
  O  O21  1  0.37755800  0.12755800  0.25000000  1
