# generated using pymatgen
data_Ba5Cr3O12F
_symmetry_space_group_name_H-M   'P 1'
_cell_length_a   10.58247013
_cell_length_b   10.58247013
_cell_length_c   7.97764000
_cell_angle_alpha   90.00000000
_cell_angle_beta   90.00000000
_cell_angle_gamma   120.00000079
_symmetry_Int_Tables_number   1
_chemical_formula_structural   Ba5Cr3O12F
_chemical_formula_sum   'Ba10 Cr6 O24 F2'
_cell_volume   773.71170115
_cell_formula_units_Z   2
loop_
 _symmetry_equiv_pos_site_id
 _symmetry_equiv_pos_as_xyz
  1  'x, y, z'
loop_
 _atom_site_type_symbol
 _atom_site_label
 _atom_site_symmetry_multiplicity
 _atom_site_fract_x
 _atom_site_fract_y
 _atom_site_fract_z
 _atom_site_occupancy
  Ba  Ba0  1  0.66666700  0.33333300  0.00108700  1
  Ba  Ba1  1  0.33333300  0.66666700  0.99891300  1
  Ba  Ba2  1  0.33333300  0.66666700  0.50108700  1
  Ba  Ba3  1  0.66666700  0.33333300  0.49891300  1
  Ba  Ba4  1  0.75783200  0.01064600  0.75000000  1
  Ba  Ba5  1  0.24216800  0.98935400  0.25000000  1
  Ba  Ba6  1  0.25281400  0.24216800  0.75000000  1
  Ba  Ba7  1  0.74718600  0.75783200  0.25000000  1
  Ba  Ba8  1  0.98935400  0.74718600  0.75000000  1
  Ba  Ba9  1  0.01064600  0.25281400  0.25000000  1
  Cr  Cr10  1  0.59990200  0.62977000  0.75000000  1
  Cr  Cr11  1  0.40009800  0.37023000  0.25000000  1
  Cr  Cr12  1  0.02986800  0.40009800  0.75000000  1
  Cr  Cr13  1  0.97013200  0.59990200  0.25000000  1
  Cr  Cr14  1  0.37023000  0.97013200  0.75000000  1
  Cr  Cr15  1  0.62977000  0.02986800  0.25000000  1
  O  O16  1  0.84168000  0.32037800  0.75000000  1
  O  O17  1  0.15832000  0.67962200  0.25000000  1
  O  O18  1  0.47869700  0.15832000  0.75000000  1
  O  O19  1  0.52130300  0.84168000  0.25000000  1
  O  O20  1  0.67962200  0.52130300  0.75000000  1
  O  O21  1  0.32037800  0.47869700  0.25000000  1
  O  O22  1  0.41086200  0.53810900  0.75000000  1
  O  O23  1  0.58913800  0.46189100  0.25000000  1
  O  O24  1  0.12724700  0.58913800  0.75000000  1
  O  O25  1  0.87275300  0.41086200  0.25000000  1
  O  O26  1  0.46189100  0.87275300  0.75000000  1
  O  O27  1  0.53810900  0.12724700  0.25000000  1
  O  O28  1  0.65452100  0.74003700  0.92483100  1
  O  O29  1  0.34547900  0.25996300  0.07516900  1
  O  O30  1  0.08551500  0.34547900  0.92483100  1
  O  O31  1  0.34547900  0.25996300  0.42483100  1
  O  O32  1  0.91448500  0.65452100  0.07516900  1
  O  O33  1  0.65452100  0.74003700  0.57516900  1
  O  O34  1  0.25996300  0.91448500  0.92483100  1
  O  O35  1  0.91448500  0.65452100  0.42483100  1
  O  O36  1  0.74003700  0.08551500  0.07516900  1
  O  O37  1  0.08551500  0.34547900  0.57516900  1
  O  O38  1  0.74003700  0.08551500  0.42483100  1
  O  O39  1  0.25996300  0.91448500  0.57516900  1
  F  F40  1  0.00000000  0.00000000  0.75000000  1
  F  F41  1  0.00000000  0.00000000  0.25000000  1
