# generated using pymatgen
data_Li7SbN4
_symmetry_space_group_name_H-M   'P 1'
_cell_length_a   9.93571400
_cell_length_b   9.93571400
_cell_length_c   9.93571400
_cell_angle_alpha   90.00000000
_cell_angle_beta   90.00000000
_cell_angle_gamma   90.00000000
_symmetry_Int_Tables_number   1
_chemical_formula_structural   Li7SbN4
_chemical_formula_sum   'Li56 Sb8 N32'
_cell_volume   980.83791502
_cell_formula_units_Z   8
loop_
 _symmetry_equiv_pos_site_id
 _symmetry_equiv_pos_as_xyz
  1  'x, y, z'
loop_
 _atom_site_type_symbol
 _atom_site_label
 _atom_site_symmetry_multiplicity
 _atom_site_fract_x
 _atom_site_fract_y
 _atom_site_fract_z
 _atom_site_occupancy
  Li  Li0  1  0.00000000  0.00000000  0.50000000  1
  Li  Li1  1  0.00000000  0.50000000  0.00000000  1
  Li  Li2  1  0.50000000  0.00000000  0.00000000  1
  Li  Li3  1  0.50000000  0.00000000  0.50000000  1
  Li  Li4  1  0.50000000  0.50000000  0.00000000  1
  Li  Li5  1  0.00000000  0.50000000  0.50000000  1
  Li  Li6  1  0.00000000  0.50000000  0.25000000  1
  Li  Li7  1  0.50000000  0.75000000  0.00000000  1
  Li  Li8  1  0.25000000  0.00000000  0.50000000  1
  Li  Li9  1  0.50000000  0.25000000  0.00000000  1
  Li  Li10  1  0.75000000  0.00000000  0.50000000  1
  Li  Li11  1  0.00000000  0.50000000  0.75000000  1
  Li  Li12  1  0.26012300  0.73987700  0.26012300  1
  Li  Li13  1  0.73987700  0.26012300  0.26012300  1
  Li  Li14  1  0.26012300  0.26012300  0.73987700  1
  Li  Li15  1  0.73987700  0.73987700  0.73987700  1
  Li  Li16  1  0.76012300  0.76012300  0.23987700  1
  Li  Li17  1  0.23987700  0.76012300  0.76012300  1
  Li  Li18  1  0.76012300  0.23987700  0.76012300  1
  Li  Li19  1  0.23987700  0.23987700  0.23987700  1
  Li  Li20  1  0.50000000  0.50000000  0.23056300  1
  Li  Li21  1  0.50000000  0.76943700  0.50000000  1
  Li  Li22  1  0.23056300  0.50000000  0.50000000  1
  Li  Li23  1  0.50000000  0.23056300  0.50000000  1
  Li  Li24  1  0.76943700  0.50000000  0.50000000  1
  Li  Li25  1  0.50000000  0.50000000  0.76943700  1
  Li  Li26  1  0.00000000  0.73056300  0.00000000  1
  Li  Li27  1  0.00000000  0.00000000  0.26943700  1
  Li  Li28  1  0.73056300  0.00000000  0.00000000  1
  Li  Li29  1  0.00000000  0.00000000  0.73056300  1
  Li  Li30  1  0.26943700  0.00000000  0.00000000  1
  Li  Li31  1  0.00000000  0.26943700  0.00000000  1
  Li  Li32  1  0.51083700  0.73118200  0.25057900  1
  Li  Li33  1  0.26881800  0.74942100  0.51083700  1
  Li  Li34  1  0.25057900  0.48916300  0.26881800  1
  Li  Li35  1  0.48916300  0.26881800  0.25057900  1
  Li  Li36  1  0.73118200  0.25057900  0.51083700  1
  Li  Li37  1  0.74942100  0.51083700  0.26881800  1
  Li  Li38  1  0.51083700  0.26881800  0.74942100  1
  Li  Li39  1  0.26881800  0.25057900  0.48916300  1
  Li  Li40  1  0.25057900  0.51083700  0.73118200  1
  Li  Li41  1  0.48916300  0.73118200  0.74942100  1
  Li  Li42  1  0.73118200  0.74942100  0.48916300  1
  Li  Li43  1  0.74942100  0.48916300  0.73118200  1
  Li  Li44  1  0.01083700  0.75057900  0.23118200  1
  Li  Li45  1  0.76881800  0.01083700  0.24942100  1
  Li  Li46  1  0.75057900  0.76881800  0.98916300  1
  Li  Li47  1  0.98916300  0.75057900  0.76881800  1
  Li  Li48  1  0.23118200  0.01083700  0.75057900  1
  Li  Li49  1  0.24942100  0.76881800  0.01083700  1
  Li  Li50  1  0.01083700  0.24942100  0.76881800  1
  Li  Li51  1  0.76881800  0.98916300  0.75057900  1
  Li  Li52  1  0.75057900  0.23118200  0.01083700  1
  Li  Li53  1  0.98916300  0.24942100  0.23118200  1
  Li  Li54  1  0.23118200  0.98916300  0.24942100  1
  Li  Li55  1  0.24942100  0.23118200  0.98916300  1
  Sb  Sb56  1  0.50000000  0.50000000  0.50000000  1
  Sb  Sb57  1  0.00000000  0.00000000  0.00000000  1
  Sb  Sb58  1  0.50000000  0.00000000  0.25000000  1
  Sb  Sb59  1  0.00000000  0.75000000  0.50000000  1
  Sb  Sb60  1  0.25000000  0.50000000  0.00000000  1
  Sb  Sb61  1  0.00000000  0.25000000  0.50000000  1
  Sb  Sb62  1  0.75000000  0.50000000  0.00000000  1
  Sb  Sb63  1  0.50000000  0.00000000  0.75000000  1
  N  N64  1  0.38188600  0.61811400  0.38188600  1
  N  N65  1  0.61811400  0.38188600  0.38188600  1
  N  N66  1  0.38188600  0.38188600  0.61811400  1
  N  N67  1  0.61811400  0.61811400  0.61811400  1
  N  N68  1  0.88188600  0.88188600  0.11811400  1
  N  N69  1  0.11811400  0.88188600  0.88188600  1
  N  N70  1  0.88188600  0.11811400  0.88188600  1
  N  N71  1  0.11811400  0.11811400  0.11811400  1
  N  N72  1  0.38275600  0.87838400  0.13334100  1
  N  N73  1  0.12161600  0.86665900  0.38275600  1
  N  N74  1  0.13334100  0.61724400  0.12161600  1
  N  N75  1  0.61724400  0.12161600  0.13334100  1
  N  N76  1  0.87838400  0.13334100  0.38275600  1
  N  N77  1  0.86665900  0.38275600  0.12161600  1
  N  N78  1  0.38275600  0.12161600  0.86665900  1
  N  N79  1  0.12161600  0.13334100  0.61724400  1
  N  N80  1  0.13334100  0.38275600  0.87838400  1
  N  N81  1  0.61724400  0.87838400  0.86665900  1
  N  N82  1  0.87838400  0.86665900  0.61724400  1
  N  N83  1  0.86665900  0.61724400  0.87838400  1
  N  N84  1  0.88275600  0.63334100  0.37838400  1
  N  N85  1  0.62161600  0.88275600  0.36665900  1
  N  N86  1  0.63334100  0.62161600  0.11724400  1
  N  N87  1  0.11724400  0.63334100  0.62161600  1
  N  N88  1  0.37838400  0.88275600  0.63334100  1
  N  N89  1  0.36665900  0.62161600  0.88275600  1
  N  N90  1  0.88275600  0.36665900  0.62161600  1
  N  N91  1  0.62161600  0.11724400  0.63334100  1
  N  N92  1  0.63334100  0.37838400  0.88275600  1
  N  N93  1  0.11724400  0.36665900  0.37838400  1
  N  N94  1  0.37838400  0.11724400  0.36665900  1
  N  N95  1  0.36665900  0.37838400  0.11724400  1
