# generated using pymatgen
data_Hf9Re4O3
_symmetry_space_group_name_H-M   'P 1'
_cell_length_a   8.45699208
_cell_length_b   8.45699208
_cell_length_c   8.54563400
_cell_angle_alpha   90.00000000
_cell_angle_beta   90.00000000
_cell_angle_gamma   120.00000060
_symmetry_Int_Tables_number   1
_chemical_formula_structural   Hf9Re4O3
_chemical_formula_sum   'Hf18 Re8 O6'
_cell_volume   529.30593661
_cell_formula_units_Z   2
loop_
 _symmetry_equiv_pos_site_id
 _symmetry_equiv_pos_as_xyz
  1  'x, y, z'
loop_
 _atom_site_type_symbol
 _atom_site_label
 _atom_site_symmetry_multiplicity
 _atom_site_fract_x
 _atom_site_fract_y
 _atom_site_fract_z
 _atom_site_occupancy
  Hf  Hf0  1  0.45233700  0.90467400  0.25000000  1
  Hf  Hf1  1  0.54766300  0.09532600  0.75000000  1
  Hf  Hf2  1  0.09532600  0.54766300  0.25000000  1
  Hf  Hf3  1  0.90467400  0.45233700  0.75000000  1
  Hf  Hf4  1  0.45233700  0.54766300  0.25000000  1
  Hf  Hf5  1  0.54766300  0.45233700  0.75000000  1
  Hf  Hf6  1  0.20171300  0.40342600  0.56258100  1
  Hf  Hf7  1  0.79828700  0.59657400  0.43741900  1
  Hf  Hf8  1  0.59657400  0.79828700  0.56258100  1
  Hf  Hf9  1  0.79828700  0.59657400  0.06258100  1
  Hf  Hf10  1  0.40342600  0.20171300  0.43741900  1
  Hf  Hf11  1  0.20171300  0.40342600  0.93741900  1
  Hf  Hf12  1  0.20171300  0.79828700  0.56258100  1
  Hf  Hf13  1  0.40342600  0.20171300  0.06258100  1
  Hf  Hf14  1  0.79828700  0.20171300  0.43741900  1
  Hf  Hf15  1  0.59657400  0.79828700  0.93741900  1
  Hf  Hf16  1  0.79828700  0.20171300  0.06258100  1
  Hf  Hf17  1  0.20171300  0.79828700  0.93741900  1
  Re  Re18  1  0.11018400  0.22036900  0.25000000  1
  Re  Re19  1  0.88981600  0.77963100  0.75000000  1
  Re  Re20  1  0.77963100  0.88981600  0.25000000  1
  Re  Re21  1  0.22036900  0.11018400  0.75000000  1
  Re  Re22  1  0.11018400  0.88981600  0.25000000  1
  Re  Re23  1  0.88981600  0.11018400  0.75000000  1
  Re  Re24  1  0.00000000  0.00000000  0.00000000  1
  Re  Re25  1  0.00000000  0.00000000  0.50000000  1
  O  O26  1  0.50000000  0.00000000  0.00000000  1
  O  O27  1  0.00000000  0.50000000  0.00000000  1
  O  O28  1  0.50000000  0.00000000  0.50000000  1
  O  O29  1  0.50000000  0.50000000  0.00000000  1
  O  O30  1  0.00000000  0.50000000  0.50000000  1
  O  O31  1  0.50000000  0.50000000  0.50000000  1
