# generated using pymatgen
data_Cs4Au6S5
_symmetry_space_group_name_H-M   'P 1'
_cell_length_a   10.63582060
_cell_length_b   10.63582060
_cell_length_c   5.54716800
_cell_angle_alpha   90.00000000
_cell_angle_beta   90.00000000
_cell_angle_gamma   120.00000372
_symmetry_Int_Tables_number   1
_chemical_formula_structural   Cs4Au6S5
_chemical_formula_sum   'Cs4 Au6 S5'
_cell_volume   543.43041392
_cell_formula_units_Z   1
loop_
 _symmetry_equiv_pos_site_id
 _symmetry_equiv_pos_as_xyz
  1  'x, y, z'
loop_
 _atom_site_type_symbol
 _atom_site_label
 _atom_site_symmetry_multiplicity
 _atom_site_fract_x
 _atom_site_fract_y
 _atom_site_fract_z
 _atom_site_occupancy
  Cs  Cs0  1  0.00000000  0.00000000  0.13725200  1
  Cs  Cs1  1  0.00000000  0.59127900  0.45204300  1
  Cs  Cs2  1  0.40872100  0.40872100  0.45204300  1
  Cs  Cs3  1  0.59127900  0.00000000  0.45204300  1
  Au  Au4  1  0.71394900  0.54451800  0.92308900  1
  Au  Au5  1  0.45548200  0.16943100  0.92308900  1
  Au  Au6  1  0.83056900  0.28605100  0.92308900  1
  Au  Au7  1  0.54451800  0.71394900  0.92308900  1
  Au  Au8  1  0.28605100  0.83056900  0.92308900  1
  Au  Au9  1  0.16943100  0.45548200  0.92308900  1
  S  S10  1  0.33333300  0.66666700  0.13007300  1
  S  S11  1  0.66666700  0.33333300  0.13007300  1
  S  S12  1  0.74873800  0.74873800  0.71331000  1
  S  S13  1  0.25126200  0.00000000  0.71331000  1
  S  S14  1  0.00000000  0.25126200  0.71331000  1
