# generated using pymatgen
data_ZnSb2Cl2O3
_symmetry_space_group_name_H-M   'P 1'
_cell_length_a   5.68060000
_cell_length_b   6.57009600
_cell_length_c   17.55262500
_cell_angle_alpha   90.00000000
_cell_angle_beta   90.00000000
_cell_angle_gamma   90.00000000
_symmetry_Int_Tables_number   1
_chemical_formula_structural   ZnSb2Cl2O3
_chemical_formula_sum   'Zn4 Sb8 Cl8 O12'
_cell_volume   655.10060325
_cell_formula_units_Z   4
loop_
 _symmetry_equiv_pos_site_id
 _symmetry_equiv_pos_as_xyz
  1  'x, y, z'
loop_
 _atom_site_type_symbol
 _atom_site_label
 _atom_site_symmetry_multiplicity
 _atom_site_fract_x
 _atom_site_fract_y
 _atom_site_fract_z
 _atom_site_occupancy
  Zn  Zn0  1  0.25000000  0.98419500  0.91041700  1
  Zn  Zn1  1  0.25000000  0.51580500  0.41041700  1
  Zn  Zn2  1  0.75000000  0.01580500  0.08958300  1
  Zn  Zn3  1  0.75000000  0.48419500  0.58958300  1
  Sb  Sb4  1  0.25000000  0.82279000  0.61791200  1
  Sb  Sb5  1  0.25000000  0.67721000  0.11791200  1
  Sb  Sb6  1  0.75000000  0.17721000  0.38208800  1
  Sb  Sb7  1  0.75000000  0.32279000  0.88208800  1
  Sb  Sb8  1  0.25000000  0.24777500  0.75896400  1
  Sb  Sb9  1  0.25000000  0.25222500  0.25896400  1
  Sb  Sb10  1  0.75000000  0.75222500  0.24103600  1
  Sb  Sb11  1  0.75000000  0.74777500  0.74103600  1
  Cl  Cl12  1  0.25000000  0.12828500  0.02674500  1
  Cl  Cl13  1  0.25000000  0.37171500  0.52674500  1
  Cl  Cl14  1  0.75000000  0.87171500  0.97325500  1
  Cl  Cl15  1  0.75000000  0.62828500  0.47325500  1
  Cl  Cl16  1  0.25000000  0.65333300  0.87720100  1
  Cl  Cl17  1  0.25000000  0.84666700  0.37720100  1
  Cl  Cl18  1  0.75000000  0.34666700  0.12279900  1
  Cl  Cl19  1  0.75000000  0.15333300  0.62279900  1
  O  O20  1  0.25000000  0.96878200  0.71688100  1
  O  O21  1  0.25000000  0.53121800  0.21688100  1
  O  O22  1  0.75000000  0.03121800  0.28311900  1
  O  O23  1  0.75000000  0.46878200  0.78311900  1
  O  O24  1  0.98189800  0.65104700  0.65937000  1
  O  O25  1  0.51810200  0.84895300  0.15937000  1
  O  O26  1  0.48189800  0.34895300  0.34063000  1
  O  O27  1  0.01810200  0.15104700  0.84063000  1
  O  O28  1  0.01810200  0.34895300  0.34063000  1
  O  O29  1  0.48189800  0.15104700  0.84063000  1
  O  O30  1  0.51810200  0.65104700  0.65937000  1
  O  O31  1  0.98189800  0.84895300  0.15937000  1
