# generated using pymatgen
data_NaMo2P2O9
_symmetry_space_group_name_H-M   'P 1'
_cell_length_a   6.70454200
_cell_length_b   7.93331900
_cell_length_c   14.60701800
_cell_angle_alpha   90.00000000
_cell_angle_beta   90.00000000
_cell_angle_gamma   90.00000000
_symmetry_Int_Tables_number   1
_chemical_formula_structural   NaMo2P2O9
_chemical_formula_sum   'Na4 Mo8 P8 O36'
_cell_volume   776.93663065
_cell_formula_units_Z   4
loop_
 _symmetry_equiv_pos_site_id
 _symmetry_equiv_pos_as_xyz
  1  'x, y, z'
loop_
 _atom_site_type_symbol
 _atom_site_label
 _atom_site_symmetry_multiplicity
 _atom_site_fract_x
 _atom_site_fract_y
 _atom_site_fract_z
 _atom_site_occupancy
  Na  Na0  1  0.75000000  0.87354700  0.77534000  1
  Na  Na1  1  0.75000000  0.62645300  0.27534000  1
  Na  Na2  1  0.25000000  0.37354700  0.72466000  1
  Na  Na3  1  0.25000000  0.12645300  0.22466000  1
  Mo  Mo4  1  0.75000000  0.35408300  0.88189700  1
  Mo  Mo5  1  0.25000000  0.64591700  0.11810300  1
  Mo  Mo6  1  0.25000000  0.85408300  0.61810300  1
  Mo  Mo7  1  0.75000000  0.14591700  0.38189700  1
  Mo  Mo8  1  0.50000000  0.00000000  0.00000000  1
  Mo  Mo9  1  0.50000000  0.50000000  0.50000000  1
  Mo  Mo10  1  0.00000000  0.50000000  0.50000000  1
  Mo  Mo11  1  0.00000000  0.00000000  0.00000000  1
  P  P12  1  0.25000000  0.34928700  0.93715700  1
  P  P13  1  0.75000000  0.65071300  0.06284300  1
  P  P14  1  0.75000000  0.84928700  0.56284300  1
  P  P15  1  0.25000000  0.15071300  0.43715700  1
  P  P16  1  0.75000000  0.39628100  0.69415300  1
  P  P17  1  0.75000000  0.10371900  0.19415300  1
  P  P18  1  0.25000000  0.89628100  0.80584700  1
  P  P19  1  0.25000000  0.60371900  0.30584700  1
  O  O20  1  0.05863100  0.59368900  0.36473300  1
  O  O21  1  0.55863100  0.40631100  0.63526700  1
  O  O22  1  0.94136900  0.09368900  0.13526700  1
  O  O23  1  0.44136900  0.90631100  0.86473300  1
  O  O24  1  0.94136900  0.40631100  0.63526700  1
  O  O25  1  0.44136900  0.59368900  0.36473300  1
  O  O26  1  0.05863100  0.90631100  0.86473300  1
  O  O27  1  0.55863100  0.09368900  0.13526700  1
  O  O28  1  0.25000000  0.32805800  0.48670400  1
  O  O29  1  0.75000000  0.67194200  0.51329600  1
  O  O30  1  0.75000000  0.82805800  0.01329600  1
  O  O31  1  0.25000000  0.17194200  0.98670400  1
  O  O32  1  0.75000000  0.14212500  0.94932400  1
  O  O33  1  0.25000000  0.85787500  0.05067600  1
  O  O34  1  0.25000000  0.64212500  0.55067600  1
  O  O35  1  0.75000000  0.35787500  0.44932400  1
  O  O36  1  0.75000000  0.23119500  0.75350800  1
  O  O37  1  0.25000000  0.76880500  0.24649200  1
  O  O38  1  0.25000000  0.73119500  0.74649200  1
  O  O39  1  0.75000000  0.26880500  0.25350800  1
  O  O40  1  0.43359600  0.13903300  0.37505500  1
  O  O41  1  0.93359600  0.86096700  0.62494500  1
  O  O42  1  0.56640400  0.63903300  0.12494500  1
  O  O43  1  0.06640400  0.36096700  0.87505500  1
  O  O44  1  0.56640400  0.86096700  0.62494500  1
  O  O45  1  0.06640400  0.13903300  0.37505500  1
  O  O46  1  0.43359600  0.36096700  0.87505500  1
  O  O47  1  0.93359600  0.63903300  0.12494500  1
  O  O48  1  0.75000000  0.51863700  0.98645700  1
  O  O49  1  0.25000000  0.03374800  0.72828600  1
  O  O50  1  0.25000000  0.46625200  0.22828600  1
  O  O51  1  0.75000000  0.53374800  0.77171400  1
  O  O52  1  0.75000000  0.98136300  0.48645700  1
  O  O53  1  0.25000000  0.01863700  0.51354300  1
  O  O54  1  0.25000000  0.48136300  0.01354300  1
  O  O55  1  0.75000000  0.96625200  0.27171400  1
