# generated using pymatgen
data_Er4TaV7B24
_symmetry_space_group_name_H-M   'P 1'
_cell_length_a   3.33300400
_cell_length_b   8.89754600
_cell_length_c   11.23958294
_cell_angle_alpha   89.97654048
_cell_angle_beta   90.00000000
_cell_angle_gamma   90.00000000
_symmetry_Int_Tables_number   1
_chemical_formula_structural   Er4TaV7B24
_chemical_formula_sum   'Er4 Ta1 V7 B24'
_cell_volume   333.31605801
_cell_formula_units_Z   1
loop_
 _symmetry_equiv_pos_site_id
 _symmetry_equiv_pos_as_xyz
  1  'x, y, z'
loop_
 _atom_site_type_symbol
 _atom_site_label
 _atom_site_symmetry_multiplicity
 _atom_site_fract_x
 _atom_site_fract_y
 _atom_site_fract_z
 _atom_site_occupancy
  Er  Er0  1  0.50000000  0.17973900  0.58524300  1
  Er  Er1  1  0.50000000  0.82003300  0.41570500  1
  Er  Er2  1  0.50000000  0.32166100  0.08484200  1
  Er  Er3  1  0.50000000  0.67844200  0.91414700  1
  Ta  Ta4  1  0.50000000  0.94591600  0.12767800  1
  V  V5  1  0.50000000  0.14720700  0.31731400  1
  V  V6  1  0.50000000  0.85482200  0.68441100  1
  V  V7  1  0.50000000  0.35453600  0.81524100  1
  V  V8  1  0.50000000  0.64283900  0.18531500  1
  V  V9  1  0.50000000  0.05434100  0.87110900  1
  V  V10  1  0.50000000  0.55440000  0.62885800  1
  V  V11  1  0.50000000  0.44567900  0.37122200  1
  B  B12  1  0.00000000  0.13130000  0.18020000  1
  B  B13  1  0.00000000  0.87288400  0.81992900  1
  B  B14  1  0.00000000  0.37317700  0.67894200  1
  B  B15  1  0.00000000  0.62605000  0.32127900  1
  B  B16  1  0.00000000  0.98143900  0.28636900  1
  B  B17  1  0.00000000  0.01927800  0.71554500  1
  B  B18  1  0.00000000  0.51935600  0.78419200  1
  B  B19  1  0.00000000  0.48057500  0.21587700  1
  B  B20  1  0.00000000  0.30095700  0.26443800  1
  B  B21  1  0.00000000  0.69964700  0.73592700  1
  B  B22  1  0.00000000  0.19987500  0.76357000  1
  B  B23  1  0.00000000  0.79791500  0.23763000  1
  B  B24  1  0.00000000  0.26089200  0.41862700  1
  B  B25  1  0.00000000  0.73961900  0.58188100  1
  B  B26  1  0.00000000  0.24070800  0.91743400  1
  B  B27  1  0.00000000  0.75592800  0.08090900  1
  B  B28  1  0.00000000  0.59411600  0.47538500  1
  B  B29  1  0.00000000  0.40572500  0.52491200  1
  B  B30  1  0.00000000  0.90457600  0.97218800  1
  B  B31  1  0.00000000  0.09753300  0.02297400  1
  B  B32  1  0.00000000  0.05512300  0.43404000  1
  B  B33  1  0.00000000  0.94529500  0.56707500  1
  B  B34  1  0.00000000  0.44493500  0.93286000  1
  B  B35  1  0.00000000  0.55347800  0.06673300  1
