# generated using pymatgen
data_K2Ga2As3
_symmetry_space_group_name_H-M   'P 1'
_cell_length_a   6.86242800
_cell_length_b   14.00713400
_cell_length_c   15.92125703
_cell_angle_alpha   89.72601576
_cell_angle_beta   90.00000000
_cell_angle_gamma   90.00000000
_symmetry_Int_Tables_number   1
_chemical_formula_structural   K2Ga2As3
_chemical_formula_sum   'K16 Ga16 As24'
_cell_volume   1530.38067327
_cell_formula_units_Z   8
loop_
 _symmetry_equiv_pos_site_id
 _symmetry_equiv_pos_as_xyz
  1  'x, y, z'
loop_
 _atom_site_type_symbol
 _atom_site_label
 _atom_site_symmetry_multiplicity
 _atom_site_fract_x
 _atom_site_fract_y
 _atom_site_fract_z
 _atom_site_occupancy
  K  K0  1  0.96812400  0.85552600  0.99570500  1
  K  K1  1  0.46812400  0.14447400  0.50429500  1
  K  K2  1  0.03187600  0.14447400  0.00429500  1
  K  K3  1  0.53187600  0.85552600  0.49570500  1
  K  K4  1  0.55358500  0.34670300  0.01830800  1
  K  K5  1  0.05358500  0.65329700  0.48169200  1
  K  K6  1  0.44641500  0.65329700  0.98169200  1
  K  K7  1  0.94641500  0.34670300  0.51830800  1
  K  K8  1  0.53406500  0.07876900  0.10826900  1
  K  K9  1  0.03406500  0.92123100  0.39173100  1
  K  K10  1  0.46593500  0.92123100  0.89173100  1
  K  K11  1  0.96593500  0.07876900  0.60826900  1
  K  K12  1  0.93231600  0.55752700  0.89825300  1
  K  K13  1  0.43231600  0.44247300  0.60174700  1
  K  K14  1  0.06768400  0.44247300  0.10174700  1
  K  K15  1  0.56768400  0.55752700  0.39825300  1
  Ga  Ga16  1  0.27419000  0.31446800  0.82486600  1
  Ga  Ga17  1  0.77419000  0.68553200  0.67513400  1
  Ga  Ga18  1  0.72581000  0.68553200  0.17513400  1
  Ga  Ga19  1  0.22581000  0.31446800  0.32486600  1
  Ga  Ga20  1  0.78871700  0.90889200  0.73122900  1
  Ga  Ga21  1  0.28871700  0.09110800  0.76877100  1
  Ga  Ga22  1  0.21128300  0.09110800  0.26877100  1
  Ga  Ga23  1  0.71128300  0.90889200  0.23122900  1
  Ga  Ga24  1  0.75960800  0.18369200  0.81877700  1
  Ga  Ga25  1  0.25960800  0.81630800  0.68122300  1
  Ga  Ga26  1  0.24039200  0.81630800  0.18122300  1
  Ga  Ga27  1  0.74039200  0.18369200  0.31877700  1
  Ga  Ga28  1  0.75259100  0.40785900  0.75888000  1
  Ga  Ga29  1  0.25259100  0.59214100  0.74112000  1
  Ga  Ga30  1  0.24740900  0.59214100  0.24112000  1
  Ga  Ga31  1  0.74740900  0.40785900  0.25888000  1
  As  As32  1  0.96017500  0.03210600  0.82155100  1
  As  As33  1  0.46017500  0.96789400  0.67844900  1
  As  As34  1  0.03982500  0.96789400  0.17844900  1
  As  As35  1  0.53982500  0.03210600  0.32155100  1
  As  As36  1  0.44641700  0.16544800  0.89661900  1
  As  As37  1  0.94641700  0.83455200  0.60338100  1
  As  As38  1  0.55358300  0.83455200  0.10338100  1
  As  As39  1  0.05358300  0.16544800  0.39661900  1
  As  As40  1  0.93588700  0.32864100  0.87988400  1
  As  As41  1  0.43588700  0.67135900  0.62011600  1
  As  As42  1  0.06411300  0.67135900  0.12011600  1
  As  As43  1  0.56411300  0.32864100  0.37988400  1
  As  As44  1  0.83748300  0.25399600  0.17669500  1
  As  As45  1  0.33748300  0.74600400  0.32330500  1
  As  As46  1  0.16251700  0.74600400  0.82330500  1
  As  As47  1  0.66251700  0.25399600  0.67669500  1
  As  As48  1  0.45007500  0.47362200  0.83247400  1
  As  As49  1  0.95007500  0.52637800  0.66752600  1
  As  As50  1  0.54992500  0.52637800  0.16752600  1
  As  As51  1  0.04992500  0.47362200  0.33247400  1
  As  As52  1  0.20187600  0.24345400  0.18040800  1
  As  As53  1  0.70187600  0.75654600  0.31959200  1
  As  As54  1  0.79812400  0.75654600  0.81959200  1
  As  As55  1  0.29812400  0.24345400  0.68040800  1
