# generated using pymatgen
data_Ca5Ga3
_symmetry_space_group_name_H-M   'P 1'
_cell_length_a   9.33668710
_cell_length_b   9.33668710
_cell_length_c   9.33668710
_cell_angle_alpha   129.57863568
_cell_angle_beta   129.57863568
_cell_angle_gamma   74.08128913
_symmetry_Int_Tables_number   1
_chemical_formula_structural   Ca5Ga3
_chemical_formula_sum   'Ca10 Ga6'
_cell_volume   471.48493263
_cell_formula_units_Z   2
loop_
 _symmetry_equiv_pos_site_id
 _symmetry_equiv_pos_as_xyz
  1  'x, y, z'
loop_
 _atom_site_type_symbol
 _atom_site_label
 _atom_site_symmetry_multiplicity
 _atom_site_fract_x
 _atom_site_fract_y
 _atom_site_fract_z
 _atom_site_occupancy
  Ca  Ca0  1  0.50000000  0.50000000  0.00000000  1
  Ca  Ca1  1  0.00000000  0.00000000  0.00000000  1
  Ca  Ca2  1  0.52901600  0.02901600  0.84861700  1
  Ca  Ca3  1  0.18039900  0.68039900  0.15138300  1
  Ca  Ca4  1  0.02901600  0.18039900  0.50000000  1
  Ca  Ca5  1  0.68039900  0.52901600  0.50000000  1
  Ca  Ca6  1  0.47098400  0.97098400  0.15138300  1
  Ca  Ca7  1  0.81960100  0.31960100  0.84861700  1
  Ca  Ca8  1  0.97098400  0.81960100  0.50000000  1
  Ca  Ca9  1  0.31960100  0.47098400  0.50000000  1
  Ga  Ga10  1  0.25000000  0.25000000  0.00000000  1
  Ga  Ga11  1  0.75000000  0.75000000  0.00000000  1
  Ga  Ga12  1  0.88886300  0.38886300  0.27772700  1
  Ga  Ga13  1  0.11113700  0.61113700  0.72227300  1
  Ga  Ga14  1  0.38886300  0.11113700  0.50000000  1
  Ga  Ga15  1  0.61113700  0.88886300  0.50000000  1
