# generated using pymatgen
data_U8NiSe17
_symmetry_space_group_name_H-M   'P 1'
_cell_length_a   8.19177694
_cell_length_b   8.19177694
_cell_length_c   10.79871252
_cell_angle_alpha   79.82026288
_cell_angle_beta   79.82026288
_cell_angle_gamma   64.40445374
_symmetry_Int_Tables_number   1
_chemical_formula_structural   U8NiSe17
_chemical_formula_sum   'U8 Ni1 Se17'
_cell_volume   639.12291447
_cell_formula_units_Z   1
loop_
 _symmetry_equiv_pos_site_id
 _symmetry_equiv_pos_as_xyz
  1  'x, y, z'
loop_
 _atom_site_type_symbol
 _atom_site_label
 _atom_site_symmetry_multiplicity
 _atom_site_fract_x
 _atom_site_fract_y
 _atom_site_fract_z
 _atom_site_occupancy
  U  U0  1  0.81958300  0.30374100  0.29751200  1
  U  U1  1  0.30374100  0.81958300  0.29751200  1
  U  U2  1  0.18041700  0.69625900  0.70248800  1
  U  U3  1  0.69625900  0.18041700  0.70248800  1
  U  U4  1  0.20044400  0.20044400  0.54469600  1
  U  U5  1  0.79955600  0.79955600  0.45530400  1
  U  U6  1  0.67983100  0.67983100  0.98678100  1
  U  U7  1  0.32016900  0.32016900  0.01321900  1
  Ni  Ni8  1  0.00000000  0.00000000  0.00000000  1
  Se  Se9  1  0.81876600  0.43498400  0.53596100  1
  Se  Se10  1  0.43498400  0.81876600  0.53596100  1
  Se  Se11  1  0.18123400  0.56501600  0.46403900  1
  Se  Se12  1  0.56501600  0.18123400  0.46403900  1
  Se  Se13  1  0.94769100  0.32294400  0.02584300  1
  Se  Se14  1  0.32294400  0.94769100  0.02584300  1
  Se  Se15  1  0.05230900  0.67705600  0.97415700  1
  Se  Se16  1  0.67705600  0.05230900  0.97415700  1
  Se  Se17  1  0.21488600  0.21488600  0.27757200  1
  Se  Se18  1  0.78511400  0.78511400  0.72242800  1
  Se  Se19  1  0.05252800  0.05252800  0.77756800  1
  Se  Se20  1  0.94747200  0.94747200  0.22243200  1
  Se  Se21  1  0.29873900  0.29873900  0.75617200  1
  Se  Se22  1  0.70126100  0.70126100  0.24382800  1
  Se  Se23  1  0.52055500  0.52055500  0.83036100  1
  Se  Se24  1  0.47944500  0.47944500  0.16963900  1
  Se  Se25  1  0.00000000  0.00000000  0.50000000  1
