# generated using pymatgen
data_Li(NdGe)4
_symmetry_space_group_name_H-M   'P 1'
_cell_length_a   7.42507800
_cell_length_b   7.99583200
_cell_length_c   15.23108000
_cell_angle_alpha   90.00000000
_cell_angle_beta   90.00000000
_cell_angle_gamma   90.00000000
_symmetry_Int_Tables_number   1
_chemical_formula_structural   Li(NdGe)4
_chemical_formula_sum   'Li4 Nd16 Ge16'
_cell_volume   904.26428892
_cell_formula_units_Z   4
loop_
 _symmetry_equiv_pos_site_id
 _symmetry_equiv_pos_as_xyz
  1  'x, y, z'
loop_
 _atom_site_type_symbol
 _atom_site_label
 _atom_site_symmetry_multiplicity
 _atom_site_fract_x
 _atom_site_fract_y
 _atom_site_fract_z
 _atom_site_occupancy
  Li  Li0  1  0.65929800  0.97057500  0.75000000  1
  Li  Li1  1  0.15929800  0.52942500  0.75000000  1
  Li  Li2  1  0.34070200  0.02942500  0.25000000  1
  Li  Li3  1  0.84070200  0.47057500  0.25000000  1
  Nd  Nd4  1  0.52201000  0.31125500  0.10054900  1
  Nd  Nd5  1  0.02201000  0.18874500  0.39945100  1
  Nd  Nd6  1  0.47799000  0.68874500  0.60054900  1
  Nd  Nd7  1  0.97799000  0.81125500  0.89945100  1
  Nd  Nd8  1  0.47799000  0.68874500  0.89945100  1
  Nd  Nd9  1  0.97799000  0.81125500  0.60054900  1
  Nd  Nd10  1  0.52201000  0.31125500  0.39945100  1
  Nd  Nd11  1  0.02201000  0.18874500  0.10054900  1
  Nd  Nd12  1  0.82603100  0.32151300  0.62828600  1
  Nd  Nd13  1  0.32603100  0.17848700  0.87171400  1
  Nd  Nd14  1  0.17396900  0.67848700  0.12828600  1
  Nd  Nd15  1  0.67396900  0.82151300  0.37171400  1
  Nd  Nd16  1  0.17396900  0.67848700  0.37171400  1
  Nd  Nd17  1  0.67396900  0.82151300  0.12828600  1
  Nd  Nd18  1  0.82603100  0.32151300  0.87171400  1
  Nd  Nd19  1  0.32603100  0.17848700  0.62828600  1
  Ge  Ge20  1  0.65927300  0.03275300  0.53611300  1
  Ge  Ge21  1  0.15927300  0.46724700  0.96388700  1
  Ge  Ge22  1  0.34072700  0.96724700  0.03611300  1
  Ge  Ge23  1  0.84072700  0.53275300  0.46388700  1
  Ge  Ge24  1  0.34072700  0.96724700  0.46388700  1
  Ge  Ge25  1  0.84072700  0.53275300  0.03611300  1
  Ge  Ge26  1  0.65927300  0.03275300  0.96388700  1
  Ge  Ge27  1  0.15927300  0.46724700  0.53611300  1
  Ge  Ge28  1  0.51599000  0.41948000  0.75000000  1
  Ge  Ge29  1  0.01599000  0.08052000  0.75000000  1
  Ge  Ge30  1  0.48401000  0.58052000  0.25000000  1
  Ge  Ge31  1  0.98401000  0.91948000  0.25000000  1
  Ge  Ge32  1  0.77503000  0.63261900  0.75000000  1
  Ge  Ge33  1  0.27503000  0.86738100  0.75000000  1
  Ge  Ge34  1  0.22497000  0.36738100  0.25000000  1
  Ge  Ge35  1  0.72497000  0.13261900  0.25000000  1
