# generated using pymatgen
data_Eu3Sn5
_symmetry_space_group_name_H-M   'P 1'
_cell_length_a   6.69872882
_cell_length_b   6.69872882
_cell_length_c   10.70741000
_cell_angle_alpha   90.00000000
_cell_angle_beta   90.00000000
_cell_angle_gamma   101.02399652
_symmetry_Int_Tables_number   1
_chemical_formula_structural   Eu3Sn5
_chemical_formula_sum   'Eu6 Sn10'
_cell_volume   471.60717970
_cell_formula_units_Z   2
loop_
 _symmetry_equiv_pos_site_id
 _symmetry_equiv_pos_as_xyz
  1  'x, y, z'
loop_
 _atom_site_type_symbol
 _atom_site_label
 _atom_site_symmetry_multiplicity
 _atom_site_fract_x
 _atom_site_fract_y
 _atom_site_fract_z
 _atom_site_occupancy
  Eu  Eu0  1  0.79737700  0.20262300  0.00000000  1
  Eu  Eu1  1  0.20262300  0.79737700  0.00000000  1
  Eu  Eu2  1  0.20262300  0.79737700  0.50000000  1
  Eu  Eu3  1  0.79737700  0.20262300  0.50000000  1
  Eu  Eu4  1  0.62776400  0.62776400  0.25000000  1
  Eu  Eu5  1  0.37223600  0.37223600  0.75000000  1
  Sn  Sn6  1  0.07461000  0.49627500  0.25000000  1
  Sn  Sn7  1  0.92539100  0.50372500  0.75000000  1
  Sn  Sn8  1  0.49627500  0.07460900  0.25000000  1
  Sn  Sn9  1  0.50372500  0.92539100  0.75000000  1
  Sn  Sn10  1  0.02749800  0.02749800  0.25000000  1
  Sn  Sn11  1  0.97250200  0.97250200  0.75000000  1
  Sn  Sn12  1  0.30884500  0.30884500  0.05033100  1
  Sn  Sn13  1  0.69115500  0.69115500  0.94966900  1
  Sn  Sn14  1  0.69115500  0.69115500  0.55033100  1
  Sn  Sn15  1  0.30884500  0.30884500  0.44966900  1
