# generated using pymatgen
data_Ti2(Ni7B2)3
_symmetry_space_group_name_H-M   'P 1'
_cell_length_a   7.40627885
_cell_length_b   7.40627885
_cell_length_c   7.40627885
_cell_angle_alpha   60.00000000
_cell_angle_beta   60.00000000
_cell_angle_gamma   60.00000000
_symmetry_Int_Tables_number   1
_chemical_formula_structural   Ti2(Ni7B2)3
_chemical_formula_sum   'Ti2 Ni21 B6'
_cell_volume   287.26663084
_cell_formula_units_Z   1
loop_
 _symmetry_equiv_pos_site_id
 _symmetry_equiv_pos_as_xyz
  1  'x, y, z'
loop_
 _atom_site_type_symbol
 _atom_site_label
 _atom_site_symmetry_multiplicity
 _atom_site_fract_x
 _atom_site_fract_y
 _atom_site_fract_z
 _atom_site_occupancy
  Ti  Ti0  1  0.75000000  0.75000000  0.75000000  1
  Ti  Ti1  1  0.25000000  0.25000000  0.25000000  1
  Ni  Ni2  1  0.00000000  0.00000000  0.00000000  1
  Ni  Ni3  1  0.61670600  0.61670600  0.14988300  1
  Ni  Ni4  1  0.61670600  0.14988300  0.61670600  1
  Ni  Ni5  1  0.14988300  0.61670600  0.61670600  1
  Ni  Ni6  1  0.61670600  0.61670600  0.61670600  1
  Ni  Ni7  1  0.38329400  0.38329400  0.85011700  1
  Ni  Ni8  1  0.38329400  0.85011700  0.38329400  1
  Ni  Ni9  1  0.85011700  0.38329400  0.38329400  1
  Ni  Ni10  1  0.38329400  0.38329400  0.38329400  1
  Ni  Ni11  1  0.00000000  0.00000000  0.33965400  1
  Ni  Ni12  1  0.66034600  0.00000000  0.33965400  1
  Ni  Ni13  1  0.00000000  0.66034600  0.33965400  1
  Ni  Ni14  1  0.66034600  0.33965400  0.00000000  1
  Ni  Ni15  1  0.00000000  0.33965400  0.00000000  1
  Ni  Ni16  1  0.00000000  0.33965400  0.66034600  1
  Ni  Ni17  1  0.33965400  0.66034600  0.00000000  1
  Ni  Ni18  1  0.33965400  0.00000000  0.66034600  1
  Ni  Ni19  1  0.33965400  0.00000000  0.00000000  1
  Ni  Ni20  1  0.00000000  0.00000000  0.66034600  1
  Ni  Ni21  1  0.00000000  0.66034600  0.00000000  1
  Ni  Ni22  1  0.66034600  0.00000000  0.00000000  1
  B  B23  1  0.73079600  0.73079600  0.26920400  1
  B  B24  1  0.26920400  0.73079600  0.26920400  1
  B  B25  1  0.73079600  0.26920400  0.26920400  1
  B  B26  1  0.26920400  0.26920400  0.73079600  1
  B  B27  1  0.73079600  0.26920400  0.73079600  1
  B  B28  1  0.26920400  0.73079600  0.73079600  1
