# generated using pymatgen
data_K2Na3TlO4
_symmetry_space_group_name_H-M   'P 1'
_cell_length_a   7.78766700
_cell_length_b   9.38622400
_cell_length_c   9.74497700
_cell_angle_alpha   90.00000000
_cell_angle_beta   90.00000000
_cell_angle_gamma   90.00000000
_symmetry_Int_Tables_number   1
_chemical_formula_structural   K2Na3TlO4
_chemical_formula_sum   'K8 Na12 Tl4 O16'
_cell_volume   712.32650711
_cell_formula_units_Z   4
loop_
 _symmetry_equiv_pos_site_id
 _symmetry_equiv_pos_as_xyz
  1  'x, y, z'
loop_
 _atom_site_type_symbol
 _atom_site_label
 _atom_site_symmetry_multiplicity
 _atom_site_fract_x
 _atom_site_fract_y
 _atom_site_fract_z
 _atom_site_occupancy
  K  K0  1  0.24676900  0.50000000  0.00000000  1
  K  K1  1  0.25323100  0.00000000  0.50000000  1
  K  K2  1  0.75323100  0.50000000  0.00000000  1
  K  K3  1  0.74676900  0.00000000  0.50000000  1
  K  K4  1  0.50000000  0.26397900  0.74982700  1
  K  K5  1  0.50000000  0.73602100  0.25017300  1
  K  K6  1  0.00000000  0.76397900  0.75017300  1
  K  K7  1  0.00000000  0.23602100  0.24982700  1
  Na  Na8  1  0.24961500  0.51668800  0.65081600  1
  Na  Na9  1  0.24961500  0.48331200  0.34918400  1
  Na  Na10  1  0.25038500  0.01668800  0.84918400  1
  Na  Na11  1  0.25038500  0.98331200  0.15081600  1
  Na  Na12  1  0.00000000  0.24024900  0.91506500  1
  Na  Na13  1  0.00000000  0.75975100  0.08493500  1
  Na  Na14  1  0.50000000  0.74024900  0.58493500  1
  Na  Na15  1  0.50000000  0.25975100  0.41506500  1
  Na  Na16  1  0.74961500  0.98331200  0.15081600  1
  Na  Na17  1  0.75038500  0.48331200  0.34918400  1
  Na  Na18  1  0.75038500  0.51668800  0.65081600  1
  Na  Na19  1  0.74961500  0.01668800  0.84918400  1
  Tl  Tl20  1  0.00000000  0.72731000  0.37892000  1
  Tl  Tl21  1  0.00000000  0.27269000  0.62108000  1
  Tl  Tl22  1  0.50000000  0.22731000  0.12108000  1
  Tl  Tl23  1  0.50000000  0.77269000  0.87892000  1
  O  O24  1  0.50000000  0.04829400  0.27766800  1
  O  O25  1  0.50000000  0.95170600  0.72233200  1
  O  O26  1  0.00000000  0.54829400  0.22233200  1
  O  O27  1  0.00000000  0.45170600  0.77766800  1
  O  O28  1  0.25488700  0.80160800  0.98416600  1
  O  O29  1  0.25488700  0.19839200  0.01583400  1
  O  O30  1  0.24511300  0.30160800  0.51583400  1
  O  O31  1  0.24511300  0.69839200  0.48416600  1
  O  O32  1  0.74511300  0.19839200  0.01583400  1
  O  O33  1  0.74511300  0.80160800  0.98416600  1
  O  O34  1  0.75488700  0.69839200  0.48416600  1
  O  O35  1  0.75488700  0.30160800  0.51583400  1
  O  O36  1  0.50000000  0.43887500  0.22361400  1
  O  O37  1  0.00000000  0.06112500  0.72361400  1
  O  O38  1  0.50000000  0.56112500  0.77638600  1
  O  O39  1  0.00000000  0.93887500  0.27638600  1
