# generated using pymatgen
data_PrGa2Ni
_symmetry_space_group_name_H-M   'P 1'
_cell_length_a   9.01288026
_cell_length_b   9.01288026
_cell_length_c   4.22126800
_cell_angle_alpha   90.00000000
_cell_angle_beta   90.00000000
_cell_angle_gamma   152.92762320
_symmetry_Int_Tables_number   1
_chemical_formula_structural   PrGa2Ni
_chemical_formula_sum   'Pr2 Ga4 Ni2'
_cell_volume   156.06011244
_cell_formula_units_Z   2
loop_
 _symmetry_equiv_pos_site_id
 _symmetry_equiv_pos_as_xyz
  1  'x, y, z'
loop_
 _atom_site_type_symbol
 _atom_site_label
 _atom_site_symmetry_multiplicity
 _atom_site_fract_x
 _atom_site_fract_y
 _atom_site_fract_z
 _atom_site_occupancy
  Pr  Pr0  1  0.64222700  0.35777300  0.50000000  1
  Pr  Pr1  1  0.35777300  0.64222700  0.50000000  1
  Ga  Ga2  1  0.79057800  0.20942200  0.00000000  1
  Ga  Ga3  1  0.20942200  0.79057800  0.00000000  1
  Ga  Ga4  1  0.00000000  0.00000000  0.50000000  1
  Ga  Ga5  1  0.50000000  0.50000000  0.00000000  1
  Ni  Ni6  1  0.92791200  0.07208800  0.00000000  1
  Ni  Ni7  1  0.07208800  0.92791200  0.00000000  1
