# generated using pymatgen
data_Sb3Au2Xe2F19
_symmetry_space_group_name_H-M   'P 1'
_cell_length_a   6.87907900
_cell_length_b   8.88492223
_cell_length_c   9.55687717
_cell_angle_alpha   99.38117221
_cell_angle_beta   101.38589755
_cell_angle_gamma   112.68469129
_symmetry_Int_Tables_number   1
_chemical_formula_structural   Sb3Au2Xe2F19
_chemical_formula_sum   'Sb3 Au2 Xe2 F19'
_cell_volume   509.52413902
_cell_formula_units_Z   1
loop_
 _symmetry_equiv_pos_site_id
 _symmetry_equiv_pos_as_xyz
  1  'x, y, z'
loop_
 _atom_site_type_symbol
 _atom_site_label
 _atom_site_symmetry_multiplicity
 _atom_site_fract_x
 _atom_site_fract_y
 _atom_site_fract_z
 _atom_site_occupancy
  Sb  Sb0  1  0.96875200  0.24993700  0.11902700  1
  Sb  Sb1  1  0.03124800  0.75006300  0.88097300  1
  Sb  Sb2  1  0.50000000  0.00000000  0.50000000  1
  Au  Au3  1  0.47928200  0.28929900  0.85180800  1
  Au  Au4  1  0.52071800  0.71070100  0.14819200  1
  Xe  Xe5  1  0.24943300  0.37196700  0.64017400  1
  Xe  Xe6  1  0.75056700  0.62803300  0.35982600  1
  F  F7  1  0.50000000  0.50000000  0.00000000  1
  F  F8  1  0.67576100  0.25299000  0.04085300  1
  F  F9  1  0.32423900  0.74701000  0.95914700  1
  F  F10  1  0.99279700  0.22489200  0.92236800  1
  F  F11  1  0.00720300  0.77510800  0.07763200  1
  F  F12  1  0.92132600  0.28381200  0.31019200  1
  F  F13  1  0.07867400  0.71618800  0.68980800  1
  F  F14  1  0.10484300  0.49209500  0.15310500  1
  F  F15  1  0.89515700  0.50790500  0.84689500  1
  F  F16  1  0.80935700  0.01135200  0.08646200  1
  F  F17  1  0.19064300  0.98864800  0.91353800  1
  F  F18  1  0.24737200  0.25252100  0.19631600  1
  F  F19  1  0.75262800  0.74747900  0.80368400  1
  F  F20  1  0.47817900  0.06424300  0.70367700  1
  F  F21  1  0.52182100  0.93575700  0.29632300  1
  F  F22  1  0.36795400  0.76544900  0.49208800  1
  F  F23  1  0.63204600  0.23455100  0.50791200  1
  F  F24  1  0.78274800  0.00887000  0.57463900  1
  F  F25  1  0.21725200  0.99113000  0.42536100  1
