# generated using pymatgen
data_Y20Si12C
_symmetry_space_group_name_H-M   'P 1'
_cell_length_a   14.69422500
_cell_length_b   6.40172200
_cell_length_c   8.45958016
_cell_angle_alpha   89.90694727
_cell_angle_beta   90.00000000
_cell_angle_gamma   90.00000000
_symmetry_Int_Tables_number   1
_chemical_formula_structural   Y20Si12C
_chemical_formula_sum   'Y20 Si12 C1'
_cell_volume   795.77764218
_cell_formula_units_Z   1
loop_
 _symmetry_equiv_pos_site_id
 _symmetry_equiv_pos_as_xyz
  1  'x, y, z'
loop_
 _atom_site_type_symbol
 _atom_site_label
 _atom_site_symmetry_multiplicity
 _atom_site_fract_x
 _atom_site_fract_y
 _atom_site_fract_z
 _atom_site_occupancy
  Y  Y0  1  0.66382500  0.50000000  0.50000000  1
  Y  Y1  1  0.17044800  0.50000000  0.00000000  1
  Y  Y2  1  0.82955200  0.50000000  0.00000000  1
  Y  Y3  1  0.33617500  0.50000000  0.50000000  1
  Y  Y4  1  0.83789100  0.00000000  0.00000000  1
  Y  Y5  1  0.32877600  0.00000000  0.50000000  1
  Y  Y6  1  0.67122400  0.00000000  0.50000000  1
  Y  Y7  1  0.16210900  0.00000000  0.00000000  1
  Y  Y8  1  0.50000000  0.24762800  0.75495900  1
  Y  Y9  1  0.00000000  0.27576800  0.26389700  1
  Y  Y10  1  0.62061100  0.24827100  0.12154400  1
  Y  Y11  1  0.11856700  0.27320300  0.62019100  1
  Y  Y12  1  0.88143300  0.27320300  0.62019100  1
  Y  Y13  1  0.37938900  0.24827100  0.12154400  1
  Y  Y14  1  0.00000000  0.72423200  0.73610300  1
  Y  Y15  1  0.50000000  0.75237200  0.24504100  1
  Y  Y16  1  0.88143300  0.72679700  0.37980900  1
  Y  Y17  1  0.37938900  0.75172900  0.87845600  1
  Y  Y18  1  0.62061100  0.75172900  0.87845600  1
  Y  Y19  1  0.11856700  0.72679700  0.37980900  1
  Si  Si20  1  0.00000000  0.26322100  0.90023200  1
  Si  Si21  1  0.50000000  0.24367100  0.39655900  1
  Si  Si22  1  0.80034300  0.25700700  0.30006000  1
  Si  Si23  1  0.30234600  0.24699100  0.80192500  1
  Si  Si24  1  0.69765400  0.24699100  0.80192500  1
  Si  Si25  1  0.19965700  0.25700700  0.30006000  1
  Si  Si26  1  0.50000000  0.75632900  0.60344100  1
  Si  Si27  1  0.00000000  0.73677900  0.09976800  1
  Si  Si28  1  0.69765400  0.75300900  0.19807500  1
  Si  Si29  1  0.19965700  0.74299300  0.69994000  1
  Si  Si30  1  0.80034300  0.74299300  0.69994000  1
  Si  Si31  1  0.30234600  0.75300900  0.19807500  1
  C  C32  1  0.00000000  0.50000000  0.50000000  1
