# generated using pymatgen
data_La2SnS5
_symmetry_space_group_name_H-M   'P 1'
_cell_length_a   4.04407300
_cell_length_b   7.94617600
_cell_length_c   11.36764600
_cell_angle_alpha   90.00000000
_cell_angle_beta   90.00000000
_cell_angle_gamma   90.00000000
_symmetry_Int_Tables_number   1
_chemical_formula_structural   La2SnS5
_chemical_formula_sum   'La4 Sn2 S10'
_cell_volume   365.29834722
_cell_formula_units_Z   2
loop_
 _symmetry_equiv_pos_site_id
 _symmetry_equiv_pos_as_xyz
  1  'x, y, z'
loop_
 _atom_site_type_symbol
 _atom_site_label
 _atom_site_symmetry_multiplicity
 _atom_site_fract_x
 _atom_site_fract_y
 _atom_site_fract_z
 _atom_site_occupancy
  La  La0  1  0.50000000  0.57408200  0.16869100  1
  La  La1  1  0.50000000  0.42591800  0.83130900  1
  La  La2  1  0.50000000  0.07408200  0.33130900  1
  La  La3  1  0.50000000  0.92591800  0.66869100  1
  Sn  Sn4  1  0.00000000  0.50000000  0.50000000  1
  Sn  Sn5  1  0.00000000  0.00000000  0.00000000  1
  S  S6  1  0.50000000  0.68988200  0.43074100  1
  S  S7  1  0.50000000  0.31011800  0.56925900  1
  S  S8  1  0.50000000  0.18988200  0.06925900  1
  S  S9  1  0.50000000  0.81011800  0.93074100  1
  S  S10  1  0.00000000  0.85581200  0.20326200  1
  S  S11  1  0.00000000  0.14418800  0.79673800  1
  S  S12  1  0.00000000  0.50000000  0.00000000  1
  S  S13  1  0.00000000  0.00000000  0.50000000  1
  S  S14  1  0.00000000  0.64418800  0.70326200  1
  S  S15  1  0.00000000  0.35581200  0.29673800  1
