# generated using pymatgen
data_Al2Cd3(GeO4)3
_symmetry_space_group_name_H-M   'P 1'
_cell_length_a   10.61046530
_cell_length_b   10.61046530
_cell_length_c   10.61046530
_cell_angle_alpha   109.47122063
_cell_angle_beta   109.47122063
_cell_angle_gamma   109.47122063
_symmetry_Int_Tables_number   1
_chemical_formula_structural   Al2Cd3(GeO4)3
_chemical_formula_sum   'Al8 Cd12 Ge12 O48'
_cell_volume   919.56280860
_cell_formula_units_Z   4
loop_
 _symmetry_equiv_pos_site_id
 _symmetry_equiv_pos_as_xyz
  1  'x, y, z'
loop_
 _atom_site_type_symbol
 _atom_site_label
 _atom_site_symmetry_multiplicity
 _atom_site_fract_x
 _atom_site_fract_y
 _atom_site_fract_z
 _atom_site_occupancy
  Al  Al0  1  0.00000000  0.00000000  0.00000000  1
  Al  Al1  1  0.50000000  0.00000000  0.50000000  1
  Al  Al2  1  0.00000000  0.50000000  0.50000000  1
  Al  Al3  1  0.50000000  0.00000000  0.00000000  1
  Al  Al4  1  0.50000000  0.50000000  0.00000000  1
  Al  Al5  1  0.50000000  0.50000000  0.50000000  1
  Al  Al6  1  0.00000000  0.00000000  0.50000000  1
  Al  Al7  1  0.00000000  0.50000000  0.00000000  1
  Cd  Cd8  1  0.25000000  0.37500000  0.12500000  1
  Cd  Cd9  1  0.75000000  0.62500000  0.87500000  1
  Cd  Cd10  1  0.75000000  0.12500000  0.37500000  1
  Cd  Cd11  1  0.12500000  0.25000000  0.37500000  1
  Cd  Cd12  1  0.37500000  0.75000000  0.12500000  1
  Cd  Cd13  1  0.25000000  0.87500000  0.62500000  1
  Cd  Cd14  1  0.87500000  0.75000000  0.62500000  1
  Cd  Cd15  1  0.62500000  0.25000000  0.87500000  1
  Cd  Cd16  1  0.37500000  0.12500000  0.25000000  1
  Cd  Cd17  1  0.62500000  0.87500000  0.75000000  1
  Cd  Cd18  1  0.12500000  0.37500000  0.75000000  1
  Cd  Cd19  1  0.87500000  0.62500000  0.25000000  1
  Ge  Ge20  1  0.25000000  0.62500000  0.37500000  1
  Ge  Ge21  1  0.75000000  0.37500000  0.62500000  1
  Ge  Ge22  1  0.75000000  0.87500000  0.12500000  1
  Ge  Ge23  1  0.37500000  0.25000000  0.62500000  1
  Ge  Ge24  1  0.62500000  0.75000000  0.37500000  1
  Ge  Ge25  1  0.25000000  0.12500000  0.87500000  1
  Ge  Ge26  1  0.12500000  0.75000000  0.87500000  1
  Ge  Ge27  1  0.87500000  0.25000000  0.12500000  1
  Ge  Ge28  1  0.62500000  0.37500000  0.25000000  1
  Ge  Ge29  1  0.37500000  0.62500000  0.75000000  1
  Ge  Ge30  1  0.87500000  0.12500000  0.75000000  1
  Ge  Ge31  1  0.12500000  0.87500000  0.25000000  1
  O  O32  1  0.48588000  0.38423700  0.30590200  1
  O  O33  1  0.51412000  0.61576300  0.69409800  1
  O  O34  1  0.57833600  0.17997800  0.19409800  1
  O  O35  1  0.92166400  0.11576300  0.60164200  1
  O  O36  1  0.30590200  0.48588000  0.38423700  1
  O  O37  1  0.32002200  0.92166400  0.30590200  1
  O  O38  1  0.42166400  0.82002200  0.80590200  1
  O  O39  1  0.07833600  0.88423700  0.39835800  1
  O  O40  1  0.69409800  0.51412000  0.61576300  1
  O  O41  1  0.67997800  0.07833600  0.69409800  1
  O  O42  1  0.01412000  0.32002200  0.89835800  1
  O  O43  1  0.19409800  0.57833600  0.17997800  1
  O  O44  1  0.11576300  0.01412000  0.19409800  1
  O  O45  1  0.98588000  0.67997800  0.10164200  1
  O  O46  1  0.80590200  0.42166400  0.82002200  1
  O  O47  1  0.88423700  0.98588000  0.80590200  1
  O  O48  1  0.60164200  0.92166400  0.11576300  1
  O  O49  1  0.17997800  0.48588000  0.60164200  1
  O  O50  1  0.39835800  0.07833600  0.88423700  1
  O  O51  1  0.82002200  0.51412000  0.39835800  1
  O  O52  1  0.89835800  0.01412000  0.32002200  1
  O  O53  1  0.38423700  0.57833600  0.89835800  1
  O  O54  1  0.10164200  0.98588000  0.67997800  1
  O  O55  1  0.61576300  0.42166400  0.10164200  1
  O  O56  1  0.38423700  0.30590200  0.48588000  1
  O  O57  1  0.57833600  0.89835800  0.38423700  1
  O  O58  1  0.61576300  0.69409800  0.51412000  1
  O  O59  1  0.42166400  0.10164200  0.61576300  1
  O  O60  1  0.11576300  0.60164200  0.92166400  1
  O  O61  1  0.01412000  0.19409800  0.11576300  1
  O  O62  1  0.88423700  0.39835800  0.07833600  1
  O  O63  1  0.98588000  0.80590200  0.88423700  1
  O  O64  1  0.32002200  0.89835800  0.01412000  1
  O  O65  1  0.92166400  0.30590200  0.32002200  1
  O  O66  1  0.67997800  0.10164200  0.98588000  1
  O  O67  1  0.07833600  0.69409800  0.67997800  1
  O  O68  1  0.17997800  0.19409800  0.57833600  1
  O  O69  1  0.48588000  0.60164200  0.17997800  1
  O  O70  1  0.82002200  0.80590200  0.42166400  1
  O  O71  1  0.51412000  0.39835800  0.82002200  1
  O  O72  1  0.30590200  0.32002200  0.92166400  1
  O  O73  1  0.69409800  0.67997800  0.07833600  1
  O  O74  1  0.19409800  0.11576300  0.01412000  1
  O  O75  1  0.80590200  0.88423700  0.98588000  1
  O  O76  1  0.89835800  0.38423700  0.57833600  1
  O  O77  1  0.10164200  0.61576300  0.42166400  1
  O  O78  1  0.60164200  0.17997800  0.48588000  1
  O  O79  1  0.39835800  0.82002200  0.51412000  1
