# generated using pymatgen
data_RbZnPO4
_symmetry_space_group_name_H-M   'P 1'
_cell_length_a   5.49863100
_cell_length_b   9.00297800
_cell_length_c   9.09152541
_cell_angle_alpha   89.81496977
_cell_angle_beta   90.00000000
_cell_angle_gamma   90.00000000
_symmetry_Int_Tables_number   1
_chemical_formula_structural   RbZnPO4
_chemical_formula_sum   'Rb4 Zn4 P4 O16'
_cell_volume   450.06501715
_cell_formula_units_Z   4
loop_
 _symmetry_equiv_pos_site_id
 _symmetry_equiv_pos_as_xyz
  1  'x, y, z'
loop_
 _atom_site_type_symbol
 _atom_site_label
 _atom_site_symmetry_multiplicity
 _atom_site_fract_x
 _atom_site_fract_y
 _atom_site_fract_z
 _atom_site_occupancy
  Rb  Rb0  1  0.78178800  0.50175400  0.68722700  1
  Rb  Rb1  1  0.28178800  0.49824600  0.31277300  1
  Rb  Rb2  1  0.25819200  0.99128300  0.19838300  1
  Rb  Rb3  1  0.75819200  0.00871700  0.80161700  1
  Zn  Zn4  1  0.79126500  0.67103500  0.09186900  1
  Zn  Zn5  1  0.29126500  0.32896500  0.90813100  1
  Zn  Zn6  1  0.75318600  0.17486300  0.42312900  1
  Zn  Zn7  1  0.25318600  0.82513700  0.57687100  1
  P  P8  1  0.78874000  0.30789900  0.09766400  1
  P  P9  1  0.28874000  0.69210100  0.90233600  1
  P  P10  1  0.25684200  0.19417600  0.57757800  1
  P  P11  1  0.75684200  0.80582400  0.42242200  1
  O  O12  1  0.21107300  0.19243900  0.74635400  1
  O  O13  1  0.71107300  0.80756100  0.25364600  1
  O  O14  1  0.04584400  0.27801100  0.49743400  1
  O  O15  1  0.54584400  0.72198900  0.50256600  1
  O  O16  1  0.49844400  0.27755800  0.54092600  1
  O  O17  1  0.99844400  0.72244200  0.45907400  1
  O  O18  1  0.27347000  0.03402400  0.51889200  1
  O  O19  1  0.77347000  0.96597600  0.48110800  1
  O  O20  1  0.64042000  0.29127100  0.95240000  1
  O  O21  1  0.14042000  0.70872900  0.04760000  1
  O  O22  1  0.06266200  0.27426700  0.06690200  1
  O  O23  1  0.56266200  0.72573300  0.93309800  1
  O  O24  1  0.25819500  0.53421100  0.83597600  1
  O  O25  1  0.75819500  0.46578900  0.16402400  1
  O  O26  1  0.19277900  0.80823100  0.78926200  1
  O  O27  1  0.69277900  0.19176900  0.21073800  1
