# generated using pymatgen
data_CsTmMnSe3
_symmetry_space_group_name_H-M   'P 1'
_cell_length_a   8.37756380
_cell_length_b   8.37756380
_cell_length_c   10.95167900
_cell_angle_alpha   90.00000000
_cell_angle_beta   90.00000000
_cell_angle_gamma   150.84739332
_symmetry_Int_Tables_number   1
_chemical_formula_structural   CsTmMnSe3
_chemical_formula_sum   'Cs2 Tm2 Mn2 Se6'
_cell_volume   374.42746818
_cell_formula_units_Z   2
loop_
 _symmetry_equiv_pos_site_id
 _symmetry_equiv_pos_as_xyz
  1  'x, y, z'
loop_
 _atom_site_type_symbol
 _atom_site_label
 _atom_site_symmetry_multiplicity
 _atom_site_fract_x
 _atom_site_fract_y
 _atom_site_fract_z
 _atom_site_occupancy
  Cs  Cs0  1  0.25695800  0.74304200  0.25000000  1
  Cs  Cs1  1  0.74304200  0.25695800  0.75000000  1
  Tm  Tm2  1  0.00000000  0.00000000  0.00000000  1
  Tm  Tm3  1  0.00000000  0.00000000  0.50000000  1
  Mn  Mn4  1  0.53679000  0.46321000  0.25000000  1
  Mn  Mn5  1  0.46321000  0.53679000  0.75000000  1
  Se  Se6  1  0.61442800  0.38557200  0.05476700  1
  Se  Se7  1  0.38557200  0.61442800  0.94523300  1
  Se  Se8  1  0.38557200  0.61442800  0.55476700  1
  Se  Se9  1  0.61442800  0.38557200  0.44523300  1
  Se  Se10  1  0.94562300  0.05437700  0.25000000  1
  Se  Se11  1  0.05437700  0.94562300  0.75000000  1
