# generated using pymatgen
data_NdH12(ClO2)3
_symmetry_space_group_name_H-M   'P 1'
_cell_length_a   6.65876200
_cell_length_b   8.08397474
_cell_length_c   9.80302629
_cell_angle_alpha   93.42353007
_cell_angle_beta   90.00000000
_cell_angle_gamma   90.00000000
_symmetry_Int_Tables_number   1
_chemical_formula_structural   NdH12(ClO2)3
_chemical_formula_sum   'Nd2 H24 Cl6 O12'
_cell_volume   526.74796739
_cell_formula_units_Z   2
loop_
 _symmetry_equiv_pos_site_id
 _symmetry_equiv_pos_as_xyz
  1  'x, y, z'
loop_
 _atom_site_type_symbol
 _atom_site_label
 _atom_site_symmetry_multiplicity
 _atom_site_fract_x
 _atom_site_fract_y
 _atom_site_fract_z
 _atom_site_occupancy
  Nd  Nd0  1  0.64515100  0.75000000  0.75000000  1
  Nd  Nd1  1  0.35484900  0.25000000  0.25000000  1
  H  H2  1  0.97191800  0.48204000  0.68286200  1
  H  H3  1  0.02808200  0.51796000  0.31713800  1
  H  H4  1  0.97191800  0.01796000  0.81713800  1
  H  H5  1  0.02808200  0.98204000  0.18286200  1
  H  H6  1  0.04950300  0.64175900  0.61533100  1
  H  H7  1  0.95049700  0.35824100  0.38466900  1
  H  H8  1  0.04950300  0.85824100  0.88466900  1
  H  H9  1  0.95049700  0.14175900  0.11533100  1
  H  H10  1  0.75229900  0.00776000  0.54053300  1
  H  H11  1  0.24770100  0.99224000  0.45946700  1
  H  H12  1  0.75229900  0.49224000  0.95946700  1
  H  H13  1  0.24770100  0.50776000  0.04053300  1
  H  H14  1  0.83000100  0.84182600  0.46768500  1
  H  H15  1  0.16999900  0.15817400  0.53231500  1
  H  H16  1  0.83000100  0.65817400  0.03231500  1
  H  H17  1  0.16999900  0.34182600  0.96768500  1
  H  H18  1  0.41217700  0.08950100  0.76125200  1
  H  H19  1  0.58782300  0.91049900  0.23874800  1
  H  H20  1  0.41217700  0.41049900  0.73874800  1
  H  H21  1  0.58782300  0.58950100  0.26125200  1
  H  H22  1  0.59031700  0.11111600  0.86587600  1
  H  H23  1  0.40968300  0.88888400  0.13412400  1
  H  H24  1  0.59031700  0.38888400  0.63412400  1
  H  H25  1  0.40968300  0.61111600  0.36587600  1
  Cl  Cl26  1  0.32612800  0.74475300  0.94860400  1
  Cl  Cl27  1  0.67387200  0.25524700  0.05139600  1
  Cl  Cl28  1  0.32612800  0.75524700  0.55139600  1
  Cl  Cl29  1  0.67387200  0.24475300  0.44860400  1
  Cl  Cl30  1  0.86078800  0.75000000  0.25000000  1
  Cl  Cl31  1  0.13921200  0.25000000  0.75000000  1
  O  O32  1  0.92581900  0.58640200  0.64604100  1
  O  O33  1  0.07418100  0.41359800  0.35395900  1
  O  O34  1  0.92581900  0.91359800  0.85395900  1
  O  O35  1  0.07418100  0.08640200  0.14604100  1
  O  O36  1  0.79649300  0.89442900  0.55849100  1
  O  O37  1  0.20350700  0.10557100  0.44150900  1
  O  O38  1  0.79649300  0.60557100  0.94150900  1
  O  O39  1  0.20350700  0.39442900  0.05849100  1
  O  O40  1  0.54600500  0.04544300  0.78268800  1
  O  O41  1  0.45399500  0.95455700  0.21731200  1
  O  O42  1  0.54600500  0.45455700  0.71731200  1
  O  O43  1  0.45399500  0.54544300  0.28268800  1
