# generated using pymatgen
data_Mg(BeN)2
_symmetry_space_group_name_H-M   'P 1'
_cell_length_a   2.95643045
_cell_length_b   2.95643045
_cell_length_c   5.10049300
_cell_angle_alpha   90.00000000
_cell_angle_beta   90.00000000
_cell_angle_gamma   120.00000999
_symmetry_Int_Tables_number   1
_chemical_formula_structural   Mg(BeN)2
_chemical_formula_sum   'Mg1 Be2 N2'
_cell_volume   38.60806859
_cell_formula_units_Z   1
loop_
 _symmetry_equiv_pos_site_id
 _symmetry_equiv_pos_as_xyz
  1  'x, y, z'
loop_
 _atom_site_type_symbol
 _atom_site_label
 _atom_site_symmetry_multiplicity
 _atom_site_fract_x
 _atom_site_fract_y
 _atom_site_fract_z
 _atom_site_occupancy
  Mg  Mg0  1  0.00000000  0.00000000  0.00000000  1
  Be  Be1  1  0.66666700  0.33333300  0.37201600  1
  Be  Be2  1  0.33333300  0.66666700  0.62798400  1
  N  N3  1  0.66666700  0.33333300  0.72183800  1
  N  N4  1  0.33333300  0.66666700  0.27816200  1
