# generated using pymatgen
data_Ce5Pb3
_symmetry_space_group_name_H-M   'P 1'
_cell_length_a   9.49462000
_cell_length_b   9.49461990
_cell_length_c   6.49840100
_cell_angle_alpha   90.00000000
_cell_angle_beta   90.00000000
_cell_angle_gamma   120.00000036
_symmetry_Int_Tables_number   1
_chemical_formula_structural   Ce5Pb3
_chemical_formula_sum   'Ce10 Pb6'
_cell_volume   507.33206041
_cell_formula_units_Z   2
loop_
 _symmetry_equiv_pos_site_id
 _symmetry_equiv_pos_as_xyz
  1  'x, y, z'
loop_
 _atom_site_type_symbol
 _atom_site_label
 _atom_site_symmetry_multiplicity
 _atom_site_fract_x
 _atom_site_fract_y
 _atom_site_fract_z
 _atom_site_occupancy
  Ce  Ce0  1  0.66666700  0.33333300  0.00000000  1
  Ce  Ce1  1  0.33333300  0.66666700  0.00000000  1
  Ce  Ce2  1  0.33333300  0.66666700  0.50000000  1
  Ce  Ce3  1  0.66666700  0.33333300  0.50000000  1
  Ce  Ce4  1  0.74611900  0.74611900  0.75000000  1
  Ce  Ce5  1  0.25388100  0.00000000  0.75000000  1
  Ce  Ce6  1  0.00000000  0.25388100  0.75000000  1
  Ce  Ce7  1  0.25388100  0.25388100  0.25000000  1
  Ce  Ce8  1  0.74611900  0.00000000  0.25000000  1
  Ce  Ce9  1  0.00000000  0.74611900  0.25000000  1
  Pb  Pb10  1  0.38746900  0.38746900  0.75000000  1
  Pb  Pb11  1  0.61253100  0.00000000  0.75000000  1
  Pb  Pb12  1  0.00000000  0.61253100  0.75000000  1
  Pb  Pb13  1  0.61253100  0.61253100  0.25000000  1
  Pb  Pb14  1  0.38746900  0.00000000  0.25000000  1
  Pb  Pb15  1  0.00000000  0.38746900  0.25000000  1
