# generated using pymatgen
data_Sr3GdRhO6
_symmetry_space_group_name_H-M   'P 1'
_cell_length_a   6.88334672
_cell_length_b   6.88334672
_cell_length_c   6.88334698
_cell_angle_alpha   91.94852878
_cell_angle_beta   91.94852878
_cell_angle_gamma   91.94852852
_symmetry_Int_Tables_number   1
_chemical_formula_structural   Sr3GdRhO6
_chemical_formula_sum   'Sr6 Gd2 Rh2 O12'
_cell_volume   325.55725025
_cell_formula_units_Z   2
loop_
 _symmetry_equiv_pos_site_id
 _symmetry_equiv_pos_as_xyz
  1  'x, y, z'
loop_
 _atom_site_type_symbol
 _atom_site_label
 _atom_site_symmetry_multiplicity
 _atom_site_fract_x
 _atom_site_fract_y
 _atom_site_fract_z
 _atom_site_occupancy
  Sr  Sr0  1  0.38109900  0.11890100  0.75000000  1
  Sr  Sr1  1  0.11890100  0.75000000  0.38109900  1
  Sr  Sr2  1  0.75000000  0.38109900  0.11890100  1
  Sr  Sr3  1  0.61890100  0.88109900  0.25000000  1
  Sr  Sr4  1  0.25000000  0.61890100  0.88109900  1
  Sr  Sr5  1  0.88109900  0.25000000  0.61890100  1
  Gd  Gd6  1  0.25000000  0.25000000  0.25000000  1
  Gd  Gd7  1  0.75000000  0.75000000  0.75000000  1
  Rh  Rh8  1  0.00000000  0.00000000  0.00000000  1
  Rh  Rh9  1  0.50000000  0.50000000  0.50000000  1
  O  O10  1  0.08779200  0.29176300  0.95368600  1
  O  O11  1  0.95368600  0.08779200  0.29176300  1
  O  O12  1  0.29176300  0.95368600  0.08779200  1
  O  O13  1  0.41220800  0.54631400  0.20823700  1
  O  O14  1  0.20823700  0.41220800  0.54631400  1
  O  O15  1  0.54631400  0.20823700  0.41220800  1
  O  O16  1  0.91220800  0.70823700  0.04631400  1
  O  O17  1  0.04631400  0.91220800  0.70823700  1
  O  O18  1  0.70823700  0.04631400  0.91220800  1
  O  O19  1  0.58779200  0.45368600  0.79176300  1
  O  O20  1  0.45368600  0.79176300  0.58779200  1
  O  O21  1  0.79176300  0.58779200  0.45368600  1
