# generated using pymatgen
data_VB(PbO2)4
_symmetry_space_group_name_H-M   'P 1'
_cell_length_a   7.24405800
_cell_length_b   10.60188600
_cell_length_c   13.13510870
_cell_angle_alpha   67.03376805
_cell_angle_beta   90.00000000
_cell_angle_gamma   90.00000000
_symmetry_Int_Tables_number   1
_chemical_formula_structural   VB(PbO2)4
_chemical_formula_sum   'V4 B4 Pb16 O32'
_cell_volume   928.82385594
_cell_formula_units_Z   4
loop_
 _symmetry_equiv_pos_site_id
 _symmetry_equiv_pos_as_xyz
  1  'x, y, z'
loop_
 _atom_site_type_symbol
 _atom_site_label
 _atom_site_symmetry_multiplicity
 _atom_site_fract_x
 _atom_site_fract_y
 _atom_site_fract_z
 _atom_site_occupancy
  V  V0  1  0.25475600  0.89849000  0.40168800  1
  V  V1  1  0.75475600  0.10151000  0.09831200  1
  V  V2  1  0.74524400  0.10151000  0.59831200  1
  V  V3  1  0.24524400  0.89849000  0.90168800  1
  B  B4  1  0.26579600  0.46164000  0.36059200  1
  B  B5  1  0.76579600  0.53836000  0.13940800  1
  B  B6  1  0.73420400  0.53836000  0.63940800  1
  B  B7  1  0.23420400  0.46164000  0.86059200  1
  Pb  Pb8  1  0.23003100  0.14371700  0.56595600  1
  Pb  Pb9  1  0.73003100  0.85628300  0.93404400  1
  Pb  Pb10  1  0.76996900  0.85628300  0.43404400  1
  Pb  Pb11  1  0.26996900  0.14371700  0.06595600  1
  Pb  Pb12  1  0.19033000  0.54391900  0.57633200  1
  Pb  Pb13  1  0.69033000  0.45608100  0.92366800  1
  Pb  Pb14  1  0.80967000  0.45608100  0.42366800  1
  Pb  Pb15  1  0.30967000  0.54391900  0.07633200  1
  Pb  Pb16  1  0.48561900  0.23927400  0.76520600  1
  Pb  Pb17  1  0.98561900  0.76072600  0.73479400  1
  Pb  Pb18  1  0.51438100  0.76072600  0.23479400  1
  Pb  Pb19  1  0.01438100  0.23927400  0.26520600  1
  Pb  Pb20  1  0.99030200  0.24706300  0.79624000  1
  Pb  Pb21  1  0.49030200  0.75293700  0.70376000  1
  Pb  Pb22  1  0.00969800  0.75293700  0.20376000  1
  Pb  Pb23  1  0.50969800  0.24706300  0.29624000  1
  O  O24  1  0.21240400  0.29736600  0.66337000  1
  O  O25  1  0.71240400  0.70263400  0.83663000  1
  O  O26  1  0.78759600  0.70263400  0.33663000  1
  O  O27  1  0.28759600  0.29736600  0.16337000  1
  O  O28  1  0.43739200  0.78192300  0.41771300  1
  O  O29  1  0.93739200  0.21807700  0.08228700  1
  O  O30  1  0.56260800  0.21807700  0.58228700  1
  O  O31  1  0.06260800  0.78192300  0.91771300  1
  O  O32  1  0.13244100  0.52431500  0.40300200  1
  O  O33  1  0.63244100  0.47568500  0.09699800  1
  O  O34  1  0.86755900  0.47568500  0.59699800  1
  O  O35  1  0.36755900  0.52431500  0.90300200  1
  O  O36  1  0.24989200  0.32210500  0.38281000  1
  O  O37  1  0.74989100  0.67789500  0.11719000  1
  O  O38  1  0.75010800  0.67789500  0.61719000  1
  O  O39  1  0.25010800  0.32210500  0.88281000  1
  O  O40  1  0.09880000  0.81942100  0.50883700  1
  O  O41  1  0.59880000  0.18057900  0.99116300  1
  O  O42  1  0.90120000  0.18057900  0.49116300  1
  O  O43  1  0.40120000  0.81942100  0.00883700  1
  O  O44  1  0.33371200  0.05318900  0.40566000  1
  O  O45  1  0.83371200  0.94681100  0.09434000  1
  O  O46  1  0.66628800  0.94681100  0.59434000  1
  O  O47  1  0.16628800  0.05318900  0.90566000  1
  O  O48  1  0.41141200  0.53226900  0.29527200  1
  O  O49  1  0.91141200  0.46773100  0.20472800  1
  O  O50  1  0.58858800  0.46773100  0.70472800  1
  O  O51  1  0.08858800  0.53226900  0.79527200  1
  O  O52  1  0.13895300  0.93107900  0.27834000  1
  O  O53  1  0.63895300  0.06892100  0.22166000  1
  O  O54  1  0.86104700  0.06892100  0.72166000  1
  O  O55  1  0.36104700  0.93107900  0.77834000  1
