# generated using pymatgen
data_EuCu4P3
_symmetry_space_group_name_H-M   'P 1'
_cell_length_a   4.02809000
_cell_length_b   4.02809000
_cell_length_c   7.48779400
_cell_angle_alpha   90.00000000
_cell_angle_beta   90.00000000
_cell_angle_gamma   90.00000000
_symmetry_Int_Tables_number   1
_chemical_formula_structural   EuCu4P3
_chemical_formula_sum   'Eu1 Cu4 P3'
_cell_volume   121.49326930
_cell_formula_units_Z   1
loop_
 _symmetry_equiv_pos_site_id
 _symmetry_equiv_pos_as_xyz
  1  'x, y, z'
loop_
 _atom_site_type_symbol
 _atom_site_label
 _atom_site_symmetry_multiplicity
 _atom_site_fract_x
 _atom_site_fract_y
 _atom_site_fract_z
 _atom_site_occupancy
  Eu  Eu0  1  0.00000000  0.00000000  0.50000000  1
  Cu  Cu1  1  0.00000000  0.50000000  0.82495700  1
  Cu  Cu2  1  0.50000000  0.00000000  0.82495700  1
  Cu  Cu3  1  0.00000000  0.50000000  0.17504300  1
  Cu  Cu4  1  0.50000000  0.00000000  0.17504300  1
  P  P5  1  0.00000000  0.00000000  0.00000000  1
  P  P6  1  0.50000000  0.50000000  0.65221500  1
  P  P7  1  0.50000000  0.50000000  0.34778500  1
