# generated using pymatgen
data_Ca5(CuN2)2
_symmetry_space_group_name_H-M   'P 1'
_cell_length_a   8.01340700
_cell_length_b   8.01340700
_cell_length_c   12.41663700
_cell_angle_alpha   90.00000000
_cell_angle_beta   90.00000000
_cell_angle_gamma   90.00000000
_symmetry_Int_Tables_number   1
_chemical_formula_structural   Ca5(CuN2)2
_chemical_formula_sum   'Ca20 Cu8 N16'
_cell_volume   797.33051750
_cell_formula_units_Z   4
loop_
 _symmetry_equiv_pos_site_id
 _symmetry_equiv_pos_as_xyz
  1  'x, y, z'
loop_
 _atom_site_type_symbol
 _atom_site_label
 _atom_site_symmetry_multiplicity
 _atom_site_fract_x
 _atom_site_fract_y
 _atom_site_fract_z
 _atom_site_occupancy
  Ca  Ca0  1  0.75000000  0.75000000  0.36232000  1
  Ca  Ca1  1  0.75000000  0.75000000  0.86232000  1
  Ca  Ca2  1  0.25000000  0.25000000  0.63768000  1
  Ca  Ca3  1  0.25000000  0.25000000  0.13768000  1
  Ca  Ca4  1  0.13270700  0.57791100  0.41037800  1
  Ca  Ca5  1  0.36729300  0.57791100  0.91037800  1
  Ca  Ca6  1  0.13270700  0.92208900  0.91037800  1
  Ca  Ca7  1  0.36729300  0.92208900  0.41037800  1
  Ca  Ca8  1  0.57791100  0.13270700  0.91037800  1
  Ca  Ca9  1  0.92208900  0.13270700  0.41037800  1
  Ca  Ca10  1  0.57791100  0.36729300  0.41037800  1
  Ca  Ca11  1  0.92208900  0.36729300  0.91037800  1
  Ca  Ca12  1  0.86729300  0.42208900  0.58962200  1
  Ca  Ca13  1  0.63270700  0.42208900  0.08962200  1
  Ca  Ca14  1  0.86729300  0.07791100  0.08962200  1
  Ca  Ca15  1  0.63270700  0.07791100  0.58962200  1
  Ca  Ca16  1  0.42208900  0.86729300  0.08962200  1
  Ca  Ca17  1  0.07791100  0.86729300  0.58962200  1
  Ca  Ca18  1  0.42208900  0.63270700  0.58962200  1
  Ca  Ca19  1  0.07791100  0.63270700  0.08962200  1
  Cu  Cu20  1  0.09267600  0.90732400  0.25000000  1
  Cu  Cu21  1  0.40732400  0.90732400  0.75000000  1
  Cu  Cu22  1  0.09267600  0.59267600  0.75000000  1
  Cu  Cu23  1  0.40732400  0.59267600  0.25000000  1
  Cu  Cu24  1  0.90732400  0.09267600  0.75000000  1
  Cu  Cu25  1  0.59267600  0.09267600  0.25000000  1
  Cu  Cu26  1  0.90732400  0.40732400  0.25000000  1
  Cu  Cu27  1  0.59267600  0.40732400  0.75000000  1
  N  N28  1  0.63681000  0.05167800  0.39564400  1
  N  N29  1  0.86319000  0.05167800  0.89564400  1
  N  N30  1  0.63681000  0.44832200  0.89564400  1
  N  N31  1  0.86319000  0.44832200  0.39564400  1
  N  N32  1  0.05167800  0.63681000  0.89564400  1
  N  N33  1  0.44832200  0.63681000  0.39564400  1
  N  N34  1  0.05167800  0.86319000  0.39564400  1
  N  N35  1  0.44832200  0.86319000  0.89564400  1
  N  N36  1  0.36319000  0.94832200  0.60435600  1
  N  N37  1  0.13681000  0.94832200  0.10435600  1
  N  N38  1  0.36319000  0.55167800  0.10435600  1
  N  N39  1  0.13681000  0.55167800  0.60435600  1
  N  N40  1  0.94832200  0.36319000  0.10435600  1
  N  N41  1  0.55167800  0.36319000  0.60435600  1
  N  N42  1  0.94832200  0.13681000  0.60435600  1
  N  N43  1  0.55167800  0.13681000  0.10435600  1
