# generated using pymatgen
data_CsTbCdSe3
_symmetry_space_group_name_H-M   'P 1'
_cell_length_a   8.47331189
_cell_length_b   8.47331189
_cell_length_c   11.23763900
_cell_angle_alpha   90.00000000
_cell_angle_beta   90.00000000
_cell_angle_gamma   150.45998401
_symmetry_Int_Tables_number   1
_chemical_formula_structural   CsTbCdSe3
_chemical_formula_sum   'Cs2 Tb2 Cd2 Se6'
_cell_volume   397.79191998
_cell_formula_units_Z   2
loop_
 _symmetry_equiv_pos_site_id
 _symmetry_equiv_pos_as_xyz
  1  'x, y, z'
loop_
 _atom_site_type_symbol
 _atom_site_label
 _atom_site_symmetry_multiplicity
 _atom_site_fract_x
 _atom_site_fract_y
 _atom_site_fract_z
 _atom_site_occupancy
  Cs  Cs0  1  0.74442200  0.25557800  0.25000000  1
  Cs  Cs1  1  0.25557800  0.74442200  0.75000000  1
  Tb  Tb2  1  0.00000000  0.00000000  0.50000000  1
  Tb  Tb3  1  0.00000000  0.00000000  0.00000000  1
  Cd  Cd4  1  0.53895500  0.46104500  0.75000000  1
  Cd  Cd5  1  0.46104500  0.53895500  0.25000000  1
  Se  Se6  1  0.06064100  0.93935900  0.25000000  1
  Se  Se7  1  0.93935900  0.06064100  0.75000000  1
  Se  Se8  1  0.61694600  0.38305400  0.54596400  1
  Se  Se9  1  0.61694600  0.38305400  0.95403600  1
  Se  Se10  1  0.38305400  0.61694600  0.04596400  1
  Se  Se11  1  0.38305400  0.61694600  0.45403600  1
