# generated using pymatgen
data_Co3(SnS)2
_symmetry_space_group_name_H-M   'P 1'
_cell_length_a   5.38118632
_cell_length_b   5.38118632
_cell_length_c   5.38118620
_cell_angle_alpha   60.12806479
_cell_angle_beta   60.12806479
_cell_angle_gamma   60.12807330
_symmetry_Int_Tables_number   1
_chemical_formula_structural   Co3(SnS)2
_chemical_formula_sum   'Co3 Sn2 S2'
_cell_volume   110.50381132
_cell_formula_units_Z   1
loop_
 _symmetry_equiv_pos_site_id
 _symmetry_equiv_pos_as_xyz
  1  'x, y, z'
loop_
 _atom_site_type_symbol
 _atom_site_label
 _atom_site_symmetry_multiplicity
 _atom_site_fract_x
 _atom_site_fract_y
 _atom_site_fract_z
 _atom_site_occupancy
  Co  Co0  1  0.50000000  0.00000000  0.00000000  1
  Co  Co1  1  0.00000000  0.50000000  0.00000000  1
  Co  Co2  1  0.00000000  0.00000000  0.50000000  1
  Sn  Sn3  1  0.50000000  0.50000000  0.50000000  1
  Sn  Sn4  1  0.00000000  0.00000000  0.00000000  1
  S  S5  1  0.71951000  0.71951000  0.71951000  1
  S  S6  1  0.28049000  0.28049000  0.28049000  1
