# generated using pymatgen
data_Y3(GeRh)2
_symmetry_space_group_name_H-M   'P 1'
_cell_length_a   5.61528100
_cell_length_b   7.88416900
_cell_length_c   13.23786200
_cell_angle_alpha   90.00000000
_cell_angle_beta   90.00000000
_cell_angle_gamma   90.00000000
_symmetry_Int_Tables_number   1
_chemical_formula_structural   Y3(GeRh)2
_chemical_formula_sum   'Y12 Ge8 Rh8'
_cell_volume   586.06430172
_cell_formula_units_Z   4
loop_
 _symmetry_equiv_pos_site_id
 _symmetry_equiv_pos_as_xyz
  1  'x, y, z'
loop_
 _atom_site_type_symbol
 _atom_site_label
 _atom_site_symmetry_multiplicity
 _atom_site_fract_x
 _atom_site_fract_y
 _atom_site_fract_z
 _atom_site_occupancy
  Y  Y0  1  0.63149700  0.25189200  0.25000000  1
  Y  Y1  1  0.36850300  0.74810800  0.75000000  1
  Y  Y2  1  0.36850300  0.75189200  0.25000000  1
  Y  Y3  1  0.63149700  0.24810800  0.75000000  1
  Y  Y4  1  0.14452100  0.39339300  0.10124000  1
  Y  Y5  1  0.85547900  0.60660700  0.89876000  1
  Y  Y6  1  0.85547900  0.60660700  0.60124000  1
  Y  Y7  1  0.85547900  0.89339300  0.39876000  1
  Y  Y8  1  0.14452100  0.39339300  0.39876000  1
  Y  Y9  1  0.14452100  0.10660700  0.60124000  1
  Y  Y10  1  0.14452100  0.10660700  0.89876000  1
  Y  Y11  1  0.85547900  0.89339300  0.10124000  1
  Ge  Ge12  1  0.13140200  0.10752200  0.25000000  1
  Ge  Ge13  1  0.86859800  0.89247800  0.75000000  1
  Ge  Ge14  1  0.86859800  0.60752200  0.25000000  1
  Ge  Ge15  1  0.13140200  0.39247800  0.75000000  1
  Ge  Ge16  1  0.65432800  0.25000000  0.00000000  1
  Ge  Ge17  1  0.34567200  0.75000000  0.00000000  1
  Ge  Ge18  1  0.34567200  0.75000000  0.50000000  1
  Ge  Ge19  1  0.65432800  0.25000000  0.50000000  1
  Rh  Rh20  1  0.37358700  0.03795500  0.09324600  1
  Rh  Rh21  1  0.62641300  0.96204500  0.90675400  1
  Rh  Rh22  1  0.62641300  0.96204500  0.59324600  1
  Rh  Rh23  1  0.62641300  0.53795500  0.40675400  1
  Rh  Rh24  1  0.37358700  0.03795500  0.40675400  1
  Rh  Rh25  1  0.37358700  0.46204500  0.59324600  1
  Rh  Rh26  1  0.37358700  0.46204500  0.90675400  1
  Rh  Rh27  1  0.62641300  0.53795500  0.09324600  1
