# generated using pymatgen
data_La3InPb4
_symmetry_space_group_name_H-M   'P 1'
_cell_length_a   8.93726492
_cell_length_b   8.93726492
_cell_length_c   8.94403784
_cell_angle_alpha   60.39270139
_cell_angle_beta   60.39270139
_cell_angle_gamma   90.63862846
_symmetry_Int_Tables_number   1
_chemical_formula_structural   La3InPb4
_chemical_formula_sum   'La6 In2 Pb8'
_cell_volume   508.31051960
_cell_formula_units_Z   2
loop_
 _symmetry_equiv_pos_site_id
 _symmetry_equiv_pos_as_xyz
  1  'x, y, z'
loop_
 _atom_site_type_symbol
 _atom_site_label
 _atom_site_symmetry_multiplicity
 _atom_site_fract_x
 _atom_site_fract_y
 _atom_site_fract_z
 _atom_site_occupancy
  La  La0  1  0.66129900  0.16129900  0.17873400  1
  La  La1  1  0.34003300  0.84003300  0.82126600  1
  La  La2  1  0.15974700  0.34056100  0.50000000  1
  La  La3  1  0.84056100  0.65974700  0.50000000  1
  La  La4  1  0.75020000  0.75020000  0.00000000  1
  La  La5  1  0.25020000  0.25020000  0.00000000  1
  In  In6  1  0.32184000  0.82184000  0.21407000  1
  In  In7  1  0.03591000  0.53591000  0.78593000  1
  Pb  Pb8  1  0.50026500  0.50026500  0.00000000  1
  Pb  Pb9  1  0.00026500  0.00026500  0.00000000  1
  Pb  Pb10  1  0.82181300  0.03502500  0.50000000  1
  Pb  Pb11  1  0.53502500  0.32181300  0.50000000  1
  Pb  Pb12  1  0.67602000  0.17602000  0.78973100  1
  Pb  Pb13  1  0.96575100  0.46575100  0.21026900  1
  Pb  Pb14  1  0.17807000  0.96299800  0.50000000  1
  Pb  Pb15  1  0.46299800  0.67807000  0.50000000  1
