# generated using pymatgen
data_Gd5P12Ru19
_symmetry_space_group_name_H-M   'P 1'
_cell_length_a   12.56975599
_cell_length_b   12.56975599
_cell_length_c   3.99316500
_cell_angle_alpha   90.00000000
_cell_angle_beta   90.00000000
_cell_angle_gamma   119.99999993
_symmetry_Int_Tables_number   1
_chemical_formula_structural   Gd5P12Ru19
_chemical_formula_sum   'Gd5 P12 Ru19'
_cell_volume   546.38853986
_cell_formula_units_Z   1
loop_
 _symmetry_equiv_pos_site_id
 _symmetry_equiv_pos_as_xyz
  1  'x, y, z'
loop_
 _atom_site_type_symbol
 _atom_site_label
 _atom_site_symmetry_multiplicity
 _atom_site_fract_x
 _atom_site_fract_y
 _atom_site_fract_z
 _atom_site_occupancy
  Gd  Gd0  1  0.18333300  0.18333300  0.50000000  1
  Gd  Gd1  1  0.81666700  0.00000000  0.50000000  1
  Gd  Gd2  1  0.00000000  0.81666700  0.50000000  1
  Gd  Gd3  1  0.33333300  0.66666700  0.00000000  1
  Gd  Gd4  1  0.66666700  0.33333300  0.00000000  1
  P  P5  1  0.81469800  0.81469800  0.00000000  1
  P  P6  1  0.18530200  0.00000000  0.00000000  1
  P  P7  1  0.00000000  0.18530200  0.00000000  1
  P  P8  1  0.17190500  0.47736300  0.50000000  1
  P  P9  1  0.52263700  0.69454200  0.50000000  1
  P  P10  1  0.30545800  0.82809500  0.50000000  1
  P  P11  1  0.69454200  0.52263700  0.50000000  1
  P  P12  1  0.82809500  0.30545800  0.50000000  1
  P  P13  1  0.47736300  0.17190500  0.50000000  1
  P  P14  1  0.37350400  0.37350400  0.00000000  1
  P  P15  1  0.62649600  0.00000000  0.00000000  1
  P  P16  1  0.00000000  0.62649600  0.00000000  1
  Ru  Ru17  1  0.55459900  0.55459900  0.00000000  1
  Ru  Ru18  1  0.44540100  0.00000000  0.00000000  1
  Ru  Ru19  1  0.00000000  0.44540100  0.00000000  1
  Ru  Ru20  1  0.71623600  0.71623600  0.50000000  1
  Ru  Ru21  1  0.28376400  0.00000000  0.50000000  1
  Ru  Ru22  1  0.00000000  0.28376400  0.50000000  1
  Ru  Ru23  1  0.18465100  0.37738100  0.00000000  1
  Ru  Ru24  1  0.62261900  0.80727000  0.00000000  1
  Ru  Ru25  1  0.19273000  0.81534900  0.00000000  1
  Ru  Ru26  1  0.80727000  0.62261900  0.00000000  1
  Ru  Ru27  1  0.81534900  0.19273000  0.00000000  1
  Ru  Ru28  1  0.37738100  0.18465100  0.00000000  1
  Ru  Ru29  1  0.36637600  0.49141300  0.50000000  1
  Ru  Ru30  1  0.50858700  0.87496300  0.50000000  1
  Ru  Ru31  1  0.12503700  0.63362400  0.50000000  1
  Ru  Ru32  1  0.87496300  0.50858700  0.50000000  1
  Ru  Ru33  1  0.63362400  0.12503700  0.50000000  1
  Ru  Ru34  1  0.49141300  0.36637600  0.50000000  1
  Ru  Ru35  1  0.00000000  0.00000000  0.00000000  1
