# generated using pymatgen
data_Cs3GeTe3
_symmetry_space_group_name_H-M   'P 1'
_cell_length_a   11.41788179
_cell_length_b   11.41788179
_cell_length_c   10.44991088
_cell_angle_alpha   85.30079441
_cell_angle_beta   85.30079441
_cell_angle_gamma   80.23640820
_symmetry_Int_Tables_number   1
_chemical_formula_structural   Cs3GeTe3
_chemical_formula_sum   'Cs12 Ge4 Te12'
_cell_volume   1334.87523802
_cell_formula_units_Z   4
loop_
 _symmetry_equiv_pos_site_id
 _symmetry_equiv_pos_as_xyz
  1  'x, y, z'
loop_
 _atom_site_type_symbol
 _atom_site_label
 _atom_site_symmetry_multiplicity
 _atom_site_fract_x
 _atom_site_fract_y
 _atom_site_fract_z
 _atom_site_occupancy
  Cs  Cs0  1  0.39744900  0.60255100  0.75000000  1
  Cs  Cs1  1  0.60255100  0.39744900  0.25000000  1
  Cs  Cs2  1  0.75499000  0.80952700  0.68566700  1
  Cs  Cs3  1  0.19047300  0.24501000  0.81433300  1
  Cs  Cs4  1  0.24501000  0.19047300  0.31433300  1
  Cs  Cs5  1  0.80952700  0.75499000  0.18566700  1
  Cs  Cs6  1  0.08323000  0.91677000  0.75000000  1
  Cs  Cs7  1  0.91677000  0.08323000  0.25000000  1
  Cs  Cs8  1  0.40313000  0.78509700  0.36729000  1
  Cs  Cs9  1  0.21490300  0.59687000  0.13271000  1
  Cs  Cs10  1  0.59687000  0.21490300  0.63271000  1
  Cs  Cs11  1  0.78509700  0.40313000  0.86729000  1
  Ge  Ge12  1  0.43918200  0.92385200  0.96055500  1
  Ge  Ge13  1  0.07614800  0.56081800  0.53944500  1
  Ge  Ge14  1  0.56081800  0.07614800  0.03944500  1
  Ge  Ge15  1  0.92385200  0.43918200  0.46055500  1
  Te  Te16  1  0.42153300  0.95443000  0.71002800  1
  Te  Te17  1  0.04557000  0.57846800  0.78997200  1
  Te  Te18  1  0.57846700  0.04557000  0.28997200  1
  Te  Te19  1  0.95443000  0.42153300  0.21002800  1
  Te  Te20  1  0.70455400  0.54525800  0.52146800  1
  Te  Te21  1  0.45474200  0.29544600  0.97853200  1
  Te  Te22  1  0.29544600  0.45474200  0.47853200  1
  Te  Te23  1  0.54525800  0.70455400  0.02146800  1
  Te  Te24  1  0.22475800  0.94974900  0.07484800  1
  Te  Te25  1  0.05025100  0.77524200  0.42515200  1
  Te  Te26  1  0.77524200  0.05025100  0.92515200  1
  Te  Te27  1  0.94974900  0.22475800  0.57484800  1
