# generated using pymatgen
data_K3Na7Mg2H12S6(NO18)2
_symmetry_space_group_name_H-M   'P 1'
_cell_length_a   10.32370068
_cell_length_b   10.32370068
_cell_length_c   10.32370094
_cell_angle_alpha   64.78837409
_cell_angle_beta   64.78837409
_cell_angle_gamma   64.78837311
_symmetry_Int_Tables_number   1
_chemical_formula_structural   K3Na7Mg2H12S6(NO18)2
_chemical_formula_sum   'K3 Na7 Mg2 H12 S6 N2 O36'
_cell_volume   859.52395225
_cell_formula_units_Z   1
loop_
 _symmetry_equiv_pos_site_id
 _symmetry_equiv_pos_as_xyz
  1  'x, y, z'
loop_
 _atom_site_type_symbol
 _atom_site_label
 _atom_site_symmetry_multiplicity
 _atom_site_fract_x
 _atom_site_fract_y
 _atom_site_fract_z
 _atom_site_occupancy
  K  K0  1  0.99910700  0.50067200  0.50202100  1
  K  K1  1  0.50067200  0.50202100  0.99910700  1
  K  K2  1  0.50202100  0.99910700  0.50067200  1
  Na  Na3  1  0.27184700  0.73964700  0.25903200  1
  Na  Na4  1  0.73964700  0.25903200  0.27184700  1
  Na  Na5  1  0.25903200  0.27184700  0.73964700  1
  Na  Na6  1  0.72392100  0.26759700  0.73917800  1
  Na  Na7  1  0.26759700  0.73917800  0.72392100  1
  Na  Na8  1  0.73917800  0.72392100  0.26759700  1
  Na  Na9  1  0.12796200  0.12796200  0.12796200  1
  Mg  Mg10  1  0.00166400  0.00166400  0.00166400  1
  Mg  Mg11  1  0.87675900  0.87675900  0.87675900  1
  H  H12  1  0.23379600  0.96725400  0.37676500  1
  H  H13  1  0.96725400  0.37676500  0.23379600  1
  H  H14  1  0.37676500  0.23379600  0.96725400  1
  H  H15  1  0.77605700  0.01531500  0.63337400  1
  H  H16  1  0.01531500  0.63337400  0.77605700  1
  H  H17  1  0.63337400  0.77605700  0.01531500  1
  H  H18  1  0.37807000  0.96423200  0.24076100  1
  H  H19  1  0.96423200  0.24076100  0.37807000  1
  H  H20  1  0.24076100  0.37807000  0.96423200  1
  H  H21  1  0.63350300  0.01799800  0.77262200  1
  H  H22  1  0.01799800  0.77262200  0.63350300  1
  H  H23  1  0.77262200  0.63350300  0.01799800  1
  S  S24  1  0.10086600  0.62199100  0.09540500  1
  S  S25  1  0.62199100  0.09540500  0.10086600  1
  S  S26  1  0.09540500  0.10086600  0.62199100  1
  S  S27  1  0.89241600  0.38769500  0.89729800  1
  S  S28  1  0.38769500  0.89729800  0.89241600  1
  S  S29  1  0.89729800  0.89241600  0.38769500  1
  N  N30  1  0.42764900  0.42764900  0.42764900  1
  N  N31  1  0.57205900  0.57205900  0.57205900  1
  O  O32  1  0.18967400  0.62554300  0.17326900  1
  O  O33  1  0.62554300  0.17326900  0.18967400  1
  O  O34  1  0.17326900  0.18967400  0.62554300  1
  O  O35  1  0.79896400  0.39987400  0.81403100  1
  O  O36  1  0.39987400  0.81403100  0.79896400  1
  O  O37  1  0.81403100  0.79896400  0.39987400  1
  O  O38  1  0.01687700  0.78202000  0.02178500  1
  O  O39  1  0.78202000  0.02178500  0.01687700  1
  O  O40  1  0.02178500  0.01687700  0.78202000  1
  O  O41  1  0.96936800  0.22542500  0.96418400  1
  O  O42  1  0.22542500  0.96418400  0.96936800  1
  O  O43  1  0.96418400  0.96936800  0.22542500  1
  O  O44  1  0.98579400  0.54571700  0.20370600  1
  O  O45  1  0.54571700  0.20370600  0.98579400  1
  O  O46  1  0.20370600  0.98579400  0.54571700  1
  O  O47  1  0.01085300  0.46299600  0.79254500  1
  O  O48  1  0.46299600  0.79254500  0.01085300  1
  O  O49  1  0.79254500  0.01085300  0.46299600  1
  O  O50  1  0.20070600  0.55176400  0.97378000  1
  O  O51  1  0.55176400  0.97378000  0.20070600  1
  O  O52  1  0.97378000  0.20070600  0.55176400  1
  O  O53  1  0.79635600  0.45668500  0.02135000  1
  O  O54  1  0.45668500  0.02135000  0.79635600  1
  O  O55  1  0.02135000  0.79635600  0.45668500  1
  O  O56  1  0.29612500  0.50626900  0.48105800  1
  O  O57  1  0.50626900  0.48105800  0.29612500  1
  O  O58  1  0.48105800  0.29612500  0.50626900  1
  O  O59  1  0.70363800  0.49517200  0.51647800  1
  O  O60  1  0.49517200  0.51647800  0.70363800  1
  O  O61  1  0.51647800  0.70363800  0.49517200  1
  O  O62  1  0.27690100  0.27756600  0.95122100  1
  O  O63  1  0.27756600  0.95122100  0.27690100  1
  O  O64  1  0.95122100  0.27690100  0.27756600  1
  O  O65  1  0.73881200  0.73979500  0.01915400  1
  O  O66  1  0.73979500  0.01915400  0.73881200  1
  O  O67  1  0.01915400  0.73881200  0.73979500  1
