# generated using pymatgen
data_LuGa2Pd
_symmetry_space_group_name_H-M   'P 1'
_cell_length_a   5.47907033
_cell_length_b   5.47907033
_cell_length_c   6.57829800
_cell_angle_alpha   90.00000000
_cell_angle_beta   90.00000000
_cell_angle_gamma   132.65431274
_symmetry_Int_Tables_number   1
_chemical_formula_structural   LuGa2Pd
_chemical_formula_sum   'Lu2 Ga4 Pd2'
_cell_volume   145.23907336
_cell_formula_units_Z   2
loop_
 _symmetry_equiv_pos_site_id
 _symmetry_equiv_pos_as_xyz
  1  'x, y, z'
loop_
 _atom_site_type_symbol
 _atom_site_label
 _atom_site_symmetry_multiplicity
 _atom_site_fract_x
 _atom_site_fract_y
 _atom_site_fract_z
 _atom_site_occupancy
  Lu  Lu0  1  0.58717100  0.41282900  0.25000000  1
  Lu  Lu1  1  0.41282900  0.58717100  0.75000000  1
  Ga  Ga2  1  0.87218600  0.12781400  0.44751800  1
  Ga  Ga3  1  0.12781400  0.87218600  0.55248200  1
  Ga  Ga4  1  0.87218600  0.12781400  0.05248200  1
  Ga  Ga5  1  0.12781400  0.87218600  0.94751800  1
  Pd  Pd6  1  0.29981900  0.70018100  0.25000000  1
  Pd  Pd7  1  0.70018100  0.29981900  0.75000000  1
