# generated using pymatgen
data_Tl2Pd3Se2
_symmetry_space_group_name_H-M   'P 1'
_cell_length_a   6.17070634
_cell_length_b   6.17070634
_cell_length_c   6.17070616
_cell_angle_alpha   57.02776009
_cell_angle_beta   57.02776009
_cell_angle_gamma   57.02775548
_symmetry_Int_Tables_number   1
_chemical_formula_structural   Tl2Pd3Se2
_chemical_formula_sum   'Tl2 Pd3 Se2'
_cell_volume   154.76097756
_cell_formula_units_Z   1
loop_
 _symmetry_equiv_pos_site_id
 _symmetry_equiv_pos_as_xyz
  1  'x, y, z'
loop_
 _atom_site_type_symbol
 _atom_site_label
 _atom_site_symmetry_multiplicity
 _atom_site_fract_x
 _atom_site_fract_y
 _atom_site_fract_z
 _atom_site_occupancy
  Tl  Tl0  1  0.00000000  0.00000000  0.00000000  1
  Tl  Tl1  1  0.50000000  0.50000000  0.50000000  1
  Pd  Pd2  1  0.50000000  0.50000000  0.00000000  1
  Pd  Pd3  1  0.00000000  0.50000000  0.50000000  1
  Pd  Pd4  1  0.50000000  0.00000000  0.50000000  1
  Se  Se5  1  0.78387200  0.78387200  0.78387200  1
  Se  Se6  1  0.21612800  0.21612800  0.21612800  1
