# generated using pymatgen
data_Ba2Cd(BO3)2
_symmetry_space_group_name_H-M   'P 1'
_cell_length_a   5.40449900
_cell_length_b   5.59748968
_cell_length_c   6.76680869
_cell_angle_alpha   114.23367959
_cell_angle_beta   90.00000000
_cell_angle_gamma   118.86587472
_symmetry_Int_Tables_number   1
_chemical_formula_structural   Ba2Cd(BO3)2
_chemical_formula_sum   'Ba2 Cd1 B2 O6'
_cell_volume   158.36241231
_cell_formula_units_Z   1
loop_
 _symmetry_equiv_pos_site_id
 _symmetry_equiv_pos_as_xyz
  1  'x, y, z'
loop_
 _atom_site_type_symbol
 _atom_site_label
 _atom_site_symmetry_multiplicity
 _atom_site_fract_x
 _atom_site_fract_y
 _atom_site_fract_z
 _atom_site_occupancy
  Ba  Ba0  1  0.21007500  0.42015000  0.68957100  1
  Ba  Ba1  1  0.78992500  0.57985000  0.31042900  1
  Cd  Cd2  1  0.00000000  0.00000000  0.00000000  1
  B  B3  1  0.56070500  0.12140900  0.76189800  1
  B  B4  1  0.43929500  0.87859100  0.23810200  1
  O  O5  1  0.25569100  0.95802100  0.72830400  1
  O  O6  1  0.70233000  0.95802100  0.72830400  1
  O  O7  1  0.74430900  0.04197900  0.27169600  1
  O  O8  1  0.29767000  0.04197900  0.27169600  1
  O  O9  1  0.71771600  0.43543200  0.82648200  1
  O  O10  1  0.28228400  0.56456800  0.17351800  1
