# generated using pymatgen
data_Sm10Sb3Se7
_symmetry_space_group_name_H-M   'P 1'
_cell_length_a   11.28289712
_cell_length_b   11.28289712
_cell_length_c   7.33799583
_cell_angle_alpha   83.72541870
_cell_angle_beta   83.72541870
_cell_angle_gamma   141.45842567
_symmetry_Int_Tables_number   1
_chemical_formula_structural   Sm10Sb3Se7
_chemical_formula_sum   'Sm10 Sb3 Se7'
_cell_volume   549.21276328
_cell_formula_units_Z   1
loop_
 _symmetry_equiv_pos_site_id
 _symmetry_equiv_pos_as_xyz
  1  'x, y, z'
loop_
 _atom_site_type_symbol
 _atom_site_label
 _atom_site_symmetry_multiplicity
 _atom_site_fract_x
 _atom_site_fract_y
 _atom_site_fract_z
 _atom_site_occupancy
  Sm  Sm0  1  0.24343900  0.24343900  0.74495600  1
  Sm  Sm1  1  0.85233100  0.65200700  0.74947300  1
  Sm  Sm2  1  0.75656100  0.75656100  0.25504400  1
  Sm  Sm3  1  0.44514100  0.05030500  0.76200900  1
  Sm  Sm4  1  0.34799300  0.14766900  0.25052700  1
  Sm  Sm5  1  0.05030500  0.44514100  0.76200900  1
  Sm  Sm6  1  0.94969500  0.55485900  0.23799100  1
  Sm  Sm7  1  0.65200700  0.85233100  0.74947300  1
  Sm  Sm8  1  0.55485900  0.94969500  0.23799100  1
  Sm  Sm9  1  0.14766900  0.34799300  0.25052700  1
  Sb  Sb10  1  0.50000000  0.50000000  0.00000000  1
  Sb  Sb11  1  0.20225100  0.79774900  0.50000000  1
  Sb  Sb12  1  0.79774900  0.20225100  0.50000000  1
  Se  Se13  1  0.90237900  0.09762100  0.00000000  1
  Se  Se14  1  0.40034900  0.59965100  0.50000000  1
  Se  Se15  1  0.00000000  0.00000000  0.50000000  1
  Se  Se16  1  0.59965100  0.40034900  0.50000000  1
  Se  Se17  1  0.09762100  0.90237900  0.00000000  1
  Se  Se18  1  0.69978800  0.30021200  0.00000000  1
  Se  Se19  1  0.30021200  0.69978800  0.00000000  1
