# generated using pymatgen
data_Zr6Zn23Ge
_symmetry_space_group_name_H-M   'P 1'
_cell_length_a   8.81229422
_cell_length_b   8.81229422
_cell_length_c   8.81229422
_cell_angle_alpha   60.00000000
_cell_angle_beta   60.00000000
_cell_angle_gamma   60.00000000
_symmetry_Int_Tables_number   1
_chemical_formula_structural   Zr6Zn23Ge
_chemical_formula_sum   'Zr6 Zn23 Ge1'
_cell_volume   483.89592867
_cell_formula_units_Z   1
loop_
 _symmetry_equiv_pos_site_id
 _symmetry_equiv_pos_as_xyz
  1  'x, y, z'
loop_
 _atom_site_type_symbol
 _atom_site_label
 _atom_site_symmetry_multiplicity
 _atom_site_fract_x
 _atom_site_fract_y
 _atom_site_fract_z
 _atom_site_occupancy
  Zr  Zr0  1  0.71312000  0.28688000  0.28688000  1
  Zr  Zr1  1  0.28688000  0.71312000  0.71312000  1
  Zr  Zr2  1  0.28688000  0.71312000  0.28688000  1
  Zr  Zr3  1  0.71312000  0.28688000  0.71312000  1
  Zr  Zr4  1  0.28688000  0.28688000  0.71312000  1
  Zr  Zr5  1  0.71312000  0.71312000  0.28688000  1
  Zn  Zn6  1  0.12307200  0.12307200  0.12307200  1
  Zn  Zn7  1  0.87692800  0.87692800  0.87692800  1
  Zn  Zn8  1  0.12307200  0.12307200  0.63078300  1
  Zn  Zn9  1  0.12307200  0.63078300  0.12307200  1
  Zn  Zn10  1  0.87692800  0.87692800  0.36921700  1
  Zn  Zn11  1  0.87692800  0.36921700  0.87692800  1
  Zn  Zn12  1  0.63078300  0.12307200  0.12307200  1
  Zn  Zn13  1  0.36921700  0.87692800  0.87692800  1
  Zn  Zn14  1  0.50000000  0.00000000  0.00000000  1
  Zn  Zn15  1  0.00000000  0.50000000  0.50000000  1
  Zn  Zn16  1  0.00000000  0.50000000  0.00000000  1
  Zn  Zn17  1  0.50000000  0.00000000  0.50000000  1
  Zn  Zn18  1  0.00000000  0.00000000  0.50000000  1
  Zn  Zn19  1  0.50000000  0.50000000  0.00000000  1
  Zn  Zn20  1  0.33585600  0.33585600  0.33585600  1
  Zn  Zn21  1  0.66414400  0.66414400  0.66414400  1
  Zn  Zn22  1  0.33585600  0.33585600  0.99243300  1
  Zn  Zn23  1  0.33585600  0.99243300  0.33585600  1
  Zn  Zn24  1  0.66414400  0.66414400  0.00756700  1
  Zn  Zn25  1  0.66414400  0.00756700  0.66414400  1
  Zn  Zn26  1  0.99243300  0.33585600  0.33585600  1
  Zn  Zn27  1  0.00756700  0.66414400  0.66414400  1
  Zn  Zn28  1  0.00000000  0.00000000  0.00000000  1
  Ge  Ge29  1  0.50000000  0.50000000  0.50000000  1
