# generated using pymatgen
data_Sm3(AgGe)4
_symmetry_space_group_name_H-M   'P 1'
_cell_length_a   4.42148600
_cell_length_b   7.19349500
_cell_length_c   8.47282422
_cell_angle_alpha   115.11927398
_cell_angle_beta   105.12474769
_cell_angle_gamma   90.00000000
_symmetry_Int_Tables_number   1
_chemical_formula_structural   Sm3(AgGe)4
_chemical_formula_sum   'Sm3 Ag4 Ge4'
_cell_volume   233.64870641
_cell_formula_units_Z   1
loop_
 _symmetry_equiv_pos_site_id
 _symmetry_equiv_pos_as_xyz
  1  'x, y, z'
loop_
 _atom_site_type_symbol
 _atom_site_label
 _atom_site_symmetry_multiplicity
 _atom_site_fract_x
 _atom_site_fract_y
 _atom_site_fract_z
 _atom_site_occupancy
  Sm  Sm0  1  0.87259000  0.37259000  0.74518100  1
  Sm  Sm1  1  0.12741000  0.62741000  0.25481900  1
  Sm  Sm2  1  0.00000000  0.00000000  0.00000000  1
  Ag  Ag3  1  0.33117100  0.63618500  0.66234200  1
  Ag  Ag4  1  0.66882900  0.36381500  0.33765800  1
  Ag  Ag5  1  0.33117100  0.02615800  0.66234200  1
  Ag  Ag6  1  0.66882900  0.97384200  0.33765800  1
  Ge  Ge7  1  0.21654900  0.21654900  0.43309900  1
  Ge  Ge8  1  0.78345100  0.78345100  0.56690100  1
  Ge  Ge9  1  0.50000000  0.68235300  0.00000000  1
  Ge  Ge10  1  0.50000000  0.31764700  0.00000000  1
