# generated using pymatgen
data_CsCa10(PO4)7
_symmetry_space_group_name_H-M   'P 1'
_cell_length_a   13.93744791
_cell_length_b   13.93744791
_cell_length_c   13.93744788
_cell_angle_alpha   45.07607803
_cell_angle_beta   45.07607803
_cell_angle_gamma   45.07607778
_symmetry_Int_Tables_number   1
_chemical_formula_structural   CsCa10(PO4)7
_chemical_formula_sum   'Cs2 Ca20 P14 O56'
_cell_volume   1235.57390868
_cell_formula_units_Z   2
loop_
 _symmetry_equiv_pos_site_id
 _symmetry_equiv_pos_as_xyz
  1  'x, y, z'
loop_
 _atom_site_type_symbol
 _atom_site_label
 _atom_site_symmetry_multiplicity
 _atom_site_fract_x
 _atom_site_fract_y
 _atom_site_fract_z
 _atom_site_occupancy
  Cs  Cs0  1  0.66629000  0.66629000  0.66629000  1
  Cs  Cs1  1  0.16629000  0.16629000  0.16629000  1
  Ca  Ca2  1  0.98679300  0.98679300  0.98679300  1
  Ca  Ca3  1  0.48679300  0.48679300  0.48679300  1
  Ca  Ca4  1  0.04914500  0.64462100  0.06090400  1
  Ca  Ca5  1  0.06090400  0.04914500  0.64462100  1
  Ca  Ca6  1  0.64462100  0.06090400  0.04914500  1
  Ca  Ca7  1  0.56090400  0.14462100  0.54914500  1
  Ca  Ca8  1  0.54914500  0.56090400  0.14462100  1
  Ca  Ca9  1  0.14462100  0.54914500  0.56090400  1
  Ca  Ca10  1  0.83009200  0.43189400  0.40104600  1
  Ca  Ca11  1  0.40104600  0.83009200  0.43189400  1
  Ca  Ca12  1  0.43189400  0.40104600  0.83009200  1
  Ca  Ca13  1  0.90104600  0.93189400  0.33009200  1
  Ca  Ca14  1  0.33009200  0.90104600  0.93189400  1
  Ca  Ca15  1  0.93189400  0.33009200  0.90104600  1
  Ca  Ca16  1  0.05461200  0.43062200  0.45316100  1
  Ca  Ca17  1  0.45316100  0.05461200  0.43062200  1
  Ca  Ca18  1  0.43062200  0.45316100  0.05461200  1
  Ca  Ca19  1  0.95316100  0.93062200  0.55461200  1
  Ca  Ca20  1  0.55461200  0.95316100  0.93062200  1
  Ca  Ca21  1  0.93062200  0.55461200  0.95316100  1
  P  P22  1  0.25581000  0.25581000  0.25581000  1
  P  P23  1  0.75581000  0.75581000  0.75581000  1
  P  P24  1  0.67311300  0.71131300  0.17346900  1
  P  P25  1  0.17346900  0.67311300  0.71131300  1
  P  P26  1  0.71131300  0.17346900  0.67311300  1
  P  P27  1  0.67346900  0.21131300  0.17311300  1
  P  P28  1  0.17311300  0.67346900  0.21131300  1
  P  P29  1  0.21131300  0.17311300  0.67346900  1
  P  P30  1  0.76442300  0.80067700  0.29851000  1
  P  P31  1  0.29851000  0.76442300  0.80067700  1
  P  P32  1  0.80067700  0.29851000  0.76442300  1
  P  P33  1  0.79851000  0.30067700  0.26442300  1
  P  P34  1  0.26442300  0.79851000  0.30067700  1
  P  P35  1  0.30067700  0.26442300  0.79851000  1
  O  O36  1  0.29751500  0.29751500  0.29751500  1
  O  O37  1  0.79751500  0.79751500  0.79751500  1
  O  O38  1  0.09758900  0.37451800  0.25665900  1
  O  O39  1  0.25665900  0.09758900  0.37451800  1
  O  O40  1  0.37451800  0.25665900  0.09758900  1
  O  O41  1  0.75665900  0.87451800  0.59758900  1
  O  O42  1  0.59758900  0.75665900  0.87451800  1
  O  O43  1  0.87451800  0.59758900  0.75665900  1
  O  O44  1  0.60812400  0.63371700  0.34727800  1
  O  O45  1  0.34727800  0.60812400  0.63371700  1
  O  O46  1  0.63371700  0.34727800  0.60812400  1
  O  O47  1  0.84727800  0.13371700  0.10812400  1
  O  O48  1  0.10812400  0.84727800  0.13371700  1
  O  O49  1  0.13371700  0.10812400  0.84727800  1
  O  O50  1  0.58740100  0.88274400  0.12522000  1
  O  O51  1  0.12522000  0.58740100  0.88274400  1
  O  O52  1  0.88274400  0.12522000  0.58740100  1
  O  O53  1  0.62522000  0.38274400  0.08740100  1
  O  O54  1  0.08740100  0.62522000  0.38274400  1
  O  O55  1  0.38274400  0.08740100  0.62522000  1
  O  O56  1  0.65080000  0.67457000  0.10949700  1
  O  O57  1  0.10949700  0.65080000  0.67457000  1
  O  O58  1  0.67457000  0.10949700  0.65080000  1
  O  O59  1  0.60949700  0.17457000  0.15080000  1
  O  O60  1  0.15080000  0.60949700  0.17457000  1
  O  O61  1  0.17457000  0.15080000  0.60949700  1
  O  O62  1  0.84291900  0.65203500  0.11324000  1
  O  O63  1  0.11324000  0.84291900  0.65203500  1
  O  O64  1  0.65203500  0.11324000  0.84291900  1
  O  O65  1  0.61324000  0.15203500  0.34291900  1
  O  O66  1  0.34291900  0.61324000  0.15203500  1
  O  O67  1  0.15203500  0.34291900  0.61324000  1
  O  O68  1  0.59630200  0.87866300  0.33209800  1
  O  O69  1  0.33209800  0.59630200  0.87866300  1
  O  O70  1  0.87866300  0.33209800  0.59630200  1
  O  O71  1  0.83209800  0.37866300  0.09630200  1
  O  O72  1  0.09630200  0.83209800  0.37866300  1
  O  O73  1  0.37866300  0.09630200  0.83209800  1
  O  O74  1  0.85031600  0.85681900  0.12469300  1
  O  O75  1  0.12469300  0.85031600  0.85681900  1
  O  O76  1  0.85681900  0.12469300  0.85031600  1
  O  O77  1  0.62469300  0.35681900  0.35031600  1
  O  O78  1  0.35031600  0.62469300  0.35681900  1
  O  O79  1  0.35681900  0.35031600  0.62469300  1
  O  O80  1  0.83008600  0.62832000  0.36838500  1
  O  O81  1  0.36838500  0.83008600  0.62832000  1
  O  O82  1  0.62832000  0.36838500  0.83008600  1
  O  O83  1  0.86838500  0.12832000  0.33008600  1
  O  O84  1  0.33008600  0.86838500  0.12832000  1
  O  O85  1  0.12832000  0.33008600  0.86838500  1
  O  O86  1  0.77609700  0.85416800  0.35487000  1
  O  O87  1  0.35487000  0.77609700  0.85416800  1
  O  O88  1  0.85416800  0.35487000  0.77609700  1
  O  O89  1  0.85487000  0.35416800  0.27609700  1
  O  O90  1  0.27609700  0.85487000  0.35416800  1
  O  O91  1  0.35416800  0.27609700  0.85487000  1
