# generated using pymatgen
data_Tb(Co2B)6
_symmetry_space_group_name_H-M   'P 1'
_cell_length_a   5.95905690
_cell_length_b   5.95905690
_cell_length_c   5.95905666
_cell_angle_alpha   103.98969626
_cell_angle_beta   103.98969626
_cell_angle_gamma   103.98969579
_symmetry_Int_Tables_number   1
_chemical_formula_structural   Tb(Co2B)6
_chemical_formula_sum   'Tb1 Co12 B6'
_cell_volume   188.84399953
_cell_formula_units_Z   1
loop_
 _symmetry_equiv_pos_site_id
 _symmetry_equiv_pos_as_xyz
  1  'x, y, z'
loop_
 _atom_site_type_symbol
 _atom_site_label
 _atom_site_symmetry_multiplicity
 _atom_site_fract_x
 _atom_site_fract_y
 _atom_site_fract_z
 _atom_site_occupancy
  Tb  Tb0  1  0.00000000  0.00000000  0.00000000  1
  Co  Co1  1  0.13241900  0.86758100  0.50000000  1
  Co  Co2  1  0.50000000  0.13241900  0.86758100  1
  Co  Co3  1  0.86758100  0.50000000  0.13241900  1
  Co  Co4  1  0.50000000  0.86758100  0.13241900  1
  Co  Co5  1  0.13241900  0.50000000  0.86758100  1
  Co  Co6  1  0.86758100  0.13241900  0.50000000  1
  Co  Co7  1  0.54360900  0.81404400  0.54360900  1
  Co  Co8  1  0.54360900  0.54360900  0.81404400  1
  Co  Co9  1  0.81404400  0.54360900  0.54360900  1
  Co  Co10  1  0.45639100  0.18595600  0.45639100  1
  Co  Co11  1  0.45639100  0.45639100  0.18595600  1
  Co  Co12  1  0.18595600  0.45639100  0.45639100  1
  B  B13  1  0.76720500  0.32399900  0.76720500  1
  B  B14  1  0.76720500  0.76720500  0.32399900  1
  B  B15  1  0.32399900  0.76720500  0.76720500  1
  B  B16  1  0.23279500  0.67600100  0.23279500  1
  B  B17  1  0.23279500  0.23279500  0.67600100  1
  B  B18  1  0.67600100  0.23279500  0.23279500  1
