# generated using pymatgen
data_Sr3PbS4
_symmetry_space_group_name_H-M   'P 1'
_cell_length_a   4.28493700
_cell_length_b   6.05348800
_cell_length_c   8.57288200
_cell_angle_alpha   90.00000000
_cell_angle_beta   90.00000000
_cell_angle_gamma   90.00000000
_symmetry_Int_Tables_number   1
_chemical_formula_structural   Sr3PbS4
_chemical_formula_sum   'Sr3 Pb1 S4'
_cell_volume   222.37039773
_cell_formula_units_Z   1
loop_
 _symmetry_equiv_pos_site_id
 _symmetry_equiv_pos_as_xyz
  1  'x, y, z'
loop_
 _atom_site_type_symbol
 _atom_site_label
 _atom_site_symmetry_multiplicity
 _atom_site_fract_x
 _atom_site_fract_y
 _atom_site_fract_z
 _atom_site_occupancy
  Sr  Sr0  1  0.50000000  0.50000000  0.24823600  1
  Sr  Sr1  1  0.00000000  0.00000000  0.50000000  1
  Sr  Sr2  1  0.50000000  0.50000000  0.75176400  1
  Pb  Pb3  1  0.00000000  0.00000000  0.00000000  1
  S  S4  1  0.00000000  0.50000000  0.50000000  1
  S  S5  1  0.50000000  0.00000000  0.74806900  1
  S  S6  1  0.00000000  0.50000000  0.00000000  1
  S  S7  1  0.50000000  0.00000000  0.25193100  1
