# generated using pymatgen
data_Cs(ThSe3)2
_symmetry_space_group_name_H-M   'P 1'
_cell_length_a   12.67483054
_cell_length_b   12.67483054
_cell_length_c   12.67483054
_cell_angle_alpha   160.69536677
_cell_angle_beta   154.59130120
_cell_angle_gamma   32.10835940
_symmetry_Int_Tables_number   1
_chemical_formula_structural   Cs(ThSe3)2
_chemical_formula_sum   'Cs1 Th2 Se6'
_cell_volume   288.62112874
_cell_formula_units_Z   1
loop_
 _symmetry_equiv_pos_site_id
 _symmetry_equiv_pos_as_xyz
  1  'x, y, z'
loop_
 _atom_site_type_symbol
 _atom_site_label
 _atom_site_symmetry_multiplicity
 _atom_site_fract_x
 _atom_site_fract_y
 _atom_site_fract_z
 _atom_site_occupancy
  Cs  Cs0  1  0.50000000  0.00000000  0.50000000  1
  Th  Th1  1  0.68392400  0.18392400  0.50000000  1
  Th  Th2  1  0.31607600  0.81607600  0.50000000  1
  Se  Se3  1  0.77040300  0.77040300  0.00000000  1
  Se  Se4  1  0.22959700  0.22959700  0.00000000  1
  Se  Se5  1  0.86293900  0.61576100  0.24717800  1
  Se  Se6  1  0.13706100  0.38423900  0.75282200  1
  Se  Se7  1  0.63141600  0.38423900  0.24717800  1
  Se  Se8  1  0.36858400  0.61576100  0.75282200  1
