# generated using pymatgen
data_Mg2V2CoO8
_symmetry_space_group_name_H-M   'P 1'
_cell_length_a   6.11747803
_cell_length_b   6.56206678
_cell_length_c   8.40626800
_cell_angle_alpha   89.99993158
_cell_angle_beta   89.99994464
_cell_angle_gamma   62.22750464
_symmetry_Int_Tables_number   1
_chemical_formula_structural   Mg2V2CoO8
_chemical_formula_sum   'Mg4 V4 Co2 O16'
_cell_volume   298.58208477
_cell_formula_units_Z   2
loop_
 _symmetry_equiv_pos_site_id
 _symmetry_equiv_pos_as_xyz
  1  'x, y, z'
loop_
 _atom_site_type_symbol
 _atom_site_label
 _atom_site_symmetry_multiplicity
 _atom_site_fract_x
 _atom_site_fract_y
 _atom_site_fract_z
 _atom_site_occupancy
  Mg  Mg0  1  0.38480600  0.73038300  0.75001900  1
  Mg  Mg1  1  0.11519500  0.26961200  0.25001800  1
  Mg  Mg2  1  0.61519300  0.26961800  0.24998100  1
  Mg  Mg3  1  0.88480500  0.73038700  0.74998100  1
  V  V4  1  0.87950100  0.24092700  0.62020400  1
  V  V5  1  0.12049800  0.75907300  0.37979500  1
  V  V6  1  0.62049200  0.75907200  0.12020400  1
  V  V7  1  0.37950900  0.24092600  0.87979600  1
  Co  Co8  1  0.50000000  0.00000100  0.50000000  1
  Co  Co9  1  0.99999900  0.00000100  0.00000000  1
  O  O10  1  0.34700100  0.76649300  0.49995400  1
  O  O11  1  0.11332200  0.23361400  0.50007800  1
  O  O12  1  0.61334700  0.23359600  0.99992700  1
  O  O13  1  0.84699700  0.76647600  0.00004800  1
  O  O14  1  0.65300000  0.23350700  0.50004600  1
  O  O15  1  0.88667800  0.76638700  0.49992200  1
  O  O16  1  0.38665500  0.76640300  0.00007400  1
  O  O17  1  0.15300300  0.23352300  0.99995200  1
  O  O18  1  0.75102000  0.49791000  0.72714500  1
  O  O19  1  0.24898000  0.50209100  0.27285400  1
  O  O20  1  0.74897500  0.50209400  0.22714500  1
  O  O21  1  0.25102600  0.49790600  0.77285700  1
  O  O22  1  0.50312600  0.99385300  0.74561900  1
  O  O23  1  0.49687400  0.00614800  0.25438200  1
  O  O24  1  0.99687700  0.00614600  0.24561600  1
  O  O25  1  0.00312200  0.99385400  0.75438400  1
