# generated using pymatgen
data_SrP2PdO7
_symmetry_space_group_name_H-M   'P 1'
_cell_length_a   6.07359100
_cell_length_b   7.43671200
_cell_length_c   13.60641700
_cell_angle_alpha   90.00000000
_cell_angle_beta   90.00000000
_cell_angle_gamma   90.00000000
_symmetry_Int_Tables_number   1
_chemical_formula_structural   SrP2PdO7
_chemical_formula_sum   'Sr4 P8 Pd4 O28'
_cell_volume   614.56848034
_cell_formula_units_Z   4
loop_
 _symmetry_equiv_pos_site_id
 _symmetry_equiv_pos_as_xyz
  1  'x, y, z'
loop_
 _atom_site_type_symbol
 _atom_site_label
 _atom_site_symmetry_multiplicity
 _atom_site_fract_x
 _atom_site_fract_y
 _atom_site_fract_z
 _atom_site_occupancy
  Sr  Sr0  1  0.25000000  0.74337200  0.24199100  1
  Sr  Sr1  1  0.75000000  0.25662800  0.75800900  1
  Sr  Sr2  1  0.75000000  0.24337200  0.25800900  1
  Sr  Sr3  1  0.25000000  0.75662800  0.74199100  1
  P  P4  1  0.25000000  0.28416700  0.12221600  1
  P  P5  1  0.75000000  0.71583300  0.87778400  1
  P  P6  1  0.75000000  0.78416700  0.37778400  1
  P  P7  1  0.25000000  0.21583300  0.62221600  1
  P  P8  1  0.25000000  0.17707400  0.41074300  1
  P  P9  1  0.75000000  0.82292600  0.58925700  1
  P  P10  1  0.75000000  0.67707400  0.08925700  1
  P  P11  1  0.25000000  0.32292600  0.91074300  1
  Pd  Pd12  1  0.00000000  0.00000000  0.00000000  1
  Pd  Pd13  1  0.00000000  0.50000000  0.50000000  1
  Pd  Pd14  1  0.50000000  0.00000000  0.00000000  1
  Pd  Pd15  1  0.50000000  0.50000000  0.50000000  1
  O  O16  1  0.25000000  0.02620600  0.33839600  1
  O  O17  1  0.75000000  0.97379400  0.66160400  1
  O  O18  1  0.75000000  0.52620600  0.16160400  1
  O  O19  1  0.25000000  0.47379400  0.83839600  1
  O  O20  1  0.25000000  0.40332600  0.02237200  1
  O  O21  1  0.75000000  0.59667400  0.97762800  1
  O  O22  1  0.75000000  0.90332600  0.47762800  1
  O  O23  1  0.25000000  0.09667400  0.52237200  1
  O  O24  1  0.25000000  0.41035700  0.20813200  1
  O  O25  1  0.75000000  0.58964300  0.79186800  1
  O  O26  1  0.75000000  0.91035700  0.29186800  1
  O  O27  1  0.25000000  0.08964300  0.70813200  1
  O  O28  1  0.03445700  0.29055700  0.40304600  1
  O  O29  1  0.96554300  0.70944300  0.59695400  1
  O  O30  1  0.96554300  0.79055700  0.09695400  1
  O  O31  1  0.53445700  0.70944300  0.59695400  1
  O  O32  1  0.03445700  0.20944300  0.90304600  1
  O  O33  1  0.46554300  0.29055700  0.40304600  1
  O  O34  1  0.46554300  0.20944300  0.90304600  1
  O  O35  1  0.53445700  0.79055700  0.09695400  1
  O  O36  1  0.03767700  0.16593700  0.12028400  1
  O  O37  1  0.96232300  0.83406300  0.87971600  1
  O  O38  1  0.96232300  0.66593700  0.37971600  1
  O  O39  1  0.53767700  0.83406300  0.87971600  1
  O  O40  1  0.03767700  0.33406300  0.62028400  1
  O  O41  1  0.46232300  0.16593700  0.12028400  1
  O  O42  1  0.46232300  0.33406300  0.62028400  1
  O  O43  1  0.53767700  0.66593700  0.37971600  1
