# generated using pymatgen
data_KNb3(SeO6)2
_symmetry_space_group_name_H-M   'P 1'
_cell_length_a   4.07274700
_cell_length_b   15.18150800
_cell_length_c   17.54971000
_cell_angle_alpha   90.00000000
_cell_angle_beta   90.00000000
_cell_angle_gamma   90.00000000
_symmetry_Int_Tables_number   1
_chemical_formula_structural   KNb3(SeO6)2
_chemical_formula_sum   'K4 Nb12 Se8 O48'
_cell_volume   1085.10631157
_cell_formula_units_Z   4
loop_
 _symmetry_equiv_pos_site_id
 _symmetry_equiv_pos_as_xyz
  1  'x, y, z'
loop_
 _atom_site_type_symbol
 _atom_site_label
 _atom_site_symmetry_multiplicity
 _atom_site_fract_x
 _atom_site_fract_y
 _atom_site_fract_z
 _atom_site_occupancy
  K  K0  1  0.20058800  0.06712800  0.75000000  1
  K  K1  1  0.79941200  0.93287200  0.25000000  1
  K  K2  1  0.20058800  0.43287200  0.25000000  1
  K  K3  1  0.79941200  0.56712800  0.75000000  1
  Nb  Nb4  1  0.26294800  0.78882400  0.75000000  1
  Nb  Nb5  1  0.73705200  0.21117600  0.25000000  1
  Nb  Nb6  1  0.26294800  0.71117600  0.25000000  1
  Nb  Nb7  1  0.73705200  0.28882400  0.75000000  1
  Nb  Nb8  1  0.74206500  0.14831400  0.56667500  1
  Nb  Nb9  1  0.25793500  0.85168600  0.06667500  1
  Nb  Nb10  1  0.74206500  0.35168600  0.43332500  1
  Nb  Nb11  1  0.25793500  0.64831400  0.93332500  1
  Nb  Nb12  1  0.25793500  0.85168600  0.43332500  1
  Nb  Nb13  1  0.74206500  0.14831400  0.93332500  1
  Nb  Nb14  1  0.25793500  0.64831400  0.56667500  1
  Nb  Nb15  1  0.74206500  0.35168600  0.06667500  1
  Se  Se16  1  0.58849800  0.91878300  0.60131400  1
  Se  Se17  1  0.41150200  0.08121700  0.10131400  1
  Se  Se18  1  0.58849800  0.58121700  0.39868600  1
  Se  Se19  1  0.41150200  0.41878300  0.89868600  1
  Se  Se20  1  0.41150200  0.08121700  0.39868600  1
  Se  Se21  1  0.58849800  0.91878300  0.89868600  1
  Se  Se22  1  0.41150200  0.41878300  0.60131400  1
  Se  Se23  1  0.58849800  0.58121700  0.10131400  1
  O  O24  1  0.30252700  0.93247000  0.52890300  1
  O  O25  1  0.69747300  0.06753000  0.02890300  1
  O  O26  1  0.30252700  0.56753000  0.47109700  1
  O  O27  1  0.69747300  0.43247000  0.97109700  1
  O  O28  1  0.69747300  0.06753000  0.47109700  1
  O  O29  1  0.30252700  0.93247000  0.97109700  1
  O  O30  1  0.69747300  0.43247000  0.52890300  1
  O  O31  1  0.30252700  0.56753000  0.02890300  1
  O  O32  1  0.67270800  0.02659600  0.62779900  1
  O  O33  1  0.32729200  0.97340400  0.12779900  1
  O  O34  1  0.67270800  0.47340400  0.37220100  1
  O  O35  1  0.32729200  0.52659600  0.87220100  1
  O  O36  1  0.32729200  0.97340400  0.37220100  1
  O  O37  1  0.67270800  0.02659600  0.87220100  1
  O  O38  1  0.32729200  0.52659600  0.62779900  1
  O  O39  1  0.67270800  0.47340400  0.12779900  1
  O  O40  1  0.30948500  0.89565200  0.67319900  1
  O  O41  1  0.69051500  0.10434800  0.17319900  1
  O  O42  1  0.30948500  0.60434800  0.32680100  1
  O  O43  1  0.69051500  0.39565200  0.82680100  1
  O  O44  1  0.69051500  0.10434800  0.32680100  1
  O  O45  1  0.30948500  0.89565200  0.82680100  1
  O  O46  1  0.69051500  0.39565200  0.67319900  1
  O  O47  1  0.30948500  0.60434800  0.17319900  1
  O  O48  1  0.31312200  0.70360000  0.66767000  1
  O  O49  1  0.68687800  0.29640000  0.16767000  1
  O  O50  1  0.31312200  0.79640000  0.33233000  1
  O  O51  1  0.68687800  0.20360000  0.83233000  1
  O  O52  1  0.68687800  0.29640000  0.33233000  1
  O  O53  1  0.31312200  0.70360000  0.83233000  1
  O  O54  1  0.68687800  0.20360000  0.66767000  1
  O  O55  1  0.31312200  0.79640000  0.16767000  1
  O  O56  1  0.81412800  0.79657700  0.75000000  1
  O  O57  1  0.18587200  0.20342300  0.25000000  1
  O  O58  1  0.81412800  0.70342300  0.25000000  1
  O  O59  1  0.18587200  0.29657700  0.75000000  1
  O  O60  1  0.68589500  0.25000000  0.50000000  1
  O  O61  1  0.31410500  0.75000000  0.00000000  1
  O  O62  1  0.31410500  0.75000000  0.50000000  1
  O  O63  1  0.68589500  0.25000000  0.00000000  1
  O  O64  1  0.18778300  0.14246400  0.56724300  1
  O  O65  1  0.81221700  0.85753600  0.06724300  1
  O  O66  1  0.18778300  0.35753600  0.43275700  1
  O  O67  1  0.81221700  0.64246400  0.93275700  1
  O  O68  1  0.81221700  0.85753600  0.43275700  1
  O  O69  1  0.18778300  0.14246400  0.93275700  1
  O  O70  1  0.81221700  0.64246400  0.56724300  1
  O  O71  1  0.18778300  0.35753600  0.06724300  1
