# generated using pymatgen
data_Th5C
_symmetry_space_group_name_H-M   'P 1'
_cell_length_a   15.15597772
_cell_length_b   15.15597772
_cell_length_c   15.15597789
_cell_angle_alpha   13.59247211
_cell_angle_beta   13.59247211
_cell_angle_gamma   13.59247013
_symmetry_Int_Tables_number   1
_chemical_formula_structural   Th5C
_chemical_formula_sum   'Th5 C1'
_cell_volume   167.30287291
_cell_formula_units_Z   1
loop_
 _symmetry_equiv_pos_site_id
 _symmetry_equiv_pos_as_xyz
  1  'x, y, z'
loop_
 _atom_site_type_symbol
 _atom_site_label
 _atom_site_symmetry_multiplicity
 _atom_site_fract_x
 _atom_site_fract_y
 _atom_site_fract_z
 _atom_site_occupancy
  Th  Th0  1  0.60184400  0.60184400  0.60184400  1
  Th  Th1  1  0.00000000  0.00000000  0.00000000  1
  Th  Th2  1  0.39815600  0.39815600  0.39815600  1
  Th  Th3  1  0.20028000  0.20028000  0.20028000  1
  Th  Th4  1  0.79972000  0.79972000  0.79972000  1
  C  C5  1  0.50000000  0.50000000  0.50000000  1
