# generated using pymatgen
data_RbVSe2
_symmetry_space_group_name_H-M   'P 1'
_cell_length_a   14.43345225
_cell_length_b   12.95499339
_cell_length_c   7.56275022
_cell_angle_alpha   85.11027439
_cell_angle_beta   63.41873444
_cell_angle_gamma   31.47099117
_symmetry_Int_Tables_number   1
_chemical_formula_structural   RbVSe2
_chemical_formula_sum   'Rb4 V4 Se8'
_cell_volume   510.11139986
_cell_formula_units_Z   4
loop_
 _symmetry_equiv_pos_site_id
 _symmetry_equiv_pos_as_xyz
  1  'x, y, z'
loop_
 _atom_site_type_symbol
 _atom_site_label
 _atom_site_symmetry_multiplicity
 _atom_site_fract_x
 _atom_site_fract_y
 _atom_site_fract_z
 _atom_site_occupancy
  Rb  Rb0  1  0.67677400  0.67677400  0.32322600  1
  Rb  Rb1  1  0.32322600  0.32322600  0.67677400  1
  Rb  Rb2  1  0.57322600  0.57322600  0.92677400  1
  Rb  Rb3  1  0.92677400  0.92677400  0.57322600  1
  V  V4  1  0.50000000  0.50000000  0.50000000  1
  V  V5  1  0.75000000  0.75000000  0.75000000  1
  V  V6  1  0.00000000  0.00000000  0.00000000  1
  V  V7  1  0.25000000  0.25000000  0.25000000  1
  Se  Se8  1  0.35158000  0.04330900  0.95557400  1
  Se  Se9  1  0.64953600  0.95557400  0.04330900  1
  Se  Se10  1  0.95557400  0.64953600  0.35158000  1
  Se  Se11  1  0.04330900  0.35158000  0.64953600  1
  Se  Se12  1  0.89842000  0.20669100  0.29442600  1
  Se  Se13  1  0.60046400  0.29442600  0.20669100  1
  Se  Se14  1  0.29442600  0.60046400  0.89842000  1
  Se  Se15  1  0.20669100  0.89842000  0.60046400  1
