# generated using pymatgen
data_Ca2Al2Sn2O9
_symmetry_space_group_name_H-M   'P 1'
_cell_length_a   5.56153100
_cell_length_b   9.09950600
_cell_length_c   15.08608500
_cell_angle_alpha   90.00000000
_cell_angle_beta   90.00000000
_cell_angle_gamma   90.00000000
_symmetry_Int_Tables_number   1
_chemical_formula_structural   Ca2Al2Sn2O9
_chemical_formula_sum   'Ca8 Al8 Sn8 O36'
_cell_volume   763.46429005
_cell_formula_units_Z   4
loop_
 _symmetry_equiv_pos_site_id
 _symmetry_equiv_pos_as_xyz
  1  'x, y, z'
loop_
 _atom_site_type_symbol
 _atom_site_label
 _atom_site_symmetry_multiplicity
 _atom_site_fract_x
 _atom_site_fract_y
 _atom_site_fract_z
 _atom_site_occupancy
  Ca  Ca0  1  0.13769900  0.56730500  0.14576100  1
  Ca  Ca1  1  0.36230100  0.93269500  0.64576100  1
  Ca  Ca2  1  0.36230100  0.06730500  0.85423900  1
  Ca  Ca3  1  0.13769900  0.43269500  0.35423900  1
  Ca  Ca4  1  0.86230100  0.43269500  0.85423900  1
  Ca  Ca5  1  0.63769900  0.06730500  0.35423900  1
  Ca  Ca6  1  0.63769900  0.93269500  0.14576100  1
  Ca  Ca7  1  0.86230100  0.56730500  0.64576100  1
  Al  Al8  1  0.18995800  0.84331100  0.02838900  1
  Al  Al9  1  0.31004200  0.65668900  0.52838900  1
  Al  Al10  1  0.31004200  0.34331100  0.97161100  1
  Al  Al11  1  0.18995800  0.15668900  0.47161100  1
  Al  Al12  1  0.81004200  0.15668900  0.97161100  1
  Al  Al13  1  0.68995800  0.34331100  0.47161100  1
  Al  Al14  1  0.68995800  0.65668900  0.02838900  1
  Al  Al15  1  0.81004200  0.84331100  0.52838900  1
  Sn  Sn16  1  0.13394400  0.84485500  0.33406500  1
  Sn  Sn17  1  0.36605600  0.65514500  0.83406500  1
  Sn  Sn18  1  0.36605600  0.34485500  0.66593500  1
  Sn  Sn19  1  0.13394400  0.15514500  0.16593500  1
  Sn  Sn20  1  0.86605600  0.15514500  0.66593500  1
  Sn  Sn21  1  0.63394400  0.34485500  0.16593500  1
  Sn  Sn22  1  0.63394400  0.65514500  0.33406500  1
  Sn  Sn23  1  0.86605600  0.84485500  0.83406500  1
  O  O24  1  0.30758800  0.66090900  0.40956400  1
  O  O25  1  0.19241200  0.83909100  0.90956400  1
  O  O26  1  0.19241200  0.16090900  0.59043600  1
  O  O27  1  0.30758800  0.33909100  0.09043600  1
  O  O28  1  0.69241200  0.33909100  0.59043600  1
  O  O29  1  0.80758800  0.16090900  0.09043600  1
  O  O30  1  0.80758800  0.83909100  0.40956400  1
  O  O31  1  0.69241200  0.66090900  0.90956400  1
  O  O32  1  0.41959900  0.72790300  0.07157500  1
  O  O33  1  0.08040100  0.77209700  0.57157500  1
  O  O34  1  0.08040100  0.22790300  0.92842500  1
  O  O35  1  0.41959900  0.27209700  0.42842500  1
  O  O36  1  0.58040100  0.27209700  0.92842500  1
  O  O37  1  0.91959900  0.22790300  0.42842500  1
  O  O38  1  0.91959900  0.77209700  0.07157500  1
  O  O39  1  0.58040100  0.72790300  0.57157500  1
  O  O40  1  0.46470600  0.83279000  0.27180500  1
  O  O41  1  0.03529400  0.66721000  0.77180500  1
  O  O42  1  0.03529400  0.33279000  0.72819500  1
  O  O43  1  0.46470600  0.16721000  0.22819500  1
  O  O44  1  0.53529400  0.16721000  0.72819500  1
  O  O45  1  0.96470600  0.33279000  0.22819500  1
  O  O46  1  0.96470600  0.66721000  0.27180500  1
  O  O47  1  0.53529400  0.83279000  0.77180500  1
  O  O48  1  0.27152000  0.01442300  0.07355700  1
  O  O49  1  0.22848000  0.48557700  0.57355700  1
  O  O50  1  0.22848000  0.51442300  0.92644300  1
  O  O51  1  0.27152000  0.98557700  0.42644300  1
  O  O52  1  0.72848000  0.98557700  0.92644300  1
  O  O53  1  0.77152000  0.51442300  0.42644300  1
  O  O54  1  0.77152000  0.48557700  0.07355700  1
  O  O55  1  0.72848000  0.01442300  0.57355700  1
  O  O56  1  0.47149100  0.50000000  0.25000000  1
  O  O57  1  0.02850900  0.00000000  0.75000000  1
  O  O58  1  0.52850900  0.50000000  0.75000000  1
  O  O59  1  0.97149100  0.00000000  0.25000000  1
