# generated using pymatgen
data_KP2WO8
_symmetry_space_group_name_H-M   'P 1'
_cell_length_a   5.16968712
_cell_length_b   11.79568042
_cell_length_c   12.03318500
_cell_angle_alpha   90.00000000
_cell_angle_beta   90.00000000
_cell_angle_gamma   91.25410570
_symmetry_Int_Tables_number   1
_chemical_formula_structural   KP2WO8
_chemical_formula_sum   'K4 P8 W4 O32'
_cell_volume   733.60757660
_cell_formula_units_Z   4
loop_
 _symmetry_equiv_pos_site_id
 _symmetry_equiv_pos_as_xyz
  1  'x, y, z'
loop_
 _atom_site_type_symbol
 _atom_site_label
 _atom_site_symmetry_multiplicity
 _atom_site_fract_x
 _atom_site_fract_y
 _atom_site_fract_z
 _atom_site_occupancy
  K  K0  1  0.73526500  0.05025000  0.62714100  1
  K  K1  1  0.23526400  0.55025000  0.87285800  1
  K  K2  1  0.26473600  0.94975000  0.37285900  1
  K  K3  1  0.76473500  0.44975000  0.12714200  1
  P  P4  1  0.74261600  0.13256900  0.93449200  1
  P  P5  1  0.24261700  0.63256900  0.56550800  1
  P  P6  1  0.25738300  0.86743100  0.06550800  1
  P  P7  1  0.75738400  0.36743100  0.43449200  1
  P  P8  1  0.73606300  0.34751400  0.80640000  1
  P  P9  1  0.76393700  0.15248600  0.30640000  1
  P  P10  1  0.26393800  0.65248600  0.19360000  1
  P  P11  1  0.23606400  0.84751400  0.69360000  1
  W  W12  1  0.24221300  0.33446800  0.61845300  1
  W  W13  1  0.25778600  0.16553200  0.11845200  1
  W  W14  1  0.75778600  0.66553200  0.38154700  1
  W  W15  1  0.74221500  0.83446800  0.88154800  1
  O  O16  1  0.77560500  0.41299400  0.91124400  1
  O  O17  1  0.72439500  0.08700600  0.41124400  1
  O  O18  1  0.22439400  0.58700700  0.08875700  1
  O  O19  1  0.27560600  0.91299300  0.58875600  1
  O  O20  1  0.77651100  0.21121900  0.82554000  1
  O  O21  1  0.72349000  0.28878200  0.32554100  1
  O  O22  1  0.22348800  0.78878100  0.17446000  1
  O  O23  1  0.27651100  0.71121800  0.67445900  1
  O  O24  1  0.30226900  0.51520800  0.60897100  1
  O  O25  1  0.19773000  0.98479200  0.10897000  1
  O  O26  1  0.69773000  0.48479200  0.39102900  1
  O  O27  1  0.80227100  0.01520800  0.89103000  1
  O  O28  1  0.03915700  0.35619700  0.47249500  1
  O  O29  1  0.46084300  0.14380300  0.97249500  1
  O  O30  1  0.96084400  0.64380300  0.52750500  1
  O  O31  1  0.53915600  0.85619700  0.02750600  1
  O  O32  1  0.69320800  0.68702400  0.87186100  1
  O  O33  1  0.80679200  0.81297600  0.37186100  1
  O  O34  1  0.30679100  0.31297600  0.12813900  1
  O  O35  1  0.19320900  0.18702400  0.62813900  1
  O  O36  1  0.95590400  0.85566800  0.73841500  1
  O  O37  1  0.54409600  0.64433200  0.23841500  1
  O  O38  1  0.04409700  0.14433200  0.26158500  1
  O  O39  1  0.45590500  0.35566800  0.76158500  1
  O  O40  1  0.57148600  0.32345300  0.52382600  1
  O  O41  1  0.07036900  0.62220800  0.28675600  1
  O  O42  1  0.57037000  0.12220800  0.21324400  1
  O  O43  1  0.92963000  0.37779300  0.71324400  1
  O  O44  1  0.07148700  0.82345300  0.97617400  1
  O  O45  1  0.42851300  0.67654700  0.47617400  1
  O  O46  1  0.92851400  0.17654700  0.02382600  1
  O  O47  1  0.42963100  0.87779200  0.78675600  1
