# generated using pymatgen
data_Tb2CrSbO7
_symmetry_space_group_name_H-M   'P 1'
_cell_length_a   7.29295643
_cell_length_b   7.29295643
_cell_length_c   7.29295643
_cell_angle_alpha   120.22307859
_cell_angle_beta   119.37905180
_cell_angle_gamma   90.34645678
_symmetry_Int_Tables_number   1
_chemical_formula_structural   Tb2CrSbO7
_chemical_formula_sum   'Tb4 Cr2 Sb2 O14'
_cell_volume   275.08185569
_cell_formula_units_Z   2
loop_
 _symmetry_equiv_pos_site_id
 _symmetry_equiv_pos_as_xyz
  1  'x, y, z'
loop_
 _atom_site_type_symbol
 _atom_site_label
 _atom_site_symmetry_multiplicity
 _atom_site_fract_x
 _atom_site_fract_y
 _atom_site_fract_z
 _atom_site_occupancy
  Tb  Tb0  1  0.00000000  0.00000000  0.50000000  1
  Tb  Tb1  1  0.00000000  0.50000000  0.00000000  1
  Tb  Tb2  1  0.00000000  0.00000000  0.00000000  1
  Tb  Tb3  1  0.50000000  0.00000000  0.50000000  1
  Cr  Cr4  1  0.50000000  0.50000000  0.50000000  1
  Cr  Cr5  1  0.50000000  0.00000000  0.00000000  1
  Sb  Sb6  1  0.50000000  0.50000000  0.00000000  1
  Sb  Sb7  1  0.00000000  0.50000000  0.50000000  1
  O  O8  1  0.12233100  0.87233100  0.25000000  1
  O  O9  1  0.87766900  0.12766900  0.75000000  1
  O  O10  1  0.40990000  0.15990000  0.25000000  1
  O  O11  1  0.83180500  0.58180500  0.25000000  1
  O  O12  1  0.41189900  0.57865100  0.24250700  1
  O  O13  1  0.83614500  0.16939200  0.25749300  1
  O  O14  1  0.41189900  0.16939200  0.83324700  1
  O  O15  1  0.83614500  0.57865100  0.66675300  1
  O  O16  1  0.59010000  0.84010000  0.75000000  1
  O  O17  1  0.16819500  0.41819500  0.75000000  1
  O  O18  1  0.58810100  0.42134900  0.75749300  1
  O  O19  1  0.16385500  0.83060800  0.74250700  1
  O  O20  1  0.58810100  0.83060800  0.16675300  1
  O  O21  1  0.16385500  0.42134900  0.33324700  1
