# generated using pymatgen
data_Sr2NiIrO6
_symmetry_space_group_name_H-M   'P 1'
_cell_length_a   5.64343295
_cell_length_b   5.64343295
_cell_length_c   5.64343295
_cell_angle_alpha   120.41399779
_cell_angle_beta   120.41399779
_cell_angle_gamma   89.28441813
_symmetry_Int_Tables_number   1
_chemical_formula_structural   Sr2NiIrO6
_chemical_formula_sum   'Sr2 Ni1 Ir1 O6'
_cell_volume   126.28513279
_cell_formula_units_Z   1
loop_
 _symmetry_equiv_pos_site_id
 _symmetry_equiv_pos_as_xyz
  1  'x, y, z'
loop_
 _atom_site_type_symbol
 _atom_site_label
 _atom_site_symmetry_multiplicity
 _atom_site_fract_x
 _atom_site_fract_y
 _atom_site_fract_z
 _atom_site_occupancy
  Sr  Sr0  1  0.25000000  0.75000000  0.50000000  1
  Sr  Sr1  1  0.75000000  0.25000000  0.50000000  1
  Ni  Ni2  1  0.00000000  0.00000000  0.00000000  1
  Ir  Ir3  1  0.50000000  0.50000000  0.00000000  1
  O  O4  1  0.25646600  0.25646600  0.00000000  1
  O  O5  1  0.74353400  0.74353400  0.00000000  1
  O  O6  1  0.22278000  0.28961100  0.51239200  1
  O  O7  1  0.77722000  0.71038900  0.48760800  1
  O  O8  1  0.28961100  0.77722000  0.06683100  1
  O  O9  1  0.71038900  0.22278000  0.93316900  1
