# generated using pymatgen
data_Rb3Bi2Br9
_symmetry_space_group_name_H-M   'P 1'
_cell_length_a   8.15905800
_cell_length_b   13.95659700
_cell_length_c   19.77903477
_cell_angle_alpha   89.43880101
_cell_angle_beta   90.00000000
_cell_angle_gamma   90.00000000
_symmetry_Int_Tables_number   1
_chemical_formula_structural   Rb3Bi2Br9
_chemical_formula_sum   'Rb12 Bi8 Br36'
_cell_volume   2252.18374523
_cell_formula_units_Z   4
loop_
 _symmetry_equiv_pos_site_id
 _symmetry_equiv_pos_as_xyz
  1  'x, y, z'
loop_
 _atom_site_type_symbol
 _atom_site_label
 _atom_site_symmetry_multiplicity
 _atom_site_fract_x
 _atom_site_fract_y
 _atom_site_fract_z
 _atom_site_occupancy
  Rb  Rb0  1  0.54130900  0.48808900  0.24493500  1
  Rb  Rb1  1  0.04130900  0.01191100  0.75506500  1
  Rb  Rb2  1  0.45869100  0.51191100  0.75506500  1
  Rb  Rb3  1  0.95869100  0.98808900  0.24493500  1
  Rb  Rb4  1  0.44851100  0.15553300  0.07936700  1
  Rb  Rb5  1  0.94851100  0.34446700  0.92063300  1
  Rb  Rb6  1  0.55148900  0.84446700  0.92063300  1
  Rb  Rb7  1  0.05148900  0.65553300  0.07936700  1
  Rb  Rb8  1  0.55904100  0.18060200  0.57264600  1
  Rb  Rb9  1  0.05904100  0.31939800  0.42735400  1
  Rb  Rb10  1  0.44095900  0.81939800  0.42735400  1
  Rb  Rb11  1  0.94095900  0.68060200  0.57264600  1
  Bi  Bi12  1  0.49124900  0.84047800  0.65818000  1
  Bi  Bi13  1  0.99124900  0.65952200  0.34182000  1
  Bi  Bi14  1  0.50875100  0.15952200  0.34182000  1
  Bi  Bi15  1  0.00875100  0.34047800  0.65818000  1
  Bi  Bi16  1  0.49855500  0.82641100  0.15910400  1
  Bi  Bi17  1  0.99855500  0.67358900  0.84089600  1
  Bi  Bi18  1  0.50144500  0.17358900  0.84089600  1
  Bi  Bi19  1  0.00144500  0.32641100  0.15910400  1
  Br  Br20  1  0.48239700  0.03971600  0.71995200  1
  Br  Br21  1  0.98239700  0.46028400  0.28004800  1
  Br  Br22  1  0.51760300  0.96028400  0.28004800  1
  Br  Br23  1  0.01760300  0.53971600  0.71995200  1
  Br  Br24  1  0.30525300  0.77038900  0.78297000  1
  Br  Br25  1  0.80525300  0.72961100  0.21703000  1
  Br  Br26  1  0.69474700  0.22961100  0.21703000  1
  Br  Br27  1  0.19474700  0.27038900  0.78297000  1
  Br  Br28  1  0.20321200  0.19790900  0.25326700  1
  Br  Br29  1  0.70321200  0.30209100  0.74673300  1
  Br  Br30  1  0.79678800  0.80209100  0.74673300  1
  Br  Br31  1  0.29678800  0.69790900  0.25326700  1
  Br  Br32  1  0.50503900  0.31512800  0.93710900  1
  Br  Br33  1  0.00503900  0.18487200  0.06289100  1
  Br  Br34  1  0.49496100  0.68487200  0.06289100  1
  Br  Br35  1  0.99496100  0.81512800  0.93710900  1
  Br  Br36  1  0.50032500  0.34073400  0.39751000  1
  Br  Br37  1  0.00032500  0.15926600  0.60249000  1
  Br  Br38  1  0.49967500  0.65926600  0.60249000  1
  Br  Br39  1  0.99967500  0.84073400  0.39751000  1
  Br  Br40  1  0.72191200  0.58578200  0.89386600  1
  Br  Br41  1  0.22191200  0.91421800  0.10613400  1
  Br  Br42  1  0.27808800  0.41421800  0.10613400  1
  Br  Br43  1  0.77808800  0.08578200  0.89386600  1
  Br  Br44  1  0.79440500  0.44470500  0.08404100  1
  Br  Br45  1  0.29440500  0.05529500  0.91595900  1
  Br  Br46  1  0.20559500  0.55529500  0.91595900  1
  Br  Br47  1  0.70559500  0.94470500  0.08404100  1
  Br  Br48  1  0.70746600  0.61262300  0.41056100  1
  Br  Br49  1  0.20746600  0.88737700  0.58943900  1
  Br  Br50  1  0.29253400  0.38737700  0.58943900  1
  Br  Br51  1  0.79253400  0.11262300  0.41056100  1
  Br  Br52  1  0.80381100  0.41262300  0.55826400  1
  Br  Br53  1  0.30381100  0.08737700  0.44173600  1
  Br  Br54  1  0.19618900  0.58737700  0.44173600  1
  Br  Br55  1  0.69618900  0.91262300  0.55826400  1
