# generated using pymatgen
data_RbEr2Cu3S5
_symmetry_space_group_name_H-M   'P 1'
_cell_length_a   7.22942196
_cell_length_b   7.22942196
_cell_length_c   16.43336000
_cell_angle_alpha   90.00000000
_cell_angle_beta   90.00000000
_cell_angle_gamma   148.43081666
_symmetry_Int_Tables_number   1
_chemical_formula_structural   RbEr2Cu3S5
_chemical_formula_sum   'Rb2 Er4 Cu6 S10'
_cell_volume   449.64855752
_cell_formula_units_Z   2
loop_
 _symmetry_equiv_pos_site_id
 _symmetry_equiv_pos_as_xyz
  1  'x, y, z'
loop_
 _atom_site_type_symbol
 _atom_site_label
 _atom_site_symmetry_multiplicity
 _atom_site_fract_x
 _atom_site_fract_y
 _atom_site_fract_z
 _atom_site_occupancy
  Rb  Rb0  1  0.56547700  0.43452300  0.75000000  1
  Rb  Rb1  1  0.43452300  0.56547700  0.25000000  1
  Er  Er2  1  0.30791800  0.69208200  0.59285700  1
  Er  Er3  1  0.69208200  0.30791800  0.40714300  1
  Er  Er4  1  0.30791800  0.69208200  0.90714300  1
  Er  Er5  1  0.69208200  0.30791800  0.09285700  1
  Cu  Cu6  1  0.08398800  0.91601200  0.96344400  1
  Cu  Cu7  1  0.91601200  0.08398800  0.03655600  1
  Cu  Cu8  1  0.91601200  0.08398800  0.46344400  1
  Cu  Cu9  1  0.84528300  0.15471700  0.75000000  1
  Cu  Cu10  1  0.15471700  0.84528300  0.25000000  1
  Cu  Cu11  1  0.08398800  0.91601200  0.53655600  1
  S  S12  1  0.66833900  0.33166100  0.56939900  1
  S  S13  1  0.33166100  0.66833900  0.43060100  1
  S  S14  1  0.33166100  0.66833900  0.06939900  1
  S  S15  1  0.66833900  0.33166100  0.93060100  1
  S  S16  1  0.73817500  0.26182500  0.25000000  1
  S  S17  1  0.26182500  0.73817500  0.75000000  1
  S  S18  1  0.06190100  0.93809900  0.11330200  1
  S  S19  1  0.06190100  0.93809900  0.38669800  1
  S  S20  1  0.93809900  0.06190100  0.88669800  1
  S  S21  1  0.93809900  0.06190100  0.61330200  1
