# generated using pymatgen
data_GaSeCl
_symmetry_space_group_name_H-M   'P 1'
_cell_length_a   3.86114200
_cell_length_b   5.66107300
_cell_length_c   15.69324500
_cell_angle_alpha   90.00000000
_cell_angle_beta   90.00000000
_cell_angle_gamma   90.00000000
_symmetry_Int_Tables_number   1
_chemical_formula_structural   GaSeCl
_chemical_formula_sum   'Ga4 Se4 Cl4'
_cell_volume   343.02619340
_cell_formula_units_Z   4
loop_
 _symmetry_equiv_pos_site_id
 _symmetry_equiv_pos_as_xyz
  1  'x, y, z'
loop_
 _atom_site_type_symbol
 _atom_site_label
 _atom_site_symmetry_multiplicity
 _atom_site_fract_x
 _atom_site_fract_y
 _atom_site_fract_z
 _atom_site_occupancy
  Ga  Ga0  1  0.50000000  0.52724600  0.19282600  1
  Ga  Ga1  1  0.00000000  0.97275400  0.69282600  1
  Ga  Ga2  1  0.00000000  0.02724600  0.30717400  1
  Ga  Ga3  1  0.50000000  0.47275400  0.80717400  1
  Se  Se4  1  0.50000000  0.24426900  0.67322700  1
  Se  Se5  1  0.00000000  0.74426900  0.82677300  1
  Se  Se6  1  0.00000000  0.25573100  0.17322700  1
  Se  Se7  1  0.50000000  0.75573100  0.32677300  1
  Cl  Cl8  1  0.50000000  0.23900400  0.91752200  1
  Cl  Cl9  1  0.00000000  0.73900400  0.58247800  1
  Cl  Cl10  1  0.50000000  0.76099600  0.08247800  1
  Cl  Cl11  1  0.00000000  0.26099600  0.41752200  1
