# generated using pymatgen
data_VAgP2O7
_symmetry_space_group_name_H-M   'P 1'
_cell_length_a   8.17541700
_cell_length_b   7.45809800
_cell_length_c   9.74889599
_cell_angle_alpha   68.14199692
_cell_angle_beta   90.00000000
_cell_angle_gamma   90.00000000
_symmetry_Int_Tables_number   1
_chemical_formula_structural   VAgP2O7
_chemical_formula_sum   'V4 Ag4 P8 O28'
_cell_volume   551.68681840
_cell_formula_units_Z   4
loop_
 _symmetry_equiv_pos_site_id
 _symmetry_equiv_pos_as_xyz
  1  'x, y, z'
loop_
 _atom_site_type_symbol
 _atom_site_label
 _atom_site_symmetry_multiplicity
 _atom_site_fract_x
 _atom_site_fract_y
 _atom_site_fract_z
 _atom_site_occupancy
  V  V0  1  0.50693000  0.23834300  0.24990600  1
  V  V1  1  0.00693000  0.76165700  0.25009400  1
  V  V2  1  0.49307000  0.76165700  0.75009400  1
  V  V3  1  0.99307000  0.23834300  0.74990600  1
  Ag  Ag4  1  0.52806100  0.20704900  0.80963300  1
  Ag  Ag5  1  0.02806100  0.79295100  0.69036700  1
  Ag  Ag6  1  0.47193900  0.79295100  0.19036700  1
  Ag  Ag7  1  0.97193900  0.20704900  0.30963300  1
  P  P8  1  0.74585100  0.42543500  0.95597400  1
  P  P9  1  0.24585100  0.57456500  0.54402600  1
  P  P10  1  0.25414900  0.57456500  0.04402600  1
  P  P11  1  0.75414900  0.42543500  0.45597400  1
  P  P12  1  0.70829300  0.82531500  0.45407000  1
  P  P13  1  0.20829300  0.17468500  0.04593000  1
  P  P14  1  0.29170700  0.17468500  0.54593000  1
  P  P15  1  0.79170700  0.82531500  0.95407000  1
  O  O16  1  0.70539500  0.31373000  0.11928800  1
  O  O17  1  0.20539500  0.68627000  0.38071200  1
  O  O18  1  0.29460500  0.68627000  0.88071200  1
  O  O19  1  0.79460500  0.31373000  0.61928800  1
  O  O20  1  0.58694600  0.96388200  0.34641100  1
  O  O21  1  0.08694600  0.03611800  0.15358900  1
  O  O22  1  0.41305400  0.03611800  0.65358900  1
  O  O23  1  0.91305400  0.96388200  0.84641100  1
  O  O24  1  0.69371100  0.81407500  0.61351400  1
  O  O25  1  0.19371100  0.18592500  0.88648600  1
  O  O26  1  0.30628900  0.18592500  0.38648600  1
  O  O27  1  0.80628900  0.81407500  0.11351400  1
  O  O28  1  0.59045800  0.49251200  0.85905400  1
  O  O29  1  0.09045800  0.50748800  0.64094600  1
  O  O30  1  0.40954200  0.50748800  0.14094600  1
  O  O31  1  0.90954200  0.49251200  0.35905400  1
  O  O32  1  0.63672500  0.31537000  0.39822900  1
  O  O33  1  0.13672500  0.68463000  0.10177100  1
  O  O34  1  0.36327500  0.68463000  0.60177100  1
  O  O35  1  0.86327500  0.31537000  0.89822900  1
  O  O36  1  0.61299100  0.86075600  0.90038000  1
  O  O37  1  0.11299100  0.13924400  0.59962000  1
  O  O38  1  0.38700900  0.13924400  0.09962000  1
  O  O39  1  0.88700900  0.86075600  0.40038000  1
  O  O40  1  0.65562000  0.61867300  0.44728800  1
  O  O41  1  0.15562000  0.38132700  0.05271200  1
  O  O42  1  0.34438000  0.38132700  0.55271200  1
  O  O43  1  0.84438000  0.61867300  0.94728800  1
