# generated using pymatgen
data_Sr2EuBeO5
_symmetry_space_group_name_H-M   'P 1'
_cell_length_a   6.71200800
_cell_length_b   7.38254500
_cell_length_c   9.72852100
_cell_angle_alpha   90.00000000
_cell_angle_beta   90.00000000
_cell_angle_gamma   90.00000000
_symmetry_Int_Tables_number   1
_chemical_formula_structural   Sr2EuBeO5
_chemical_formula_sum   'Sr8 Eu4 Be4 O20'
_cell_volume   482.06476474
_cell_formula_units_Z   4
loop_
 _symmetry_equiv_pos_site_id
 _symmetry_equiv_pos_as_xyz
  1  'x, y, z'
loop_
 _atom_site_type_symbol
 _atom_site_label
 _atom_site_symmetry_multiplicity
 _atom_site_fract_x
 _atom_site_fract_y
 _atom_site_fract_z
 _atom_site_occupancy
  Sr  Sr0  1  0.58879900  0.52248100  0.82705700  1
  Sr  Sr1  1  0.41120100  0.47751900  0.17294300  1
  Sr  Sr2  1  0.08879900  0.47751900  0.67294300  1
  Sr  Sr3  1  0.41120100  0.02248100  0.17294300  1
  Sr  Sr4  1  0.91120100  0.52248100  0.32705700  1
  Sr  Sr5  1  0.58879900  0.97751900  0.82705700  1
  Sr  Sr6  1  0.91120100  0.97751900  0.32705700  1
  Sr  Sr7  1  0.08879900  0.02248100  0.67294300  1
  Eu  Eu8  1  0.08261200  0.75000000  0.97774600  1
  Eu  Eu9  1  0.91738800  0.25000000  0.02225400  1
  Eu  Eu10  1  0.58261200  0.25000000  0.52225400  1
  Eu  Eu11  1  0.41738800  0.75000000  0.47774600  1
  Be  Be12  1  0.81423300  0.75000000  0.60201300  1
  Be  Be13  1  0.18576700  0.25000000  0.39798700  1
  Be  Be14  1  0.31423300  0.25000000  0.89798700  1
  Be  Be15  1  0.68576700  0.75000000  0.10201300  1
  O  O16  1  0.68673400  0.56325600  0.56539900  1
  O  O17  1  0.31326600  0.43674400  0.43460100  1
  O  O18  1  0.18673400  0.43674400  0.93460100  1
  O  O19  1  0.31326600  0.06325600  0.43460100  1
  O  O20  1  0.81326600  0.56325600  0.06539900  1
  O  O21  1  0.68673400  0.93674400  0.56539900  1
  O  O22  1  0.81326600  0.93674400  0.06539900  1
  O  O23  1  0.18673400  0.06325600  0.93460100  1
  O  O24  1  0.33785000  0.75000000  0.70768700  1
  O  O25  1  0.66215000  0.25000000  0.29231300  1
  O  O26  1  0.83785000  0.25000000  0.79231300  1
  O  O27  1  0.16215000  0.75000000  0.20768700  1
  O  O28  1  0.02271200  0.75000000  0.51025700  1
  O  O29  1  0.97728800  0.25000000  0.48974300  1
  O  O30  1  0.52271200  0.25000000  0.98974300  1
  O  O31  1  0.47728800  0.75000000  0.01025700  1
  O  O32  1  0.87632200  0.75000000  0.77170400  1
  O  O33  1  0.12367800  0.25000000  0.22829600  1
  O  O34  1  0.37632200  0.25000000  0.72829600  1
  O  O35  1  0.62367800  0.75000000  0.27170400  1
