# generated using pymatgen
data_ThMg149
_symmetry_space_group_name_H-M   'P 1'
_cell_length_a   15.94795905
_cell_length_b   15.94796290
_cell_length_c   15.60625750
_cell_angle_alpha   90.00000000
_cell_angle_beta   90.00000000
_cell_angle_gamma   120.00001226
_symmetry_Int_Tables_number   1
_chemical_formula_structural   ThMg149
_chemical_formula_sum   'Th1 Mg149'
_cell_volume   3437.47600136
_cell_formula_units_Z   1
loop_
 _symmetry_equiv_pos_site_id
 _symmetry_equiv_pos_as_xyz
  1  'x, y, z'
loop_
 _atom_site_type_symbol
 _atom_site_label
 _atom_site_symmetry_multiplicity
 _atom_site_fract_x
 _atom_site_fract_y
 _atom_site_fract_z
 _atom_site_occupancy
  Th  Th0  1  0.00000000  0.00000000  0.00000000  1
  Mg  Mg1  1  0.60005508  0.20011015  0.00000000  1
  Mg  Mg2  1  0.79918187  0.20081713  0.00000000  1
  Mg  Mg3  1  0.40163526  0.20081713  0.00000000  1
  Mg  Mg4  1  0.20331672  0.20710656  0.00000000  1
  Mg  Mg5  1  0.00378984  0.20710656  0.00000000  1
  Mg  Mg6  1  0.79988985  0.39994492  0.00000000  1
  Mg  Mg7  1  0.60005508  0.39994492  0.00000000  1
  Mg  Mg8  1  0.40038430  0.40058453  0.00000000  1
  Mg  Mg9  1  0.00020023  0.40058553  0.00000000  1
  Mg  Mg10  1  0.20194464  0.40388927  0.00000000  1
  Mg  Mg11  1  0.79918187  0.59836474  0.00000000  1
  Mg  Mg12  1  0.59941447  0.59961470  0.00000000  1
  Mg  Mg13  1  0.00020023  0.59961470  0.00000000  1
  Mg  Mg14  1  0.20064179  0.60032039  0.00000000  1
  Mg  Mg15  1  0.39967961  0.60032139  0.00000000  1
  Mg  Mg16  1  0.00378984  0.79668328  0.00000000  1
  Mg  Mg17  1  0.79289344  0.79668328  0.00000000  1
  Mg  Mg18  1  0.59610973  0.79805536  0.00000000  1
  Mg  Mg19  1  0.20194464  0.79805536  0.00000000  1
  Mg  Mg20  1  0.39967961  0.79935821  0.00000000  1
  Mg  Mg21  1  0.20331672  0.99621016  0.00000000  1
  Mg  Mg22  1  0.79289344  0.99621016  0.00000000  1
  Mg  Mg23  1  0.40038430  0.99979877  0.00000000  1
  Mg  Mg24  1  0.59941447  0.99979877  0.00000000  1
  Mg  Mg25  1  0.86867667  0.13132233  0.16392618  1
  Mg  Mg26  1  0.26264565  0.13132233  0.16392618  1
  Mg  Mg27  1  0.86867667  0.73735435  0.16392618  1
  Mg  Mg28  1  0.66666600  0.33333300  0.16609586  1
  Mg  Mg29  1  0.46537256  0.13291185  0.16648590  1
  Mg  Mg30  1  0.66753929  0.13291185  0.16648590  1
  Mg  Mg31  1  0.86708815  0.33246071  0.16648590  1
  Mg  Mg32  1  0.46537256  0.33246071  0.16648590  1
  Mg  Mg33  1  0.66753929  0.53462744  0.16648590  1
  Mg  Mg34  1  0.86708815  0.53462744  0.16648590  1
  Mg  Mg35  1  0.46660341  0.53339659  0.16730978  1
  Mg  Mg36  1  0.06679218  0.53339659  0.16730978  1
  Mg  Mg37  1  0.46660341  0.93320782  0.16730978  1
  Mg  Mg38  1  0.26721421  0.53442943  0.16738610  1
  Mg  Mg39  1  0.46557057  0.73278479  0.16738610  1
  Mg  Mg40  1  0.26721421  0.73278479  0.16738610  1
  Mg  Mg41  1  0.26807212  0.33629014  0.16792189  1
  Mg  Mg42  1  0.06821701  0.33629014  0.16792189  1
  Mg  Mg43  1  0.66370986  0.73192788  0.16792189  1
  Mg  Mg44  1  0.06821701  0.73192788  0.16792189  1
  Mg  Mg45  1  0.26807212  0.93178199  0.16792189  1
  Mg  Mg46  1  0.66370986  0.93178199  0.16792189  1
  Mg  Mg47  1  0.06865721  0.13731441  0.17081272  1
  Mg  Mg48  1  0.86268459  0.93134279  0.17081272  1
  Mg  Mg49  1  0.06865721  0.93134279  0.17081272  1
  Mg  Mg50  1  0.80013005  0.19986995  0.33268068  1
  Mg  Mg51  1  0.39973989  0.19986995  0.33268068  1
  Mg  Mg52  1  0.80013005  0.60026011  0.33268068  1
  Mg  Mg53  1  0.60004582  0.20009263  0.33286393  1
  Mg  Mg54  1  0.60004582  0.39995318  0.33286393  1
  Mg  Mg55  1  0.79990737  0.39995418  0.33286393  1
  Mg  Mg56  1  0.20084064  0.00017044  0.33362768  1
  Mg  Mg57  1  0.79932980  0.00017044  0.33362768  1
  Mg  Mg58  1  0.20084064  0.20066920  0.33362768  1
  Mg  Mg59  1  0.99982956  0.20066920  0.33362768  1
  Mg  Mg60  1  0.79932980  0.79915936  0.33362768  1
  Mg  Mg61  1  0.99982956  0.79915936  0.33362768  1
  Mg  Mg62  1  0.59972194  0.00021606  0.33373872  1
  Mg  Mg63  1  0.40049412  0.00021606  0.33373872  1
  Mg  Mg64  1  0.40049412  0.40027706  0.33373872  1
  Mg  Mg65  1  0.99978394  0.40027806  0.33373872  1
  Mg  Mg66  1  0.59972194  0.59950588  0.33373872  1
  Mg  Mg67  1  0.99978394  0.59950588  0.33373872  1
  Mg  Mg68  1  0.19997264  0.59998682  0.33388848  1
  Mg  Mg69  1  0.40001418  0.59998682  0.33388848  1
  Mg  Mg70  1  0.40001418  0.80002736  0.33388848  1
  Mg  Mg71  1  0.20027508  0.40055116  0.33422703  1
  Mg  Mg72  1  0.20027508  0.79972392  0.33422703  1
  Mg  Mg73  1  0.59944884  0.79972392  0.33422703  1
  Mg  Mg74  1  0.00000000  0.00000000  0.33466678  1
  Mg  Mg75  1  0.26704481  0.13352240  0.50000000  1
  Mg  Mg76  1  0.86647760  0.13352240  0.50000000  1
  Mg  Mg77  1  0.06680833  0.13361665  0.50000000  1
  Mg  Mg78  1  0.66727599  0.13439163  0.50000000  1
  Mg  Mg79  1  0.46711564  0.13439263  0.50000000  1
  Mg  Mg80  1  0.86560737  0.33272301  0.50000000  1
  Mg  Mg81  1  0.46711564  0.33272401  0.50000000  1
  Mg  Mg82  1  0.66666600  0.33333300  0.50000000  1
  Mg  Mg83  1  0.26678881  0.33361659  0.50000000  1
  Mg  Mg84  1  0.06682678  0.33361659  0.50000000  1
  Mg  Mg85  1  0.86560737  0.53288336  0.50000000  1
  Mg  Mg86  1  0.66727599  0.53288436  0.50000000  1
  Mg  Mg87  1  0.46699490  0.53300510  0.50000000  1
  Mg  Mg88  1  0.06601021  0.53300510  0.50000000  1
  Mg  Mg89  1  0.26670343  0.53340686  0.50000000  1
  Mg  Mg90  1  0.66638341  0.73321019  0.50000000  1
  Mg  Mg91  1  0.06682678  0.73321119  0.50000000  1
  Mg  Mg92  1  0.86647760  0.73295519  0.50000000  1
  Mg  Mg93  1  0.26670343  0.73329657  0.50000000  1
  Mg  Mg94  1  0.46659314  0.73329657  0.50000000  1
  Mg  Mg95  1  0.86638335  0.93319167  0.50000000  1
  Mg  Mg96  1  0.06680833  0.93319267  0.50000000  1
  Mg  Mg97  1  0.26678881  0.93317322  0.50000000  1
  Mg  Mg98  1  0.66638341  0.93317322  0.50000000  1
  Mg  Mg99  1  0.46699490  0.93398979  0.50000000  1
  Mg  Mg100  1  0.00000000  0.00000000  0.66533322  1
  Mg  Mg101  1  0.20027508  0.40055116  0.66577297  1
  Mg  Mg102  1  0.20027508  0.79972392  0.66577297  1
  Mg  Mg103  1  0.59944884  0.79972392  0.66577297  1
  Mg  Mg104  1  0.19997264  0.59998682  0.66611152  1
  Mg  Mg105  1  0.40001418  0.59998682  0.66611152  1
  Mg  Mg106  1  0.40001418  0.80002736  0.66611152  1
  Mg  Mg107  1  0.59972194  0.00021606  0.66626128  1
  Mg  Mg108  1  0.40049412  0.00021606  0.66626128  1
  Mg  Mg109  1  0.40049412  0.40027706  0.66626128  1
  Mg  Mg110  1  0.99978394  0.40027806  0.66626128  1
  Mg  Mg111  1  0.59972194  0.59950588  0.66626128  1
  Mg  Mg112  1  0.99978394  0.59950588  0.66626128  1
  Mg  Mg113  1  0.20084064  0.00017044  0.66637232  1
  Mg  Mg114  1  0.79932980  0.00017044  0.66637232  1
  Mg  Mg115  1  0.20084064  0.20066920  0.66637232  1
  Mg  Mg116  1  0.99982956  0.20066920  0.66637232  1
  Mg  Mg117  1  0.79932980  0.79915936  0.66637232  1
  Mg  Mg118  1  0.99982956  0.79915936  0.66637232  1
  Mg  Mg119  1  0.60004582  0.20009263  0.66713607  1
  Mg  Mg120  1  0.60004582  0.39995318  0.66713607  1
  Mg  Mg121  1  0.79990737  0.39995418  0.66713607  1
  Mg  Mg122  1  0.80013005  0.19986995  0.66732032  1
  Mg  Mg123  1  0.39973989  0.19986995  0.66732032  1
  Mg  Mg124  1  0.80013005  0.60026011  0.66732032  1
  Mg  Mg125  1  0.06865721  0.13731441  0.82918728  1
  Mg  Mg126  1  0.86268459  0.93134279  0.82918728  1
  Mg  Mg127  1  0.06865721  0.93134279  0.82918728  1
  Mg  Mg128  1  0.26807212  0.33629014  0.83207811  1
  Mg  Mg129  1  0.06821701  0.33629014  0.83207811  1
  Mg  Mg130  1  0.66370986  0.73192788  0.83207811  1
  Mg  Mg131  1  0.06821701  0.73192788  0.83207811  1
  Mg  Mg132  1  0.26807212  0.93178199  0.83207811  1
  Mg  Mg133  1  0.66370986  0.93178199  0.83207811  1
  Mg  Mg134  1  0.26721421  0.53442943  0.83261390  1
  Mg  Mg135  1  0.46557057  0.73278479  0.83261390  1
  Mg  Mg136  1  0.26721421  0.73278479  0.83261390  1
  Mg  Mg137  1  0.46660341  0.53339659  0.83269022  1
  Mg  Mg138  1  0.06679218  0.53339659  0.83269022  1
  Mg  Mg139  1  0.46660341  0.93320782  0.83269022  1
  Mg  Mg140  1  0.46537256  0.13291185  0.83351310  1
  Mg  Mg141  1  0.66753929  0.13291185  0.83351310  1
  Mg  Mg142  1  0.86708815  0.33246071  0.83351310  1
  Mg  Mg143  1  0.46537256  0.33246071  0.83351310  1
  Mg  Mg144  1  0.66753929  0.53462744  0.83351310  1
  Mg  Mg145  1  0.86708815  0.53462744  0.83351310  1
  Mg  Mg146  1  0.66666600  0.33333300  0.83390414  1
  Mg  Mg147  1  0.86867667  0.13132233  0.83607382  1
  Mg  Mg148  1  0.26264565  0.13132233  0.83607382  1
  Mg  Mg149  1  0.86867667  0.73735435  0.83607382  1
