# generated using pymatgen
data_Na5AgGe2Se7
_symmetry_space_group_name_H-M   'P 1'
_cell_length_a   7.33296019
_cell_length_b   7.33296019
_cell_length_c   15.46812664
_cell_angle_alpha   81.61600332
_cell_angle_beta   81.61600332
_cell_angle_gamma   94.41520651
_symmetry_Int_Tables_number   1
_chemical_formula_structural   Na5AgGe2Se7
_chemical_formula_sum   'Na10 Ag2 Ge4 Se14'
_cell_volume   809.96249158
_cell_formula_units_Z   2
loop_
 _symmetry_equiv_pos_site_id
 _symmetry_equiv_pos_as_xyz
  1  'x, y, z'
loop_
 _atom_site_type_symbol
 _atom_site_label
 _atom_site_symmetry_multiplicity
 _atom_site_fract_x
 _atom_site_fract_y
 _atom_site_fract_z
 _atom_site_occupancy
  Na  Na0  1  0.00000000  0.00000000  0.50000000  1
  Na  Na1  1  0.00000000  0.00000000  0.00000000  1
  Na  Na2  1  0.47810500  0.75884400  0.91491400  1
  Na  Na3  1  0.52189500  0.24115600  0.08508600  1
  Na  Na4  1  0.24115600  0.52189500  0.58508600  1
  Na  Na5  1  0.75884400  0.47810500  0.41491400  1
  Na  Na6  1  0.51421100  0.03471700  0.64434700  1
  Na  Na7  1  0.48578900  0.96528400  0.35565300  1
  Na  Na8  1  0.96528300  0.48578900  0.85565300  1
  Na  Na9  1  0.03471700  0.51421100  0.14434700  1
  Ag  Ag10  1  0.91289800  0.08710200  0.75000000  1
  Ag  Ag11  1  0.08710200  0.91289800  0.25000000  1
  Ge  Ge12  1  0.41535800  0.26225100  0.85728600  1
  Ge  Ge13  1  0.58464200  0.73774900  0.14271400  1
  Ge  Ge14  1  0.73774900  0.58464200  0.64271400  1
  Ge  Ge15  1  0.26225100  0.41535800  0.35728600  1
  Se  Se16  1  0.24865700  0.02058700  0.80667300  1
  Se  Se17  1  0.75134300  0.97941300  0.19332700  1
  Se  Se18  1  0.97941300  0.75134300  0.69332700  1
  Se  Se19  1  0.02058700  0.24865700  0.30667300  1
  Se  Se20  1  0.45310100  0.54689900  0.75000000  1
  Se  Se21  1  0.54689900  0.45310100  0.25000000  1
  Se  Se22  1  0.69647200  0.15879800  0.89551200  1
  Se  Se23  1  0.30352800  0.84120200  0.10448800  1
  Se  Se24  1  0.84120200  0.30352800  0.60448800  1
  Se  Se25  1  0.15879800  0.69647200  0.39551200  1
  Se  Se26  1  0.62921100  0.77146700  0.52618300  1
  Se  Se27  1  0.37078900  0.22853300  0.47381700  1
  Se  Se28  1  0.22853300  0.37078900  0.97381700  1
  Se  Se29  1  0.77146700  0.62921100  0.02618300  1
