# generated using pymatgen
data_K(SiAs)3
_symmetry_space_group_name_H-M   'P 1'
_cell_length_a   3.71757500
_cell_length_b   10.15172800
_cell_length_c   19.45009800
_cell_angle_alpha   90.00000000
_cell_angle_beta   90.00000000
_cell_angle_gamma   90.00000000
_symmetry_Int_Tables_number   1
_chemical_formula_structural   K(SiAs)3
_chemical_formula_sum   'K4 Si12 As12'
_cell_volume   734.04300727
_cell_formula_units_Z   4
loop_
 _symmetry_equiv_pos_site_id
 _symmetry_equiv_pos_as_xyz
  1  'x, y, z'
loop_
 _atom_site_type_symbol
 _atom_site_label
 _atom_site_symmetry_multiplicity
 _atom_site_fract_x
 _atom_site_fract_y
 _atom_site_fract_z
 _atom_site_occupancy
  K  K0  1  0.00000000  0.30402200  0.30476100  1
  K  K1  1  0.00000000  0.69597800  0.69523900  1
  K  K2  1  0.00000000  0.19597800  0.80476100  1
  K  K3  1  0.00000000  0.80402200  0.19523900  1
  Si  Si4  1  0.50000000  0.40742900  0.03608500  1
  Si  Si5  1  0.50000000  0.59257100  0.96391500  1
  Si  Si6  1  0.50000000  0.09257100  0.53608500  1
  Si  Si7  1  0.50000000  0.90742900  0.46391500  1
  Si  Si8  1  0.00000000  0.11181400  0.01516200  1
  Si  Si9  1  0.00000000  0.88818600  0.98483800  1
  Si  Si10  1  0.00000000  0.38818600  0.51516200  1
  Si  Si11  1  0.00000000  0.61181400  0.48483800  1
  Si  Si12  1  0.00000000  0.17438000  0.13162500  1
  Si  Si13  1  0.00000000  0.82562000  0.86837500  1
  Si  Si14  1  0.00000000  0.32562000  0.63162500  1
  Si  Si15  1  0.00000000  0.67438000  0.36837500  1
  As  As16  1  0.50000000  0.10077400  0.19656900  1
  As  As17  1  0.50000000  0.89922600  0.80343100  1
  As  As18  1  0.50000000  0.39922600  0.69656900  1
  As  As19  1  0.50000000  0.60077400  0.30343100  1
  As  As20  1  0.50000000  0.28110400  0.45933100  1
  As  As21  1  0.50000000  0.71889600  0.54066900  1
  As  As22  1  0.50000000  0.21889600  0.95933100  1
  As  As23  1  0.50000000  0.78110400  0.04066900  1
  As  As24  1  0.00000000  0.41321400  0.11469900  1
  As  As25  1  0.00000000  0.58678600  0.88530100  1
  As  As26  1  0.00000000  0.08678600  0.61469900  1
  As  As27  1  0.00000000  0.91321400  0.38530100  1
