# generated using pymatgen
data_BaLiGe2
_symmetry_space_group_name_H-M   'P 1'
_cell_length_a   4.66767500
_cell_length_b   7.49322500
_cell_length_c   11.95802000
_cell_angle_alpha   90.00000000
_cell_angle_beta   90.00000000
_cell_angle_gamma   90.00000000
_symmetry_Int_Tables_number   1
_chemical_formula_structural   BaLiGe2
_chemical_formula_sum   'Ba4 Li4 Ge8'
_cell_volume   418.24297810
_cell_formula_units_Z   4
loop_
 _symmetry_equiv_pos_site_id
 _symmetry_equiv_pos_as_xyz
  1  'x, y, z'
loop_
 _atom_site_type_symbol
 _atom_site_label
 _atom_site_symmetry_multiplicity
 _atom_site_fract_x
 _atom_site_fract_y
 _atom_site_fract_z
 _atom_site_occupancy
  Ba  Ba0  1  0.25000000  0.13486000  0.14066500  1
  Ba  Ba1  1  0.75000000  0.86514000  0.85933500  1
  Ba  Ba2  1  0.25000000  0.63486000  0.35933500  1
  Ba  Ba3  1  0.75000000  0.36514000  0.64066500  1
  Li  Li4  1  0.25000000  0.11653700  0.43684100  1
  Li  Li5  1  0.75000000  0.88346300  0.56315900  1
  Li  Li6  1  0.25000000  0.61653700  0.06315900  1
  Li  Li7  1  0.75000000  0.38346300  0.93684100  1
  Ge  Ge8  1  0.75000000  0.46541000  0.15984000  1
  Ge  Ge9  1  0.25000000  0.53459000  0.84016000  1
  Ge  Ge10  1  0.75000000  0.96541000  0.34016000  1
  Ge  Ge11  1  0.25000000  0.03459000  0.65984000  1
  Ge  Ge12  1  0.75000000  0.29954700  0.34814000  1
  Ge  Ge13  1  0.25000000  0.70045300  0.65186000  1
  Ge  Ge14  1  0.75000000  0.79954700  0.15186000  1
  Ge  Ge15  1  0.25000000  0.20045300  0.84814000  1
