# generated using pymatgen
data_Bi2I4O13
_symmetry_space_group_name_H-M   'P 1'
_cell_length_a   5.84656800
_cell_length_b   12.50728400
_cell_length_c   17.05148200
_cell_angle_alpha   90.00000000
_cell_angle_beta   90.00000000
_cell_angle_gamma   90.00000000
_symmetry_Int_Tables_number   1
_chemical_formula_structural   Bi2I4O13
_chemical_formula_sum   'Bi8 I16 O52'
_cell_volume   1246.88427393
_cell_formula_units_Z   4
loop_
 _symmetry_equiv_pos_site_id
 _symmetry_equiv_pos_as_xyz
  1  'x, y, z'
loop_
 _atom_site_type_symbol
 _atom_site_label
 _atom_site_symmetry_multiplicity
 _atom_site_fract_x
 _atom_site_fract_y
 _atom_site_fract_z
 _atom_site_occupancy
  Bi  Bi0  1  0.22721400  0.48675100  0.29753600  1
  Bi  Bi1  1  0.27278600  0.51324900  0.79753600  1
  Bi  Bi2  1  0.72721400  0.01324900  0.70246400  1
  Bi  Bi3  1  0.77278600  0.98675100  0.20246400  1
  Bi  Bi4  1  0.28558700  0.15496300  0.82540600  1
  Bi  Bi5  1  0.21441300  0.84503700  0.32540600  1
  Bi  Bi6  1  0.78558700  0.34503700  0.17459400  1
  Bi  Bi7  1  0.71441300  0.65496300  0.67459400  1
  I  I8  1  0.11760100  0.45262300  0.57347700  1
  I  I9  1  0.38239900  0.54737700  0.07347700  1
  I  I10  1  0.61760100  0.04737700  0.42652300  1
  I  I11  1  0.88239900  0.95262300  0.92652300  1
  I  I12  1  0.23886200  0.16685900  0.59008300  1
  I  I13  1  0.26113800  0.83314100  0.09008300  1
  I  I14  1  0.73886200  0.33314100  0.40991700  1
  I  I15  1  0.76113800  0.66685900  0.90991700  1
  I  I16  1  0.68329400  0.32829800  0.73703700  1
  I  I17  1  0.81670600  0.67170200  0.23703700  1
  I  I18  1  0.18329400  0.17170300  0.26296300  1
  I  I19  1  0.31670600  0.82829800  0.76296300  1
  I  I20  1  0.05966700  0.85964400  0.53001600  1
  I  I21  1  0.44033300  0.14035600  0.03001600  1
  I  I22  1  0.55966700  0.64035600  0.46998400  1
  I  I23  1  0.94033300  0.35964400  0.96998400  1
  O  O24  1  0.06314600  0.83422700  0.94263800  1
  O  O25  1  0.43685400  0.16577300  0.44263800  1
  O  O26  1  0.56314600  0.66577300  0.05736200  1
  O  O27  1  0.93685400  0.33422700  0.55736200  1
  O  O28  1  0.04018300  0.49320000  0.94187100  1
  O  O29  1  0.45981700  0.50680000  0.44187100  1
  O  O30  1  0.54018300  0.00680000  0.05812900  1
  O  O31  1  0.95981700  0.99320000  0.55812900  1
  O  O32  1  0.63080400  0.16720800  0.76323400  1
  O  O33  1  0.86919600  0.83279200  0.26323400  1
  O  O34  1  0.13080400  0.33279200  0.23676600  1
  O  O35  1  0.36919600  0.66720800  0.73676600  1
  O  O36  1  0.19248000  0.28237000  0.94062900  1
  O  O37  1  0.30752000  0.71763000  0.44062900  1
  O  O38  1  0.69248000  0.21763000  0.05937100  1
  O  O39  1  0.80752000  0.78237000  0.55937100  1
  O  O40  1  0.10567200  0.84349400  0.68503700  1
  O  O41  1  0.39432800  0.15650600  0.18503700  1
  O  O42  1  0.60567200  0.65650600  0.31496300  1
  O  O43  1  0.89432800  0.34349400  0.81496300  1
  O  O44  1  0.41318600  0.33111100  0.79818000  1
  O  O45  1  0.08681400  0.66888900  0.29818000  1
  O  O46  1  0.91318600  0.16888900  0.20182000  1
  O  O47  1  0.58681400  0.83111100  0.70182000  1
  O  O48  1  0.08110700  0.46455400  0.68087000  1
  O  O49  1  0.41889300  0.53544600  0.18087000  1
  O  O50  1  0.58110700  0.03544600  0.31913000  1
  O  O51  1  0.91889300  0.96455400  0.81913000  1
  O  O52  1  0.08799000  0.15421800  0.68542900  1
  O  O53  1  0.41201000  0.84578200  0.18542900  1
  O  O54  1  0.58799000  0.34578200  0.31457100  1
  O  O55  1  0.91201000  0.65421800  0.81457100  1
  O  O56  1  0.04074900  0.36866800  0.07479700  1
  O  O57  1  0.45925100  0.63133200  0.57479700  1
  O  O58  1  0.54074900  0.13133200  0.92520300  1
  O  O59  1  0.95925100  0.86866800  0.42520300  1
  O  O60  1  0.47268900  0.06848800  0.60300500  1
  O  O61  1  0.02731100  0.93151200  0.10300500  1
  O  O62  1  0.97268900  0.43151200  0.39699500  1
  O  O63  1  0.52731100  0.56848800  0.89699500  1
  O  O64  1  0.59649800  0.48291200  0.72511500  1
  O  O65  1  0.90350200  0.51708800  0.22511500  1
  O  O66  1  0.09649800  0.01708800  0.27488500  1
  O  O67  1  0.40350200  0.98291200  0.77488500  1
  O  O68  1  0.08868500  0.05906000  0.94799900  1
  O  O69  1  0.41131500  0.94094000  0.44799900  1
  O  O70  1  0.58868500  0.44094000  0.05200100  1
  O  O71  1  0.91131500  0.55906000  0.55200100  1
  O  O72  1  0.40256800  0.28959000  0.60886600  1
  O  O73  1  0.09743200  0.71041000  0.10886600  1
  O  O74  1  0.90256800  0.21041000  0.39113400  1
  O  O75  1  0.59743200  0.78959000  0.89113400  1
