# generated using pymatgen
data_Rb7Nd11Te12(Br4O9)4
_symmetry_space_group_name_H-M   'P 1'
_cell_length_a   16.31476685
_cell_length_b   16.31476685
_cell_length_c   17.72221833
_cell_angle_alpha   117.40590982
_cell_angle_beta   117.40590982
_cell_angle_gamma   90.00000000
_symmetry_Int_Tables_number   1
_chemical_formula_structural   Rb7Nd11Te12(Br4O9)4
_chemical_formula_sum   'Rb14 Nd22 Te24 Br32 O72'
_cell_volume   3580.88579749
_cell_formula_units_Z   2
loop_
 _symmetry_equiv_pos_site_id
 _symmetry_equiv_pos_as_xyz
  1  'x, y, z'
loop_
 _atom_site_type_symbol
 _atom_site_label
 _atom_site_symmetry_multiplicity
 _atom_site_fract_x
 _atom_site_fract_y
 _atom_site_fract_z
 _atom_site_occupancy
  Rb  Rb0  1  0.75000000  0.25000000  0.50000000  1
  Rb  Rb1  1  0.25000000  0.75000000  0.50000000  1
  Rb  Rb2  1  0.38239299  0.11760701  -0.00000000  1
  Rb  Rb3  1  0.61760701  0.88239299  -0.00000000  1
  Rb  Rb4  1  0.11760701  0.61760701  1.00000000  1
  Rb  Rb5  1  0.88239299  0.38239299  0.00000000  1
  Rb  Rb6  1  0.37708862  0.63066649  0.00000000  1
  Rb  Rb7  1  0.62291138  0.36933351  1.00000000  1
  Rb  Rb8  1  0.12291138  0.13066649  0.00000000  1
  Rb  Rb9  1  0.87708862  0.86933351  1.00000000  1
  Rb  Rb10  1  0.36933351  0.37708862  1.00000000  1
  Rb  Rb11  1  0.63066649  0.62291138  0.00000000  1
  Rb  Rb12  1  0.86933351  0.12291138  1.00000000  1
  Rb  Rb13  1  0.13066649  0.87708862  0.00000000  1
  Nd  Nd14  1  0.75000000  0.75000000  0.50000000  1
  Nd  Nd15  1  0.25000000  0.25000000  0.50000000  1
  Nd  Nd16  1  0.51681229  0.01681229  0.27837590  1
  Nd  Nd17  1  0.76156362  0.26156362  0.27837590  1
  Nd  Nd18  1  0.26156362  0.51681229  0.27837590  1
  Nd  Nd19  1  0.01681229  0.76156362  0.27837590  1
  Nd  Nd20  1  0.48318771  0.98318771  0.72162410  1
  Nd  Nd21  1  0.23843638  0.73843638  0.72162410  1
  Nd  Nd22  1  0.73843638  0.48318771  0.72162410  1
  Nd  Nd23  1  0.98318771  0.23843638  0.72162410  1
  Nd  Nd24  1  0.75000000  0.00449251  0.50000000  1
  Nd  Nd25  1  0.75000000  0.49550749  0.50000000  1
  Nd  Nd26  1  0.25000000  0.50449251  0.50000000  1
  Nd  Nd27  1  0.25000000  0.99550749  0.50000000  1
  Nd  Nd28  1  0.49550749  0.75000000  0.50000000  1
  Nd  Nd29  1  0.00449251  0.75000000  0.50000000  1
  Nd  Nd30  1  0.99550749  0.25000000  0.50000000  1
  Nd  Nd31  1  0.50449251  0.25000000  0.50000000  1
  Nd  Nd32  1  0.50000000  -0.00000000  0.50000000  1
  Nd  Nd33  1  0.00000000  0.50000000  0.50000000  1
  Nd  Nd34  1  0.50000000  0.50000000  0.50000000  1
  Nd  Nd35  1  0.00000000  -0.00000000  0.50000000  1
  Te  Te36  1  0.53647814  0.80134497  0.31731701  1
  Te  Te37  1  0.78083887  0.51597204  0.31731701  1
  Te  Te38  1  0.28083887  0.30134497  0.31731701  1
  Te  Te39  1  0.03647814  0.01597204  0.31731701  1
  Te  Te40  1  0.51597204  0.53647814  0.31731701  1
  Te  Te41  1  0.80134497  0.78083887  0.31731701  1
  Te  Te42  1  0.01597204  0.28083887  0.31731701  1
  Te  Te43  1  0.30134497  0.03647814  0.31731701  1
  Te  Te44  1  0.46352186  0.19865503  0.68268299  1
  Te  Te45  1  0.21916113  0.48402796  0.68268299  1
  Te  Te46  1  0.71916113  0.69865503  0.68268299  1
  Te  Te47  1  0.96352186  0.98402796  0.68268299  1
  Te  Te48  1  0.48402796  0.46352186  0.68268299  1
  Te  Te49  1  0.19865503  0.21916113  0.68268299  1
  Te  Te50  1  0.98402796  0.71916113  0.68268299  1
  Te  Te51  1  0.69865503  0.96352186  0.68268299  1
  Te  Te52  1  0.71119192  0.21119192  0.65905023  1
  Te  Te53  1  0.94785831  0.44785831  0.65905023  1
  Te  Te54  1  0.44785831  0.71119192  0.65905023  1
  Te  Te55  1  0.21119192  0.94785831  0.65905023  1
  Te  Te56  1  0.28880808  0.78880808  0.34094977  1
  Te  Te57  1  0.05214169  0.55214169  0.34094977  1
  Te  Te58  1  0.55214169  0.28880808  0.34094977  1
  Te  Te59  1  0.78880808  0.05214169  0.34094977  1
  Br  Br60  1  0.58175399  0.08175399  0.16350798  1
  Br  Br61  1  0.08175399  0.58175399  0.16350798  1
  Br  Br62  1  0.41824601  0.91824601  0.83649202  1
  Br  Br63  1  0.91824601  0.41824601  0.83649202  1
  Br  Br64  1  0.57249319  0.83531126  0.15663016  1
  Br  Br65  1  0.58413697  0.32131890  0.15663016  1
  Br  Br66  1  0.08413697  0.33531126  0.15663016  1
  Br  Br67  1  0.07249319  0.82131890  0.15663016  1
  Br  Br68  1  0.32131890  0.57249319  0.15663016  1
  Br  Br69  1  0.83531126  0.58413697  0.15663016  1
  Br  Br70  1  0.82131890  0.08413697  0.15663016  1
  Br  Br71  1  0.33531126  0.07249319  0.15663016  1
  Br  Br72  1  0.42750681  0.16468874  0.84336984  1
  Br  Br73  1  0.41586303  0.67868110  0.84336984  1
  Br  Br74  1  0.91586303  0.66468874  0.84336984  1
  Br  Br75  1  0.92750681  0.17868110  0.84336984  1
  Br  Br76  1  0.67868110  0.42750681  0.84336984  1
  Br  Br77  1  0.16468874  0.41586303  0.84336984  1
  Br  Br78  1  0.17868110  0.91586303  0.84336984  1
  Br  Br79  1  0.66468874  0.92750681  0.84336984  1
  Br  Br80  1  0.57902300  0.57902300  0.15804600  1
  Br  Br81  1  0.07902300  0.07902300  0.15804600  1
  Br  Br82  1  0.42097700  0.42097700  0.84195400  1
  Br  Br83  1  0.92097700  0.92097700  0.84195400  1
  Br  Br84  1  0.33458224  0.83458224  0.16090353  1
  Br  Br85  1  0.82632128  0.32632128  0.16090353  1
  Br  Br86  1  0.32632128  0.33458224  0.16090353  1
  Br  Br87  1  0.83458224  0.82632128  0.16090353  1
  Br  Br88  1  0.66541776  0.16541776  0.83909647  1
  Br  Br89  1  0.17367872  0.67367872  0.83909647  1
  Br  Br90  1  0.67367872  0.66541776  0.83909647  1
  Br  Br91  1  0.16541776  0.17367872  0.83909647  1
  O  O92  1  0.55938031  0.93746722  0.36987595  1
  O  O93  1  0.81049564  0.43240873  0.36987595  1
  O  O94  1  0.31049564  0.43746722  0.36987595  1
  O  O95  1  0.05938031  0.93240873  0.36987595  1
  O  O96  1  0.43240873  0.55938031  0.36987595  1
  O  O97  1  0.93746722  0.81049564  0.36987595  1
  O  O98  1  0.93240873  0.31049564  0.36987595  1
  O  O99  1  0.43746722  0.05938031  0.36987595  1
  O  O100  1  0.44061969  0.06253278  0.63012405  1
  O  O101  1  0.18950436  0.56759127  0.63012405  1
  O  O102  1  0.68950436  0.56253278  0.63012405  1
  O  O103  1  0.94061969  0.06759127  0.63012405  1
  O  O104  1  0.56759127  0.44061969  0.63012405  1
  O  O105  1  0.06253278  0.18950436  0.63012405  1
  O  O106  1  0.06759127  0.68950436  0.63012405  1
  O  O107  1  0.56253278  0.94061969  0.63012405  1
  O  O108  1  0.66986922  0.82489506  0.40298936  1
  O  O109  1  0.73312014  0.57809430  0.40298936  1
  O  O110  1  0.23312014  0.32489506  0.40298936  1
  O  O111  1  0.16986922  0.07809430  0.40298936  1
  O  O112  1  0.57809430  0.66986922  0.40298936  1
  O  O113  1  0.82489506  0.73312014  0.40298936  1
  O  O114  1  0.07809430  0.23312014  0.40298936  1
  O  O115  1  0.32489506  0.16986922  0.40298936  1
  O  O116  1  0.33013078  0.17510494  0.59701064  1
  O  O117  1  0.26687986  0.42190570  0.59701064  1
  O  O118  1  0.76687986  0.67510494  0.59701064  1
  O  O119  1  0.83013078  0.92190570  0.59701064  1
  O  O120  1  0.42190570  0.33013078  0.59701064  1
  O  O121  1  0.17510494  0.26687986  0.59701064  1
  O  O122  1  0.92190570  0.76687986  0.59701064  1
  O  O123  1  0.67510494  0.83013078  0.59701064  1
  O  O124  1  0.81256649  0.18204747  0.63211387  1
  O  O125  1  0.81954738  0.45006640  0.63211387  1
  O  O126  1  0.31954738  0.68204747  0.63211387  1
  O  O127  1  0.31256649  0.95006640  0.63211387  1
  O  O128  1  0.45006640  0.81256649  0.63211387  1
  O  O129  1  0.18204747  0.81954738  0.63211387  1
  O  O130  1  0.95006640  0.31954738  0.63211387  1
  O  O131  1  0.68204747  0.31256649  0.63211387  1
  O  O132  1  0.18743351  0.81795253  0.36788613  1
  O  O133  1  0.18045262  0.54993360  0.36788613  1
  O  O134  1  0.68045262  0.31795253  0.36788613  1
  O  O135  1  0.68743351  0.04993360  0.36788613  1
  O  O136  1  0.54993360  0.18743351  0.36788613  1
  O  O137  1  0.81795253  0.18045262  0.36788613  1
  O  O138  1  0.04993360  0.68045262  0.36788613  1
  O  O139  1  0.31795253  0.68743351  0.36788613  1
  O  O140  1  0.48686238  0.82116070  0.40202229  1
  O  O141  1  0.91515991  0.58086159  0.40202229  1
  O  O142  1  0.41515991  0.32116070  0.40202229  1
  O  O143  1  0.98686238  0.08086159  0.40202229  1
  O  O144  1  0.58086159  0.48686238  0.40202229  1
  O  O145  1  0.82116070  0.91515991  0.40202229  1
  O  O146  1  0.08086159  0.41515991  0.40202229  1
  O  O147  1  0.32116070  0.98686238  0.40202229  1
  O  O148  1  0.51313762  0.17883930  0.59797771  1
  O  O149  1  0.08484009  0.41913841  0.59797771  1
  O  O150  1  0.58484009  0.67883930  0.59797771  1
  O  O151  1  0.01313762  0.91913841  0.59797771  1
  O  O152  1  0.41913841  0.51313762  0.59797771  1
  O  O153  1  0.17883930  0.08484009  0.59797771  1
  O  O154  1  0.91913841  0.58484009  0.59797771  1
  O  O155  1  0.67883930  0.01313762  0.59797771  1
  O  O156  1  0.62145158  0.12145158  0.52258309  1
  O  O157  1  0.90113151  0.40113151  0.52258309  1
  O  O158  1  0.40113151  0.62145158  0.52258309  1
  O  O159  1  0.12145158  0.90113151  0.52258309  1
  O  O160  1  0.37854842  0.87854842  0.47741691  1
  O  O161  1  0.09886849  0.59886849  0.47741691  1
  O  O162  1  0.59886849  0.37854842  0.47741691  1
  O  O163  1  0.87854842  0.09886849  0.47741691  1
