# generated using pymatgen
data_KCuSb3F18
_symmetry_space_group_name_H-M   'P 1'
_cell_length_a   9.90435700
_cell_length_b   11.19389600
_cell_length_c   14.72135300
_cell_angle_alpha   90.00000000
_cell_angle_beta   90.00000000
_cell_angle_gamma   90.00000000
_symmetry_Int_Tables_number   1
_chemical_formula_structural   KCuSb3F18
_chemical_formula_sum   'K4 Cu4 Sb12 F72'
_cell_volume   1632.13200212
_cell_formula_units_Z   4
loop_
 _symmetry_equiv_pos_site_id
 _symmetry_equiv_pos_as_xyz
  1  'x, y, z'
loop_
 _atom_site_type_symbol
 _atom_site_label
 _atom_site_symmetry_multiplicity
 _atom_site_fract_x
 _atom_site_fract_y
 _atom_site_fract_z
 _atom_site_occupancy
  K  K0  1  0.53324200  0.92176200  0.75000000  1
  K  K1  1  0.96675800  0.42176200  0.75000000  1
  K  K2  1  0.46675800  0.07823800  0.25000000  1
  K  K3  1  0.03324200  0.57823800  0.25000000  1
  Cu  Cu4  1  0.00000000  0.00000000  0.50000000  1
  Cu  Cu5  1  0.50000000  0.50000000  0.00000000  1
  Cu  Cu6  1  0.00000000  0.00000000  0.00000000  1
  Cu  Cu7  1  0.50000000  0.50000000  0.50000000  1
  Sb  Sb8  1  0.09631600  0.02502800  0.75000000  1
  Sb  Sb9  1  0.40368400  0.52502800  0.75000000  1
  Sb  Sb10  1  0.90368400  0.97497200  0.25000000  1
  Sb  Sb11  1  0.59631600  0.47497200  0.25000000  1
  Sb  Sb12  1  0.69531100  0.20190600  0.54729200  1
  Sb  Sb13  1  0.80468900  0.70190600  0.95270800  1
  Sb  Sb14  1  0.30468900  0.79809400  0.04729200  1
  Sb  Sb15  1  0.19531100  0.29809400  0.45270800  1
  Sb  Sb16  1  0.30468900  0.79809400  0.45270800  1
  Sb  Sb17  1  0.19531100  0.29809400  0.04729200  1
  Sb  Sb18  1  0.69531100  0.20190600  0.95270800  1
  Sb  Sb19  1  0.80468900  0.70190600  0.54729200  1
  F  F20  1  0.09683800  0.02895500  0.61561500  1
  F  F21  1  0.40316200  0.52895500  0.88438500  1
  F  F22  1  0.90316200  0.97104500  0.11561500  1
  F  F23  1  0.59683800  0.47104500  0.38438500  1
  F  F24  1  0.90316200  0.97104500  0.38438500  1
  F  F25  1  0.59683800  0.47104500  0.11561500  1
  F  F26  1  0.09683800  0.02895500  0.88438500  1
  F  F27  1  0.40316200  0.52895500  0.61561500  1
  F  F28  1  0.12102000  0.85753400  0.75000000  1
  F  F29  1  0.37898000  0.35753400  0.75000000  1
  F  F30  1  0.87898000  0.14246600  0.25000000  1
  F  F31  1  0.62102000  0.64246600  0.25000000  1
  F  F32  1  0.28747400  0.04390300  0.75000000  1
  F  F33  1  0.21252600  0.54390300  0.75000000  1
  F  F34  1  0.71252600  0.95609700  0.25000000  1
  F  F35  1  0.78747400  0.45609700  0.25000000  1
  F  F36  1  0.07747700  0.19462900  0.75000000  1
  F  F37  1  0.42252300  0.69462900  0.75000000  1
  F  F38  1  0.92252300  0.80537100  0.25000000  1
  F  F39  1  0.57747700  0.30537100  0.25000000  1
  F  F40  1  0.90580100  0.00733700  0.75000000  1
  F  F41  1  0.59419900  0.50733700  0.75000000  1
  F  F42  1  0.09419900  0.99266300  0.25000000  1
  F  F43  1  0.40580100  0.49266300  0.25000000  1
  F  F44  1  0.83468500  0.07193400  0.54819400  1
  F  F45  1  0.66531500  0.57193400  0.95180600  1
  F  F46  1  0.16531500  0.92806600  0.04819400  1
  F  F47  1  0.33468500  0.42806600  0.45180600  1
  F  F48  1  0.16531500  0.92806600  0.45180600  1
  F  F49  1  0.33468500  0.42806600  0.04819400  1
  F  F50  1  0.83468500  0.07193400  0.95180600  1
  F  F51  1  0.66531500  0.57193400  0.54819400  1
  F  F52  1  0.79860800  0.28821700  0.46109200  1
  F  F53  1  0.70139200  0.78821700  0.03890800  1
  F  F54  1  0.20139200  0.71178300  0.96109200  1
  F  F55  1  0.29860800  0.21178300  0.53890800  1
  F  F56  1  0.20139200  0.71178300  0.53890800  1
  F  F57  1  0.29860800  0.21178300  0.96109200  1
  F  F58  1  0.79860800  0.28821700  0.03890800  1
  F  F59  1  0.70139200  0.78821700  0.46109200  1
  F  F60  1  0.60124300  0.12285900  0.45190200  1
  F  F61  1  0.89875700  0.62285900  0.04809800  1
  F  F62  1  0.39875700  0.87714100  0.95190200  1
  F  F63  1  0.10124300  0.37714100  0.54809800  1
  F  F64  1  0.39875700  0.87714100  0.54809800  1
  F  F65  1  0.10124300  0.37714100  0.95190200  1
  F  F66  1  0.60124300  0.12285900  0.04809800  1
  F  F67  1  0.89875700  0.62285900  0.45190200  1
  F  F68  1  0.56141300  0.32768500  0.55166400  1
  F  F69  1  0.93858700  0.82768500  0.94833600  1
  F  F70  1  0.43858700  0.67231500  0.05166400  1
  F  F71  1  0.06141300  0.17231500  0.44833600  1
  F  F72  1  0.43858700  0.67231500  0.44833600  1
  F  F73  1  0.06141300  0.17231500  0.05166400  1
  F  F74  1  0.56141300  0.32768500  0.94833600  1
  F  F75  1  0.93858700  0.82768500  0.55166400  1
  F  F76  1  0.59819700  0.10993900  0.63458200  1
  F  F77  1  0.90180300  0.60993900  0.86541800  1
  F  F78  1  0.40180300  0.89006100  0.13458200  1
  F  F79  1  0.09819700  0.39006100  0.36541800  1
  F  F80  1  0.40180300  0.89006100  0.36541800  1
  F  F81  1  0.09819700  0.39006100  0.13458200  1
  F  F82  1  0.59819700  0.10993900  0.86541800  1
  F  F83  1  0.90180300  0.60993900  0.63458200  1
  F  F84  1  0.79178200  0.27825700  0.64371300  1
  F  F85  1  0.70821800  0.77825700  0.85628700  1
  F  F86  1  0.20821800  0.72174300  0.14371300  1
  F  F87  1  0.29178200  0.22174300  0.35628700  1
  F  F88  1  0.20821800  0.72174300  0.35628700  1
  F  F89  1  0.29178200  0.22174300  0.14371300  1
  F  F90  1  0.79178200  0.27825700  0.85628700  1
  F  F91  1  0.70821800  0.77825700  0.64371300  1
