# generated using pymatgen
data_La(CdAs)3
_symmetry_space_group_name_H-M   'P 1'
_cell_length_a   4.49676321
_cell_length_b   4.48753540
_cell_length_c   21.71640200
_cell_angle_alpha   90.00000000
_cell_angle_beta   90.00000000
_cell_angle_gamma   120.06450142
_symmetry_Int_Tables_number   1
_chemical_formula_structural   La(CdAs)3
_chemical_formula_sum   'La2 Cd6 As6'
_cell_volume   379.26587668
_cell_formula_units_Z   2
loop_
 _symmetry_equiv_pos_site_id
 _symmetry_equiv_pos_as_xyz
  1  'x, y, z'
loop_
 _atom_site_type_symbol
 _atom_site_label
 _atom_site_symmetry_multiplicity
 _atom_site_fract_x
 _atom_site_fract_y
 _atom_site_fract_z
 _atom_site_occupancy
  La  La0  1  0.00202900  0.00116800  0.49985100  1
  La  La1  1  0.00202900  0.00116800  0.00014900  1
  Cd  Cd2  1  0.66726300  0.33489500  0.12536000  1
  Cd  Cd3  1  0.33605800  0.66806600  0.87480500  1
  Cd  Cd4  1  0.33605800  0.66806600  0.62519500  1
  Cd  Cd5  1  0.66726300  0.33489500  0.37464000  1
  Cd  Cd6  1  0.72708700  0.36628300  0.75000000  1
  Cd  Cd7  1  0.36168600  0.72669500  0.25000000  1
  As  As8  1  0.66931700  0.33474400  0.57722000  1
  As  As9  1  0.33452600  0.66822500  0.42253200  1
  As  As10  1  0.33452600  0.66822500  0.07746800  1
  As  As11  1  0.66931700  0.33474400  0.92278000  1
  As  As12  1  0.39618000  0.69940000  0.75000000  1
  As  As13  1  0.69796200  0.39862800  0.25000000  1
