# generated using pymatgen
data_Sr3Fe3N5
_symmetry_space_group_name_H-M   'P 1'
_cell_length_a   5.57321994
_cell_length_b   7.14183653
_cell_length_c   8.51904650
_cell_angle_alpha   108.64844374
_cell_angle_beta   102.78310929
_cell_angle_gamma   95.73273257
_symmetry_Int_Tables_number   1
_chemical_formula_structural   Sr3Fe3N5
_chemical_formula_sum   'Sr6 Fe6 N10'
_cell_volume   307.92934420
_cell_formula_units_Z   2
loop_
 _symmetry_equiv_pos_site_id
 _symmetry_equiv_pos_as_xyz
  1  'x, y, z'
loop_
 _atom_site_type_symbol
 _atom_site_label
 _atom_site_symmetry_multiplicity
 _atom_site_fract_x
 _atom_site_fract_y
 _atom_site_fract_z
 _atom_site_occupancy
  Sr  Sr0  1  0.81416000  0.41602900  0.61116700  1
  Sr  Sr1  1  0.18584000  0.58397100  0.38883300  1
  Sr  Sr2  1  0.66075800  0.86082800  0.87473600  1
  Sr  Sr3  1  0.33924200  0.13917200  0.12526400  1
  Sr  Sr4  1  0.66030900  0.67966600  0.21106300  1
  Sr  Sr5  1  0.33969100  0.32033400  0.78893700  1
  Fe  Fe6  1  0.91078600  0.32194300  0.97769900  1
  Fe  Fe7  1  0.08921400  0.67805700  0.02230100  1
  Fe  Fe8  1  0.67672000  0.96298100  0.57454600  1
  Fe  Fe9  1  0.32328000  0.03701900  0.42545400  1
  Fe  Fe10  1  0.09012000  0.89096800  0.70567900  1
  Fe  Fe11  1  0.90988000  0.10903200  0.29432100  1
  N  N12  1  0.91927700  0.11891900  0.78075000  1
  N  N13  1  0.08072300  0.88108100  0.21925000  1
  N  N14  1  0.79828800  0.72270600  0.53295200  1
  N  N15  1  0.20171200  0.27729400  0.46704800  1
  N  N16  1  0.76076200  0.52929700  0.91988200  1
  N  N17  1  0.23923800  0.47070300  0.08011800  1
  N  N18  1  0.35357200  0.94505100  0.61275300  1
  N  N19  1  0.64642800  0.05494900  0.38724700  1
  N  N20  1  0.16500000  0.77633300  0.86825900  1
  N  N21  1  0.83500000  0.22366700  0.13174100  1
