# generated using pymatgen
data_La(AsIr)2
_symmetry_space_group_name_H-M   'P 1'
_cell_length_a   4.33263500
_cell_length_b   4.33263500
_cell_length_c   10.15126000
_cell_angle_alpha   90.00000000
_cell_angle_beta   90.00000000
_cell_angle_gamma   90.00000000
_symmetry_Int_Tables_number   1
_chemical_formula_structural   La(AsIr)2
_chemical_formula_sum   'La2 As4 Ir4'
_cell_volume   190.55667171
_cell_formula_units_Z   2
loop_
 _symmetry_equiv_pos_site_id
 _symmetry_equiv_pos_as_xyz
  1  'x, y, z'
loop_
 _atom_site_type_symbol
 _atom_site_label
 _atom_site_symmetry_multiplicity
 _atom_site_fract_x
 _atom_site_fract_y
 _atom_site_fract_z
 _atom_site_occupancy
  La  La0  1  0.00000000  0.50000000  0.24525900  1
  La  La1  1  0.50000000  0.00000000  0.75474100  1
  As  As2  1  0.00000000  0.00000000  0.00000000  1
  As  As3  1  0.50000000  0.50000000  0.00000000  1
  As  As4  1  0.00000000  0.50000000  0.63827600  1
  As  As5  1  0.50000000  0.00000000  0.36172400  1
  Ir  Ir6  1  0.00000000  0.00000000  0.50000000  1
  Ir  Ir7  1  0.50000000  0.50000000  0.50000000  1
  Ir  Ir8  1  0.00000000  0.50000000  0.88118600  1
  Ir  Ir9  1  0.50000000  0.00000000  0.11881400  1
