# generated using pymatgen
data_RbSbMoO6
_symmetry_space_group_name_H-M   'P 1'
_cell_length_a   7.35592708
_cell_length_b   7.35592708
_cell_length_c   7.35592708
_cell_angle_alpha   120.83907800
_cell_angle_beta   117.79740753
_cell_angle_gamma   91.20472075
_symmetry_Int_Tables_number   1
_chemical_formula_structural   RbSbMoO6
_chemical_formula_sum   'Rb2 Sb2 Mo2 O12'
_cell_volume   284.03558246
_cell_formula_units_Z   2
loop_
 _symmetry_equiv_pos_site_id
 _symmetry_equiv_pos_as_xyz
  1  'x, y, z'
loop_
 _atom_site_type_symbol
 _atom_site_label
 _atom_site_symmetry_multiplicity
 _atom_site_fract_x
 _atom_site_fract_y
 _atom_site_fract_z
 _atom_site_occupancy
  Rb  Rb0  1  0.10339500  0.88815200  0.71524300  1
  Rb  Rb1  1  0.82709200  0.11184800  0.21524300  1
  Sb  Sb2  1  0.50365200  0.00000000  0.50365200  1
  Sb  Sb3  1  0.50365200  0.50000000  0.00365200  1
  Mo  Mo4  1  0.46153000  0.48973700  0.47179300  1
  Mo  Mo5  1  0.98205600  0.51026300  0.97179300  1
  O  O6  1  0.81778200  0.56710900  0.75067300  1
  O  O7  1  0.42694100  0.17218700  0.75475400  1
  O  O8  1  0.44018200  0.18944600  0.37498300  1
  O  O9  1  0.82185200  0.56672700  0.13104100  1
  O  O10  1  0.82185200  0.19081100  0.75512500  1
  O  O11  1  0.44018200  0.56519800  0.75073600  1
  O  O12  1  0.18356400  0.43289100  0.25067300  1
  O  O13  1  0.58256700  0.82781300  0.25475400  1
  O  O14  1  0.56431400  0.80918900  0.63104100  1
  O  O15  1  0.18553800  0.43480200  0.87498300  1
  O  O16  1  0.18553800  0.81055400  0.25073600  1
  O  O17  1  0.56431400  0.43327300  0.25512500  1
