# generated using pymatgen
data_ThSbTe
_symmetry_space_group_name_H-M   'P 1'
_cell_length_a   4.44086000
_cell_length_b   4.44086000
_cell_length_c   9.19832300
_cell_angle_alpha   90.00000000
_cell_angle_beta   90.00000000
_cell_angle_gamma   90.00000000
_symmetry_Int_Tables_number   1
_chemical_formula_structural   ThSbTe
_chemical_formula_sum   'Th2 Sb2 Te2'
_cell_volume   181.40231285
_cell_formula_units_Z   2
loop_
 _symmetry_equiv_pos_site_id
 _symmetry_equiv_pos_as_xyz
  1  'x, y, z'
loop_
 _atom_site_type_symbol
 _atom_site_label
 _atom_site_symmetry_multiplicity
 _atom_site_fract_x
 _atom_site_fract_y
 _atom_site_fract_z
 _atom_site_occupancy
  Th  Th0  1  0.00000000  0.50000000  0.73571700  1
  Th  Th1  1  0.50000000  0.00000000  0.26428300  1
  Sb  Sb2  1  0.00000000  0.00000000  0.00000000  1
  Sb  Sb3  1  0.50000000  0.50000000  0.00000000  1
  Te  Te4  1  0.00000000  0.50000000  0.37047700  1
  Te  Te5  1  0.50000000  0.00000000  0.62952300  1
