# generated using pymatgen
data_Na2P3HO9
_symmetry_space_group_name_H-M   'P 1'
_cell_length_a   7.18758911
_cell_length_b   7.88945502
_cell_length_c   7.95603373
_cell_angle_alpha   98.32388383
_cell_angle_beta   116.56725508
_cell_angle_gamma   76.89299761
_symmetry_Int_Tables_number   1
_chemical_formula_structural   Na2P3HO9
_chemical_formula_sum   'Na4 P6 H2 O18'
_cell_volume   392.51933995
_cell_formula_units_Z   2
loop_
 _symmetry_equiv_pos_site_id
 _symmetry_equiv_pos_as_xyz
  1  'x, y, z'
loop_
 _atom_site_type_symbol
 _atom_site_label
 _atom_site_symmetry_multiplicity
 _atom_site_fract_x
 _atom_site_fract_y
 _atom_site_fract_z
 _atom_site_occupancy
  Na  Na0  1  0.48635400  0.85120900  0.64538700  1
  Na  Na1  1  0.51364600  0.14879100  0.35461300  1
  Na  Na2  1  0.99161900  0.83254000  0.65167800  1
  Na  Na3  1  0.00838100  0.16746000  0.34832200  1
  P  P4  1  0.82113000  0.45079400  0.62975200  1
  P  P5  1  0.17887000  0.54920600  0.37024800  1
  P  P6  1  0.77827000  0.20552500  0.84069100  1
  P  P7  1  0.22173000  0.79447500  0.15930900  1
  P  P8  1  0.18577000  0.20357000  0.84275400  1
  P  P9  1  0.81423000  0.79643000  0.15724600  1
  H  H10  1  0.53168800  0.22507100  0.00268400  1
  H  H11  1  0.46831200  0.77492900  0.99731600  1
  O  O12  1  0.27521100  0.60335900  0.23731500  1
  O  O13  1  0.72478900  0.39664100  0.76268500  1
  O  O14  1  0.03815500  0.16577700  0.93163100  1
  O  O15  1  0.96184500  0.83422300  0.06836900  1
  O  O16  1  0.07815300  0.39488300  0.76563400  1
  O  O17  1  0.92184700  0.60511700  0.23436600  1
  O  O18  1  0.76605500  0.33422900  0.45568000  1
  O  O19  1  0.23394500  0.66577100  0.54432000  1
  O  O20  1  0.22668100  0.35579000  0.37396800  1
  O  O21  1  0.77331900  0.64421000  0.62603200  1
  O  O22  1  0.72655900  0.22455900  0.00704000  1
  O  O23  1  0.27344100  0.77544100  0.99296000  1
  O  O24  1  0.69603100  0.07120900  0.68604000  1
  O  O25  1  0.30396900  0.92879100  0.31396000  1
  O  O26  1  0.39225500  0.22101600  0.02026900  1
  O  O27  1  0.60774500  0.77898400  0.97973100  1
  O  O28  1  0.20020100  0.07125600  0.69281200  1
  O  O29  1  0.79979900  0.92874400  0.30718800  1
