# generated using pymatgen
data_KSbS2
_symmetry_space_group_name_H-M   'P 1'
_cell_length_a   6.48603911
_cell_length_b   6.48603911
_cell_length_c   6.97694989
_cell_angle_alpha   68.97965401
_cell_angle_beta   68.97965401
_cell_angle_gamma   93.73826911
_symmetry_Int_Tables_number   1
_chemical_formula_structural   KSbS2
_chemical_formula_sum   'K2 Sb2 S4'
_cell_volume   249.33617509
_cell_formula_units_Z   2
loop_
 _symmetry_equiv_pos_site_id
 _symmetry_equiv_pos_as_xyz
  1  'x, y, z'
loop_
 _atom_site_type_symbol
 _atom_site_label
 _atom_site_symmetry_multiplicity
 _atom_site_fract_x
 _atom_site_fract_y
 _atom_site_fract_z
 _atom_site_occupancy
  K  K0  1  0.85782700  0.14217300  0.75000000  1
  K  K1  1  0.14217300  0.85782700  0.25000000  1
  Sb  Sb2  1  0.58509200  0.41490800  0.25000000  1
  Sb  Sb3  1  0.41490800  0.58509200  0.75000000  1
  S  S4  1  0.62665300  0.78045600  0.27988100  1
  S  S5  1  0.21954400  0.37334700  0.22011900  1
  S  S6  1  0.78045600  0.62665300  0.77988100  1
  S  S7  1  0.37334700  0.21954400  0.72011900  1
