# generated using pymatgen
data_Er2CoGe2
_symmetry_space_group_name_H-M   'P 1'
_cell_length_a   5.59746365
_cell_length_b   5.59746365
_cell_length_c   10.08524387
_cell_angle_alpha   64.09482412
_cell_angle_beta   64.09482412
_cell_angle_gamma   43.81419748
_symmetry_Int_Tables_number   1
_chemical_formula_structural   Er2CoGe2
_chemical_formula_sum   'Er4 Co2 Ge4'
_cell_volume   192.99289307
_cell_formula_units_Z   2
loop_
 _symmetry_equiv_pos_site_id
 _symmetry_equiv_pos_as_xyz
  1  'x, y, z'
loop_
 _atom_site_type_symbol
 _atom_site_label
 _atom_site_symmetry_multiplicity
 _atom_site_fract_x
 _atom_site_fract_y
 _atom_site_fract_z
 _atom_site_occupancy
  Er  Er0  1  0.81269400  0.81269400  0.11084200  1
  Er  Er1  1  0.18730600  0.18730600  0.88915800  1
  Er  Er2  1  0.99390100  0.99390100  0.33245400  1
  Er  Er3  1  0.00609900  0.00609900  0.66754600  1
  Co  Co4  1  0.72461700  0.72461700  0.64107100  1
  Co  Co5  1  0.27538300  0.27538300  0.35892900  1
  Ge  Ge6  1  0.51319100  0.51319100  0.12519500  1
  Ge  Ge7  1  0.48680900  0.48680900  0.87480500  1
  Ge  Ge8  1  0.65219100  0.65219100  0.43399500  1
  Ge  Ge9  1  0.34780900  0.34780900  0.56600500  1
