# generated using pymatgen
data_RbCu(PO3)3
_symmetry_space_group_name_H-M   'P 1'
_cell_length_a   11.54229400
_cell_length_b   5.37689000
_cell_length_c   13.30162883
_cell_angle_alpha   80.02102719
_cell_angle_beta   90.00000000
_cell_angle_gamma   90.00000000
_symmetry_Int_Tables_number   1
_chemical_formula_structural   RbCu(PO3)3
_chemical_formula_sum   'Rb4 Cu4 P12 O36'
_cell_volume   813.03200422
_cell_formula_units_Z   4
loop_
 _symmetry_equiv_pos_site_id
 _symmetry_equiv_pos_as_xyz
  1  'x, y, z'
loop_
 _atom_site_type_symbol
 _atom_site_label
 _atom_site_symmetry_multiplicity
 _atom_site_fract_x
 _atom_site_fract_y
 _atom_site_fract_z
 _atom_site_occupancy
  Rb  Rb0  1  0.18041000  0.93745700  0.25351600  1
  Rb  Rb1  1  0.81959000  0.06254300  0.74648400  1
  Rb  Rb2  1  0.68041000  0.06254300  0.24648400  1
  Rb  Rb3  1  0.31959000  0.93745700  0.75351600  1
  Cu  Cu4  1  0.00000000  0.00000000  0.50000000  1
  Cu  Cu5  1  0.50000000  0.00000000  0.00000000  1
  Cu  Cu6  1  0.00000000  0.00000000  0.00000000  1
  Cu  Cu7  1  0.50000000  0.00000000  0.50000000  1
  P  P8  1  0.91129500  0.51600500  0.37055300  1
  P  P9  1  0.08870500  0.48399500  0.62944700  1
  P  P10  1  0.41129500  0.48399500  0.12944700  1
  P  P11  1  0.58870500  0.51600500  0.87055300  1
  P  P12  1  0.92397800  0.48630900  0.14924300  1
  P  P13  1  0.07602200  0.51369100  0.85075700  1
  P  P14  1  0.42397800  0.51369100  0.35075700  1
  P  P15  1  0.57602200  0.48630900  0.64924300  1
  P  P16  1  0.75259000  0.74668100  0.50867900  1
  P  P17  1  0.24741000  0.25331900  0.49132100  1
  P  P18  1  0.25259000  0.25331900  0.99132100  1
  P  P19  1  0.74741000  0.74668100  0.00867900  1
  O  O20  1  0.01160900  0.67423200  0.39071500  1
  O  O21  1  0.98839100  0.32576800  0.60928500  1
  O  O22  1  0.51160900  0.32576800  0.10928500  1
  O  O23  1  0.48839100  0.67423200  0.89071500  1
  O  O24  1  0.41039600  0.76771500  0.10033800  1
  O  O25  1  0.58960400  0.23228500  0.89966200  1
  O  O26  1  0.91039600  0.23228500  0.39966200  1
  O  O27  1  0.08960400  0.76771500  0.60033800  1
  O  O28  1  0.45643600  0.78432300  0.32908800  1
  O  O29  1  0.54356400  0.21567700  0.67091200  1
  O  O30  1  0.95643600  0.21567700  0.17091200  1
  O  O31  1  0.04356400  0.78432300  0.82908800  1
  O  O32  1  0.66057500  0.93803500  0.46958200  1
  O  O33  1  0.33942500  0.06196500  0.53041800  1
  O  O34  1  0.16057500  0.06196500  0.03041800  1
  O  O35  1  0.83942500  0.93803500  0.96958200  1
  O  O36  1  0.80311000  0.51124300  0.08436700  1
  O  O37  1  0.19689000  0.48875700  0.91563300  1
  O  O38  1  0.30311000  0.48875700  0.41563300  1
  O  O39  1  0.69689000  0.51124300  0.58436700  1
  O  O40  1  0.64533300  0.83903700  0.06246100  1
  O  O41  1  0.35466700  0.16096300  0.93753900  1
  O  O42  1  0.14533300  0.16096300  0.43753900  1
  O  O43  1  0.85466700  0.83903700  0.56246100  1
  O  O44  1  0.87275800  0.58044000  0.25105800  1
  O  O45  1  0.12724200  0.41956000  0.74894200  1
  O  O46  1  0.37275800  0.41956000  0.24894200  1
  O  O47  1  0.62724200  0.58044000  0.75105800  1
  O  O48  1  0.79091100  0.62168600  0.41328800  1
  O  O49  1  0.20908900  0.37831400  0.58671200  1
  O  O50  1  0.29091100  0.37831400  0.08671200  1
  O  O51  1  0.70908900  0.62168600  0.91328800  1
  O  O52  1  0.48849600  0.67912700  0.59926700  1
  O  O53  1  0.51150400  0.32087300  0.40073300  1
  O  O54  1  0.98849600  0.32087300  0.90073300  1
  O  O55  1  0.01150400  0.67912700  0.09926700  1
