# generated using pymatgen
data_SrCeN2
_symmetry_space_group_name_H-M   'P 1'
_cell_length_a   6.36442387
_cell_length_b   6.36442387
_cell_length_c   6.36442342
_cell_angle_alpha   33.37933931
_cell_angle_beta   33.37933931
_cell_angle_gamma   33.37933887
_symmetry_Int_Tables_number   1
_chemical_formula_structural   SrCeN2
_chemical_formula_sum   'Sr1 Ce1 N2'
_cell_volume   69.48682203
_cell_formula_units_Z   1
loop_
 _symmetry_equiv_pos_site_id
 _symmetry_equiv_pos_as_xyz
  1  'x, y, z'
loop_
 _atom_site_type_symbol
 _atom_site_label
 _atom_site_symmetry_multiplicity
 _atom_site_fract_x
 _atom_site_fract_y
 _atom_site_fract_z
 _atom_site_occupancy
  Sr  Sr0  1  0.00000000  0.00000000  0.00000000  1
  Ce  Ce1  1  0.50000000  0.50000000  0.50000000  1
  N  N2  1  0.76457800  0.76457800  0.76457800  1
  N  N3  1  0.23542200  0.23542200  0.23542200  1
