# generated using pymatgen
data_KYb(WO4)2
_symmetry_space_group_name_H-M   'P 1'
_cell_length_a   7.80094104
_cell_length_b   7.80094119
_cell_length_c   7.48753952
_cell_angle_alpha   61.85836082
_cell_angle_beta   61.85836353
_cell_angle_gamma   88.08917525
_symmetry_Int_Tables_number   1
_chemical_formula_structural   KYb(WO4)2
_chemical_formula_sum   'K2 Yb2 W4 O16'
_cell_volume   343.65048909
_cell_formula_units_Z   2
loop_
 _symmetry_equiv_pos_site_id
 _symmetry_equiv_pos_as_xyz
  1  'x, y, z'
loop_
 _atom_site_type_symbol
 _atom_site_label
 _atom_site_symmetry_multiplicity
 _atom_site_fract_x
 _atom_site_fract_y
 _atom_site_fract_z
 _atom_site_occupancy
  K  K0  1  0.28637300  0.71362700  0.75000000  1
  K  K1  1  0.71362700  0.28637300  0.25000000  1
  Yb  Yb2  1  0.27485300  0.72514700  0.25000000  1
  Yb  Yb3  1  0.72514800  0.27485400  0.74999900  1
  W  W4  1  0.80201700  0.80860500  0.70148600  1
  W  W5  1  0.19798300  0.19139600  0.29851400  1
  W  W6  1  0.19139500  0.19798300  0.79851500  1
  W  W7  1  0.80860400  0.80201600  0.20148600  1
  O  O8  1  0.24356300  0.12594900  0.56291100  1
  O  O9  1  0.87405200  0.75643600  0.93708900  1
  O  O10  1  0.75643600  0.87405200  0.43709000  1
  O  O11  1  0.12595000  0.24356400  0.06291000  1
  O  O12  1  0.16340900  0.44783300  0.62472700  1
  O  O13  1  0.55216800  0.83659100  0.87527200  1
  O  O14  1  0.83659200  0.55216800  0.37527200  1
  O  O15  1  0.44783200  0.16340900  0.12472700  1
  O  O16  1  0.24391500  0.45748600  0.20211400  1
  O  O17  1  0.54251400  0.75608500  0.29788500  1
  O  O18  1  0.75608500  0.54251400  0.79788600  1
  O  O19  1  0.45748500  0.24391500  0.70211400  1
  O  O20  1  0.11983200  0.90013300  0.03895100  1
  O  O21  1  0.88016900  0.09986600  0.96104800  1
  O  O22  1  0.09986700  0.88016800  0.46104900  1
  O  O23  1  0.90013300  0.11983200  0.53895100  1
