# generated using pymatgen
data_SrSn3
_symmetry_space_group_name_H-M   'P 1'
_cell_length_a   12.10527735
_cell_length_b   12.10527735
_cell_length_c   12.10527744
_cell_angle_alpha   33.32510089
_cell_angle_beta   33.32510089
_cell_angle_gamma   33.32510543
_symmetry_Int_Tables_number   1
_chemical_formula_structural   SrSn3
_chemical_formula_sum   'Sr4 Sn12'
_cell_volume   476.71815283
_cell_formula_units_Z   4
loop_
 _symmetry_equiv_pos_site_id
 _symmetry_equiv_pos_as_xyz
  1  'x, y, z'
loop_
 _atom_site_type_symbol
 _atom_site_label
 _atom_site_symmetry_multiplicity
 _atom_site_fract_x
 _atom_site_fract_y
 _atom_site_fract_z
 _atom_site_occupancy
  Sr  Sr0  1  0.86711400  0.86711400  0.86711400  1
  Sr  Sr1  1  0.13288600  0.13288600  0.13288600  1
  Sr  Sr2  1  0.70723200  0.70723200  0.70723200  1
  Sr  Sr3  1  0.29276800  0.29276800  0.29276800  1
  Sn  Sn4  1  0.28166700  0.79369700  0.79369700  1
  Sn  Sn5  1  0.79369700  0.79369700  0.28166700  1
  Sn  Sn6  1  0.83918000  0.39857500  0.39857500  1
  Sn  Sn7  1  0.39857500  0.39857500  0.83918000  1
  Sn  Sn8  1  0.39857500  0.83918000  0.39857500  1
  Sn  Sn9  1  0.60142500  0.16082000  0.60142500  1
  Sn  Sn10  1  0.16082000  0.60142500  0.60142500  1
  Sn  Sn11  1  0.60142500  0.60142500  0.16082000  1
  Sn  Sn12  1  0.79369700  0.28166700  0.79369700  1
  Sn  Sn13  1  0.20630300  0.71833300  0.20630300  1
  Sn  Sn14  1  0.20630300  0.20630300  0.71833300  1
  Sn  Sn15  1  0.71833300  0.20630300  0.20630300  1
