# generated using pymatgen
data_KLu(NbCl3)6
_symmetry_space_group_name_H-M   'P 1'
_cell_length_a   10.11884394
_cell_length_b   10.11884394
_cell_length_c   10.11884408
_cell_angle_alpha   55.20299553
_cell_angle_beta   55.20299553
_cell_angle_gamma   55.20299950
_symmetry_Int_Tables_number   1
_chemical_formula_structural   KLu(NbCl3)6
_chemical_formula_sum   'K1 Lu1 Nb6 Cl18'
_cell_volume   650.91795634
_cell_formula_units_Z   1
loop_
 _symmetry_equiv_pos_site_id
 _symmetry_equiv_pos_as_xyz
  1  'x, y, z'
loop_
 _atom_site_type_symbol
 _atom_site_label
 _atom_site_symmetry_multiplicity
 _atom_site_fract_x
 _atom_site_fract_y
 _atom_site_fract_z
 _atom_site_occupancy
  K  K0  1  0.72238500  0.72238500  0.72238500  1
  Lu  Lu1  1  0.99842700  0.99842700  0.99842700  1
  Nb  Nb2  1  0.34877700  0.58800200  0.70334800  1
  Nb  Nb3  1  0.58800200  0.70334800  0.34877700  1
  Nb  Nb4  1  0.70334800  0.34877700  0.58800200  1
  Nb  Nb5  1  0.65158600  0.41076600  0.29816600  1
  Nb  Nb6  1  0.41076600  0.29816600  0.65158600  1
  Nb  Nb7  1  0.29816600  0.65158600  0.41076600  1
  Cl  Cl8  1  0.22236500  0.36255600  0.91792200  1
  Cl  Cl9  1  0.36255600  0.91792200  0.22236500  1
  Cl  Cl10  1  0.91792200  0.22236500  0.36255600  1
  Cl  Cl11  1  0.77844700  0.63739100  0.08141200  1
  Cl  Cl12  1  0.63739100  0.08141200  0.77844700  1
  Cl  Cl13  1  0.08141200  0.77844700  0.63739100  1
  Cl  Cl14  1  0.84667000  0.30185400  0.02758000  1
  Cl  Cl15  1  0.30185400  0.02758000  0.84667000  1
  Cl  Cl16  1  0.02758000  0.84667000  0.30185400  1
  Cl  Cl17  1  0.15373000  0.70022100  0.97060400  1
  Cl  Cl18  1  0.70022100  0.97060400  0.15373000  1
  Cl  Cl19  1  0.97060400  0.15373000  0.70022100  1
  Cl  Cl20  1  0.56132500  0.42603900  0.84288900  1
  Cl  Cl21  1  0.42603900  0.84288900  0.56132500  1
  Cl  Cl22  1  0.84288900  0.56132500  0.42603900  1
  Cl  Cl23  1  0.43954200  0.57326500  0.15733200  1
  Cl  Cl24  1  0.57326500  0.15733200  0.43954200  1
  Cl  Cl25  1  0.15733200  0.43954200  0.57326500  1
