# generated using pymatgen
data_LiTbS2
_symmetry_space_group_name_H-M   'P 1'
_cell_length_a   6.59440189
_cell_length_b   6.59440189
_cell_length_c   6.59440146
_cell_angle_alpha   34.67025813
_cell_angle_beta   34.67025813
_cell_angle_gamma   34.67025268
_symmetry_Int_Tables_number   1
_chemical_formula_structural   LiTbS2
_chemical_formula_sum   'Li1 Tb1 S2'
_cell_volume   82.80862353
_cell_formula_units_Z   1
loop_
 _symmetry_equiv_pos_site_id
 _symmetry_equiv_pos_as_xyz
  1  'x, y, z'
loop_
 _atom_site_type_symbol
 _atom_site_label
 _atom_site_symmetry_multiplicity
 _atom_site_fract_x
 _atom_site_fract_y
 _atom_site_fract_z
 _atom_site_occupancy
  Li  Li0  1  0.00000000  0.00000000  0.00000000  1
  Tb  Tb1  1  0.50000000  0.50000000  0.50000000  1
  S  S2  1  0.25043200  0.25043200  0.25043200  1
  S  S3  1  0.74956800  0.74956800  0.74956800  1
