# generated using pymatgen
data_KHg(PO3)3
_symmetry_space_group_name_H-M   'P 1'
_cell_length_a   5.72746800
_cell_length_b   11.45018000
_cell_length_c   12.73286000
_cell_angle_alpha   90.00000000
_cell_angle_beta   90.00000000
_cell_angle_gamma   90.00000000
_symmetry_Int_Tables_number   1
_chemical_formula_structural   KHg(PO3)3
_chemical_formula_sum   'K4 Hg4 P12 O36'
_cell_volume   835.02782874
_cell_formula_units_Z   4
loop_
 _symmetry_equiv_pos_site_id
 _symmetry_equiv_pos_as_xyz
  1  'x, y, z'
loop_
 _atom_site_type_symbol
 _atom_site_label
 _atom_site_symmetry_multiplicity
 _atom_site_fract_x
 _atom_site_fract_y
 _atom_site_fract_z
 _atom_site_occupancy
  K  K0  1  0.40518300  0.88210100  0.57889800  1
  K  K1  1  0.90518300  0.61789900  0.42110200  1
  K  K2  1  0.59481700  0.38210100  0.92110200  1
  K  K3  1  0.09481700  0.11789900  0.07889800  1
  Hg  Hg4  1  0.40454800  0.51841100  0.63708900  1
  Hg  Hg5  1  0.90454800  0.98158900  0.36291100  1
  Hg  Hg6  1  0.59545200  0.01841100  0.86291100  1
  Hg  Hg7  1  0.09545200  0.48158900  0.13708900  1
  P  P8  1  0.10457400  0.84104400  0.85246400  1
  P  P9  1  0.60457400  0.65895600  0.14753600  1
  P  P10  1  0.89542600  0.34104400  0.64753600  1
  P  P11  1  0.39542600  0.15895600  0.35246400  1
  P  P12  1  0.92377100  0.68836200  0.68562700  1
  P  P13  1  0.42377100  0.81163800  0.31437300  1
  P  P14  1  0.07622900  0.18836200  0.81437300  1
  P  P15  1  0.57622900  0.31163800  0.18562700  1
  P  P16  1  0.11751300  0.58467000  0.87176300  1
  P  P17  1  0.61751300  0.91533000  0.12823700  1
  P  P18  1  0.88248700  0.08467000  0.62823700  1
  P  P19  1  0.38248700  0.41533000  0.37176300  1
  O  O20  1  0.97346800  0.92740500  0.91806400  1
  O  O21  1  0.47346800  0.57259500  0.08193600  1
  O  O22  1  0.02653200  0.42740500  0.58193600  1
  O  O23  1  0.52653200  0.07259500  0.41806400  1
  O  O24  1  0.34470900  0.87139900  0.81108600  1
  O  O25  1  0.84470900  0.62860100  0.18891400  1
  O  O26  1  0.65529100  0.37139900  0.68891400  1
  O  O27  1  0.15529100  0.12860100  0.31108600  1
  O  O28  1  0.69473000  0.68378800  0.62904500  1
  O  O29  1  0.19473000  0.81621200  0.37095500  1
  O  O30  1  0.30527000  0.18378800  0.87095500  1
  O  O31  1  0.80527000  0.31621200  0.12904500  1
  O  O32  1  0.14373500  0.67865000  0.62000300  1
  O  O33  1  0.64373500  0.82135000  0.37999700  1
  O  O34  1  0.85626500  0.17865000  0.87999700  1
  O  O35  1  0.35626500  0.32135000  0.12000300  1
  O  O36  1  0.93758300  0.80908900  0.75221900  1
  O  O37  1  0.43758300  0.69091100  0.24778100  1
  O  O38  1  0.06241700  0.30908900  0.74778100  1
  O  O39  1  0.56241700  0.19091100  0.25221900  1
  O  O40  1  0.38244600  0.28231100  0.41516800  1
  O  O41  1  0.88244600  0.21768900  0.58483200  1
  O  O42  1  0.61755400  0.78231100  0.08483200  1
  O  O43  1  0.11755400  0.71768900  0.91516800  1
  O  O44  1  0.57892000  0.40760500  0.27908400  1
  O  O45  1  0.07892000  0.09239500  0.72091600  1
  O  O46  1  0.42108000  0.90760500  0.22091600  1
  O  O47  1  0.92108000  0.59239500  0.77908400  1
  O  O48  1  0.48459900  0.49351900  0.45466100  1
  O  O49  1  0.98459900  0.00648100  0.54533900  1
  O  O50  1  0.51540100  0.99351900  0.04533900  1
  O  O51  1  0.01540100  0.50648100  0.95466100  1
  O  O52  1  0.15159200  0.44722900  0.32312300  1
  O  O53  1  0.65159200  0.05277100  0.67687700  1
  O  O54  1  0.84840800  0.94722900  0.17687700  1
  O  O55  1  0.34840800  0.55277100  0.82312300  1
