# generated using pymatgen
data_SrLa4Si3O13
_symmetry_space_group_name_H-M   'P 1'
_cell_length_a   9.76843263
_cell_length_b   9.76843263
_cell_length_c   7.27346500
_cell_angle_alpha   90.00000000
_cell_angle_beta   90.00000000
_cell_angle_gamma   120.00000430
_symmetry_Int_Tables_number   1
_chemical_formula_structural   SrLa4Si3O13
_chemical_formula_sum   'Sr2 La8 Si6 O26'
_cell_volume   601.06541270
_cell_formula_units_Z   2
loop_
 _symmetry_equiv_pos_site_id
 _symmetry_equiv_pos_as_xyz
  1  'x, y, z'
loop_
 _atom_site_type_symbol
 _atom_site_label
 _atom_site_symmetry_multiplicity
 _atom_site_fract_x
 _atom_site_fract_y
 _atom_site_fract_z
 _atom_site_occupancy
  Sr  Sr0  1  0.33333300  0.66666700  0.49985000  1
  Sr  Sr1  1  0.66666700  0.33333300  0.99985000  1
  La  La2  1  0.66666700  0.33333300  0.49997900  1
  La  La3  1  0.33333300  0.66666700  0.99997900  1
  La  La4  1  0.23228700  0.98876800  0.25046800  1
  La  La5  1  0.75648100  0.76771300  0.25046800  1
  La  La6  1  0.01123200  0.24351900  0.25046800  1
  La  La7  1  0.76771300  0.01123200  0.75046800  1
  La  La8  1  0.24351900  0.23228700  0.75046800  1
  La  La9  1  0.98876800  0.75648100  0.75046800  1
  Si  Si10  1  0.97063700  0.60038600  0.24887300  1
  Si  Si11  1  0.62974900  0.02936300  0.24887300  1
  Si  Si12  1  0.39961400  0.37025100  0.24887300  1
  Si  Si13  1  0.02936300  0.39961400  0.74887300  1
  Si  Si14  1  0.37025100  0.97063700  0.74887300  1
  Si  Si15  1  0.60038600  0.62974900  0.74887300  1
  O  O16  1  0.16264200  0.67876600  0.24472400  1
  O  O17  1  0.51612300  0.83735800  0.24472400  1
  O  O18  1  0.32123400  0.48387700  0.24472400  1
  O  O19  1  0.83735800  0.32123400  0.74472400  1
  O  O20  1  0.48387700  0.16264200  0.74472400  1
  O  O21  1  0.67876600  0.51612300  0.74472400  1
  O  O22  1  0.91040800  0.65786400  0.43114600  1
  O  O23  1  0.74745700  0.08959200  0.43114600  1
  O  O24  1  0.34213600  0.25254300  0.43114600  1
  O  O25  1  0.08959200  0.34213600  0.93114600  1
  O  O26  1  0.25254300  0.91040800  0.93114600  1
  O  O27  1  0.65786400  0.74745700  0.93114600  1
  O  O28  1  0.08807600  0.33841500  0.56967800  1
  O  O29  1  0.25033900  0.91192400  0.56967800  1
  O  O30  1  0.66158500  0.74966100  0.56967800  1
  O  O31  1  0.91192400  0.66158500  0.06967800  1
  O  O32  1  0.74966100  0.08807600  0.06967800  1
  O  O33  1  0.33841500  0.25033900  0.06967800  1
  O  O34  1  0.87703300  0.40602600  0.25493400  1
  O  O35  1  0.52899300  0.12296700  0.25493400  1
  O  O36  1  0.59397400  0.47100700  0.25493400  1
  O  O37  1  0.12296700  0.59397400  0.75493400  1
  O  O38  1  0.47100700  0.87703300  0.75493400  1
  O  O39  1  0.40602600  0.52899300  0.75493400  1
  O  O40  1  0.00000000  0.00000000  0.25068600  1
  O  O41  1  0.00000000  0.00000000  0.75068600  1
