# generated using pymatgen
data_NdNi5Sn
_symmetry_space_group_name_H-M   'P 1'
_cell_length_a   4.92109674
_cell_length_b   4.92109674
_cell_length_c   19.71480300
_cell_angle_alpha   90.00000000
_cell_angle_beta   90.00000000
_cell_angle_gamma   120.00000989
_symmetry_Int_Tables_number   1
_chemical_formula_structural   NdNi5Sn
_chemical_formula_sum   'Nd4 Ni20 Sn4'
_cell_volume   413.47269476
_cell_formula_units_Z   4
loop_
 _symmetry_equiv_pos_site_id
 _symmetry_equiv_pos_as_xyz
  1  'x, y, z'
loop_
 _atom_site_type_symbol
 _atom_site_label
 _atom_site_symmetry_multiplicity
 _atom_site_fract_x
 _atom_site_fract_y
 _atom_site_fract_z
 _atom_site_occupancy
  Nd  Nd0  1  0.33333300  0.66666700  0.25000000  1
  Nd  Nd1  1  0.66666700  0.33333300  0.75000000  1
  Nd  Nd2  1  0.00000000  0.00000000  0.50000000  1
  Nd  Nd3  1  0.00000000  0.00000000  0.00000000  1
  Ni  Ni4  1  0.00000000  0.00000000  0.25000000  1
  Ni  Ni5  1  0.00000000  0.00000000  0.75000000  1
  Ni  Ni6  1  0.33333300  0.66666700  0.75000000  1
  Ni  Ni7  1  0.66666700  0.33333300  0.25000000  1
  Ni  Ni8  1  0.33333300  0.66666700  0.95633800  1
  Ni  Ni9  1  0.66666700  0.33333300  0.04366200  1
  Ni  Ni10  1  0.66666700  0.33333300  0.45633800  1
  Ni  Ni11  1  0.33333300  0.66666700  0.54366200  1
  Ni  Ni12  1  0.83339800  0.16660200  0.35386400  1
  Ni  Ni13  1  0.83339800  0.66679600  0.35386400  1
  Ni  Ni14  1  0.33320400  0.16660200  0.35386400  1
  Ni  Ni15  1  0.16660200  0.83339800  0.64613600  1
  Ni  Ni16  1  0.16660200  0.33320400  0.64613600  1
  Ni  Ni17  1  0.66679600  0.83339800  0.64613600  1
  Ni  Ni18  1  0.16660200  0.83339800  0.85386400  1
  Ni  Ni19  1  0.16660200  0.33320400  0.85386400  1
  Ni  Ni20  1  0.66679600  0.83339800  0.85386400  1
  Ni  Ni21  1  0.83339800  0.16660200  0.14613600  1
  Ni  Ni22  1  0.83339800  0.66679600  0.14613600  1
  Ni  Ni23  1  0.33320400  0.16660200  0.14613600  1
  Sn  Sn24  1  0.33333300  0.66666700  0.41261100  1
  Sn  Sn25  1  0.66666700  0.33333300  0.58738900  1
  Sn  Sn26  1  0.66666700  0.33333300  0.91261100  1
  Sn  Sn27  1  0.33333300  0.66666700  0.08738900  1
