# generated using pymatgen
data_Na3AuS2
_symmetry_space_group_name_H-M   'P 1'
_cell_length_a   7.15171625
_cell_length_b   7.15171625
_cell_length_c   7.15171566
_cell_angle_alpha   65.32677038
_cell_angle_beta   65.32677038
_cell_angle_gamma   65.32677536
_symmetry_Int_Tables_number   1
_chemical_formula_structural   Na3AuS2
_chemical_formula_sum   'Na6 Au2 S4'
_cell_volume   288.65162300
_cell_formula_units_Z   2
loop_
 _symmetry_equiv_pos_site_id
 _symmetry_equiv_pos_as_xyz
  1  'x, y, z'
loop_
 _atom_site_type_symbol
 _atom_site_label
 _atom_site_symmetry_multiplicity
 _atom_site_fract_x
 _atom_site_fract_y
 _atom_site_fract_z
 _atom_site_occupancy
  Na  Na0  1  0.03411500  0.46588500  0.75000000  1
  Na  Na1  1  0.46588500  0.75000000  0.03411500  1
  Na  Na2  1  0.75000000  0.03411500  0.46588500  1
  Na  Na3  1  0.96588500  0.53411500  0.25000000  1
  Na  Na4  1  0.53411500  0.25000000  0.96588500  1
  Na  Na5  1  0.25000000  0.96588500  0.53411500  1
  Au  Au6  1  0.00000000  0.00000000  0.00000000  1
  Au  Au7  1  0.50000000  0.50000000  0.50000000  1
  S  S8  1  0.13874300  0.13874300  0.13874300  1
  S  S9  1  0.36125700  0.36125700  0.36125700  1
  S  S10  1  0.63874300  0.63874300  0.63874300  1
  S  S11  1  0.86125700  0.86125700  0.86125700  1
