# generated using pymatgen
data_CsCrH24(SeO10)2
_symmetry_space_group_name_H-M   'P 1'
_cell_length_a   12.71158484
_cell_length_b   12.71156587
_cell_length_c   12.71158391
_cell_angle_alpha   89.99993356
_cell_angle_beta   89.99987947
_cell_angle_gamma   89.99998819
_symmetry_Int_Tables_number   1
_chemical_formula_structural   CsCrH24(SeO10)2
_chemical_formula_sum   'Cs4 Cr4 H96 Se8 O80'
_cell_volume   2053.99045590
_cell_formula_units_Z   4
loop_
 _symmetry_equiv_pos_site_id
 _symmetry_equiv_pos_as_xyz
  1  'x, y, z'
loop_
 _atom_site_type_symbol
 _atom_site_label
 _atom_site_symmetry_multiplicity
 _atom_site_fract_x
 _atom_site_fract_y
 _atom_site_fract_z
 _atom_site_occupancy
  Cs  Cs0  1  0.50000214  0.50000244  0.99999443  1
  Cs  Cs1  1  0.50000376  0.99999482  0.49999496  1
  Cs  Cs2  1  0.00000142  0.49999922  0.49999714  1
  Cs  Cs3  1  0.00000272  0.99999645  0.99999559  1
  Cr  Cr4  1  0.00016336  0.00016141  0.50040307  1
  Cr  Cr5  1  0.99965829  0.49995147  0.00049119  1
  Cr  Cr6  1  0.49996153  0.00027346  0.00018738  1
  Cr  Cr7  1  0.49961282  0.49978711  0.49992791  1
  H  H8  1  0.38128509  0.33301476  0.21555289  1
  H  H9  1  0.61872527  0.83301390  0.28443336  1
  H  H10  1  0.11872272  0.66698300  0.71555424  1
  H  H11  1  0.88128582  0.16698286  0.78443331  1
  H  H12  1  0.21556375  0.38127678  0.33300819  1
  H  H13  1  0.28444321  0.61871629  0.83301112  1
  H  H14  1  0.71556285  0.11871923  0.66697879  1
  H  H15  1  0.78444196  0.88128050  0.16697684  1
  H  H16  1  0.33301947  0.21556009  0.38127214  1
  H  H17  1  0.83301906  0.28443898  0.61871186  1
  H  H18  1  0.66698730  0.71555914  0.11871117  1
  H  H19  1  0.16698792  0.78443895  0.88127327  1
  H  H20  1  0.61872394  0.66698212  0.78443198  1
  H  H21  1  0.38128282  0.16698241  0.71555224  1
  H  H22  1  0.88128231  0.33301407  0.28443317  1
  H  H23  1  0.11872268  0.83301560  0.21555482  1
  H  H24  1  0.78444170  0.61871545  0.66697529  1
  H  H25  1  0.71556403  0.38127778  0.16697912  1
  H  H26  1  0.28444320  0.88127922  0.33300929  1
  H  H27  1  0.21556367  0.11871703  0.83300941  1
  H  H28  1  0.66698875  0.78443923  0.61871304  1
  H  H29  1  0.16698727  0.71555855  0.38127407  1
  H  H30  1  0.33301878  0.28444014  0.88127160  1
  H  H31  1  0.83301929  0.21555796  0.11871229  1
  H  H32  1  0.49835208  0.29668923  0.22506048  1
  H  H33  1  0.50165604  0.79668819  0.27492473  1
  H  H34  1  0.00165615  0.70330783  0.72506258  1
  H  H35  1  0.99835401  0.20331131  0.77492157  1
  H  H36  1  0.22507266  0.49834681  0.29668175  1
  H  H37  1  0.27493232  0.50165164  0.79668798  1
  H  H38  1  0.72507034  0.00165059  0.70329986  1
  H  H39  1  0.77493409  0.99834654  0.20330345  1
  H  H40  1  0.29669108  0.22506918  0.49834175  1
  H  H41  1  0.79669408  0.27493043  0.50164457  1
  H  H42  1  0.70331253  0.72506802  0.00164450  1
  H  H43  1  0.20331393  0.77493087  0.99834120  1
  H  H44  1  0.50165672  0.70330599  0.77492671  1
  H  H45  1  0.49835047  0.20330775  0.72506334  1
  H  H46  1  0.99835243  0.29668961  0.27492552  1
  H  H47  1  0.00165730  0.79668810  0.22505946  1
  H  H48  1  0.77493770  0.50165190  0.70330221  1
  H  H49  1  0.72507124  0.49834817  0.20330613  1
  H  H50  1  0.27493587  0.99834755  0.29668358  1
  H  H51  1  0.22507329  0.00164904  0.79668262  1
  H  H52  1  0.70331494  0.77492825  0.50164337  1
  H  H53  1  0.20331472  0.72506784  0.49834103  1
  H  H54  1  0.29669313  0.27492843  0.99834093  1
  H  H55  1  0.79669390  0.22506286  0.00164503  1
  H  H56  1  0.92403396  0.80727328  0.47021706  1
  H  H57  1  0.07597869  0.30726997  0.02977229  1
  H  H58  1  0.57597850  0.19273132  0.97021555  1
  H  H59  1  0.42403791  0.69272681  0.52976836  1
  H  H60  1  0.47023004  0.92402716  0.80726635  1
  H  H61  1  0.02977568  0.07596177  0.30726494  1
  H  H62  1  0.97022427  0.57597641  0.19272937  1
  H  H63  1  0.52977892  0.42402821  0.69272373  1
  H  H64  1  0.80727447  0.47022266  0.92401376  1
  H  H65  1  0.30727120  0.02977389  0.07596556  1
  H  H66  1  0.19274062  0.97022231  0.57596683  1
  H  H67  1  0.69273072  0.52977248  0.42402773  1
  H  H68  1  0.07597862  0.19273722  0.52976802  1
  H  H69  1  0.92403226  0.69272885  0.97021663  1
  H  H70  1  0.42403945  0.80727136  0.02976979  1
  H  H71  1  0.57598008  0.30727034  0.47021516  1
  H  H72  1  0.52978217  0.07596997  0.19272682  1
  H  H73  1  0.97022753  0.92402140  0.69272617  1
  H  H74  1  0.02977783  0.42403678  0.80727018  1
  H  H75  1  0.47022644  0.57597483  0.30726124  1
  H  H76  1  0.19273724  0.52977232  0.07596004  1
  H  H77  1  0.69273200  0.97022314  0.92402133  1
  H  H78  1  0.80727918  0.02977487  0.42402267  1
  H  H79  1  0.30727197  0.47022318  0.57596931  1
  H  H80  1  0.05184164  0.79392236  0.47668397  1
  H  H81  1  0.94816349  0.29391446  0.02330790  1
  H  H82  1  0.44815828  0.20608178  0.97667843  1
  H  H83  1  0.55184715  0.70607500  0.52330550  1
  H  H84  1  0.47669178  0.05183452  0.79391401  1
  H  H85  1  0.02331769  0.94816337  0.29392205  1
  H  H86  1  0.97669100  0.44814734  0.20608377  1
  H  H87  1  0.52331608  0.55184162  0.70606996  1
  H  H88  1  0.79391762  0.47668719  0.05183495  1
  H  H89  1  0.29392315  0.02331030  0.94815018  1
  H  H90  1  0.20608386  0.97668443  0.44814555  1
  H  H91  1  0.70607779  0.52330995  0.55182983  1
  H  H92  1  0.94815639  0.20608229  0.52330830  1
  H  H93  1  0.05184635  0.70607444  0.97668078  1
  H  H94  1  0.55184231  0.79392204  0.02330496  1
  H  H95  1  0.44816233  0.29391384  0.47667967  1
  H  H96  1  0.52331887  0.94814911  0.20607428  1
  H  H97  1  0.97669010  0.05184655  0.70608077  1
  H  H98  1  0.02331267  0.55183306  0.79392202  1
  H  H99  1  0.47669376  0.44815787  0.29390979  1
  H  H100  1  0.20607770  0.52331190  0.94815045  1
  H  H101  1  0.70608543  0.97668649  0.05183407  1
  H  H102  1  0.79392240  0.02331048  0.55182904  1
  H  H103  1  0.29391879  0.47668538  0.44814750  1
  Se  Se104  1  0.31470247  0.68530124  0.18529554  1
  Se  Se105  1  0.68531152  0.18529803  0.31469134  1
  Se  Se106  1  0.18530081  0.31469513  0.68530135  1
  Se  Se107  1  0.81469513  0.81469478  0.81469281  1
  Se  Se108  1  0.68530578  0.31469745  0.81468393  1
  Se  Se109  1  0.31470521  0.81469218  0.68529581  1
  Se  Se110  1  0.81469091  0.68530056  0.31469715  1
  Se  Se111  1  0.18530454  0.18530159  0.18529604  1
  O  O112  1  0.23829392  0.76170837  0.26170091  1
  O  O113  1  0.76171344  0.26170905  0.23828306  1
  O  O114  1  0.26171370  0.23829195  0.76170008  1
  O  O115  1  0.73829634  0.73829331  0.73828747  1
  O  O116  1  0.76171245  0.23828737  0.73828094  1
  O  O117  1  0.23829731  0.73829307  0.76170042  1
  O  O118  1  0.73829658  0.76170701  0.23828390  1
  O  O119  1  0.26171483  0.26171049  0.26170283  1
  O  O120  1  0.26542455  0.56301053  0.17942720  1
  O  O121  1  0.73458265  0.06300938  0.32056539  1
  O  O122  1  0.23458754  0.43698682  0.67941327  1
  O  O123  1  0.76542077  0.93699181  0.82056332  1
  O  O124  1  0.17943168  0.26541504  0.56300223  1
  O  O125  1  0.32057796  0.73458013  0.06300881  1
  O  O126  1  0.67943526  0.23458429  0.43698392  1
  O  O127  1  0.82057156  0.76541165  0.93698410  1
  O  O128  1  0.56301301  0.17943008  0.26540603  1
  O  O129  1  0.06301674  0.32056860  0.73456786  1
  O  O130  1  0.43699426  0.67942203  0.23457837  1
  O  O131  1  0.93699679  0.82057000  0.76541306  1
  O  O132  1  0.73458778  0.43698630  0.82056817  1
  O  O133  1  0.26542246  0.93699181  0.67941652  1
  O  O134  1  0.76541729  0.56300930  0.32056780  1
  O  O135  1  0.23458732  0.06300776  0.17942218  1
  O  O136  1  0.82056736  0.73457676  0.43698237  1
  O  O137  1  0.67942904  0.26541662  0.93698515  1
  O  O138  1  0.32057511  0.76541479  0.56300116  1
  O  O139  1  0.17943250  0.23458423  0.06300335  1
  O  O140  1  0.43699075  0.82057220  0.73457648  1
  O  O141  1  0.93699398  0.67941899  0.26540867  1
  O  O142  1  0.56301217  0.32057335  0.76541074  1
  O  O143  1  0.06301761  0.17942925  0.23457236  1
  O  O144  1  0.45422886  0.35964829  0.21013623  1
  O  O145  1  0.54578169  0.85964927  0.28985233  1
  O  O146  1  0.04578358  0.64035663  0.71013290  1
  O  O147  1  0.95423049  0.14035059  0.78984974  1
  O  O148  1  0.21014448  0.45422004  0.35964153  1
  O  O149  1  0.28986156  0.54577583  0.85964381  1
  O  O150  1  0.71014499  0.04577762  0.64034471  1
  O  O151  1  0.78986225  0.95422220  0.14034858  1
  O  O152  1  0.35964875  0.21013937  0.45421643  1
  O  O153  1  0.85965394  0.28985344  0.54576960  1
  O  O154  1  0.64035730  0.71013477  0.04577029  1
  O  O155  1  0.14035277  0.78986234  0.95421480  1
  O  O156  1  0.54578243  0.64034652  0.78985148  1
  O  O157  1  0.45422390  0.14035428  0.71013036  1
  O  O158  1  0.95422642  0.35965233  0.28985145  1
  O  O159  1  0.04578280  0.85964154  0.21012874  1
  O  O160  1  0.78986439  0.54577466  0.64034790  1
  O  O161  1  0.71014618  0.45422021  0.14034471  1
  O  O162  1  0.28986386  0.95422407  0.35964489  1
  O  O163  1  0.21014513  0.04577425  0.85964325  1
  O  O164  1  0.64036049  0.78986118  0.54576918  1
  O  O165  1  0.14035942  0.71013699  0.45421701  1
  O  O166  1  0.35965275  0.28986037  0.95421441  1
  O  O167  1  0.85965324  0.21013905  0.04577086  1
  O  O168  1  0.99044683  0.84219050  0.49537479  1
  O  O169  1  0.00955882  0.34218151  0.00462489  1
  O  O170  1  0.50956628  0.15784104  0.99537195  1
  O  O171  1  0.49042941  0.65780442  0.50461124  1
  O  O172  1  0.49538905  0.99044478  0.84218288  1
  O  O173  1  0.00463024  0.00956819  0.34220479  1
  O  O174  1  0.99537780  0.50956329  0.15785193  1
  O  O175  1  0.50462139  0.49042525  0.65780874  1
  O  O176  1  0.84215554  0.49538180  0.99044197  1
  O  O177  1  0.34217972  0.00462463  0.00956677  1
  O  O178  1  0.15783871  0.99537814  0.50956995  1
  O  O179  1  0.65780001  0.50461815  0.49042861  1
  O  O180  1  0.00957568  0.15783506  0.50461649  1
  O  O181  1  0.99042555  0.65781820  0.99537564  1
  O  O182  1  0.49044138  0.84220112  0.00461615  1
  O  O183  1  0.50955619  0.34216514  0.49537099  1
  O  O184  1  0.50462823  0.00957429  0.15782650  1
  O  O185  1  0.99538303  0.99043921  0.65784648  1
  O  O186  1  0.00461477  0.49043641  0.84221121  1
  O  O187  1  0.49537880  0.50955960  0.34216689  1
  O  O188  1  0.15780671  0.50461632  0.00957435  1
  O  O189  1  0.65782648  0.99537730  0.99043778  1
  O  O190  1  0.84219959  0.00462360  0.49044097  1
  O  O191  1  0.34216073  0.49538007  0.50955462  1
