# generated using pymatgen
data_TmIn2Pd
_symmetry_space_group_name_H-M   'P 1'
_cell_length_a   10.78559629
_cell_length_b   10.78559629
_cell_length_c   10.78559629
_cell_angle_alpha   100.44371718
_cell_angle_beta   100.44371718
_cell_angle_gamma   129.60274230
_symmetry_Int_Tables_number   1
_chemical_formula_structural   TmIn2Pd
_chemical_formula_sum   'Tm10 In20 Pd10'
_cell_volume   874.71355922
_cell_formula_units_Z   10
loop_
 _symmetry_equiv_pos_site_id
 _symmetry_equiv_pos_as_xyz
  1  'x, y, z'
loop_
 _atom_site_type_symbol
 _atom_site_label
 _atom_site_symmetry_multiplicity
 _atom_site_fract_x
 _atom_site_fract_y
 _atom_site_fract_z
 _atom_site_occupancy
  Tm  Tm0  1  0.47339800  0.47339800  0.00000000  1
  Tm  Tm1  1  0.68236500  0.40251700  0.27984800  1
  Tm  Tm2  1  0.12266900  0.40251700  0.72015200  1
  Tm  Tm3  1  0.40251700  0.68236500  0.27984800  1
  Tm  Tm4  1  0.40251700  0.12266900  0.72015200  1
  Tm  Tm5  1  0.68729400  0.68729400  0.59584600  1
  Tm  Tm6  1  0.09144700  0.09144700  0.40415400  1
  Tm  Tm7  1  0.09144700  0.68729400  0.00000000  1
  Tm  Tm8  1  0.68729400  0.09144700  0.00000000  1
  Tm  Tm9  1  0.00012800  0.00012800  0.00000000  1
  In  In10  1  0.28147000  0.48951000  0.49213100  1
  In  In11  1  0.99738000  0.78934000  0.50786900  1
  In  In12  1  0.78934000  0.28147000  0.79196000  1
  In  In13  1  0.28147000  0.78934000  0.79196000  1
  In  In14  1  0.48951000  0.99738000  0.20804000  1
  In  In15  1  0.99738000  0.48951000  0.20804000  1
  In  In16  1  0.78934000  0.99738000  0.50786900  1
  In  In17  1  0.48951000  0.28147000  0.49213100  1
  In  In18  1  0.89396200  0.73070300  0.16325800  1
  In  In19  1  0.56744500  0.73070300  0.83674200  1
  In  In20  1  0.73070300  0.89396200  0.16325800  1
  In  In21  1  0.73070300  0.56744500  0.83674200  1
  In  In22  1  0.36750000  0.36750000  0.26086400  1
  In  In23  1  0.10663600  0.10663600  0.73913600  1
  In  In24  1  0.10663600  0.36750000  0.00000000  1
  In  In25  1  0.36750000  0.10663600  0.00000000  1
  In  In26  1  0.26105400  0.87805400  0.38299900  1
  In  In27  1  0.49505500  0.87805400  0.61700100  1
  In  In28  1  0.87805400  0.26105400  0.38299900  1
  In  In29  1  0.87805400  0.49505500  0.61700100  1
  Pd  Pd30  1  0.12781200  0.62781200  0.50000000  1
  Pd  Pd31  1  0.62781200  0.12781200  0.50000000  1
  Pd  Pd32  1  0.24921600  0.03701100  0.21220500  1
  Pd  Pd33  1  0.82480600  0.03701100  0.78779500  1
  Pd  Pd34  1  0.03701100  0.24921600  0.21220500  1
  Pd  Pd35  1  0.03701100  0.82480600  0.78779500  1
  Pd  Pd36  1  0.38327300  0.38327300  0.67835400  1
  Pd  Pd37  1  0.70491900  0.70491900  0.32164600  1
  Pd  Pd38  1  0.70491900  0.38327300  0.00000000  1
  Pd  Pd39  1  0.38327300  0.70491900  0.00000000  1
