# generated using pymatgen
data_Na2Mn3O7
_symmetry_space_group_name_H-M   'P 1'
_cell_length_a   6.83046000
_cell_length_b   6.84593233
_cell_length_c   7.71388803
_cell_angle_alpha   103.51181917
_cell_angle_beta   109.43773388
_cell_angle_gamma   111.06188100
_symmetry_Int_Tables_number   1
_chemical_formula_structural   Na2Mn3O7
_chemical_formula_sum   'Na4 Mn6 O14'
_cell_volume   290.72918435
_cell_formula_units_Z   2
loop_
 _symmetry_equiv_pos_site_id
 _symmetry_equiv_pos_as_xyz
  1  'x, y, z'
loop_
 _atom_site_type_symbol
 _atom_site_label
 _atom_site_symmetry_multiplicity
 _atom_site_fract_x
 _atom_site_fract_y
 _atom_site_fract_z
 _atom_site_occupancy
  Na  Na0  1  0.26697400  0.68471500  0.47733000  1
  Na  Na1  1  0.73302600  0.31528500  0.52267000  1
  Na  Na2  1  0.33549100  0.82704400  0.06378700  1
  Na  Na3  1  0.66450900  0.17295600  0.93621300  1
  Mn  Mn4  1  0.92375500  0.92178000  0.77980900  1
  Mn  Mn5  1  0.07624500  0.07822000  0.22019100  1
  Mn  Mn6  1  0.35743500  0.36008900  0.07967500  1
  Mn  Mn7  1  0.64256500  0.63991100  0.92032500  1
  Mn  Mn8  1  0.21977500  0.21849100  0.64152700  1
  Mn  Mn9  1  0.78022500  0.78150900  0.35847300  1
  O  O10  1  0.54673400  0.35497700  0.72312100  1
  O  O11  1  0.45326600  0.64502300  0.27687900  1
  O  O12  1  0.87749000  0.05720800  0.58507900  1
  O  O13  1  0.12251000  0.94279200  0.41492100  1
  O  O14  1  0.31134700  0.48996000  0.86642700  1
  O  O15  1  0.68865300  0.51004000  0.13357300  1
  O  O16  1  0.87171500  0.68260400  0.56421400  1
  O  O17  1  0.12828500  0.31739600  0.43578600  1
  O  O18  1  0.97141000  0.79287100  0.98184800  1
  O  O19  1  0.02859000  0.20712900  0.01815200  1
  O  O20  1  0.38551900  0.19686800  0.24469400  1
  O  O21  1  0.61448100  0.80313200  0.75530600  1
  O  O22  1  0.73771000  0.91383900  0.15265500  1
  O  O23  1  0.26229000  0.08616100  0.84734500  1
