# generated using pymatgen
data_Mg149Rh
_symmetry_space_group_name_H-M   'P 1'
_cell_length_a   15.89998650
_cell_length_b   15.89999222
_cell_length_c   15.66070049
_cell_angle_alpha   90.00000000
_cell_angle_beta   90.00000000
_cell_angle_gamma   120.00001595
_symmetry_Int_Tables_number   1
_chemical_formula_structural   Mg149Rh
_chemical_formula_sum   'Mg149 Rh1'
_cell_volume   3428.74678232
_cell_formula_units_Z   1
loop_
 _symmetry_equiv_pos_site_id
 _symmetry_equiv_pos_as_xyz
  1  'x, y, z'
loop_
 _atom_site_type_symbol
 _atom_site_label
 _atom_site_symmetry_multiplicity
 _atom_site_fract_x
 _atom_site_fract_y
 _atom_site_fract_z
 _atom_site_occupancy
  Mg  Mg0  1  0.60238493  0.00025889  0.00000000  1
  Mg  Mg1  1  0.39787297  0.00025889  0.00000000  1
  Mg  Mg2  1  0.81135153  0.00190464  -0.00000000  1
  Mg  Mg3  1  0.19055311  0.00190464  -0.00000000  1
  Mg  Mg4  1  0.99809536  0.18864847  0.00000000  1
  Mg  Mg5  1  0.19055311  0.18864847  -0.00000000  1
  Mg  Mg6  1  0.39761683  0.19880791  -0.00000000  1
  Mg  Mg7  1  0.80119209  0.19880891  0.00000000  1
  Mg  Mg8  1  0.59969805  0.19939610  0.00000000  1
  Mg  Mg9  1  0.19828499  0.39656898  -0.00000000  1
  Mg  Mg10  1  0.39787297  0.39761407  -0.00000000  1
  Mg  Mg11  1  0.99974111  0.39761507  -0.00000000  1
  Mg  Mg12  1  0.59969805  0.40030195  0.00000000  1
  Mg  Mg13  1  0.80060490  0.40030195  0.00000000  1
  Mg  Mg14  1  0.40014795  0.59985105  0.00000000  1
  Mg  Mg15  1  0.19970310  0.59985205  0.00000000  1
  Mg  Mg16  1  0.99974111  0.60212603  -0.00000000  1
  Mg  Mg17  1  0.60238493  0.60212703  -0.00000000  1
  Mg  Mg18  1  0.80119209  0.60238317  0.00000000  1
  Mg  Mg19  1  0.40014795  0.80029690  -0.00000000  1
  Mg  Mg20  1  0.19828499  0.80171601  -0.00000000  1
  Mg  Mg21  1  0.60343202  0.80171601  -0.00000000  1
  Mg  Mg22  1  0.99809536  0.80944689  -0.00000000  1
  Mg  Mg23  1  0.81135153  0.80944689  -0.00000000  1
  Mg  Mg24  1  0.06345473  0.12690946  0.15713466  1
  Mg  Mg25  1  0.06345473  0.93654527  0.15713466  1
  Mg  Mg26  1  0.87309054  0.93654527  0.15713466  1
  Mg  Mg27  1  0.06596262  0.33070033  0.16535195  1
  Mg  Mg28  1  0.26473771  0.33070133  0.16535195  1
  Mg  Mg29  1  0.66929867  0.73526229  0.16535195  1
  Mg  Mg30  1  0.06596262  0.73526229  0.16535195  1
  Mg  Mg31  1  0.66929867  0.93403738  0.16535195  1
  Mg  Mg32  1  0.26473771  0.93403738  0.16535195  1
  Mg  Mg33  1  0.46679552  0.53320448  0.16603342  1
  Mg  Mg34  1  0.06640995  0.53320548  0.16603342  1
  Mg  Mg35  1  0.46679552  0.93359005  0.16603342  1
  Mg  Mg36  1  0.26624330  0.53248661  0.16593373  1
  Mg  Mg37  1  0.46751439  0.73375670  0.16593373  1
  Mg  Mg38  1  0.26624330  0.73375670  0.16593373  1
  Mg  Mg39  1  0.66643659  0.13387042  0.16667490  1
  Mg  Mg40  1  0.46743384  0.13387042  0.16667490  1
  Mg  Mg41  1  0.46743384  0.33356341  0.16667490  1
  Mg  Mg42  1  0.86612958  0.33356341  0.16667490  1
  Mg  Mg43  1  0.66643659  0.53256616  0.16667490  1
  Mg  Mg44  1  0.86612958  0.53256616  0.16667490  1
  Mg  Mg45  1  0.66666700  0.33333300  0.16668458  1
  Mg  Mg46  1  0.26858508  0.13429204  0.16723518  1
  Mg  Mg47  1  0.86570796  0.13429304  0.16723518  1
  Mg  Mg48  1  0.86570796  0.73141492  0.16723518  1
  Mg  Mg49  1  -0.00000000  0.00000000  0.33141967  1
  Mg  Mg50  1  0.00027638  0.19894344  0.33124590  1
  Mg  Mg51  1  0.19866605  0.19894344  0.33124590  1
  Mg  Mg52  1  0.00027638  0.80133295  0.33124590  1
  Mg  Mg53  1  0.80105656  0.80133295  0.33124590  1
  Mg  Mg54  1  0.19866605  0.99972262  0.33124590  1
  Mg  Mg55  1  0.80105656  0.99972362  0.33124590  1
  Mg  Mg56  1  0.60040853  0.99974005  0.33263824  1
  Mg  Mg57  1  0.39933251  0.99974005  0.33263824  1
  Mg  Mg58  1  0.00025995  0.39959147  0.33263824  1
  Mg  Mg59  1  0.39933251  0.39959147  0.33263824  1
  Mg  Mg60  1  0.60040853  0.60066849  0.33263824  1
  Mg  Mg61  1  0.00025995  0.60066849  0.33263824  1
  Mg  Mg62  1  0.19993737  0.39987574  0.33283423  1
  Mg  Mg63  1  0.19993737  0.80006263  0.33283423  1
  Mg  Mg64  1  0.60012426  0.80006263  0.33283423  1
  Mg  Mg65  1  0.19997002  0.59998501  0.33311306  1
  Mg  Mg66  1  0.40001499  0.59998501  0.33311306  1
  Mg  Mg67  1  0.40001499  0.80002998  0.33311306  1
  Mg  Mg68  1  0.59963688  0.19927277  0.33357285  1
  Mg  Mg69  1  0.80072723  0.40036312  0.33357285  1
  Mg  Mg70  1  0.59963688  0.40036412  0.33357285  1
  Mg  Mg71  1  0.39964269  0.19982185  0.33365843  1
  Mg  Mg72  1  0.80017815  0.19982185  0.33365843  1
  Mg  Mg73  1  0.80017815  0.60035731  0.33365843  1
  Mg  Mg74  1  0.06672729  0.13345359  0.50000000  1
  Mg  Mg75  1  0.26614144  0.13307022  0.50000000  1
  Mg  Mg76  1  0.86692878  0.13307122  0.50000000  1
  Mg  Mg77  1  0.46692749  0.13342513  0.50000000  1
  Mg  Mg78  1  0.66649763  0.13342513  0.50000000  1
  Mg  Mg79  1  0.06641758  0.33267683  0.50000000  1
  Mg  Mg80  1  0.26626025  0.33267683  0.50000000  1
  Mg  Mg81  1  0.66666700  0.33333300  0.50000000  1
  Mg  Mg82  1  0.46692749  0.33350237  0.50000000  1
  Mg  Mg83  1  0.86657587  0.33350237  0.50000000  1
  Mg  Mg84  1  0.26641561  0.53283022  0.50000000  1
  Mg  Mg85  1  0.46682069  0.53317931  0.50000000  1
  Mg  Mg86  1  0.06635762  0.53317931  0.50000000  1
  Mg  Mg87  1  0.66649763  0.53307251  0.50000000  1
  Mg  Mg88  1  0.86657587  0.53307351  0.50000000  1
  Mg  Mg89  1  0.26641561  0.73358439  0.50000000  1
  Mg  Mg90  1  0.46716878  0.73358439  0.50000000  1
  Mg  Mg91  1  0.66732317  0.73373975  0.50000000  1
  Mg  Mg92  1  0.06641758  0.73374075  0.50000000  1
  Mg  Mg93  1  0.86692878  0.73385856  0.50000000  1
  Mg  Mg94  1  0.46682069  0.93364138  0.50000000  1
  Mg  Mg95  1  0.06672729  0.93327371  0.50000000  1
  Mg  Mg96  1  0.86654641  0.93327371  0.50000000  1
  Mg  Mg97  1  0.26626025  0.93358242  0.50000000  1
  Mg  Mg98  1  0.66732317  0.93358242  0.50000000  1
  Mg  Mg99  1  0.39964269  0.19982185  0.66634157  1
  Mg  Mg100  1  0.80017815  0.19982185  0.66634157  1
  Mg  Mg101  1  0.80017815  0.60035731  0.66634157  1
  Mg  Mg102  1  0.59963688  0.19927277  0.66642715  1
  Mg  Mg103  1  0.80072723  0.40036312  0.66642715  1
  Mg  Mg104  1  0.59963688  0.40036412  0.66642715  1
  Mg  Mg105  1  0.19997002  0.59998501  0.66688694  1
  Mg  Mg106  1  0.40001499  0.59998501  0.66688694  1
  Mg  Mg107  1  0.40001499  0.80002998  0.66688694  1
  Mg  Mg108  1  0.19993737  0.39987574  0.66716577  1
  Mg  Mg109  1  0.19993737  0.80006263  0.66716577  1
  Mg  Mg110  1  0.60012426  0.80006263  0.66716577  1
  Mg  Mg111  1  0.60040853  0.99974005  0.66736176  1
  Mg  Mg112  1  0.39933251  0.99974005  0.66736176  1
  Mg  Mg113  1  0.00025995  0.39959147  0.66736176  1
  Mg  Mg114  1  0.39933251  0.39959147  0.66736176  1
  Mg  Mg115  1  0.60040853  0.60066849  0.66736176  1
  Mg  Mg116  1  0.00025995  0.60066849  0.66736176  1
  Mg  Mg117  1  0.00027638  0.19894344  0.66875410  1
  Mg  Mg118  1  0.19866605  0.19894344  0.66875410  1
  Mg  Mg119  1  0.00027638  0.80133295  0.66875410  1
  Mg  Mg120  1  0.80105656  0.80133295  0.66875410  1
  Mg  Mg121  1  0.19866605  0.99972262  0.66875410  1
  Mg  Mg122  1  0.80105656  0.99972362  0.66875410  1
  Mg  Mg123  1  -0.00000000  0.00000000  0.66858033  1
  Mg  Mg124  1  0.26858508  0.13429204  0.83276482  1
  Mg  Mg125  1  0.86570796  0.13429304  0.83276482  1
  Mg  Mg126  1  0.86570796  0.73141492  0.83276482  1
  Mg  Mg127  1  0.66666700  0.33333300  0.83331442  1
  Mg  Mg128  1  0.66643659  0.13387042  0.83332410  1
  Mg  Mg129  1  0.46743384  0.13387042  0.83332410  1
  Mg  Mg130  1  0.46743384  0.33356341  0.83332410  1
  Mg  Mg131  1  0.86612958  0.33356341  0.83332410  1
  Mg  Mg132  1  0.66643659  0.53256616  0.83332410  1
  Mg  Mg133  1  0.86612958  0.53256616  0.83332410  1
  Mg  Mg134  1  0.26624330  0.53248661  0.83406627  1
  Mg  Mg135  1  0.46751439  0.73375670  0.83406627  1
  Mg  Mg136  1  0.26624330  0.73375670  0.83406627  1
  Mg  Mg137  1  0.46679552  0.53320448  0.83396658  1
  Mg  Mg138  1  0.06640995  0.53320548  0.83396658  1
  Mg  Mg139  1  0.46679552  0.93359005  0.83396658  1
  Mg  Mg140  1  0.06596262  0.33070033  0.83464905  1
  Mg  Mg141  1  0.26473771  0.33070133  0.83464905  1
  Mg  Mg142  1  0.66929867  0.73526229  0.83464905  1
  Mg  Mg143  1  0.06596262  0.73526229  0.83464905  1
  Mg  Mg144  1  0.66929867  0.93403738  0.83464905  1
  Mg  Mg145  1  0.26473771  0.93403738  0.83464905  1
  Mg  Mg146  1  0.06345473  0.12690946  0.84286534  1
  Mg  Mg147  1  0.06345473  0.93654527  0.84286534  1
  Mg  Mg148  1  0.87309054  0.93654527  0.84286534  1
  Rh  Rh149  1  -0.00000000  0.00000000  0.00000000  1
