# generated using pymatgen
data_Ca(Al4Ni)2
_symmetry_space_group_name_H-M   'P 1'
_cell_length_a   3.94074400
_cell_length_b   14.44817800
_cell_length_c   12.69049400
_cell_angle_alpha   90.00000000
_cell_angle_beta   90.00000000
_cell_angle_gamma   90.00000000
_symmetry_Int_Tables_number   1
_chemical_formula_structural   Ca(Al4Ni)2
_chemical_formula_sum   'Ca4 Al32 Ni8'
_cell_volume   722.55320967
_cell_formula_units_Z   4
loop_
 _symmetry_equiv_pos_site_id
 _symmetry_equiv_pos_as_xyz
  1  'x, y, z'
loop_
 _atom_site_type_symbol
 _atom_site_label
 _atom_site_symmetry_multiplicity
 _atom_site_fract_x
 _atom_site_fract_y
 _atom_site_fract_z
 _atom_site_occupancy
  Ca  Ca0  1  0.00000000  0.82159000  0.15282400  1
  Ca  Ca1  1  0.00000000  0.17841000  0.84717600  1
  Ca  Ca2  1  0.00000000  0.67841000  0.65282400  1
  Ca  Ca3  1  0.00000000  0.32159000  0.34717600  1
  Al  Al4  1  0.00000000  0.50000000  0.50000000  1
  Al  Al5  1  0.00000000  0.00000000  0.00000000  1
  Al  Al6  1  0.50000000  0.00000000  0.50000000  1
  Al  Al7  1  0.50000000  0.50000000  0.00000000  1
  Al  Al8  1  0.00000000  0.54726700  0.15838900  1
  Al  Al9  1  0.00000000  0.45273300  0.84161100  1
  Al  Al10  1  0.00000000  0.95273300  0.65838900  1
  Al  Al11  1  0.00000000  0.04726700  0.34161100  1
  Al  Al12  1  0.00000000  0.75509100  0.39488700  1
  Al  Al13  1  0.00000000  0.24490900  0.60511300  1
  Al  Al14  1  0.00000000  0.74490900  0.89488700  1
  Al  Al15  1  0.00000000  0.25509100  0.10511300  1
  Al  Al16  1  0.50000000  0.67708900  0.25989600  1
  Al  Al17  1  0.50000000  0.32291100  0.74010400  1
  Al  Al18  1  0.50000000  0.82291100  0.75989600  1
  Al  Al19  1  0.50000000  0.17708900  0.24010400  1
  Al  Al20  1  0.50000000  0.67895900  0.04769500  1
  Al  Al21  1  0.50000000  0.32104100  0.95230500  1
  Al  Al22  1  0.50000000  0.82104100  0.54769500  1
  Al  Al23  1  0.50000000  0.17895900  0.45230500  1
  Al  Al24  1  0.50000000  0.88259100  0.33521400  1
  Al  Al25  1  0.50000000  0.11740900  0.66478600  1
  Al  Al26  1  0.50000000  0.61740900  0.83521400  1
  Al  Al27  1  0.50000000  0.38259100  0.16478600  1
  Al  Al28  1  0.50000000  0.99157600  0.16763300  1
  Al  Al29  1  0.50000000  0.00842400  0.83236700  1
  Al  Al30  1  0.50000000  0.50842400  0.66763300  1
  Al  Al31  1  0.50000000  0.49157600  0.33236700  1
  Al  Al32  1  0.50000000  0.63418600  0.47063300  1
  Al  Al33  1  0.50000000  0.36581400  0.52936700  1
  Al  Al34  1  0.50000000  0.86581400  0.97063300  1
  Al  Al35  1  0.50000000  0.13418600  0.02936700  1
  Ni  Ni36  1  0.00000000  0.90612200  0.46333200  1
  Ni  Ni37  1  0.00000000  0.09387800  0.53666800  1
  Ni  Ni38  1  0.00000000  0.59387800  0.96333200  1
  Ni  Ni39  1  0.00000000  0.40612200  0.03666800  1
  Ni  Ni40  1  0.00000000  0.59732700  0.34486000  1
  Ni  Ni41  1  0.00000000  0.40267300  0.65514000  1
  Ni  Ni42  1  0.00000000  0.90267300  0.84486000  1
  Ni  Ni43  1  0.00000000  0.09732700  0.15514000  1
