# generated using pymatgen
data_SrGdCuS3
_symmetry_space_group_name_H-M   'P 1'
_cell_length_a   3.96044000
_cell_length_b   10.36220200
_cell_length_c   12.97143300
_cell_angle_alpha   90.00000000
_cell_angle_beta   90.00000000
_cell_angle_gamma   90.00000000
_symmetry_Int_Tables_number   1
_chemical_formula_structural   SrGdCuS3
_chemical_formula_sum   'Sr4 Gd4 Cu4 S12'
_cell_volume   532.33307309
_cell_formula_units_Z   4
loop_
 _symmetry_equiv_pos_site_id
 _symmetry_equiv_pos_as_xyz
  1  'x, y, z'
loop_
 _atom_site_type_symbol
 _atom_site_label
 _atom_site_symmetry_multiplicity
 _atom_site_fract_x
 _atom_site_fract_y
 _atom_site_fract_z
 _atom_site_occupancy
  Sr  Sr0  1  0.25000000  0.77639500  0.50153700  1
  Sr  Sr1  1  0.25000000  0.27639500  0.99846300  1
  Sr  Sr2  1  0.75000000  0.22360500  0.49846300  1
  Sr  Sr3  1  0.75000000  0.72360500  0.00153700  1
  Gd  Gd4  1  0.25000000  0.51393100  0.25988300  1
  Gd  Gd5  1  0.25000000  0.01393100  0.24011700  1
  Gd  Gd6  1  0.75000000  0.48606900  0.74011700  1
  Gd  Gd7  1  0.75000000  0.98606900  0.75988300  1
  Cu  Cu8  1  0.25000000  0.73652400  0.77847200  1
  Cu  Cu9  1  0.25000000  0.23652400  0.72152800  1
  Cu  Cu10  1  0.75000000  0.26347600  0.22152800  1
  Cu  Cu11  1  0.75000000  0.76347600  0.27847200  1
  S  S12  1  0.25000000  0.55315000  0.88169500  1
  S  S13  1  0.25000000  0.05315000  0.61830500  1
  S  S14  1  0.75000000  0.44685000  0.11830500  1
  S  S15  1  0.75000000  0.94685000  0.38169500  1
  S  S16  1  0.25000000  0.75920300  0.17396600  1
  S  S17  1  0.25000000  0.25920300  0.32603400  1
  S  S18  1  0.75000000  0.24079700  0.82603400  1
  S  S19  1  0.75000000  0.74079700  0.67396600  1
  S  S20  1  0.25000000  0.90858300  0.89255300  1
  S  S21  1  0.25000000  0.40858300  0.60744700  1
  S  S22  1  0.75000000  0.09141700  0.10744700  1
  S  S23  1  0.75000000  0.59141700  0.39255300  1
