# generated using pymatgen
data_K3GaO3
_symmetry_space_group_name_H-M   'P 1'
_cell_length_a   6.68843288
_cell_length_b   6.68843288
_cell_length_c   6.59231481
_cell_angle_alpha   83.70783918
_cell_angle_beta   83.70783918
_cell_angle_gamma   115.12570822
_symmetry_Int_Tables_number   1
_chemical_formula_structural   K3GaO3
_chemical_formula_sum   'K6 Ga2 O6'
_cell_volume   261.37008036
_cell_formula_units_Z   2
loop_
 _symmetry_equiv_pos_site_id
 _symmetry_equiv_pos_as_xyz
  1  'x, y, z'
loop_
 _atom_site_type_symbol
 _atom_site_label
 _atom_site_symmetry_multiplicity
 _atom_site_fract_x
 _atom_site_fract_y
 _atom_site_fract_z
 _atom_site_occupancy
  K  K0  1  0.37329100  0.37329100  0.35059600  1
  K  K1  1  0.74206300  0.25793700  0.00000000  1
  K  K2  1  0.80459200  0.19540800  0.50000000  1
  K  K3  1  0.25793700  0.74206300  0.00000000  1
  K  K4  1  0.62670900  0.62670900  0.64940400  1
  K  K5  1  0.19540800  0.80459200  0.50000000  1
  Ga  Ga6  1  0.17013700  0.17013700  0.85183700  1
  Ga  Ga7  1  0.82986300  0.82986300  0.14816300  1
  O  O8  1  0.42780000  0.15610000  0.73419800  1
  O  O9  1  0.10042600  0.10042600  0.15451100  1
  O  O10  1  0.89957400  0.89957400  0.84548900  1
  O  O11  1  0.57220000  0.84390000  0.26580200  1
  O  O12  1  0.84390000  0.57220000  0.26580200  1
  O  O13  1  0.15610000  0.42780000  0.73419800  1
