# generated using pymatgen
data_U2CS
_symmetry_space_group_name_H-M   'P 1'
_cell_length_a   6.53784716
_cell_length_b   6.53784716
_cell_length_c   6.53784762
_cell_angle_alpha   32.59540365
_cell_angle_beta   32.59540365
_cell_angle_gamma   32.59539731
_symmetry_Int_Tables_number   1
_chemical_formula_structural   U2CS
_chemical_formula_sum   'U2 C1 S1'
_cell_volume   72.12209843
_cell_formula_units_Z   1
loop_
 _symmetry_equiv_pos_site_id
 _symmetry_equiv_pos_as_xyz
  1  'x, y, z'
loop_
 _atom_site_type_symbol
 _atom_site_label
 _atom_site_symmetry_multiplicity
 _atom_site_fract_x
 _atom_site_fract_y
 _atom_site_fract_z
 _atom_site_occupancy
  U  U0  1  0.26162700  0.26162700  0.26162700  1
  U  U1  1  0.73837300  0.73837300  0.73837300  1
  C  C2  1  0.00000000  0.00000000  0.00000000  1
  S  S3  1  0.50000000  0.50000000  0.50000000  1
