# generated using pymatgen
data_Nb3Sb(PO4)6
_symmetry_space_group_name_H-M   'P 1'
_cell_length_a   8.93370056
_cell_length_b   9.00549700
_cell_length_c   12.51014280
_cell_angle_alpha   90.00000000
_cell_angle_beta   90.19271582
_cell_angle_gamma   90.00000000
_symmetry_Int_Tables_number   1
_chemical_formula_structural   Nb3Sb(PO4)6
_chemical_formula_sum   'Nb6 Sb2 P12 O48'
_cell_volume   1006.46548898
_cell_formula_units_Z   2
loop_
 _symmetry_equiv_pos_site_id
 _symmetry_equiv_pos_as_xyz
  1  'x, y, z'
loop_
 _atom_site_type_symbol
 _atom_site_label
 _atom_site_symmetry_multiplicity
 _atom_site_fract_x
 _atom_site_fract_y
 _atom_site_fract_z
 _atom_site_occupancy
  Nb  Nb0  1  0.74990300  0.46485300  0.11770600  1
  Nb  Nb1  1  0.74850500  0.03497200  0.88497500  1
  Nb  Nb2  1  0.75215400  0.53504300  0.61650600  1
  Nb  Nb3  1  0.24990300  0.03514700  0.61770600  1
  Nb  Nb4  1  0.25215400  0.96495700  0.11650600  1
  Nb  Nb5  1  0.24850500  0.46502800  0.38497500  1
  Sb  Sb6  1  0.74854300  0.96539500  0.37867400  1
  Sb  Sb7  1  0.24854300  0.53460500  0.87867400  1
  P  P8  1  0.53899700  0.75087500  0.00583200  1
  P  P9  1  0.97050500  0.25533400  0.50526900  1
  P  P10  1  0.47050500  0.24466600  0.00526900  1
  P  P11  1  0.03899700  0.74912500  0.50583200  1
  P  P12  1  0.61113100  0.59823000  0.35139300  1
  P  P13  1  0.90152400  0.11738500  0.13609900  1
  P  P14  1  0.87752000  0.38861800  0.85282800  1
  P  P15  1  0.60121300  0.88416800  0.64765400  1
  P  P16  1  0.40152400  0.38261500  0.63609900  1
  P  P17  1  0.11113100  0.90177000  0.85139300  1
  P  P18  1  0.10121300  0.61583200  0.14765400  1
  P  P19  1  0.37752000  0.11138200  0.35282800  1
  O  O20  1  0.92824400  0.59350500  0.14713000  1
  O  O21  1  0.54617300  0.11098400  0.34893400  1
  O  O22  1  0.57456800  0.40454400  0.63820700  1
  O  O23  1  0.94018400  0.93650500  0.85159700  1
  O  O24  1  0.04617300  0.38901600  0.84893400  1
  O  O25  1  0.42824400  0.90649500  0.64713000  1
  O  O26  1  0.44018400  0.56349500  0.35159700  1
  O  O27  1  0.07456800  0.09545600  0.13820700  1
  O  O28  1  0.95777900  0.82816800  0.41671600  1
  O  O29  1  0.57317900  0.33387800  0.08264600  1
  O  O30  1  0.56921600  0.14693300  0.93220500  1
  O  O31  1  0.92923300  0.66616200  0.58247000  1
  O  O32  1  0.07317900  0.16612200  0.58264600  1
  O  O33  1  0.45777900  0.67183200  0.91671600  1
  O  O34  1  0.42923300  0.83383800  0.08247000  1
  O  O35  1  0.06921600  0.35306700  0.43220500  1
  O  O36  1  0.68242800  0.48996400  0.26755800  1
  O  O37  1  0.82423800  0.01223700  0.21142100  1
  O  O38  1  0.81014200  0.49785300  0.76716100  1
  O  O39  1  0.66194200  0.96695400  0.74843800  1
  O  O40  1  0.32423800  0.48776300  0.71142100  1
  O  O41  1  0.18242800  0.01003600  0.76755800  1
  O  O42  1  0.16194200  0.53304600  0.24843800  1
  O  O43  1  0.31014200  0.00214700  0.26716100  1
  O  O44  1  0.67979200  0.56259800  0.46264100  1
  O  O45  1  0.84844000  0.08892800  0.02026800  1
  O  O46  1  0.81661200  0.43680300  0.96406000  1
  O  O47  1  0.67211600  0.94585600  0.54839200  1
  O  O48  1  0.34844000  0.41107200  0.52026800  1
  O  O49  1  0.17979200  0.93740200  0.96264100  1
  O  O50  1  0.17211600  0.55414400  0.04839200  1
  O  O51  1  0.31661200  0.06319700  0.46406000  1
  O  O52  1  0.63072200  0.63965800  0.07630700  1
  O  O53  1  0.87119000  0.15999400  0.43687000  1
  O  O54  1  0.87459600  0.36230500  0.57511700  1
  O  O55  1  0.65601100  0.86109700  0.95981100  1
  O  O56  1  0.37119000  0.34000600  0.93687000  1
  O  O57  1  0.13072200  0.86034200  0.57630700  1
  O  O58  1  0.15601100  0.63890300  0.45981100  1
  O  O59  1  0.37459600  0.13769500  0.07511700  1
  O  O60  1  0.63214900  0.75783000  0.31856300  1
  O  O61  1  0.86828100  0.28428400  0.15977300  1
  O  O62  1  0.81755500  0.23021500  0.82527900  1
  O  O63  1  0.63521500  0.71538100  0.66150200  1
  O  O64  1  0.36828100  0.21571600  0.65977300  1
  O  O65  1  0.13214900  0.74217000  0.81856300  1
  O  O66  1  0.13521500  0.78461900  0.16150200  1
  O  O67  1  0.31755500  0.26978500  0.32527900  1
