# generated using pymatgen
data_Pr3Al11
_symmetry_space_group_name_H-M   'P 1'
_cell_length_a   8.54243566
_cell_length_b   8.54243566
_cell_length_c   8.54243566
_cell_angle_alpha   150.32291849
_cell_angle_beta   107.38865610
_cell_angle_gamma   80.34695687
_symmetry_Int_Tables_number   1
_chemical_formula_structural   Pr3Al11
_chemical_formula_sum   'Pr3 Al11'
_cell_volume   288.89838265
_cell_formula_units_Z   1
loop_
 _symmetry_equiv_pos_site_id
 _symmetry_equiv_pos_as_xyz
  1  'x, y, z'
loop_
 _atom_site_type_symbol
 _atom_site_label
 _atom_site_symmetry_multiplicity
 _atom_site_fract_x
 _atom_site_fract_y
 _atom_site_fract_z
 _atom_site_occupancy
  Pr  Pr0  1  0.00000000  0.00000000  0.00000000  1
  Pr  Pr1  1  0.31745000  0.31745000  0.00000000  1
  Pr  Pr2  1  0.68255000  0.68255000  0.00000000  1
  Al  Al3  1  0.50000000  0.00000000  0.50000000  1
  Al  Al4  1  0.28366200  0.50000000  0.78366200  1
  Al  Al5  1  0.71633800  0.50000000  0.21633800  1
  Al  Al6  1  0.96474800  0.33417100  0.63057700  1
  Al  Al7  1  0.03525200  0.66582900  0.36942300  1
  Al  Al8  1  0.70359400  0.33417100  0.36942300  1
  Al  Al9  1  0.29640600  0.66582900  0.63057700  1
  Al  Al10  1  0.86319200  0.13728000  0.72591200  1
  Al  Al11  1  0.13680800  0.86272000  0.27408800  1
  Al  Al12  1  0.41136800  0.13728000  0.27408800  1
  Al  Al13  1  0.58863200  0.86272000  0.72591200  1
