# generated using pymatgen
data_Cs2Ti(GeO3)3
_symmetry_space_group_name_H-M   'P 1'
_cell_length_a   7.31773799
_cell_length_b   7.31773799
_cell_length_c   10.54541700
_cell_angle_alpha   90.00000000
_cell_angle_beta   90.00000000
_cell_angle_gamma   119.99999995
_symmetry_Int_Tables_number   1
_chemical_formula_structural   Cs2Ti(GeO3)3
_chemical_formula_sum   'Cs4 Ti2 Ge6 O18'
_cell_volume   489.04418751
_cell_formula_units_Z   2
loop_
 _symmetry_equiv_pos_site_id
 _symmetry_equiv_pos_as_xyz
  1  'x, y, z'
loop_
 _atom_site_type_symbol
 _atom_site_label
 _atom_site_symmetry_multiplicity
 _atom_site_fract_x
 _atom_site_fract_y
 _atom_site_fract_z
 _atom_site_occupancy
  Cs  Cs0  1  0.33333300  0.66666700  0.44129500  1
  Cs  Cs1  1  0.66666700  0.33333300  0.94129500  1
  Cs  Cs2  1  0.66666700  0.33333300  0.55870500  1
  Cs  Cs3  1  0.33333300  0.66666700  0.05870500  1
  Ti  Ti4  1  0.00000000  0.00000000  0.50000000  1
  Ti  Ti5  1  0.00000000  0.00000000  0.00000000  1
  Ge  Ge6  1  0.22720100  0.85760400  0.75000000  1
  Ge  Ge7  1  0.63040400  0.77279900  0.75000000  1
  Ge  Ge8  1  0.14239600  0.36959600  0.75000000  1
  Ge  Ge9  1  0.36959600  0.22720100  0.25000000  1
  Ge  Ge10  1  0.85760400  0.63040400  0.25000000  1
  Ge  Ge11  1  0.77279900  0.14239600  0.25000000  1
  O  O12  1  0.23878700  0.20076200  0.39265000  1
  O  O13  1  0.03802500  0.23878700  0.89265000  1
  O  O14  1  0.20076200  0.96197500  0.89265000  1
  O  O15  1  0.79923800  0.03802500  0.39265000  1
  O  O16  1  0.96197500  0.76121300  0.39265000  1
  O  O17  1  0.76121300  0.79923800  0.89265000  1
  O  O18  1  0.76121300  0.79923800  0.60735000  1
  O  O19  1  0.96197500  0.76121300  0.10735000  1
  O  O20  1  0.79923800  0.03802500  0.10735000  1
  O  O21  1  0.20076200  0.96197500  0.60735000  1
  O  O22  1  0.03802500  0.23878700  0.60735000  1
  O  O23  1  0.23878700  0.20076200  0.10735000  1
  O  O24  1  0.49589300  0.07064300  0.25000000  1
  O  O25  1  0.42524900  0.49589300  0.75000000  1
  O  O26  1  0.07064300  0.57475100  0.75000000  1
  O  O27  1  0.92935700  0.42524900  0.25000000  1
  O  O28  1  0.57475100  0.50410700  0.25000000  1
  O  O29  1  0.50410700  0.92935700  0.75000000  1
