# generated using pymatgen
data_Cs2CaBr4
_symmetry_space_group_name_H-M   'P 1'
_cell_length_a   9.97037149
_cell_length_b   9.97037149
_cell_length_c   9.97037149
_cell_angle_alpha   146.51219258
_cell_angle_beta   146.51219258
_cell_angle_gamma   48.08660777
_symmetry_Int_Tables_number   1
_chemical_formula_structural   Cs2CaBr4
_chemical_formula_sum   'Cs2 Ca1 Br4'
_cell_volume   300.50206444
_cell_formula_units_Z   1
loop_
 _symmetry_equiv_pos_site_id
 _symmetry_equiv_pos_as_xyz
  1  'x, y, z'
loop_
 _atom_site_type_symbol
 _atom_site_label
 _atom_site_symmetry_multiplicity
 _atom_site_fract_x
 _atom_site_fract_y
 _atom_site_fract_z
 _atom_site_occupancy
  Cs  Cs0  1  0.35721400  0.35721400  0.00000000  1
  Cs  Cs1  1  0.64278600  0.64278600  0.00000000  1
  Ca  Ca2  1  0.00000000  0.00000000  0.00000000  1
  Br  Br3  1  0.15950000  0.15950000  0.00000000  1
  Br  Br4  1  0.84050000  0.84050000  0.00000000  1
  Br  Br5  1  0.50000000  0.00000000  0.50000000  1
  Br  Br6  1  0.00000000  0.50000000  0.50000000  1
