# generated using pymatgen
data_Rb2B4O7
_symmetry_space_group_name_H-M   'P 1'
_cell_length_a   6.73519100
_cell_length_b   10.03715110
_cell_length_c   10.77612072
_cell_angle_alpha   89.17702285
_cell_angle_beta   103.34339062
_cell_angle_gamma   101.29686787
_symmetry_Int_Tables_number   1
_chemical_formula_structural   Rb2B4O7
_chemical_formula_sum   'Rb8 B16 O28'
_cell_volume   694.72620237
_cell_formula_units_Z   4
loop_
 _symmetry_equiv_pos_site_id
 _symmetry_equiv_pos_as_xyz
  1  'x, y, z'
loop_
 _atom_site_type_symbol
 _atom_site_label
 _atom_site_symmetry_multiplicity
 _atom_site_fract_x
 _atom_site_fract_y
 _atom_site_fract_z
 _atom_site_occupancy
  Rb  Rb0  1  0.76813900  0.01207900  0.59227400  1
  Rb  Rb1  1  0.23186100  0.98792100  0.40772600  1
  Rb  Rb2  1  0.24236300  0.61932300  0.50557200  1
  Rb  Rb3  1  0.75763700  0.38067700  0.49442800  1
  Rb  Rb4  1  0.66819400  0.48288600  0.87653600  1
  Rb  Rb5  1  0.33180600  0.51711400  0.12346400  1
  Rb  Rb6  1  0.64891400  0.87815200  0.95303600  1
  Rb  Rb7  1  0.35108600  0.12184800  0.04696400  1
  B  B8  1  0.29701300  0.28764100  0.55024600  1
  B  B9  1  0.70298700  0.71235900  0.44975400  1
  B  B10  1  0.85133400  0.20867900  0.85184300  1
  B  B11  1  0.14866600  0.79132100  0.14815700  1
  B  B12  1  0.13121200  0.55836800  0.80066600  1
  B  B13  1  0.86878800  0.44163200  0.19933400  1
  B  B14  1  0.20732400  0.91328700  0.73703100  1
  B  B15  1  0.79267600  0.08671300  0.26296900  1
  B  B16  1  0.43678400  0.16244400  0.73913300  1
  B  B17  1  0.56321600  0.83755600  0.26086700  1
  B  B18  1  0.91131400  0.71011400  0.68058200  1
  B  B19  1  0.08868600  0.28988600  0.31941800  1
  B  B20  1  0.07455000  0.77085900  0.89926300  1
  B  B21  1  0.92545000  0.22914100  0.10073700  1
  B  B22  1  0.16514700  0.31045100  0.74866400  1
  B  B23  1  0.83485300  0.68954900  0.25133600  1
  O  O24  1  0.87560200  0.74452500  0.80299900  1
  O  O25  1  0.07463100  0.82089200  0.64448200  1
  O  O26  1  0.28295100  0.30259900  0.42030900  1
  O  O27  1  0.71704900  0.69740100  0.57969100  1
  O  O28  1  0.01184600  0.42255400  0.31008200  1
  O  O29  1  0.92536900  0.17910800  0.35551800  1
  O  O30  1  0.66690100  0.98149700  0.30772700  1
  O  O31  1  0.33309900  0.01850300  0.69227300  1
  O  O32  1  0.36016200  0.84286100  0.17239600  1
  O  O33  1  0.63983800  0.15713900  0.82760400  1
  O  O34  1  0.68292100  0.77019400  0.19507900  1
  O  O35  1  0.31707900  0.22980600  0.80492100  1
  O  O36  1  0.77578000  0.55317600  0.18201800  1
  O  O37  1  0.22422000  0.44682400  0.81798200  1
  O  O38  1  0.53820200  0.76801700  0.38282000  1
  O  O39  1  0.46179800  0.23198300  0.61718000  1
  O  O40  1  0.84022300  0.66959200  0.39086000  1
  O  O41  1  0.15977700  0.33040800  0.60914000  1
  O  O42  1  0.05507300  0.75310500  0.24817400  1
  O  O43  1  0.94492700  0.24689500  0.75182600  1
  O  O44  1  0.18710000  0.65402200  0.90016600  1
  O  O45  1  0.81290000  0.34597800  0.09983400  1
  O  O46  1  0.21136400  0.89680800  0.86484100  1
  O  O47  1  0.78863600  0.10319200  0.13515900  1
  O  O48  1  0.96990900  0.21573900  0.97531300  1
  O  O49  1  0.03009100  0.78426100  0.02468700  1
  O  O50  1  0.98815400  0.57744600  0.68991800  1
  O  O51  1  0.12439800  0.25547500  0.19700100  1
