# generated using pymatgen
data_BaZnIn3
_symmetry_space_group_name_H-M   'P 1'
_cell_length_a   6.99016781
_cell_length_b   6.99016781
_cell_length_c   6.99016781
_cell_angle_alpha   139.56657138
_cell_angle_beta   139.56657138
_cell_angle_gamma   58.51199316
_symmetry_Int_Tables_number   1
_chemical_formula_structural   BaZnIn3
_chemical_formula_sum   'Ba1 Zn1 In3'
_cell_volume   142.34354662
_cell_formula_units_Z   1
loop_
 _symmetry_equiv_pos_site_id
 _symmetry_equiv_pos_as_xyz
  1  'x, y, z'
loop_
 _atom_site_type_symbol
 _atom_site_label
 _atom_site_symmetry_multiplicity
 _atom_site_fract_x
 _atom_site_fract_y
 _atom_site_fract_z
 _atom_site_occupancy
  Ba  Ba0  1  0.00360100  0.00360100  0.00000000  1
  Zn  Zn1  1  0.61559100  0.61559100  0.00000000  1
  In  In2  1  0.74364700  0.24364700  0.50000000  1
  In  In3  1  0.24364700  0.74364700  0.50000000  1
  In  In4  1  0.39351400  0.39351400  0.00000000  1
