# generated using pymatgen
data_NaFeAsO4F
_symmetry_space_group_name_H-M   'P 1'
_cell_length_a   6.83684693
_cell_length_b   8.85087600
_cell_length_c   7.48127071
_cell_angle_alpha   89.99998591
_cell_angle_beta   115.91476329
_cell_angle_gamma   89.99999694
_symmetry_Int_Tables_number   1
_chemical_formula_structural   NaFeAsO4F
_chemical_formula_sum   'Na4 Fe4 As4 O16 F4'
_cell_volume   407.18539374
_cell_formula_units_Z   4
loop_
 _symmetry_equiv_pos_site_id
 _symmetry_equiv_pos_as_xyz
  1  'x, y, z'
loop_
 _atom_site_type_symbol
 _atom_site_label
 _atom_site_symmetry_multiplicity
 _atom_site_fract_x
 _atom_site_fract_y
 _atom_site_fract_z
 _atom_site_occupancy
  Na  Na0  1  0.49999900  0.83147400  0.74999800  1
  Na  Na1  1  0.00000100  0.33147300  0.74999900  1
  Na  Na2  1  0.50000200  0.16853000  0.24999900  1
  Na  Na3  1  0.99999900  0.66852900  0.24999800  1
  Fe  Fe4  1  0.49998900  0.49999200  0.00002200  1
  Fe  Fe5  1  0.00000000  0.99997800  0.50000900  1
  Fe  Fe6  1  0.00002000  0.99998300  0.00001800  1
  Fe  Fe7  1  0.49998800  0.50000500  0.49998900  1
  As  As8  1  0.50000400  0.18529300  0.74999900  1
  As  As9  1  0.99999700  0.68529300  0.74999800  1
  As  As10  1  0.49999800  0.81470900  0.24999800  1
  As  As11  1  0.00000200  0.31470900  0.24999900  1
  O  O12  1  0.60726000  0.29331300  0.62187700  1
  O  O13  1  0.10726100  0.79331200  0.62187700  1
  O  O14  1  0.39274000  0.70669100  0.37811900  1
  O  O15  1  0.89274000  0.20669000  0.37812000  1
  O  O16  1  0.39273900  0.29331300  0.87812000  1
  O  O17  1  0.89274000  0.79331200  0.87811900  1
  O  O18  1  0.60726100  0.70669100  0.12187800  1
  O  O19  1  0.10726100  0.20669000  0.12187700  1
  O  O20  1  0.69139400  0.06455200  0.91502400  1
  O  O21  1  0.19139300  0.56455100  0.91502500  1
  O  O22  1  0.30860700  0.93545000  0.08497400  1
  O  O23  1  0.80860700  0.43545300  0.08497300  1
  O  O24  1  0.30860700  0.06455100  0.58497200  1
  O  O25  1  0.80860700  0.56455300  0.58497300  1
  O  O26  1  0.69139200  0.93545200  0.41502400  1
  O  O27  1  0.19139300  0.43545100  0.41502300  1
  F  F28  1  0.49999900  0.57703000  0.74999800  1
  F  F29  1  0.00000100  0.07703000  0.75000000  1
  F  F30  1  0.50000000  0.42297300  0.25000100  1
  F  F31  1  0.00000000  0.92297300  0.24999700  1
