# generated using pymatgen
data_Na2UTeO7
_symmetry_space_group_name_H-M   'P 1'
_cell_length_a   6.51009774
_cell_length_b   6.51009774
_cell_length_c   7.63293800
_cell_angle_alpha   90.00000000
_cell_angle_beta   90.00000000
_cell_angle_gamma   107.52148937
_symmetry_Int_Tables_number   1
_chemical_formula_structural   Na2UTeO7
_chemical_formula_sum   'Na4 U2 Te2 O14'
_cell_volume   308.48557652
_cell_formula_units_Z   2
loop_
 _symmetry_equiv_pos_site_id
 _symmetry_equiv_pos_as_xyz
  1  'x, y, z'
loop_
 _atom_site_type_symbol
 _atom_site_label
 _atom_site_symmetry_multiplicity
 _atom_site_fract_x
 _atom_site_fract_y
 _atom_site_fract_z
 _atom_site_occupancy
  Na  Na0  1  0.56206400  0.09802500  0.75000000  1
  Na  Na1  1  0.09802500  0.56206400  0.25000000  1
  Na  Na2  1  0.58807600  0.58807600  0.50000000  1
  Na  Na3  1  0.58807600  0.58807600  0.00000000  1
  U  U4  1  0.07838200  0.60498800  0.75000000  1
  U  U5  1  0.60498800  0.07838300  0.25000000  1
  Te  Te6  1  0.07399900  0.07399900  0.50000000  1
  Te  Te7  1  0.07399900  0.07399900  0.00000000  1
  O  O8  1  0.37841000  0.72434300  0.75000000  1
  O  O9  1  0.72434300  0.37841000  0.25000000  1
  O  O10  1  0.77613700  0.48335800  0.75000000  1
  O  O11  1  0.48335800  0.77613700  0.25000000  1
  O  O12  1  0.76837800  0.02832500  0.51365400  1
  O  O13  1  0.02832500  0.76837800  0.48634600  1
  O  O14  1  0.76837800  0.02832500  0.98634600  1
  O  O15  1  0.02832500  0.76837800  0.01365400  1
  O  O16  1  0.11918200  0.01106800  0.75000000  1
  O  O17  1  0.01106800  0.11918200  0.25000000  1
  O  O18  1  0.13294900  0.37673400  0.54898800  1
  O  O19  1  0.37673400  0.13294900  0.45101200  1
  O  O20  1  0.13294900  0.37673400  0.95101200  1
  O  O21  1  0.37673400  0.13294900  0.04898800  1
