# generated using pymatgen
data_La6Ga3Co11
_symmetry_space_group_name_H-M   'P 1'
_cell_length_a   12.70751355
_cell_length_b   12.70751355
_cell_length_c   12.70751355
_cell_angle_alpha   142.73414077
_cell_angle_beta   142.73414077
_cell_angle_gamma   53.72447489
_symmetry_Int_Tables_number   1
_chemical_formula_structural   La6Ga3Co11
_chemical_formula_sum   'La12 Ga6 Co22'
_cell_volume   747.49038269
_cell_formula_units_Z   2
loop_
 _symmetry_equiv_pos_site_id
 _symmetry_equiv_pos_as_xyz
  1  'x, y, z'
loop_
 _atom_site_type_symbol
 _atom_site_label
 _atom_site_symmetry_multiplicity
 _atom_site_fract_x
 _atom_site_fract_y
 _atom_site_fract_z
 _atom_site_occupancy
  La  La0  1  0.60088000  0.60088000  0.00000000  1
  La  La1  1  0.10088000  0.10088000  0.00000000  1
  La  La2  1  0.39756800  0.39756800  0.00000000  1
  La  La3  1  0.89756800  0.89756800  0.00000000  1
  La  La4  1  0.48368500  0.98368500  0.83183500  1
  La  La5  1  0.15184900  0.65184900  0.16816500  1
  La  La6  1  0.98368500  0.15184900  0.50000000  1
  La  La7  1  0.65184900  0.48368500  0.50000000  1
  La  La8  1  0.51714500  0.01714500  0.15978000  1
  La  La9  1  0.85736500  0.35736500  0.84022000  1
  La  La10  1  0.01714500  0.85736500  0.50000000  1
  La  La11  1  0.35736500  0.51714500  0.50000000  1
  Ga  Ga12  1  0.24947400  0.24947400  0.00000000  1
  Ga  Ga13  1  0.74947400  0.74947400  0.00000000  1
  Ga  Ga14  1  0.21321200  0.71321200  0.74345100  1
  Ga  Ga15  1  0.96976100  0.46976100  0.25654900  1
  Ga  Ga16  1  0.71321200  0.96976100  0.50000000  1
  Ga  Ga17  1  0.46976100  0.21321200  0.50000000  1
  Co  Co18  1  0.49759100  0.99759100  0.50000000  1
  Co  Co19  1  0.99759100  0.49759100  0.50000000  1
  Co  Co20  1  0.62211300  0.12211300  0.85851400  1
  Co  Co21  1  0.26359900  0.76359900  0.14148600  1
  Co  Co22  1  0.12211300  0.26359900  0.50000000  1
  Co  Co23  1  0.76359900  0.62211300  0.50000000  1
  Co  Co24  1  0.38324600  0.88324600  0.15336800  1
  Co  Co25  1  0.72987800  0.22987800  0.84663200  1
  Co  Co26  1  0.88324600  0.72987800  0.50000000  1
  Co  Co27  1  0.22987800  0.38324600  0.50000000  1
  Co  Co28  1  0.56432900  0.70915600  0.27762400  1
  Co  Co29  1  0.43153200  0.28670500  0.72237600  1
  Co  Co30  1  0.06432900  0.78670500  0.85517300  1
  Co  Co31  1  0.93153200  0.20915600  0.14482700  1
  Co  Co32  1  0.28670500  0.56432900  0.85517300  1
  Co  Co33  1  0.70915600  0.43153200  0.14482700  1
  Co  Co34  1  0.20915600  0.06432900  0.27762400  1
  Co  Co35  1  0.78670500  0.93153200  0.72237600  1
  Co  Co36  1  0.79755500  0.29755500  0.27420100  1
  Co  Co37  1  0.02335500  0.52335500  0.72579900  1
  Co  Co38  1  0.29755500  0.02335500  0.50000000  1
  Co  Co39  1  0.52335500  0.79755500  0.50000000  1
