# generated using pymatgen
data_MgAg2(PS3)2
_symmetry_space_group_name_H-M   'P 1'
_cell_length_a   6.37268410
_cell_length_b   6.37268410
_cell_length_c   13.70545779
_cell_angle_alpha   85.83138677
_cell_angle_beta   85.83138677
_cell_angle_gamma   119.66526060
_symmetry_Int_Tables_number   1
_chemical_formula_structural   MgAg2(PS3)2
_chemical_formula_sum   'Mg2 Ag4 P4 S12'
_cell_volume   478.55529793
_cell_formula_units_Z   2
loop_
 _symmetry_equiv_pos_site_id
 _symmetry_equiv_pos_as_xyz
  1  'x, y, z'
loop_
 _atom_site_type_symbol
 _atom_site_label
 _atom_site_symmetry_multiplicity
 _atom_site_fract_x
 _atom_site_fract_y
 _atom_site_fract_z
 _atom_site_occupancy
  Mg  Mg0  1  0.42293500  0.57706500  0.25000000  1
  Mg  Mg1  1  0.57706500  0.42293500  0.75000000  1
  Ag  Ag2  1  0.03524400  0.85640800  0.40022200  1
  Ag  Ag3  1  0.96475600  0.14359200  0.59977800  1
  Ag  Ag4  1  0.14359200  0.96475600  0.09977800  1
  Ag  Ag5  1  0.85640800  0.03524400  0.90022200  1
  P  P6  1  0.21583100  0.72287900  0.83367400  1
  P  P7  1  0.78416900  0.27712100  0.16632600  1
  P  P8  1  0.27712100  0.78416900  0.66632600  1
  P  P9  1  0.72287900  0.21583100  0.33367400  1
  S  S10  1  0.47597200  0.65114100  0.87853900  1
  S  S11  1  0.52402800  0.34885900  0.12146100  1
  S  S12  1  0.34885900  0.52402800  0.62146100  1
  S  S13  1  0.65114100  0.47597200  0.37853900  1
  S  S14  1  0.04048000  0.25560000  0.37970000  1
  S  S15  1  0.95952000  0.74440000  0.62030000  1
  S  S16  1  0.74440000  0.95952000  0.12030000  1
  S  S17  1  0.25560000  0.04048000  0.87970000  1
  S  S18  1  0.12957900  0.56407200  0.12517300  1
  S  S19  1  0.87042100  0.43592800  0.87482700  1
  S  S20  1  0.43592800  0.87042100  0.37482700  1
  S  S21  1  0.56407200  0.12957900  0.62517300  1
