# generated using pymatgen
data_Dy3Pt4
_symmetry_space_group_name_H-M   'P 1'
_cell_length_a   7.89360294
_cell_length_b   7.89360294
_cell_length_c   7.89360229
_cell_angle_alpha   114.32915606
_cell_angle_beta   114.32915606
_cell_angle_gamma   114.32915128
_symmetry_Int_Tables_number   1
_chemical_formula_structural   Dy3Pt4
_chemical_formula_sum   'Dy6 Pt8'
_cell_volume   291.38299242
_cell_formula_units_Z   2
loop_
 _symmetry_equiv_pos_site_id
 _symmetry_equiv_pos_as_xyz
  1  'x, y, z'
loop_
 _atom_site_type_symbol
 _atom_site_label
 _atom_site_symmetry_multiplicity
 _atom_site_fract_x
 _atom_site_fract_y
 _atom_site_fract_z
 _atom_site_occupancy
  Dy  Dy0  1  0.97065600  0.59240600  0.72010600  1
  Dy  Dy1  1  0.72010600  0.97065600  0.59240600  1
  Dy  Dy2  1  0.59240600  0.72010600  0.97065600  1
  Dy  Dy3  1  0.02934400  0.40759300  0.27989400  1
  Dy  Dy4  1  0.27989400  0.02934400  0.40759400  1
  Dy  Dy5  1  0.40759300  0.27989400  0.02934400  1
  Pt  Pt6  1  0.00000000  0.00000000  0.00000000  1
  Pt  Pt7  1  0.50000000  0.50000000  0.50000000  1
  Pt  Pt8  1  0.94192500  0.77485900  0.45281800  1
  Pt  Pt9  1  0.45281800  0.94192500  0.77485900  1
  Pt  Pt10  1  0.77485900  0.45281800  0.94192500  1
  Pt  Pt11  1  0.05807500  0.22514100  0.54718200  1
  Pt  Pt12  1  0.54718200  0.05807500  0.22514100  1
  Pt  Pt13  1  0.22514100  0.54718200  0.05807500  1
