# generated using pymatgen
data_RbSc(SO4)2
_symmetry_space_group_name_H-M   'P 1'
_cell_length_a   5.05963487
_cell_length_b   5.05963487
_cell_length_c   8.76850900
_cell_angle_alpha   90.00000000
_cell_angle_beta   90.00000000
_cell_angle_gamma   119.99998517
_symmetry_Int_Tables_number   1
_chemical_formula_structural   RbSc(SO4)2
_chemical_formula_sum   'Rb1 Sc1 S2 O8'
_cell_volume   194.39934706
_cell_formula_units_Z   1
loop_
 _symmetry_equiv_pos_site_id
 _symmetry_equiv_pos_as_xyz
  1  'x, y, z'
loop_
 _atom_site_type_symbol
 _atom_site_label
 _atom_site_symmetry_multiplicity
 _atom_site_fract_x
 _atom_site_fract_y
 _atom_site_fract_z
 _atom_site_occupancy
  Rb  Rb0  1  0.00000000  0.00000000  0.50000000  1
  Sc  Sc1  1  0.00000000  0.00000000  0.00000000  1
  S  S2  1  0.33333300  0.66666700  0.21059800  1
  S  S3  1  0.66666700  0.33333300  0.78940200  1
  O  O4  1  0.09596100  0.36174200  0.15137800  1
  O  O5  1  0.63825800  0.73421900  0.15137800  1
  O  O6  1  0.36174200  0.09596100  0.84862200  1
  O  O7  1  0.26578100  0.90403900  0.15137800  1
  O  O8  1  0.73421900  0.63825800  0.84862200  1
  O  O9  1  0.90403900  0.26578100  0.84862200  1
  O  O10  1  0.33333300  0.66666700  0.37682500  1
  O  O11  1  0.66666700  0.33333300  0.62317500  1
