# generated using pymatgen
data_GdSn2
_symmetry_space_group_name_H-M   'P 1'
_cell_length_a   8.53098801
_cell_length_b   8.53098801
_cell_length_c   4.39482300
_cell_angle_alpha   90.00000000
_cell_angle_beta   90.00000000
_cell_angle_gamma   149.50484697
_symmetry_Int_Tables_number   1
_chemical_formula_structural   GdSn2
_chemical_formula_sum   'Gd2 Sn4'
_cell_volume   162.31047532
_cell_formula_units_Z   2
loop_
 _symmetry_equiv_pos_site_id
 _symmetry_equiv_pos_as_xyz
  1  'x, y, z'
loop_
 _atom_site_type_symbol
 _atom_site_label
 _atom_site_symmetry_multiplicity
 _atom_site_fract_x
 _atom_site_fract_y
 _atom_site_fract_z
 _atom_site_occupancy
  Gd  Gd0  1  0.40212500  0.59787500  0.75000000  1
  Gd  Gd1  1  0.59787500  0.40212500  0.25000000  1
  Sn  Sn2  1  0.75047100  0.24952900  0.75000000  1
  Sn  Sn3  1  0.24952900  0.75047100  0.25000000  1
  Sn  Sn4  1  0.06394000  0.93606000  0.75000000  1
  Sn  Sn5  1  0.93606000  0.06394000  0.25000000  1
