# generated using pymatgen
data_CrH20N2O6F5
_symmetry_space_group_name_H-M   'P 1'
_cell_length_a   7.02619357
_cell_length_b   7.02619357
_cell_length_c   13.49756900
_cell_angle_alpha   90.00000000
_cell_angle_beta   90.00000000
_cell_angle_gamma   119.99999596
_symmetry_Int_Tables_number   1
_chemical_formula_structural   CrH20N2O6F5
_chemical_formula_sum   'Cr2 H40 N4 O12 F10'
_cell_volume   577.06724825
_cell_formula_units_Z   2
loop_
 _symmetry_equiv_pos_site_id
 _symmetry_equiv_pos_as_xyz
  1  'x, y, z'
loop_
 _atom_site_type_symbol
 _atom_site_label
 _atom_site_symmetry_multiplicity
 _atom_site_fract_x
 _atom_site_fract_y
 _atom_site_fract_z
 _atom_site_occupancy
  Cr  Cr0  1  0.00000000  0.00000000  0.50000000  1
  Cr  Cr1  1  0.00000000  0.00000000  0.00000000  1
  H  H2  1  0.66666700  0.33333300  0.90310400  1
  H  H3  1  0.33333300  0.66666700  0.59689600  1
  H  H4  1  0.33333300  0.66666700  0.09689600  1
  H  H5  1  0.66666700  0.33333300  0.40310400  1
  H  H6  1  0.51816300  0.31287100  0.79826600  1
  H  H7  1  0.31287100  0.51816300  0.70173400  1
  H  H8  1  0.48183700  0.68712900  0.20173400  1
  H  H9  1  0.68712900  0.48183700  0.29826600  1
  H  H10  1  0.68712900  0.20529300  0.79826600  1
  H  H11  1  0.20529300  0.68712900  0.70173400  1
  H  H12  1  0.31287100  0.79470700  0.20173400  1
  H  H13  1  0.79470700  0.31287100  0.29826600  1
  H  H14  1  0.79470700  0.48183700  0.79826600  1
  H  H15  1  0.48183700  0.79470700  0.70173400  1
  H  H16  1  0.20529300  0.51816300  0.20173400  1
  H  H17  1  0.51816300  0.20529300  0.29826600  1
  H  H18  1  0.76825700  0.58210800  0.55996400  1
  H  H19  1  0.58210800  0.76825700  0.94003600  1
  H  H20  1  0.23174300  0.41789200  0.44003600  1
  H  H21  1  0.41789200  0.23174300  0.05996400  1
  H  H22  1  0.90027900  0.73875500  0.65418500  1
  H  H23  1  0.73875500  0.90027900  0.84581500  1
  H  H24  1  0.09972100  0.26124500  0.34581500  1
  H  H25  1  0.26124500  0.09972100  0.15418500  1
  H  H26  1  0.81385100  0.23174300  0.55996400  1
  H  H27  1  0.23174300  0.81385100  0.94003600  1
  H  H28  1  0.18614900  0.76825700  0.44003600  1
  H  H29  1  0.76825700  0.18614900  0.05996400  1
  H  H30  1  0.83847600  0.09972100  0.65418500  1
  H  H31  1  0.09972100  0.83847600  0.84581500  1
  H  H32  1  0.16152400  0.90027900  0.34581500  1
  H  H33  1  0.90027900  0.16152400  0.15418500  1
  H  H34  1  0.26124500  0.16152400  0.65418500  1
  H  H35  1  0.16152400  0.26124500  0.84581500  1
  H  H36  1  0.73875500  0.83847600  0.34581500  1
  H  H37  1  0.83847600  0.73875500  0.15418500  1
  H  H38  1  0.41789200  0.18614900  0.55996400  1
  H  H39  1  0.18614900  0.41789200  0.94003600  1
  H  H40  1  0.58210800  0.81385100  0.44003600  1
  H  H41  1  0.81385100  0.58210800  0.05996400  1
  N  N42  1  0.66666700  0.33333300  0.82564100  1
  N  N43  1  0.33333300  0.66666700  0.67435900  1
  N  N44  1  0.33333300  0.66666700  0.17435900  1
  N  N45  1  0.66666700  0.33333300  0.32564100  1
  O  O46  1  0.82830300  0.73460600  0.58770800  1
  O  O47  1  0.73460600  0.82830300  0.91229200  1
  O  O48  1  0.17169700  0.26539400  0.41229200  1
  O  O49  1  0.26539400  0.17169700  0.08770800  1
  O  O50  1  0.90630300  0.17169700  0.58770800  1
  O  O51  1  0.17169700  0.90630300  0.91229200  1
  O  O52  1  0.09369700  0.82830300  0.41229200  1
  O  O53  1  0.82830300  0.09369700  0.08770800  1
  O  O54  1  0.26539400  0.09369700  0.58770800  1
  O  O55  1  0.09369700  0.26539400  0.91229200  1
  O  O56  1  0.73460600  0.90630300  0.41229200  1
  O  O57  1  0.90630300  0.73460600  0.08770800  1
  F  F58  1  0.66666700  0.33333300  0.52738800  1
  F  F59  1  0.33333300  0.66666700  0.97261200  1
  F  F60  1  0.33333300  0.66666700  0.47261200  1
  F  F61  1  0.66666700  0.33333300  0.02738800  1
  F  F62  1  0.00000000  0.72092700  0.75000000  1
  F  F63  1  0.72092700  0.00000000  0.75000000  1
  F  F64  1  0.00000000  0.27907300  0.25000000  1
  F  F65  1  0.27907300  0.00000000  0.25000000  1
  F  F66  1  0.27907300  0.27907300  0.75000000  1
  F  F67  1  0.72092700  0.72092700  0.25000000  1
