# generated using pymatgen
data_Ho14Ag51
_symmetry_space_group_name_H-M   'P 1'
_cell_length_a   12.73674052
_cell_length_b   12.73674052
_cell_length_c   9.38482800
_cell_angle_alpha   90.00000000
_cell_angle_beta   90.00000000
_cell_angle_gamma   120.00000269
_symmetry_Int_Tables_number   1
_chemical_formula_structural   Ho14Ag51
_chemical_formula_sum   'Ho14 Ag51'
_cell_volume   1318.47997986
_cell_formula_units_Z   1
loop_
 _symmetry_equiv_pos_site_id
 _symmetry_equiv_pos_as_xyz
  1  'x, y, z'
loop_
 _atom_site_type_symbol
 _atom_site_label
 _atom_site_symmetry_multiplicity
 _atom_site_fract_x
 _atom_site_fract_y
 _atom_site_fract_z
 _atom_site_occupancy
  Ho  Ho0  1  0.13425200  0.66169600  0.50000000  1
  Ho  Ho1  1  0.52744400  0.86574800  0.50000000  1
  Ho  Ho2  1  0.33830400  0.47255600  0.50000000  1
  Ho  Ho3  1  0.19846000  0.00521500  0.50000000  1
  Ho  Ho4  1  0.80675400  0.80154000  0.50000000  1
  Ho  Ho5  1  0.99478500  0.19324600  0.50000000  1
  Ho  Ho6  1  0.78021900  0.05916600  0.00000000  1
  Ho  Ho7  1  0.27894700  0.21978100  0.00000000  1
  Ho  Ho8  1  0.94083400  0.72105300  0.00000000  1
  Ho  Ho9  1  0.55078200  0.61445100  0.00000000  1
  Ho  Ho10  1  0.06366900  0.44921800  0.00000000  1
  Ho  Ho11  1  0.38554900  0.93633100  0.00000000  1
  Ho  Ho12  1  0.66666700  0.33333300  0.69198500  1
  Ho  Ho13  1  0.66666700  0.33333300  0.30801500  1
  Ag  Ag14  1  0.77071300  0.99804400  0.66704200  1
  Ag  Ag15  1  0.22733100  0.22928700  0.66704200  1
  Ag  Ag16  1  0.00195600  0.77266900  0.66704200  1
  Ag  Ag17  1  0.56217500  0.66902400  0.66679300  1
  Ag  Ag18  1  0.10684900  0.43782500  0.66679300  1
  Ag  Ag19  1  0.33097600  0.89315100  0.66679300  1
  Ag  Ag20  1  0.56217500  0.66902400  0.33320700  1
  Ag  Ag21  1  0.10684900  0.43782500  0.33320700  1
  Ag  Ag22  1  0.33097600  0.89315100  0.33320700  1
  Ag  Ag23  1  0.77071300  0.99804400  0.33295800  1
  Ag  Ag24  1  0.22733100  0.22928700  0.33295800  1
  Ag  Ag25  1  0.00195600  0.77266900  0.33295800  1
  Ag  Ag26  1  0.15976800  0.71108900  0.84807200  1
  Ag  Ag27  1  0.55132100  0.84023200  0.84807200  1
  Ag  Ag28  1  0.28891100  0.44867900  0.84807200  1
  Ag  Ag29  1  0.17159500  0.95405300  0.84871300  1
  Ag  Ag30  1  0.78245800  0.82840500  0.84871300  1
  Ag  Ag31  1  0.04594700  0.21754200  0.84871300  1
  Ag  Ag32  1  0.17159500  0.95405300  0.15128700  1
  Ag  Ag33  1  0.78245800  0.82840500  0.15128700  1
  Ag  Ag34  1  0.04594700  0.21754200  0.15128700  1
  Ag  Ag35  1  0.15976800  0.71108900  0.15192800  1
  Ag  Ag36  1  0.55132100  0.84023200  0.15192800  1
  Ag  Ag37  1  0.28891100  0.44867900  0.15192800  1
  Ag  Ag38  1  0.72631400  0.15485900  0.50000000  1
  Ag  Ag39  1  0.42854600  0.27368600  0.50000000  1
  Ag  Ag40  1  0.84514100  0.57145400  0.50000000  1
  Ag  Ag41  1  0.60623500  0.51149500  0.50000000  1
  Ag  Ag42  1  0.90526000  0.39376500  0.50000000  1
  Ag  Ag43  1  0.48850500  0.09474000  0.50000000  1
  Ag  Ag44  1  0.33333300  0.66666700  0.00000000  1
  Ag  Ag45  1  0.00000000  0.00000000  0.00000000  1
  Ag  Ag46  1  0.85828100  0.25569400  0.76017200  1
  Ag  Ag47  1  0.39741300  0.14171900  0.76017200  1
  Ag  Ag48  1  0.74430600  0.60258700  0.76017200  1
  Ag  Ag49  1  0.47772500  0.40792100  0.76865200  1
  Ag  Ag50  1  0.93019700  0.52227500  0.76865200  1
  Ag  Ag51  1  0.59207900  0.06980300  0.76865200  1
  Ag  Ag52  1  0.47772500  0.40792100  0.23134800  1
  Ag  Ag53  1  0.93019700  0.52227500  0.23134800  1
  Ag  Ag54  1  0.59207900  0.06980300  0.23134800  1
  Ag  Ag55  1  0.85828100  0.25569400  0.23982800  1
  Ag  Ag56  1  0.39741300  0.14171900  0.23982800  1
  Ag  Ag57  1  0.74430600  0.60258700  0.23982800  1
  Ag  Ag58  1  0.33333300  0.66666700  0.69670000  1
  Ag  Ag59  1  0.00000000  0.00000000  0.69698000  1
  Ag  Ag60  1  0.00000000  0.00000000  0.30302000  1
  Ag  Ag61  1  0.33333300  0.66666700  0.30330000  1
  Ag  Ag62  1  0.79666700  0.34149000  0.00000000  1
  Ag  Ag63  1  0.54482300  0.20333300  0.00000000  1
  Ag  Ag64  1  0.65851000  0.45517700  0.00000000  1
