# generated using pymatgen
data_RbUAgSe3
_symmetry_space_group_name_H-M   'P 1'
_cell_length_a   8.00599875
_cell_length_b   8.00599875
_cell_length_c   10.92069600
_cell_angle_alpha   90.00000000
_cell_angle_beta   90.00000000
_cell_angle_gamma   149.02361782
_symmetry_Int_Tables_number   1
_chemical_formula_structural   RbUAgSe3
_chemical_formula_sum   'Rb2 U2 Ag2 Se6'
_cell_volume   360.26544709
_cell_formula_units_Z   2
loop_
 _symmetry_equiv_pos_site_id
 _symmetry_equiv_pos_as_xyz
  1  'x, y, z'
loop_
 _atom_site_type_symbol
 _atom_site_label
 _atom_site_symmetry_multiplicity
 _atom_site_fract_x
 _atom_site_fract_y
 _atom_site_fract_z
 _atom_site_occupancy
  Rb  Rb0  1  0.74605700  0.25394300  0.25000000  1
  Rb  Rb1  1  0.25394300  0.74605700  0.75000000  1
  U  U2  1  0.00000000  0.00000000  0.50000000  1
  U  U3  1  0.00000000  0.00000000  0.00000000  1
  Ag  Ag4  1  0.54138700  0.45861300  0.75000000  1
  Ag  Ag5  1  0.45861300  0.54138700  0.25000000  1
  Se  Se6  1  0.62190200  0.37809800  0.53967200  1
  Se  Se7  1  0.37809800  0.62190200  0.46032800  1
  Se  Se8  1  0.37809800  0.62190200  0.03967200  1
  Se  Se9  1  0.93716300  0.06283700  0.75000000  1
  Se  Se10  1  0.06283700  0.93716300  0.25000000  1
  Se  Se11  1  0.62190200  0.37809800  0.96032800  1
