# generated using pymatgen
data_Dy3GaS6
_symmetry_space_group_name_H-M   'P 1'
_cell_length_a   8.53510865
_cell_length_b   8.53510865
_cell_length_c   6.47933800
_cell_angle_alpha   90.00000000
_cell_angle_beta   90.00000000
_cell_angle_gamma   102.44832496
_symmetry_Int_Tables_number   1
_chemical_formula_structural   Dy3GaS6
_chemical_formula_sum   'Dy6 Ga2 S12'
_cell_volume   460.91082397
_cell_formula_units_Z   2
loop_
 _symmetry_equiv_pos_site_id
 _symmetry_equiv_pos_as_xyz
  1  'x, y, z'
loop_
 _atom_site_type_symbol
 _atom_site_label
 _atom_site_symmetry_multiplicity
 _atom_site_fract_x
 _atom_site_fract_y
 _atom_site_fract_z
 _atom_site_occupancy
  Dy  Dy0  1  0.28418900  0.08535000  0.22455900  1
  Dy  Dy1  1  0.91465000  0.71581100  0.22455900  1
  Dy  Dy2  1  0.71581100  0.91465000  0.72455900  1
  Dy  Dy3  1  0.08535000  0.28418900  0.72455900  1
  Dy  Dy4  1  0.40074100  0.59925900  0.14097100  1
  Dy  Dy5  1  0.59925900  0.40074100  0.64097100  1
  Ga  Ga6  1  0.20103700  0.79896300  0.76187600  1
  Ga  Ga7  1  0.79896300  0.20103700  0.26187600  1
  S  S8  1  0.56746200  0.09986400  0.44130200  1
  S  S9  1  0.90013600  0.43253800  0.44130200  1
  S  S10  1  0.43253800  0.90013600  0.94130200  1
  S  S11  1  0.09986400  0.56746200  0.94130200  1
  S  S12  1  0.63450000  0.68956000  0.43274200  1
  S  S13  1  0.31044000  0.36550000  0.43274200  1
  S  S14  1  0.36550000  0.31044000  0.93274200  1
  S  S15  1  0.68956000  0.63450000  0.93274200  1
  S  S16  1  0.21816800  0.78183200  0.41080400  1
  S  S17  1  0.78183200  0.21816800  0.91080400  1
  S  S18  1  0.96035500  0.03964500  0.40414200  1
  S  S19  1  0.03964500  0.96035500  0.90414200  1
