# generated using pymatgen
data_Zr3Sb7Pd
_symmetry_space_group_name_H-M   'P 1'
_cell_length_a   3.99083600
_cell_length_b   14.72707400
_cell_length_c   17.79303400
_cell_angle_alpha   90.00000000
_cell_angle_beta   90.00000000
_cell_angle_gamma   90.00000000
_symmetry_Int_Tables_number   1
_chemical_formula_structural   Zr3Sb7Pd
_chemical_formula_sum   'Zr12 Sb28 Pd4'
_cell_volume   1045.75598520
_cell_formula_units_Z   4
loop_
 _symmetry_equiv_pos_site_id
 _symmetry_equiv_pos_as_xyz
  1  'x, y, z'
loop_
 _atom_site_type_symbol
 _atom_site_label
 _atom_site_symmetry_multiplicity
 _atom_site_fract_x
 _atom_site_fract_y
 _atom_site_fract_z
 _atom_site_occupancy
  Zr  Zr0  1  0.25000000  0.31063400  0.84647500  1
  Zr  Zr1  1  0.25000000  0.18936600  0.34647500  1
  Zr  Zr2  1  0.75000000  0.68936600  0.15352500  1
  Zr  Zr3  1  0.75000000  0.81063400  0.65352500  1
  Zr  Zr4  1  0.25000000  0.02935900  0.86937400  1
  Zr  Zr5  1  0.25000000  0.47064100  0.36937400  1
  Zr  Zr6  1  0.75000000  0.97064100  0.13062600  1
  Zr  Zr7  1  0.75000000  0.52935900  0.63062600  1
  Zr  Zr8  1  0.25000000  0.58883100  0.89180300  1
  Zr  Zr9  1  0.25000000  0.91116900  0.39180300  1
  Zr  Zr10  1  0.75000000  0.41116900  0.10819700  1
  Zr  Zr11  1  0.75000000  0.08883100  0.60819700  1
  Sb  Sb12  1  0.25000000  0.19524200  0.51870600  1
  Sb  Sb13  1  0.25000000  0.30475800  0.01870600  1
  Sb  Sb14  1  0.75000000  0.80475800  0.48129400  1
  Sb  Sb15  1  0.75000000  0.69524200  0.98129400  1
  Sb  Sb16  1  0.25000000  0.42988900  0.53604200  1
  Sb  Sb17  1  0.25000000  0.07011100  0.03604200  1
  Sb  Sb18  1  0.75000000  0.57011100  0.46395800  1
  Sb  Sb19  1  0.75000000  0.92988900  0.96395800  1
  Sb  Sb20  1  0.25000000  0.93939800  0.57131300  1
  Sb  Sb21  1  0.25000000  0.56060200  0.07131300  1
  Sb  Sb22  1  0.75000000  0.06060200  0.42868700  1
  Sb  Sb23  1  0.75000000  0.43939800  0.92868700  1
  Sb  Sb24  1  0.25000000  0.67613500  0.59297600  1
  Sb  Sb25  1  0.25000000  0.82386500  0.09297600  1
  Sb  Sb26  1  0.75000000  0.32386500  0.40702400  1
  Sb  Sb27  1  0.75000000  0.17613500  0.90702400  1
  Sb  Sb28  1  0.25000000  0.14707500  0.72795700  1
  Sb  Sb29  1  0.25000000  0.35292500  0.22795700  1
  Sb  Sb30  1  0.75000000  0.85292500  0.27204300  1
  Sb  Sb31  1  0.75000000  0.64707500  0.77204300  1
  Sb  Sb32  1  0.25000000  0.48057600  0.74872300  1
  Sb  Sb33  1  0.25000000  0.01942400  0.24872300  1
  Sb  Sb34  1  0.75000000  0.51942400  0.25127700  1
  Sb  Sb35  1  0.75000000  0.98057600  0.75127700  1
  Sb  Sb36  1  0.25000000  0.81989100  0.78376100  1
  Sb  Sb37  1  0.25000000  0.68010900  0.28376100  1
  Sb  Sb38  1  0.75000000  0.18010900  0.21623900  1
  Sb  Sb39  1  0.75000000  0.31989100  0.71623900  1
  Pd  Pd40  1  0.25000000  0.80970300  0.93439900  1
  Pd  Pd41  1  0.25000000  0.69029700  0.43439900  1
  Pd  Pd42  1  0.75000000  0.19029700  0.06560100  1
  Pd  Pd43  1  0.75000000  0.30970300  0.56560100  1
