# generated using pymatgen
data_Nb3VSe6
_symmetry_space_group_name_H-M   'P 1'
_cell_length_a   6.07222739
_cell_length_b   6.07222739
_cell_length_c   12.74525700
_cell_angle_alpha   90.00000000
_cell_angle_beta   90.00000000
_cell_angle_gamma   119.99999334
_symmetry_Int_Tables_number   1
_chemical_formula_structural   Nb3VSe6
_chemical_formula_sum   'Nb6 V2 Se12'
_cell_volume   406.98210222
_cell_formula_units_Z   2
loop_
 _symmetry_equiv_pos_site_id
 _symmetry_equiv_pos_as_xyz
  1  'x, y, z'
loop_
 _atom_site_type_symbol
 _atom_site_label
 _atom_site_symmetry_multiplicity
 _atom_site_fract_x
 _atom_site_fract_y
 _atom_site_fract_z
 _atom_site_occupancy
  Nb  Nb0  1  0.00000000  0.00000000  0.50000000  1
  Nb  Nb1  1  0.00000000  0.00000000  0.00000000  1
  Nb  Nb2  1  0.33333300  0.66666700  0.99959100  1
  Nb  Nb3  1  0.66666700  0.33333300  0.00040900  1
  Nb  Nb4  1  0.66666700  0.33333300  0.49959100  1
  Nb  Nb5  1  0.33333300  0.66666700  0.50040900  1
  V  V6  1  0.33333300  0.66666700  0.25000000  1
  V  V7  1  0.66666700  0.33333300  0.75000000  1
  Se  Se8  1  0.33269200  0.33109000  0.36819800  1
  Se  Se9  1  0.66891000  0.00160200  0.36819800  1
  Se  Se10  1  0.99839800  0.66730800  0.36819800  1
  Se  Se11  1  0.33109000  0.33269200  0.63180200  1
  Se  Se12  1  0.00160200  0.66891000  0.63180200  1
  Se  Se13  1  0.66730800  0.99839800  0.63180200  1
  Se  Se14  1  0.66730800  0.66891000  0.86819800  1
  Se  Se15  1  0.33109000  0.99839800  0.86819800  1
  Se  Se16  1  0.00160200  0.33269200  0.86819800  1
  Se  Se17  1  0.66891000  0.66730800  0.13180200  1
  Se  Se18  1  0.99839800  0.33109000  0.13180200  1
  Se  Se19  1  0.33269200  0.00160200  0.13180200  1
