# generated using pymatgen
data_U8VSe17
_symmetry_space_group_name_H-M   'P 1'
_cell_length_a   8.18553924
_cell_length_b   8.18553924
_cell_length_c   10.81960305
_cell_angle_alpha   80.65458949
_cell_angle_beta   80.65458949
_cell_angle_gamma   64.67561949
_symmetry_Int_Tables_number   1
_chemical_formula_structural   U8VSe17
_chemical_formula_sum   'U8 V1 Se17'
_cell_volume   643.06320163
_cell_formula_units_Z   1
loop_
 _symmetry_equiv_pos_site_id
 _symmetry_equiv_pos_as_xyz
  1  'x, y, z'
loop_
 _atom_site_type_symbol
 _atom_site_label
 _atom_site_symmetry_multiplicity
 _atom_site_fract_x
 _atom_site_fract_y
 _atom_site_fract_z
 _atom_site_occupancy
  U  U0  1  0.81934900  0.30163000  0.29800500  1
  U  U1  1  0.30163000  0.81934900  0.29800500  1
  U  U2  1  0.18065100  0.69837000  0.70199500  1
  U  U3  1  0.69837000  0.18065100  0.70199500  1
  U  U4  1  0.20307100  0.20307100  0.54164900  1
  U  U5  1  0.79692900  0.79692900  0.45835100  1
  U  U6  1  0.68123200  0.68123200  0.98427900  1
  U  U7  1  0.31876800  0.31876800  0.01572100  1
  V  V8  1  0.00000000  0.00000000  0.00000000  1
  Se  Se9  1  0.81910800  0.43432800  0.53658700  1
  Se  Se10  1  0.43432800  0.81910800  0.53658700  1
  Se  Se11  1  0.18089200  0.56567200  0.46341300  1
  Se  Se12  1  0.56567200  0.18089200  0.46341300  1
  Se  Se13  1  0.94283400  0.32378400  0.02745000  1
  Se  Se14  1  0.32378400  0.94283400  0.02745000  1
  Se  Se15  1  0.05716600  0.67621600  0.97255000  1
  Se  Se16  1  0.67621600  0.05716600  0.97255000  1
  Se  Se17  1  0.21397500  0.21397500  0.27654000  1
  Se  Se18  1  0.78602500  0.78602500  0.72346000  1
  Se  Se19  1  0.05983300  0.05983300  0.77145800  1
  Se  Se20  1  0.94016700  0.94016700  0.22854200  1
  Se  Se21  1  0.30061200  0.30061200  0.75510300  1
  Se  Se22  1  0.69938800  0.69938800  0.24489700  1
  Se  Se23  1  0.52136600  0.52136600  0.83138000  1
  Se  Se24  1  0.47863400  0.47863400  0.16862000  1
  Se  Se25  1  0.00000000  0.00000000  0.50000000  1
