# generated using pymatgen
data_Sr3Y2(GeO4)3
_symmetry_space_group_name_H-M   'P 1'
_cell_length_a   11.48305172
_cell_length_b   11.48305172
_cell_length_c   11.48305172
_cell_angle_alpha   109.47122063
_cell_angle_beta   109.47122063
_cell_angle_gamma   109.47122063
_symmetry_Int_Tables_number   1
_chemical_formula_structural   Sr3Y2(GeO4)3
_chemical_formula_sum   'Sr12 Y8 Ge12 O48'
_cell_volume   1165.60143018
_cell_formula_units_Z   4
loop_
 _symmetry_equiv_pos_site_id
 _symmetry_equiv_pos_as_xyz
  1  'x, y, z'
loop_
 _atom_site_type_symbol
 _atom_site_label
 _atom_site_symmetry_multiplicity
 _atom_site_fract_x
 _atom_site_fract_y
 _atom_site_fract_z
 _atom_site_occupancy
  Sr  Sr0  1  0.75000000  0.12500000  0.37500000  1
  Sr  Sr1  1  0.25000000  0.37500000  0.12500000  1
  Sr  Sr2  1  0.12500000  0.25000000  0.37500000  1
  Sr  Sr3  1  0.37500000  0.75000000  0.12500000  1
  Sr  Sr4  1  0.75000000  0.62500000  0.87500000  1
  Sr  Sr5  1  0.12500000  0.37500000  0.75000000  1
  Sr  Sr6  1  0.62500000  0.87500000  0.75000000  1
  Sr  Sr7  1  0.25000000  0.87500000  0.62500000  1
  Sr  Sr8  1  0.87500000  0.62500000  0.25000000  1
  Sr  Sr9  1  0.62500000  0.25000000  0.87500000  1
  Sr  Sr10  1  0.87500000  0.75000000  0.62500000  1
  Sr  Sr11  1  0.37500000  0.12500000  0.25000000  1
  Y  Y12  1  0.00000000  0.00000000  0.00000000  1
  Y  Y13  1  0.50000000  0.00000000  0.00000000  1
  Y  Y14  1  0.00000000  0.50000000  0.00000000  1
  Y  Y15  1  0.50000000  0.50000000  0.00000000  1
  Y  Y16  1  0.00000000  0.50000000  0.50000000  1
  Y  Y17  1  0.50000000  0.00000000  0.50000000  1
  Y  Y18  1  0.50000000  0.50000000  0.50000000  1
  Y  Y19  1  0.00000000  0.00000000  0.50000000  1
  Ge  Ge20  1  0.12500000  0.87500000  0.25000000  1
  Ge  Ge21  1  0.87500000  0.12500000  0.75000000  1
  Ge  Ge22  1  0.25000000  0.62500000  0.37500000  1
  Ge  Ge23  1  0.37500000  0.25000000  0.62500000  1
  Ge  Ge24  1  0.75000000  0.87500000  0.12500000  1
  Ge  Ge25  1  0.12500000  0.75000000  0.87500000  1
  Ge  Ge26  1  0.37500000  0.62500000  0.75000000  1
  Ge  Ge27  1  0.62500000  0.75000000  0.37500000  1
  Ge  Ge28  1  0.87500000  0.25000000  0.12500000  1
  Ge  Ge29  1  0.25000000  0.12500000  0.87500000  1
  Ge  Ge30  1  0.75000000  0.37500000  0.62500000  1
  Ge  Ge31  1  0.62500000  0.37500000  0.25000000  1
  O  O32  1  0.40975700  0.80218700  0.78980000  1
  O  O33  1  0.88004300  0.39243000  0.09024300  1
  O  O34  1  0.10757000  0.98761300  0.69781300  1
  O  O35  1  0.51238700  0.61995700  0.71020000  1
  O  O36  1  0.69781300  0.09024300  0.71020000  1
  O  O37  1  0.61995700  0.71020000  0.51238700  1
  O  O38  1  0.61995700  0.40975700  0.10757000  1
  O  O39  1  0.71020000  0.51238700  0.61995700  1
  O  O40  1  0.80218700  0.51238700  0.39243000  1
  O  O41  1  0.98761300  0.78980000  0.88004300  1
  O  O42  1  0.78980000  0.88004300  0.98761300  1
  O  O43  1  0.71020000  0.69781300  0.09024300  1
  O  O44  1  0.40975700  0.10757000  0.61995700  1
  O  O45  1  0.39243000  0.80218700  0.51238700  1
  O  O46  1  0.09024300  0.71020000  0.69781300  1
  O  O47  1  0.10757000  0.61995700  0.40975700  1
  O  O48  1  0.51238700  0.39243000  0.80218700  1
  O  O49  1  0.09024300  0.88004300  0.39243000  1
  O  O50  1  0.98761300  0.69781300  0.10757000  1
  O  O51  1  0.19781300  0.48761300  0.60757000  1
  O  O52  1  0.69781300  0.10757000  0.98761300  1
  O  O53  1  0.78980000  0.40975700  0.80218700  1
  O  O54  1  0.39243000  0.09024300  0.88004300  1
  O  O55  1  0.88004300  0.98761300  0.78980000  1
  O  O56  1  0.59024300  0.19781300  0.21020000  1
  O  O57  1  0.11995700  0.60757000  0.90975700  1
  O  O58  1  0.89243000  0.01238700  0.30218700  1
  O  O59  1  0.48761300  0.38004300  0.28980000  1
  O  O60  1  0.30218700  0.90975700  0.28980000  1
  O  O61  1  0.38004300  0.28980000  0.48761300  1
  O  O62  1  0.38004300  0.59024300  0.89243000  1
  O  O63  1  0.28980000  0.48761300  0.38004300  1
  O  O64  1  0.11995700  0.01238700  0.21020000  1
  O  O65  1  0.60757000  0.90975700  0.11995700  1
  O  O66  1  0.21020000  0.59024300  0.19781300  1
  O  O67  1  0.19781300  0.21020000  0.59024300  1
  O  O68  1  0.30218700  0.89243000  0.01238700  1
  O  O69  1  0.01238700  0.30218700  0.89243000  1
  O  O70  1  0.90975700  0.11995700  0.60757000  1
  O  O71  1  0.48761300  0.60757000  0.19781300  1
  O  O72  1  0.89243000  0.38004300  0.59024300  1
  O  O73  1  0.90975700  0.28980000  0.30218700  1
  O  O74  1  0.60757000  0.19781300  0.48761300  1
  O  O75  1  0.59024300  0.89243000  0.38004300  1
  O  O76  1  0.28980000  0.30218700  0.90975700  1
  O  O77  1  0.21020000  0.11995700  0.01238700  1
  O  O78  1  0.01238700  0.21020000  0.11995700  1
  O  O79  1  0.80218700  0.78980000  0.40975700  1
