# generated using pymatgen
data_Ta3B2
_symmetry_space_group_name_H-M   'P 1'
_cell_length_a   6.21434500
_cell_length_b   6.21434500
_cell_length_c   3.30142500
_cell_angle_alpha   90.00000000
_cell_angle_beta   90.00000000
_cell_angle_gamma   90.00000000
_symmetry_Int_Tables_number   1
_chemical_formula_structural   Ta3B2
_chemical_formula_sum   'Ta6 B4'
_cell_volume   127.49470724
_cell_formula_units_Z   2
loop_
 _symmetry_equiv_pos_site_id
 _symmetry_equiv_pos_as_xyz
  1  'x, y, z'
loop_
 _atom_site_type_symbol
 _atom_site_label
 _atom_site_symmetry_multiplicity
 _atom_site_fract_x
 _atom_site_fract_y
 _atom_site_fract_z
 _atom_site_occupancy
  Ta  Ta0  1  0.00000000  0.00000000  0.00000000  1
  Ta  Ta1  1  0.50000000  0.50000000  0.00000000  1
  Ta  Ta2  1  0.32304900  0.82304900  0.50000000  1
  Ta  Ta3  1  0.82304900  0.67695100  0.50000000  1
  Ta  Ta4  1  0.17695100  0.32304900  0.50000000  1
  Ta  Ta5  1  0.67695100  0.17695100  0.50000000  1
  B  B6  1  0.10833200  0.60833200  0.00000000  1
  B  B7  1  0.60833200  0.89166800  0.00000000  1
  B  B8  1  0.39166800  0.10833200  0.00000000  1
  B  B9  1  0.89166800  0.39166800  0.00000000  1
