# generated using pymatgen
data_LaCrTeO6
_symmetry_space_group_name_H-M   'P 1'
_cell_length_a   5.24948642
_cell_length_b   5.24984843
_cell_length_c   10.43672802
_cell_angle_alpha   89.99509245
_cell_angle_beta   89.99923270
_cell_angle_gamma   120.00074892
_symmetry_Int_Tables_number   1
_chemical_formula_structural   LaCrTeO6
_chemical_formula_sum   'La2 Cr2 Te2 O12'
_cell_volume   249.08943012
_cell_formula_units_Z   2
loop_
 _symmetry_equiv_pos_site_id
 _symmetry_equiv_pos_as_xyz
  1  'x, y, z'
loop_
 _atom_site_type_symbol
 _atom_site_label
 _atom_site_symmetry_multiplicity
 _atom_site_fract_x
 _atom_site_fract_y
 _atom_site_fract_z
 _atom_site_occupancy
  La  La0  1  0.00000000  0.00000000  0.00000000  1
  La  La1  1  0.00000000  0.00000000  0.50000000  1
  Cr  Cr2  1  0.33330700  0.66666600  0.24998400  1
  Cr  Cr3  1  0.66669300  0.33333400  0.75001600  1
  Te  Te4  1  0.33336100  0.66665500  0.74999800  1
  Te  Te5  1  0.66663900  0.33334500  0.25000200  1
  O  O6  1  0.37478800  0.36487100  0.14481500  1
  O  O7  1  0.63522500  0.01006500  0.14480400  1
  O  O8  1  0.99009500  0.62534000  0.14480700  1
  O  O9  1  0.62521200  0.63512900  0.85518500  1
  O  O10  1  0.36477500  0.98993500  0.85519600  1
  O  O11  1  0.00990500  0.37466000  0.85519300  1
  O  O12  1  0.63516900  0.62524000  0.35516600  1
  O  O13  1  0.37473900  0.00995900  0.35513900  1
  O  O14  1  0.99002700  0.36480800  0.35513700  1
  O  O15  1  0.36483100  0.37476000  0.64483400  1
  O  O16  1  0.62526100  0.99004100  0.64486100  1
  O  O17  1  0.00997300  0.63519200  0.64486300  1
