# generated using pymatgen
data_Dy2Re2Si2C
_symmetry_space_group_name_H-M   'P 1'
_cell_length_a   5.83003695
_cell_length_b   5.83003695
_cell_length_c   6.94332745
_cell_angle_alpha   55.08402329
_cell_angle_beta   55.08402329
_cell_angle_gamma   40.06624897
_symmetry_Int_Tables_number   1
_chemical_formula_structural   Dy2Re2Si2C
_chemical_formula_sum   'Dy2 Re2 Si2 C1'
_cell_volume   120.45987538
_cell_formula_units_Z   1
loop_
 _symmetry_equiv_pos_site_id
 _symmetry_equiv_pos_as_xyz
  1  'x, y, z'
loop_
 _atom_site_type_symbol
 _atom_site_label
 _atom_site_symmetry_multiplicity
 _atom_site_fract_x
 _atom_site_fract_y
 _atom_site_fract_z
 _atom_site_occupancy
  Dy  Dy0  1  0.42818800  0.42818800  0.29981900  1
  Dy  Dy1  1  0.57181200  0.57181200  0.70018100  1
  Re  Re2  1  0.79286200  0.79286200  0.09240600  1
  Re  Re3  1  0.20713800  0.20713800  0.90759400  1
  Si  Si4  1  0.85788500  0.85788500  0.68219200  1
  Si  Si5  1  0.14211500  0.14211500  0.31780800  1
  C  C6  1  0.00000000  0.00000000  0.00000000  1
