# generated using pymatgen
data_LaGe3Ru
_symmetry_space_group_name_H-M   'P 1'
_cell_length_a   5.99341722
_cell_length_b   5.99341722
_cell_length_c   5.99341722
_cell_angle_alpha   136.37399869
_cell_angle_beta   136.37399869
_cell_angle_gamma   63.40265437
_symmetry_Int_Tables_number   1
_chemical_formula_structural   LaGe3Ru
_chemical_formula_sum   'La1 Ge3 Ru1'
_cell_volume   101.16065343
_cell_formula_units_Z   1
loop_
 _symmetry_equiv_pos_site_id
 _symmetry_equiv_pos_as_xyz
  1  'x, y, z'
loop_
 _atom_site_type_symbol
 _atom_site_label
 _atom_site_symmetry_multiplicity
 _atom_site_fract_x
 _atom_site_fract_y
 _atom_site_fract_z
 _atom_site_occupancy
  La  La0  1  0.99992700  0.99992700  0.00000000  1
  Ge  Ge1  1  0.42356700  0.42356700  0.00000000  1
  Ge  Ge2  1  0.25973700  0.75973700  0.50000000  1
  Ge  Ge3  1  0.75973700  0.25973700  0.50000000  1
  Ru  Ru4  1  0.65803200  0.65803200  0.00000000  1
