# generated using pymatgen
data_LiPt
_symmetry_space_group_name_H-M   'P 1'
_cell_length_a   2.76706115
_cell_length_b   2.76706115
_cell_length_c   4.24190600
_cell_angle_alpha   90.00000000
_cell_angle_beta   90.00000000
_cell_angle_gamma   119.99997959
_symmetry_Int_Tables_number   1
_chemical_formula_structural   LiPt
_chemical_formula_sum   'Li1 Pt1'
_cell_volume   28.12737957
_cell_formula_units_Z   1
loop_
 _symmetry_equiv_pos_site_id
 _symmetry_equiv_pos_as_xyz
  1  'x, y, z'
loop_
 _atom_site_type_symbol
 _atom_site_label
 _atom_site_symmetry_multiplicity
 _atom_site_fract_x
 _atom_site_fract_y
 _atom_site_fract_z
 _atom_site_occupancy
  Li  Li0  1  0.00000000  0.00000000  0.50000000  1
  Pt  Pt1  1  0.66666700  0.33333300  0.00000000  1
