# generated using pymatgen
data_CsDyCdSe3
_symmetry_space_group_name_H-M   'P 1'
_cell_length_a   8.47040954
_cell_length_b   8.47040954
_cell_length_c   11.20570500
_cell_angle_alpha   90.00000000
_cell_angle_beta   90.00000000
_cell_angle_gamma   150.55935005
_symmetry_Int_Tables_number   1
_chemical_formula_structural   CsDyCdSe3
_chemical_formula_sum   'Cs2 Dy2 Cd2 Se6'
_cell_volume   395.17615330
_cell_formula_units_Z   2
loop_
 _symmetry_equiv_pos_site_id
 _symmetry_equiv_pos_as_xyz
  1  'x, y, z'
loop_
 _atom_site_type_symbol
 _atom_site_label
 _atom_site_symmetry_multiplicity
 _atom_site_fract_x
 _atom_site_fract_y
 _atom_site_fract_z
 _atom_site_occupancy
  Cs  Cs0  1  0.74407900  0.25592100  0.25000000  1
  Cs  Cs1  1  0.25592100  0.74407900  0.75000000  1
  Dy  Dy2  1  0.00000000  0.00000000  0.50000000  1
  Dy  Dy3  1  0.00000000  0.00000000  0.00000000  1
  Cd  Cd4  1  0.53977000  0.46023000  0.75000000  1
  Cd  Cd5  1  0.46023000  0.53977000  0.25000000  1
  Se  Se6  1  0.06006100  0.93993900  0.25000000  1
  Se  Se7  1  0.93993900  0.06006100  0.75000000  1
  Se  Se8  1  0.61680400  0.38319600  0.54479200  1
  Se  Se9  1  0.61680400  0.38319600  0.95520800  1
  Se  Se10  1  0.38319600  0.61680400  0.04479200  1
  Se  Se11  1  0.38319600  0.61680400  0.45520800  1
