# generated using pymatgen
data_YbCuSn
_symmetry_space_group_name_H-M   'P 1'
_cell_length_a   4.49057500
_cell_length_b   7.14987700
_cell_length_c   7.88954500
_cell_angle_alpha   90.00000000
_cell_angle_beta   90.00000000
_cell_angle_gamma   90.00000000
_symmetry_Int_Tables_number   1
_chemical_formula_structural   YbCuSn
_chemical_formula_sum   'Yb4 Cu4 Sn4'
_cell_volume   253.31008608
_cell_formula_units_Z   4
loop_
 _symmetry_equiv_pos_site_id
 _symmetry_equiv_pos_as_xyz
  1  'x, y, z'
loop_
 _atom_site_type_symbol
 _atom_site_label
 _atom_site_symmetry_multiplicity
 _atom_site_fract_x
 _atom_site_fract_y
 _atom_site_fract_z
 _atom_site_occupancy
  Yb  Yb0  1  0.25000000  0.50954700  0.20345200  1
  Yb  Yb1  1  0.75000000  0.49045300  0.79654800  1
  Yb  Yb2  1  0.75000000  0.99045300  0.70345200  1
  Yb  Yb3  1  0.25000000  0.00954700  0.29654800  1
  Cu  Cu4  1  0.25000000  0.79343800  0.90192100  1
  Cu  Cu5  1  0.75000000  0.20656200  0.09807900  1
  Cu  Cu6  1  0.75000000  0.70656200  0.40192100  1
  Cu  Cu7  1  0.25000000  0.29343800  0.59807900  1
  Sn  Sn8  1  0.25000000  0.68743000  0.57794100  1
  Sn  Sn9  1  0.75000000  0.31257000  0.42205900  1
  Sn  Sn10  1  0.75000000  0.81257000  0.07794100  1
  Sn  Sn11  1  0.25000000  0.18743000  0.92205900  1
