# generated using pymatgen
data_PrAu
_symmetry_space_group_name_H-M   'P 1'
_cell_length_a   4.83369600
_cell_length_b   5.92193100
_cell_length_c   7.59265300
_cell_angle_alpha   90.00000000
_cell_angle_beta   90.00000000
_cell_angle_gamma   90.00000000
_symmetry_Int_Tables_number   1
_chemical_formula_structural   PrAu
_chemical_formula_sum   'Pr4 Au4'
_cell_volume   217.33828131
_cell_formula_units_Z   4
loop_
 _symmetry_equiv_pos_site_id
 _symmetry_equiv_pos_as_xyz
  1  'x, y, z'
loop_
 _atom_site_type_symbol
 _atom_site_label
 _atom_site_symmetry_multiplicity
 _atom_site_fract_x
 _atom_site_fract_y
 _atom_site_fract_z
 _atom_site_occupancy
  Pr  Pr0  1  0.25000000  0.35581000  0.68714300  1
  Pr  Pr1  1  0.25000000  0.14419000  0.18714300  1
  Pr  Pr2  1  0.75000000  0.64419000  0.31285700  1
  Pr  Pr3  1  0.75000000  0.85581000  0.81285700  1
  Au  Au4  1  0.25000000  0.84982000  0.54242600  1
  Au  Au5  1  0.25000000  0.65018000  0.04242600  1
  Au  Au6  1  0.75000000  0.15018000  0.45757400  1
  Au  Au7  1  0.75000000  0.34982000  0.95757400  1
