# generated using pymatgen
data_Y2Al
_symmetry_space_group_name_H-M   'P 1'
_cell_length_a   5.11495600
_cell_length_b   6.60678000
_cell_length_c   9.49106200
_cell_angle_alpha   90.00000000
_cell_angle_beta   90.00000000
_cell_angle_gamma   90.00000000
_symmetry_Int_Tables_number   1
_chemical_formula_structural   Y2Al
_chemical_formula_sum   'Y8 Al4'
_cell_volume   320.73515021
_cell_formula_units_Z   4
loop_
 _symmetry_equiv_pos_site_id
 _symmetry_equiv_pos_as_xyz
  1  'x, y, z'
loop_
 _atom_site_type_symbol
 _atom_site_label
 _atom_site_symmetry_multiplicity
 _atom_site_fract_x
 _atom_site_fract_y
 _atom_site_fract_z
 _atom_site_occupancy
  Y  Y0  1  0.75000000  0.68647100  0.42731200  1
  Y  Y1  1  0.25000000  0.31352900  0.57268800  1
  Y  Y2  1  0.75000000  0.18647100  0.07268800  1
  Y  Y3  1  0.25000000  0.81352900  0.92731200  1
  Y  Y4  1  0.75000000  0.52715500  0.79183000  1
  Y  Y5  1  0.25000000  0.47284500  0.20817000  1
  Y  Y6  1  0.75000000  0.02715500  0.70817000  1
  Y  Y7  1  0.25000000  0.97284500  0.29183000  1
  Al  Al8  1  0.75000000  0.20919800  0.39626600  1
  Al  Al9  1  0.25000000  0.79080200  0.60373400  1
  Al  Al10  1  0.75000000  0.70919800  0.10373400  1
  Al  Al11  1  0.25000000  0.29080200  0.89626600  1
