# generated using pymatgen
data_Ba9In4H
_symmetry_space_group_name_H-M   'P 1'
_cell_length_a   10.41957166
_cell_length_b   10.41957166
_cell_length_c   10.41957166
_cell_angle_alpha   94.71078279
_cell_angle_beta   94.71078279
_cell_angle_gamma   146.69379107
_symmetry_Int_Tables_number   1
_chemical_formula_structural   Ba9In4H
_chemical_formula_sum   'Ba9 In4 H1'
_cell_volume   595.11808443
_cell_formula_units_Z   1
loop_
 _symmetry_equiv_pos_site_id
 _symmetry_equiv_pos_as_xyz
  1  'x, y, z'
loop_
 _atom_site_type_symbol
 _atom_site_label
 _atom_site_symmetry_multiplicity
 _atom_site_fract_x
 _atom_site_fract_y
 _atom_site_fract_z
 _atom_site_occupancy
  Ba  Ba0  1  0.50000000  0.50000000  0.00000000  1
  Ba  Ba1  1  0.10853900  0.18314500  0.29168400  1
  Ba  Ba2  1  0.89146100  0.81685500  0.70831600  1
  Ba  Ba3  1  0.18314500  0.89146100  0.07460700  1
  Ba  Ba4  1  0.81685500  0.10853900  0.92539300  1
  Ba  Ba5  1  0.38677100  0.12571700  0.51248800  1
  Ba  Ba6  1  0.61322900  0.87428300  0.48751200  1
  Ba  Ba7  1  0.12571700  0.61322900  0.73894600  1
  Ba  Ba8  1  0.87428300  0.38677100  0.26105400  1
  In  In9  1  0.40008300  0.73851400  0.13859700  1
  In  In10  1  0.59991700  0.26148600  0.86140300  1
  In  In11  1  0.73851400  0.59991700  0.33843100  1
  In  In12  1  0.26148600  0.40008300  0.66156900  1
  H  H13  1  0.00000000  0.00000000  0.00000000  1
