# generated using pymatgen
data_Eu5Pd2
_symmetry_space_group_name_H-M   'P 1'
_cell_length_a   9.20571948
_cell_length_b   9.20571948
_cell_length_c   7.83136397
_cell_angle_alpha   83.25434461
_cell_angle_beta   83.25434461
_cell_angle_gamma   43.95004538
_symmetry_Int_Tables_number   1
_chemical_formula_structural   Eu5Pd2
_chemical_formula_sum   'Eu10 Pd4'
_cell_volume   456.89832308
_cell_formula_units_Z   2
loop_
 _symmetry_equiv_pos_site_id
 _symmetry_equiv_pos_as_xyz
  1  'x, y, z'
loop_
 _atom_site_type_symbol
 _atom_site_label
 _atom_site_symmetry_multiplicity
 _atom_site_fract_x
 _atom_site_fract_y
 _atom_site_fract_z
 _atom_site_occupancy
  Eu  Eu0  1  0.01698900  0.79913100  0.42033100  1
  Eu  Eu1  1  0.20086900  0.98301100  0.07966900  1
  Eu  Eu2  1  0.98301100  0.20086900  0.57966900  1
  Eu  Eu3  1  0.79913100  0.01698900  0.92033100  1
  Eu  Eu4  1  0.36046100  0.20241200  0.31719700  1
  Eu  Eu5  1  0.79758800  0.63953900  0.18280300  1
  Eu  Eu6  1  0.63953900  0.79758800  0.68280300  1
  Eu  Eu7  1  0.20241200  0.36046100  0.81719700  1
  Eu  Eu8  1  0.58517700  0.41482300  0.25000000  1
  Eu  Eu9  1  0.41482300  0.58517700  0.75000000  1
  Pd  Pd10  1  0.18582300  0.59600300  0.07926400  1
  Pd  Pd11  1  0.40399700  0.81417700  0.42073600  1
  Pd  Pd12  1  0.81417700  0.40399700  0.92073600  1
  Pd  Pd13  1  0.59600300  0.18582300  0.57926400  1
