# generated using pymatgen
data_RbNdF4
_symmetry_space_group_name_H-M   'P 1'
_cell_length_a   3.79827700
_cell_length_b   6.44073900
_cell_length_c   16.36272900
_cell_angle_alpha   90.00000000
_cell_angle_beta   90.00000000
_cell_angle_gamma   90.00000000
_symmetry_Int_Tables_number   1
_chemical_formula_structural   RbNdF4
_chemical_formula_sum   'Rb4 Nd4 F16'
_cell_volume   400.29307026
_cell_formula_units_Z   4
loop_
 _symmetry_equiv_pos_site_id
 _symmetry_equiv_pos_as_xyz
  1  'x, y, z'
loop_
 _atom_site_type_symbol
 _atom_site_label
 _atom_site_symmetry_multiplicity
 _atom_site_fract_x
 _atom_site_fract_y
 _atom_site_fract_z
 _atom_site_occupancy
  Rb  Rb0  1  0.25000000  0.72592500  0.69983000  1
  Rb  Rb1  1  0.75000000  0.27407500  0.30017000  1
  Rb  Rb2  1  0.75000000  0.77407500  0.19983000  1
  Rb  Rb3  1  0.25000000  0.22592500  0.80017000  1
  Nd  Nd4  1  0.25000000  0.25117700  0.05763900  1
  Nd  Nd5  1  0.75000000  0.74882300  0.94236100  1
  Nd  Nd6  1  0.75000000  0.24882300  0.55763900  1
  Nd  Nd7  1  0.25000000  0.75117700  0.44236100  1
  F  F8  1  0.25000000  0.61286100  0.87089400  1
  F  F9  1  0.75000000  0.38713900  0.12910600  1
  F  F10  1  0.75000000  0.88713900  0.37089400  1
  F  F11  1  0.25000000  0.11286100  0.62910600  1
  F  F12  1  0.25000000  0.62990800  0.03552700  1
  F  F13  1  0.75000000  0.37009200  0.96447300  1
  F  F14  1  0.75000000  0.87009200  0.53552700  1
  F  F15  1  0.25000000  0.12990800  0.46447300  1
  F  F16  1  0.25000000  0.50072200  0.55433700  1
  F  F17  1  0.75000000  0.49927800  0.44566300  1
  F  F18  1  0.75000000  0.99927800  0.05433700  1
  F  F19  1  0.25000000  0.00072200  0.94566300  1
  F  F20  1  0.25000000  0.59753200  0.31466900  1
  F  F21  1  0.75000000  0.40246800  0.68533100  1
  F  F22  1  0.75000000  0.90246800  0.81466900  1
  F  F23  1  0.25000000  0.09753200  0.18533100  1
