# generated using pymatgen
data_YPS
_symmetry_space_group_name_H-M   'P 1'
_cell_length_a   5.32408900
_cell_length_b   5.39385100
_cell_length_c   16.79095300
_cell_angle_alpha   90.00000000
_cell_angle_beta   90.00000000
_cell_angle_gamma   90.00000000
_symmetry_Int_Tables_number   1
_chemical_formula_structural   YPS
_chemical_formula_sum   'Y8 P8 S8'
_cell_volume   482.19155285
_cell_formula_units_Z   8
loop_
 _symmetry_equiv_pos_site_id
 _symmetry_equiv_pos_as_xyz
  1  'x, y, z'
loop_
 _atom_site_type_symbol
 _atom_site_label
 _atom_site_symmetry_multiplicity
 _atom_site_fract_x
 _atom_site_fract_y
 _atom_site_fract_z
 _atom_site_occupancy
  Y  Y0  1  0.25000000  0.48391300  0.36245700  1
  Y  Y1  1  0.25000000  0.98391300  0.13754300  1
  Y  Y2  1  0.75000000  0.51608700  0.63754300  1
  Y  Y3  1  0.75000000  0.01608700  0.86245700  1
  Y  Y4  1  0.25000000  0.01462800  0.64615700  1
  Y  Y5  1  0.25000000  0.51462800  0.85384300  1
  Y  Y6  1  0.75000000  0.98537200  0.35384300  1
  Y  Y7  1  0.75000000  0.48537200  0.14615700  1
  P  P8  1  0.03613100  0.29542900  0.99727200  1
  P  P9  1  0.46386900  0.79542900  0.50272800  1
  P  P10  1  0.53613100  0.70457100  0.00272800  1
  P  P11  1  0.96386900  0.20457100  0.49727200  1
  P  P12  1  0.96386900  0.70457100  0.00272800  1
  P  P13  1  0.53613100  0.20457100  0.49727200  1
  P  P14  1  0.46386900  0.29542900  0.99727200  1
  P  P15  1  0.03613100  0.79542900  0.50272800  1
  S  S16  1  0.25000000  0.48468300  0.18912300  1
  S  S17  1  0.25000000  0.98468300  0.31087700  1
  S  S18  1  0.75000000  0.51531700  0.81087700  1
  S  S19  1  0.75000000  0.01531700  0.68912300  1
  S  S20  1  0.25000000  0.01164700  0.81598600  1
  S  S21  1  0.25000000  0.51164700  0.68401400  1
  S  S22  1  0.75000000  0.98835300  0.18401400  1
  S  S23  1  0.75000000  0.48835300  0.31598600  1
