# generated using pymatgen
data_AgSnSe2
_symmetry_space_group_name_H-M   'P 1'
_cell_length_a   7.03252249
_cell_length_b   7.03252249
_cell_length_c   7.03252290
_cell_angle_alpha   33.55368324
_cell_angle_beta   33.55368324
_cell_angle_gamma   33.55367831
_symmetry_Int_Tables_number   1
_chemical_formula_structural   AgSnSe2
_chemical_formula_sum   'Ag1 Sn1 Se2'
_cell_volume   94.64136915
_cell_formula_units_Z   1
loop_
 _symmetry_equiv_pos_site_id
 _symmetry_equiv_pos_as_xyz
  1  'x, y, z'
loop_
 _atom_site_type_symbol
 _atom_site_label
 _atom_site_symmetry_multiplicity
 _atom_site_fract_x
 _atom_site_fract_y
 _atom_site_fract_z
 _atom_site_occupancy
  Ag  Ag0  1  0.00000000  0.00000000  0.00000000  1
  Sn  Sn1  1  0.50000000  0.50000000  0.50000000  1
  Se  Se2  1  0.25181600  0.25181600  0.25181600  1
  Se  Se3  1  0.74818400  0.74818400  0.74818400  1
