# generated using pymatgen
data_LiH4SNO4
_symmetry_space_group_name_H-M   'P 1'
_cell_length_a   5.03679500
_cell_length_b   10.38199800
_cell_length_c   17.12870800
_cell_angle_alpha   90.00000000
_cell_angle_beta   90.00000000
_cell_angle_gamma   90.00000000
_symmetry_Int_Tables_number   1
_chemical_formula_structural   LiH4SNO4
_chemical_formula_sum   'Li8 H32 S8 N8 O32'
_cell_volume   895.69432365
_cell_formula_units_Z   8
loop_
 _symmetry_equiv_pos_site_id
 _symmetry_equiv_pos_as_xyz
  1  'x, y, z'
loop_
 _atom_site_type_symbol
 _atom_site_label
 _atom_site_symmetry_multiplicity
 _atom_site_fract_x
 _atom_site_fract_y
 _atom_site_fract_z
 _atom_site_occupancy
  Li  Li0  1  0.04569900  0.52610500  0.50006400  1
  Li  Li1  1  0.95430100  0.47389500  0.00006400  1
  Li  Li2  1  0.04569900  0.97389500  0.00006400  1
  Li  Li3  1  0.95430100  0.02610500  0.50006400  1
  Li  Li4  1  0.54562400  0.72411000  0.50325800  1
  Li  Li5  1  0.45437600  0.27589000  0.00325800  1
  Li  Li6  1  0.54562400  0.77589000  0.00325800  1
  Li  Li7  1  0.45437600  0.22411000  0.50325800  1
  H  H8  1  0.00120800  0.73116200  0.72900200  1
  H  H9  1  0.99879200  0.26883800  0.22900200  1
  H  H10  1  0.00120800  0.76883800  0.22900200  1
  H  H11  1  0.99879200  0.23116200  0.72900200  1
  H  H12  1  0.95881700  0.62983900  0.65015600  1
  H  H13  1  0.04118300  0.37016100  0.15015600  1
  H  H14  1  0.95881700  0.87016100  0.15015600  1
  H  H15  1  0.04118300  0.12983900  0.65015600  1
  H  H16  1  0.88965300  0.78769700  0.64234000  1
  H  H17  1  0.11034700  0.21230300  0.14234000  1
  H  H18  1  0.88965300  0.71230300  0.14234000  1
  H  H19  1  0.11034700  0.28769700  0.64234000  1
  H  H20  1  0.20837100  0.73811100  0.65032200  1
  H  H21  1  0.79162900  0.26188900  0.15032200  1
  H  H22  1  0.20837100  0.76188900  0.15032200  1
  H  H23  1  0.79162900  0.23811100  0.65032200  1
  H  H24  1  0.51348400  0.51199900  0.27539100  1
  H  H25  1  0.48651600  0.48800100  0.77539100  1
  H  H26  1  0.51348400  0.98800100  0.77539100  1
  H  H27  1  0.48651600  0.01199900  0.27539100  1
  H  H28  1  0.45659400  0.61452900  0.35280100  1
  H  H29  1  0.54340600  0.38547100  0.85280100  1
  H  H30  1  0.45659400  0.88547100  0.85280100  1
  H  H31  1  0.54340600  0.11452900  0.35280100  1
  H  H32  1  0.70322100  0.50477300  0.35726300  1
  H  H33  1  0.29677900  0.49522700  0.85726300  1
  H  H34  1  0.70322100  0.99522700  0.85726300  1
  H  H35  1  0.29677900  0.00477300  0.35726300  1
  H  H36  1  0.61777900  0.95745200  0.36079800  1
  H  H37  1  0.38222100  0.04254800  0.86079800  1
  H  H38  1  0.61777900  0.54254800  0.86079800  1
  H  H39  1  0.38222100  0.45745200  0.36079800  1
  S  S40  1  0.04228100  0.77156000  0.40020700  1
  S  S41  1  0.95771900  0.22844000  0.90020700  1
  S  S42  1  0.04228100  0.72844000  0.90020700  1
  S  S43  1  0.95771900  0.27156000  0.40020700  1
  S  S44  1  0.45767500  0.97726700  0.60290500  1
  S  S45  1  0.54232500  0.02273300  0.10290500  1
  S  S46  1  0.45767500  0.52273300  0.10290500  1
  S  S47  1  0.54232500  0.47726700  0.60290500  1
  N  N48  1  0.01569300  0.72157600  0.66817900  1
  N  N49  1  0.98430700  0.27842400  0.16817900  1
  N  N50  1  0.01569300  0.77842400  0.16817900  1
  N  N51  1  0.98430700  0.22157600  0.66817900  1
  N  N52  1  0.51430600  0.52217600  0.33631300  1
  N  N53  1  0.48569400  0.47782400  0.83631300  1
  N  N54  1  0.51430600  0.97782400  0.83631300  1
  N  N55  1  0.48569400  0.02217600  0.33631300  1
  O  O56  1  0.33690300  0.75724200  0.40815400  1
  O  O57  1  0.66309700  0.24275800  0.90815400  1
  O  O58  1  0.33690300  0.74275800  0.90815400  1
  O  O59  1  0.66309700  0.25724200  0.40815400  1
  O  O60  1  0.91141500  0.69770800  0.46499400  1
  O  O61  1  0.08858500  0.30229200  0.96499400  1
  O  O62  1  0.91141500  0.80229200  0.96499400  1
  O  O63  1  0.08858500  0.19770800  0.46499400  1
  O  O64  1  0.95467000  0.72067900  0.32392900  1
  O  O65  1  0.04533000  0.27932100  0.82392900  1
  O  O66  1  0.95467000  0.77932100  0.82392900  1
  O  O67  1  0.04533000  0.22067900  0.32392900  1
  O  O68  1  0.97094800  0.91126100  0.40748500  1
  O  O69  1  0.02905200  0.08873900  0.90748500  1
  O  O70  1  0.97094800  0.58873900  0.90748500  1
  O  O71  1  0.02905200  0.41126100  0.40748500  1
  O  O72  1  0.16280300  0.98932100  0.59449000  1
  O  O73  1  0.83719700  0.01067900  0.09449000  1
  O  O74  1  0.16280300  0.51067900  0.09449000  1
  O  O75  1  0.83719700  0.48932100  0.59449000  1
  O  O76  1  0.41259100  0.55153100  0.53802700  1
  O  O77  1  0.58740900  0.44846900  0.03802700  1
  O  O78  1  0.41259100  0.94846900  0.03802700  1
  O  O79  1  0.58740900  0.05153100  0.53802700  1
  O  O80  1  0.45790300  0.53028200  0.67906400  1
  O  O81  1  0.54209700  0.46971800  0.17906400  1
  O  O82  1  0.45790300  0.96971800  0.17906400  1
  O  O83  1  0.54209700  0.03028200  0.67906400  1
  O  O84  1  0.53374200  0.83823400  0.59638400  1
  O  O85  1  0.46625800  0.16176600  0.09638400  1
  O  O86  1  0.53374200  0.66176600  0.09638400  1
  O  O87  1  0.46625800  0.33823400  0.59638400  1
