# generated using pymatgen
data_Pr3CBr3
_symmetry_space_group_name_H-M   'P 1'
_cell_length_a   10.00081979
_cell_length_b   10.00081979
_cell_length_c   10.00081979
_cell_angle_alpha   109.47122063
_cell_angle_beta   109.47122063
_cell_angle_gamma   109.47122063
_symmetry_Int_Tables_number   1
_chemical_formula_structural   Pr3CBr3
_chemical_formula_sum   'Pr12 C4 Br12'
_cell_volume   769.98969768
_cell_formula_units_Z   4
loop_
 _symmetry_equiv_pos_site_id
 _symmetry_equiv_pos_as_xyz
  1  'x, y, z'
loop_
 _atom_site_type_symbol
 _atom_site_label
 _atom_site_symmetry_multiplicity
 _atom_site_fract_x
 _atom_site_fract_y
 _atom_site_fract_z
 _atom_site_occupancy
  Pr  Pr0  1  0.45852300  0.47926100  0.22926100  1
  Pr  Pr1  1  0.75000000  0.22926100  0.27073900  1
  Pr  Pr2  1  0.75000000  0.02073900  0.47926100  1
  Pr  Pr3  1  0.22926100  0.45852300  0.47926100  1
  Pr  Pr4  1  0.27073900  0.75000000  0.22926100  1
  Pr  Pr5  1  0.04147700  0.27073900  0.02073900  1
  Pr  Pr6  1  0.02073900  0.04147700  0.27073900  1
  Pr  Pr7  1  0.47926100  0.75000000  0.02073900  1
  Pr  Pr8  1  0.47926100  0.22926100  0.45852300  1
  Pr  Pr9  1  0.02073900  0.47926100  0.75000000  1
  Pr  Pr10  1  0.27073900  0.02073900  0.04147700  1
  Pr  Pr11  1  0.22926100  0.27073900  0.75000000  1
  C  C12  1  0.25000000  0.25000000  0.25000000  1
  C  C13  1  0.50000000  0.00000000  0.25000000  1
  C  C14  1  0.00000000  0.25000000  0.50000000  1
  C  C15  1  0.25000000  0.50000000  0.00000000  1
  Br  Br16  1  0.25000000  0.75996400  0.74003600  1
  Br  Br17  1  0.51992800  0.50996400  0.75996400  1
  Br  Br18  1  0.98007200  0.74003600  0.99003600  1
  Br  Br19  1  0.74003600  0.25000000  0.75996400  1
  Br  Br20  1  0.99003600  0.98007200  0.74003600  1
  Br  Br21  1  0.25000000  0.99003600  0.50996400  1
  Br  Br22  1  0.75996400  0.51992800  0.50996400  1
  Br  Br23  1  0.50996400  0.25000000  0.99003600  1
  Br  Br24  1  0.75996400  0.74003600  0.25000000  1
  Br  Br25  1  0.74003600  0.99003600  0.98007200  1
  Br  Br26  1  0.99003600  0.50996400  0.25000000  1
  Br  Br27  1  0.50996400  0.75996400  0.51992800  1
