# generated using pymatgen
data_Ba3GaS4Br
_symmetry_space_group_name_H-M   'P 1'
_cell_length_a   8.65249200
_cell_length_b   9.70896700
_cell_length_c   12.53381000
_cell_angle_alpha   90.00000000
_cell_angle_beta   90.00000000
_cell_angle_gamma   90.00000000
_symmetry_Int_Tables_number   1
_chemical_formula_structural   Ba3GaS4Br
_chemical_formula_sum   'Ba12 Ga4 S16 Br4'
_cell_volume   1052.92475973
_cell_formula_units_Z   4
loop_
 _symmetry_equiv_pos_site_id
 _symmetry_equiv_pos_as_xyz
  1  'x, y, z'
loop_
 _atom_site_type_symbol
 _atom_site_label
 _atom_site_symmetry_multiplicity
 _atom_site_fract_x
 _atom_site_fract_y
 _atom_site_fract_z
 _atom_site_occupancy
  Ba  Ba0  1  0.41695300  0.75000000  0.47439900  1
  Ba  Ba1  1  0.08304700  0.75000000  0.97439900  1
  Ba  Ba2  1  0.58304700  0.25000000  0.52560100  1
  Ba  Ba3  1  0.91695300  0.25000000  0.02560100  1
  Ba  Ba4  1  0.91076900  0.52026700  0.33504200  1
  Ba  Ba5  1  0.58923100  0.97973300  0.83504200  1
  Ba  Ba6  1  0.08923100  0.02026700  0.66495800  1
  Ba  Ba7  1  0.41076900  0.47973300  0.16495800  1
  Ba  Ba8  1  0.08923100  0.47973300  0.66495800  1
  Ba  Ba9  1  0.41076900  0.02026700  0.16495800  1
  Ba  Ba10  1  0.91076900  0.97973300  0.33504200  1
  Ba  Ba11  1  0.58923100  0.52026700  0.83504200  1
  Ga  Ga12  1  0.68917900  0.75000000  0.10412700  1
  Ga  Ga13  1  0.81082100  0.75000000  0.60412700  1
  Ga  Ga14  1  0.31082100  0.25000000  0.89587300  1
  Ga  Ga15  1  0.18917900  0.25000000  0.39587300  1
  S  S16  1  0.81442000  0.55045900  0.07061600  1
  S  S17  1  0.68558000  0.94954100  0.57061600  1
  S  S18  1  0.18558000  0.05045900  0.92938400  1
  S  S19  1  0.31442000  0.44954100  0.42938400  1
  S  S20  1  0.18558000  0.44954100  0.92938400  1
  S  S21  1  0.31442000  0.05045900  0.42938400  1
  S  S22  1  0.81442000  0.94954100  0.07061600  1
  S  S23  1  0.68558000  0.55045900  0.57061600  1
  S  S24  1  0.63746100  0.75000000  0.28355500  1
  S  S25  1  0.86253900  0.75000000  0.78355500  1
  S  S26  1  0.36253900  0.25000000  0.71644500  1
  S  S27  1  0.13746100  0.25000000  0.21644500  1
  S  S28  1  0.46604800  0.75000000  0.00574900  1
  S  S29  1  0.03395200  0.75000000  0.50574900  1
  S  S30  1  0.53395200  0.25000000  0.99425100  1
  S  S31  1  0.96604800  0.25000000  0.49425100  1
  Br  Br32  1  0.16880000  0.75000000  0.23205300  1
  Br  Br33  1  0.33120000  0.75000000  0.73205300  1
  Br  Br34  1  0.83120000  0.25000000  0.76794700  1
  Br  Br35  1  0.66880000  0.25000000  0.26794700  1
