# generated using pymatgen
data_SnH4SNO4F
_symmetry_space_group_name_H-M   'P 1'
_cell_length_a   4.93633500
_cell_length_b   15.47190400
_cell_length_c   8.14981120
_cell_angle_alpha   90.00000000
_cell_angle_beta   90.38731030
_cell_angle_gamma   90.00000000
_symmetry_Int_Tables_number   1
_chemical_formula_structural   SnH4SNO4F
_chemical_formula_sum   'Sn4 H16 S4 N4 O16 F4'
_cell_volume   622.42354460
_cell_formula_units_Z   4
loop_
 _symmetry_equiv_pos_site_id
 _symmetry_equiv_pos_as_xyz
  1  'x, y, z'
loop_
 _atom_site_type_symbol
 _atom_site_label
 _atom_site_symmetry_multiplicity
 _atom_site_fract_x
 _atom_site_fract_y
 _atom_site_fract_z
 _atom_site_occupancy
  Sn  Sn0  1  0.79324000  0.72253500  0.97201300  1
  Sn  Sn1  1  0.20676000  0.22253500  0.52798700  1
  Sn  Sn2  1  0.20676000  0.27746500  0.02798700  1
  Sn  Sn3  1  0.79324000  0.77746500  0.47201300  1
  H  H4  1  0.23275400  0.56273000  0.38987300  1
  H  H5  1  0.76724600  0.06273000  0.11012700  1
  H  H6  1  0.76724600  0.43727000  0.61012700  1
  H  H7  1  0.23275400  0.93727000  0.88987300  1
  H  H8  1  0.42138100  0.58203600  0.21837000  1
  H  H9  1  0.57861900  0.08203600  0.28163000  1
  H  H10  1  0.57861900  0.41796400  0.78163000  1
  H  H11  1  0.42138100  0.91796400  0.71837000  1
  H  H12  1  0.26564300  0.48601700  0.24417400  1
  H  H13  1  0.73435700  0.98601700  0.25582600  1
  H  H14  1  0.73435700  0.51398300  0.75582600  1
  H  H15  1  0.26564300  0.01398300  0.74417400  1
  H  H16  1  0.07651300  0.57482000  0.20610000  1
  H  H17  1  0.92348700  0.07482000  0.29390000  1
  H  H18  1  0.92348700  0.42518000  0.79390000  1
  H  H19  1  0.07651300  0.92518000  0.70610000  1
  S  S20  1  0.26288700  0.85424100  0.23087300  1
  S  S21  1  0.73711300  0.35424100  0.26912700  1
  S  S22  1  0.73711300  0.14575900  0.76912700  1
  S  S23  1  0.26288700  0.64575900  0.73087300  1
  N  N24  1  0.24942500  0.55163000  0.26405500  1
  N  N25  1  0.75057500  0.05163000  0.23594500  1
  N  N26  1  0.75057500  0.44837000  0.73594500  1
  N  N27  1  0.24942500  0.94837000  0.76405500  1
  O  O28  1  0.20154300  0.76517400  0.17161200  1
  O  O29  1  0.79845700  0.26517400  0.32838800  1
  O  O30  1  0.79845700  0.23482600  0.82838800  1
  O  O31  1  0.20154300  0.73482600  0.67161200  1
  O  O32  1  0.55829100  0.63916500  0.77910400  1
  O  O33  1  0.44170900  0.13916500  0.72089600  1
  O  O34  1  0.44170900  0.36083500  0.22089600  1
  O  O35  1  0.55829100  0.86083500  0.27910400  1
  O  O36  1  0.10176600  0.62984500  0.88642100  1
  O  O37  1  0.89823400  0.12984500  0.61357900  1
  O  O38  1  0.89823400  0.37015500  0.11357900  1
  O  O39  1  0.10176600  0.87015500  0.38642100  1
  O  O40  1  0.20083800  0.92115100  0.10940300  1
  O  O41  1  0.79916200  0.42115100  0.39059700  1
  O  O42  1  0.79916200  0.07884900  0.89059700  1
  O  O43  1  0.20083800  0.57884900  0.60940300  1
  F  F44  1  0.73933800  0.62503400  0.14555100  1
  F  F45  1  0.26066200  0.12503400  0.35444900  1
  F  F46  1  0.26066200  0.37496600  0.85444900  1
  F  F47  1  0.73933800  0.87496600  0.64555100  1
