# generated using pymatgen
data_Er4MgNi
_symmetry_space_group_name_H-M   'P 1'
_cell_length_a   9.59738781
_cell_length_b   9.59738781
_cell_length_c   9.59738781
_cell_angle_alpha   60.00000000
_cell_angle_beta   60.00000000
_cell_angle_gamma   60.00000000
_symmetry_Int_Tables_number   1
_chemical_formula_structural   Er4MgNi
_chemical_formula_sum   'Er16 Mg4 Ni4'
_cell_volume   625.09227807
_cell_formula_units_Z   4
loop_
 _symmetry_equiv_pos_site_id
 _symmetry_equiv_pos_as_xyz
  1  'x, y, z'
loop_
 _atom_site_type_symbol
 _atom_site_label
 _atom_site_symmetry_multiplicity
 _atom_site_fract_x
 _atom_site_fract_y
 _atom_site_fract_z
 _atom_site_occupancy
  Er  Er0  1  0.18525600  0.81474400  0.81474400  1
  Er  Er1  1  0.81474400  0.18525600  0.18525600  1
  Er  Er2  1  0.81474400  0.18525600  0.81474400  1
  Er  Er3  1  0.18525600  0.81474400  0.18525600  1
  Er  Er4  1  0.81474400  0.81474400  0.18525600  1
  Er  Er5  1  0.18525600  0.18525600  0.81474400  1
  Er  Er6  1  0.59619900  0.59619900  0.59619900  1
  Er  Er7  1  0.59619900  0.59619900  0.21140300  1
  Er  Er8  1  0.59619900  0.21140300  0.59619900  1
  Er  Er9  1  0.21140300  0.59619900  0.59619900  1
  Er  Er10  1  0.06262500  0.43737500  0.43737500  1
  Er  Er11  1  0.43737500  0.06262500  0.06262500  1
  Er  Er12  1  0.43737500  0.06262500  0.43737500  1
  Er  Er13  1  0.06262500  0.43737500  0.06262500  1
  Er  Er14  1  0.43737500  0.43737500  0.06262500  1
  Er  Er15  1  0.06262500  0.06262500  0.43737500  1
  Mg  Mg16  1  0.83059500  0.83059500  0.83059500  1
  Mg  Mg17  1  0.83059500  0.83059500  0.50821400  1
  Mg  Mg18  1  0.83059500  0.50821400  0.83059500  1
  Mg  Mg19  1  0.50821400  0.83059500  0.83059500  1
  Ni  Ni20  1  0.39169900  0.39169900  0.39169900  1
  Ni  Ni21  1  0.39169900  0.39169900  0.82490200  1
  Ni  Ni22  1  0.39169900  0.82490200  0.39169900  1
  Ni  Ni23  1  0.82490200  0.39169900  0.39169900  1
