# generated using pymatgen
data_K4Sn21Hg2
_symmetry_space_group_name_H-M   'P 1'
_cell_length_a   12.45161454
_cell_length_b   12.45161454
_cell_length_c   12.45939800
_cell_angle_alpha   90.00000000
_cell_angle_beta   90.00000000
_cell_angle_gamma   90.01540968
_symmetry_Int_Tables_number   1
_chemical_formula_structural   K4Sn21Hg2
_chemical_formula_sum   'K8 Sn42 Hg4'
_cell_volume   1931.73869513
_cell_formula_units_Z   2
loop_
 _symmetry_equiv_pos_site_id
 _symmetry_equiv_pos_as_xyz
  1  'x, y, z'
loop_
 _atom_site_type_symbol
 _atom_site_label
 _atom_site_symmetry_multiplicity
 _atom_site_fract_x
 _atom_site_fract_y
 _atom_site_fract_z
 _atom_site_occupancy
  K  K0  1  0.49964800  0.99970400  0.25000000  1
  K  K1  1  0.00029600  0.50035200  0.75000000  1
  K  K2  1  0.49932100  0.50067900  0.00000000  1
  K  K3  1  0.00072700  0.24919300  0.25000000  1
  K  K4  1  0.75080700  0.99927300  0.75000000  1
  K  K5  1  0.49932100  0.50067900  0.50000000  1
  K  K6  1  0.00070100  0.75075800  0.25000000  1
  K  K7  1  0.24924200  0.99929900  0.75000000  1
  Sn  Sn8  1  0.49992000  0.11644400  0.94145400  1
  Sn  Sn9  1  0.61585800  0.30891200  0.25000000  1
  Sn  Sn10  1  0.81240500  0.00003800  0.13255000  1
  Sn  Sn11  1  0.50007300  0.88065900  0.56378200  1
  Sn  Sn12  1  0.38082900  0.68615000  0.25000000  1
  Sn  Sn13  1  0.18742500  0.00002900  0.36776100  1
  Sn  Sn14  1  0.61628400  0.69115800  0.25000000  1
  Sn  Sn15  1  0.81240500  0.00003800  0.36745000  1
  Sn  Sn16  1  0.38122700  0.31388100  0.25000000  1
  Sn  Sn17  1  0.18742500  0.00002900  0.13223900  1
  Sn  Sn18  1  0.50007300  0.88065900  0.93621800  1
  Sn  Sn19  1  0.49992000  0.11644400  0.55854600  1
  Sn  Sn20  1  0.99996200  0.18759500  0.86745000  1
  Sn  Sn21  1  0.11934100  0.49992700  0.06378200  1
  Sn  Sn22  1  0.30884200  0.38371600  0.75000000  1
  Sn  Sn23  1  0.99997100  0.81257500  0.63223900  1
  Sn  Sn24  1  0.88355600  0.50008000  0.44145400  1
  Sn  Sn25  1  0.68611900  0.61877300  0.75000000  1
  Sn  Sn26  1  0.11934100  0.49992700  0.43621800  1
  Sn  Sn27  1  0.31385000  0.61917100  0.75000000  1
  Sn  Sn28  1  0.88355600  0.50008000  0.05854600  1
  Sn  Sn29  1  0.69108800  0.38414200  0.75000000  1
  Sn  Sn30  1  0.99996200  0.18759500  0.63255000  1
  Sn  Sn31  1  0.99997100  0.81257500  0.86776100  1
  Sn  Sn32  1  0.68383800  0.18314200  0.06683000  1
  Sn  Sn33  1  0.31783900  0.81776700  0.43225200  1
  Sn  Sn34  1  0.68302500  0.81761300  0.43316100  1
  Sn  Sn35  1  0.31699700  0.18306400  0.06760500  1
  Sn  Sn36  1  0.31783900  0.81776700  0.06774800  1
  Sn  Sn37  1  0.68383800  0.18314200  0.43317000  1
  Sn  Sn38  1  0.31699700  0.18306400  0.43239500  1
  Sn  Sn39  1  0.68302500  0.81761300  0.06683900  1
  Sn  Sn40  1  0.18238700  0.31697500  0.93316100  1
  Sn  Sn41  1  0.81693600  0.68300300  0.56760500  1
  Sn  Sn42  1  0.18223300  0.68216100  0.56774800  1
  Sn  Sn43  1  0.81685800  0.31616200  0.93317000  1
  Sn  Sn44  1  0.81685800  0.31616200  0.56683000  1
  Sn  Sn45  1  0.18223300  0.68216100  0.93225200  1
  Sn  Sn46  1  0.81693600  0.68300300  0.93239500  1
  Sn  Sn47  1  0.18238700  0.31697500  0.56683900  1
  Sn  Sn48  1  0.50023700  0.24994500  0.75000000  1
  Sn  Sn49  1  0.75005500  0.49976300  0.25000000  1
  Hg  Hg50  1  0.99996500  0.00003500  0.00000000  1
  Hg  Hg51  1  0.50004800  0.74996300  0.75000000  1
  Hg  Hg52  1  0.25003700  0.49995200  0.25000000  1
  Hg  Hg53  1  0.99996500  0.00003500  0.50000000  1
