# generated using pymatgen
data_Ba4USe6
_symmetry_space_group_name_H-M   'P 1'
_cell_length_a   9.08982797
_cell_length_b   9.08982797
_cell_length_c   9.08982852
_cell_angle_alpha   89.51739721
_cell_angle_beta   89.51739721
_cell_angle_gamma   89.51740207
_symmetry_Int_Tables_number   1
_chemical_formula_structural   Ba4USe6
_chemical_formula_sum   'Ba8 U2 Se12'
_cell_volume   750.96735231
_cell_formula_units_Z   2
loop_
 _symmetry_equiv_pos_site_id
 _symmetry_equiv_pos_as_xyz
  1  'x, y, z'
loop_
 _atom_site_type_symbol
 _atom_site_label
 _atom_site_symmetry_multiplicity
 _atom_site_fract_x
 _atom_site_fract_y
 _atom_site_fract_z
 _atom_site_occupancy
  Ba  Ba0  1  0.87471500  0.62528500  0.25000000  1
  Ba  Ba1  1  0.25000000  0.87471500  0.62528500  1
  Ba  Ba2  1  0.62528500  0.25000000  0.87471500  1
  Ba  Ba3  1  0.75000000  0.12528500  0.37471500  1
  Ba  Ba4  1  0.37471500  0.75000000  0.12528500  1
  Ba  Ba5  1  0.12528500  0.37471500  0.75000000  1
  Ba  Ba6  1  0.25000000  0.25000000  0.25000000  1
  Ba  Ba7  1  0.75000000  0.75000000  0.75000000  1
  U  U8  1  0.50000000  0.50000000  0.50000000  1
  U  U9  1  0.00000000  0.00000000  0.00000000  1
  Se  Se10  1  0.20182800  0.56101000  0.42348300  1
  Se  Se11  1  0.42348300  0.20182800  0.56101000  1
  Se  Se12  1  0.56101000  0.42348300  0.20182800  1
  Se  Se13  1  0.92348300  0.06101000  0.70182800  1
  Se  Se14  1  0.70182800  0.92348300  0.06101000  1
  Se  Se15  1  0.06101000  0.70182800  0.92348300  1
  Se  Se16  1  0.79817200  0.43899000  0.57651700  1
  Se  Se17  1  0.57651700  0.79817200  0.43899000  1
  Se  Se18  1  0.43899000  0.57651700  0.79817200  1
  Se  Se19  1  0.07651700  0.93899000  0.29817200  1
  Se  Se20  1  0.29817200  0.07651700  0.93899000  1
  Se  Se21  1  0.93899000  0.29817200  0.07651700  1
