# generated using pymatgen
data_FeTe3BrO7
_symmetry_space_group_name_H-M   'P 1'
_cell_length_a   7.50220600
_cell_length_b   11.09849200
_cell_length_c   11.27237368
_cell_angle_alpha   69.97217802
_cell_angle_beta   90.00000000
_cell_angle_gamma   90.00000000
_symmetry_Int_Tables_number   1
_chemical_formula_structural   FeTe3BrO7
_chemical_formula_sum   'Fe4 Te12 Br4 O28'
_cell_volume   881.81470634
_cell_formula_units_Z   4
loop_
 _symmetry_equiv_pos_site_id
 _symmetry_equiv_pos_as_xyz
  1  'x, y, z'
loop_
 _atom_site_type_symbol
 _atom_site_label
 _atom_site_symmetry_multiplicity
 _atom_site_fract_x
 _atom_site_fract_y
 _atom_site_fract_z
 _atom_site_occupancy
  Fe  Fe0  1  0.86998900  0.41221200  0.11325900  1
  Fe  Fe1  1  0.36998900  0.08778800  0.88674100  1
  Fe  Fe2  1  0.13001100  0.58778800  0.88674100  1
  Fe  Fe3  1  0.63001100  0.91221200  0.11325900  1
  Te  Te4  1  0.51044300  0.23225100  0.09775700  1
  Te  Te5  1  0.01044300  0.26774900  0.90224300  1
  Te  Te6  1  0.48955700  0.76774900  0.90224300  1
  Te  Te7  1  0.98955700  0.73225100  0.09775700  1
  Te  Te8  1  0.97412700  0.06714300  0.23304300  1
  Te  Te9  1  0.47412700  0.43285700  0.76695700  1
  Te  Te10  1  0.02587300  0.93285700  0.76695700  1
  Te  Te11  1  0.52587300  0.56714300  0.23304300  1
  Te  Te12  1  0.10150500  0.42717900  0.36744700  1
  Te  Te13  1  0.60150500  0.07282100  0.63255300  1
  Te  Te14  1  0.89849500  0.57282100  0.63255300  1
  Te  Te15  1  0.39849500  0.92717900  0.36744700  1
  Br  Br16  1  0.71218900  0.37839700  0.49399400  1
  Br  Br17  1  0.21218900  0.12160300  0.50600600  1
  Br  Br18  1  0.28781100  0.62160300  0.50600600  1
  Br  Br19  1  0.78781100  0.87839700  0.49399400  1
  O  O20  1  0.50980600  0.08820400  0.03953900  1
  O  O21  1  0.00980600  0.41179600  0.96046100  1
  O  O22  1  0.49019400  0.91179600  0.96046100  1
  O  O23  1  0.99019400  0.58820400  0.03953900  1
  O  O24  1  0.76097800  0.23906100  0.13013000  1
  O  O25  1  0.26097800  0.26093900  0.86987000  1
  O  O26  1  0.23902200  0.76093900  0.86987000  1
  O  O27  1  0.73902200  0.73906100  0.13013000  1
  O  O28  1  0.10813800  0.16677300  0.08755700  1
  O  O29  1  0.60813800  0.33322700  0.91244300  1
  O  O30  1  0.89186200  0.83322700  0.91244300  1
  O  O31  1  0.39186200  0.66677300  0.08755700  1
  O  O32  1  0.64195200  0.47064000  0.14582700  1
  O  O33  1  0.14195200  0.02936000  0.85417300  1
  O  O34  1  0.35804800  0.52936000  0.85417300  1
  O  O35  1  0.85804800  0.97064000  0.14582700  1
  O  O36  1  0.00152200  0.34151000  0.26358900  1
  O  O37  1  0.50152200  0.15849000  0.73641100  1
  O  O38  1  0.99847800  0.65849000  0.73641100  1
  O  O39  1  0.49847800  0.84151000  0.26358900  1
  O  O40  1  0.32849700  0.44071200  0.27775400  1
  O  O41  1  0.82849700  0.05928800  0.72224600  1
  O  O42  1  0.67150300  0.55928800  0.72224600  1
  O  O43  1  0.17150300  0.94071200  0.27775400  1
  O  O44  1  0.99445100  0.40530300  0.72169700  1
  O  O45  1  0.49445100  0.09469700  0.27830300  1
  O  O46  1  0.00554900  0.59469700  0.27830300  1
  O  O47  1  0.50554900  0.90530300  0.72169700  1
