# generated using pymatgen
data_Cs4Ge(PSe3)4
_symmetry_space_group_name_H-M   'P 1'
_cell_length_a   7.99414000
_cell_length_b   15.07207200
_cell_length_c   25.33451700
_cell_angle_alpha   90.00000000
_cell_angle_beta   90.00000000
_cell_angle_gamma   90.00000000
_symmetry_Int_Tables_number   1
_chemical_formula_structural   Cs4Ge(PSe3)4
_chemical_formula_sum   'Cs16 Ge4 P16 Se48'
_cell_volume   3052.51171060
_cell_formula_units_Z   4
loop_
 _symmetry_equiv_pos_site_id
 _symmetry_equiv_pos_as_xyz
  1  'x, y, z'
loop_
 _atom_site_type_symbol
 _atom_site_label
 _atom_site_symmetry_multiplicity
 _atom_site_fract_x
 _atom_site_fract_y
 _atom_site_fract_z
 _atom_site_occupancy
  Cs  Cs0  1  0.72894500  0.53668900  0.94115400  1
  Cs  Cs1  1  0.27105500  0.46331100  0.44115400  1
  Cs  Cs2  1  0.72894500  0.96331100  0.44115400  1
  Cs  Cs3  1  0.27105500  0.03668900  0.94115400  1
  Cs  Cs4  1  0.76932400  0.87536400  0.83465500  1
  Cs  Cs5  1  0.23067600  0.12463600  0.33465500  1
  Cs  Cs6  1  0.76932400  0.62463600  0.33465500  1
  Cs  Cs7  1  0.23067600  0.37536400  0.83465500  1
  Cs  Cs8  1  0.78419000  0.17580700  0.71120200  1
  Cs  Cs9  1  0.21581000  0.82419300  0.21120200  1
  Cs  Cs10  1  0.78419000  0.32419300  0.21120200  1
  Cs  Cs11  1  0.21581000  0.67580700  0.71120200  1
  Cs  Cs12  1  0.81748500  0.32779800  0.56375100  1
  Cs  Cs13  1  0.18251500  0.67220200  0.06375100  1
  Cs  Cs14  1  0.81748500  0.17220200  0.06375100  1
  Cs  Cs15  1  0.18251500  0.82779800  0.56375100  1
  Ge  Ge16  1  0.67150900  0.57713400  0.63337700  1
  Ge  Ge17  1  0.32849100  0.42286600  0.13337700  1
  Ge  Ge18  1  0.67150900  0.92286600  0.13337700  1
  Ge  Ge19  1  0.32849100  0.07713400  0.63337700  1
  P  P20  1  0.72620400  0.59647100  0.77662100  1
  P  P21  1  0.27379600  0.40352900  0.27662100  1
  P  P22  1  0.72620400  0.90352900  0.27662100  1
  P  P23  1  0.27379600  0.09647100  0.77662100  1
  P  P24  1  0.22673500  0.95608800  0.74341600  1
  P  P25  1  0.77326500  0.04391200  0.24341600  1
  P  P26  1  0.22673500  0.54391200  0.24341600  1
  P  P27  1  0.77326500  0.45608800  0.74341600  1
  P  P28  1  0.83002700  0.60686200  0.50037600  1
  P  P29  1  0.16997300  0.39313800  0.00037600  1
  P  P30  1  0.83002700  0.89313800  0.00037600  1
  P  P31  1  0.16997300  0.10686200  0.50037600  1
  P  P32  1  0.61572500  0.70344800  0.52059600  1
  P  P33  1  0.38427500  0.29655200  0.02059600  1
  P  P34  1  0.61572500  0.79655200  0.02059600  1
  P  P35  1  0.38427500  0.20344800  0.52059600  1
  Se  Se36  1  0.48981000  0.60183000  0.81722700  1
  Se  Se37  1  0.51019000  0.39817000  0.31722700  1
  Se  Se38  1  0.48981000  0.89817000  0.31722700  1
  Se  Se39  1  0.51019000  0.10183000  0.81722700  1
  Se  Se40  1  0.94512600  0.63333600  0.82168800  1
  Se  Se41  1  0.05487400  0.36666400  0.32168800  1
  Se  Se42  1  0.94512600  0.86666400  0.32168800  1
  Se  Se43  1  0.05487400  0.13333600  0.82168800  1
  Se  Se44  1  0.72549900  0.68619600  0.70051400  1
  Se  Se45  1  0.27450100  0.31380400  0.20051400  1
  Se  Se46  1  0.72549900  0.81380400  0.20051400  1
  Se  Se47  1  0.27450100  0.18619600  0.70051400  1
  Se  Se48  1  0.28669100  0.86402200  0.80541500  1
  Se  Se49  1  0.71330900  0.13597800  0.30541500  1
  Se  Se50  1  0.28669100  0.63597800  0.30541500  1
  Se  Se51  1  0.71330900  0.36402200  0.80541500  1
  Se  Se52  1  0.98674100  0.94585300  0.70401300  1
  Se  Se53  1  0.01325900  0.05414700  0.20401300  1
  Se  Se54  1  0.98674100  0.55414700  0.20401300  1
  Se  Se55  1  0.01325900  0.44585300  0.70401300  1
  Se  Se56  1  0.43388000  0.94882700  0.67896600  1
  Se  Se57  1  0.56612000  0.05117300  0.17896600  1
  Se  Se58  1  0.43388000  0.55117300  0.17896600  1
  Se  Se59  1  0.56612000  0.44882700  0.67896600  1
  Se  Se60  1  0.92987300  0.56864400  0.58443900  1
  Se  Se61  1  0.07012700  0.43135600  0.08443900  1
  Se  Se62  1  0.92987300  0.93135600  0.08443900  1
  Se  Se63  1  0.07012700  0.06864400  0.58443900  1
  Se  Se64  1  0.74171600  0.00987600  0.95920800  1
  Se  Se65  1  0.25828400  0.99012400  0.45920800  1
  Se  Se66  1  0.74171600  0.49012400  0.45920800  1
  Se  Se67  1  0.25828400  0.50987600  0.95920800  1
  Se  Se68  1  0.97458600  0.31804600  0.96233900  1
  Se  Se69  1  0.02541400  0.68195400  0.46233900  1
  Se  Se70  1  0.97458600  0.18195400  0.46233900  1
  Se  Se71  1  0.02541400  0.81804600  0.96233900  1
  Se  Se72  1  0.45119200  0.60652800  0.57148000  1
  Se  Se73  1  0.54880800  0.39347200  0.07148000  1
  Se  Se74  1  0.45119200  0.89347200  0.07148000  1
  Se  Se75  1  0.54880800  0.10652800  0.57148000  1
  Se  Se76  1  0.48378600  0.76760100  0.94898700  1
  Se  Se77  1  0.51621400  0.23239900  0.44898700  1
  Se  Se78  1  0.48378600  0.73239900  0.44898700  1
  Se  Se79  1  0.51621400  0.26760100  0.94898700  1
  Se  Se80  1  0.70160000  0.80978400  0.57120700  1
  Se  Se81  1  0.29840000  0.19021600  0.07120700  1
  Se  Se82  1  0.70160000  0.69021600  0.07120700  1
  Se  Se83  1  0.29840000  0.30978400  0.57120700  1
