# generated using pymatgen
data_Ho4MgRh
_symmetry_space_group_name_H-M   'P 1'
_cell_length_a   9.66655982
_cell_length_b   9.66655982
_cell_length_c   9.66655982
_cell_angle_alpha   60.00000000
_cell_angle_beta   60.00000000
_cell_angle_gamma   60.00000000
_symmetry_Int_Tables_number   1
_chemical_formula_structural   Ho4MgRh
_chemical_formula_sum   'Ho16 Mg4 Rh4'
_cell_volume   638.70575717
_cell_formula_units_Z   4
loop_
 _symmetry_equiv_pos_site_id
 _symmetry_equiv_pos_as_xyz
  1  'x, y, z'
loop_
 _atom_site_type_symbol
 _atom_site_label
 _atom_site_symmetry_multiplicity
 _atom_site_fract_x
 _atom_site_fract_y
 _atom_site_fract_z
 _atom_site_occupancy
  Ho  Ho0  1  0.81249100  0.18750900  0.18750900  1
  Ho  Ho1  1  0.18750900  0.81249100  0.81249100  1
  Ho  Ho2  1  0.18750900  0.81249100  0.18750900  1
  Ho  Ho3  1  0.81249100  0.18750900  0.81249100  1
  Ho  Ho4  1  0.18750900  0.18750900  0.81249100  1
  Ho  Ho5  1  0.81249100  0.81249100  0.18750900  1
  Ho  Ho6  1  0.93522800  0.56477200  0.56477200  1
  Ho  Ho7  1  0.56477200  0.93522800  0.93522800  1
  Ho  Ho8  1  0.56477200  0.93522800  0.56477200  1
  Ho  Ho9  1  0.93522800  0.56477200  0.93522800  1
  Ho  Ho10  1  0.56477200  0.56477200  0.93522800  1
  Ho  Ho11  1  0.93522800  0.93522800  0.56477200  1
  Ho  Ho12  1  0.34678200  0.34678200  0.34678200  1
  Ho  Ho13  1  0.34678200  0.34678200  0.95965400  1
  Ho  Ho14  1  0.34678200  0.95965400  0.34678200  1
  Ho  Ho15  1  0.95965400  0.34678200  0.34678200  1
  Mg  Mg16  1  0.57944200  0.57944200  0.57944200  1
  Mg  Mg17  1  0.57944200  0.57944200  0.26167500  1
  Mg  Mg18  1  0.57944200  0.26167500  0.57944200  1
  Mg  Mg19  1  0.26167500  0.57944200  0.57944200  1
  Rh  Rh20  1  0.14153300  0.14153300  0.14153300  1
  Rh  Rh21  1  0.14153300  0.14153300  0.57540100  1
  Rh  Rh22  1  0.14153300  0.57540100  0.14153300  1
  Rh  Rh23  1  0.57540100  0.14153300  0.14153300  1
