# generated using pymatgen
data_Eu3(MgGe)5
_symmetry_space_group_name_H-M   'P 1'
_cell_length_a   4.52804200
_cell_length_b   14.53622600
_cell_length_c   18.43276600
_cell_angle_alpha   90.00000000
_cell_angle_beta   90.00000000
_cell_angle_gamma   90.00000000
_symmetry_Int_Tables_number   1
_chemical_formula_structural   Eu3(MgGe)5
_chemical_formula_sum   'Eu12 Mg20 Ge20'
_cell_volume   1213.25648918
_cell_formula_units_Z   4
loop_
 _symmetry_equiv_pos_site_id
 _symmetry_equiv_pos_as_xyz
  1  'x, y, z'
loop_
 _atom_site_type_symbol
 _atom_site_label
 _atom_site_symmetry_multiplicity
 _atom_site_fract_x
 _atom_site_fract_y
 _atom_site_fract_z
 _atom_site_occupancy
  Eu  Eu0  1  0.25000000  0.41226300  0.65363700  1
  Eu  Eu1  1  0.25000000  0.91226300  0.84636300  1
  Eu  Eu2  1  0.75000000  0.58773700  0.34636300  1
  Eu  Eu3  1  0.75000000  0.08773700  0.15363700  1
  Eu  Eu4  1  0.25000000  0.20840800  0.48736100  1
  Eu  Eu5  1  0.25000000  0.70840800  0.01263900  1
  Eu  Eu6  1  0.75000000  0.79159200  0.51263900  1
  Eu  Eu7  1  0.75000000  0.29159200  0.98736100  1
  Eu  Eu8  1  0.25000000  0.13581400  0.69200600  1
  Eu  Eu9  1  0.25000000  0.63581400  0.80799400  1
  Eu  Eu10  1  0.75000000  0.86418600  0.30799400  1
  Eu  Eu11  1  0.75000000  0.36418600  0.19200600  1
  Mg  Mg12  1  0.25000000  0.44709900  0.45651800  1
  Mg  Mg13  1  0.25000000  0.94709900  0.04348200  1
  Mg  Mg14  1  0.75000000  0.55290100  0.54348200  1
  Mg  Mg15  1  0.75000000  0.05290100  0.95651800  1
  Mg  Mg16  1  0.25000000  0.16458700  0.87106000  1
  Mg  Mg17  1  0.25000000  0.66458700  0.62894000  1
  Mg  Mg18  1  0.75000000  0.83541300  0.12894000  1
  Mg  Mg19  1  0.75000000  0.33541300  0.37106000  1
  Mg  Mg20  1  0.25000000  0.97688100  0.56151000  1
  Mg  Mg21  1  0.25000000  0.47688100  0.93849000  1
  Mg  Mg22  1  0.75000000  0.02311900  0.43849000  1
  Mg  Mg23  1  0.75000000  0.52311900  0.06151000  1
  Mg  Mg24  1  0.25000000  0.03706000  0.31055900  1
  Mg  Mg25  1  0.25000000  0.53706000  0.18944100  1
  Mg  Mg26  1  0.75000000  0.96294000  0.68944100  1
  Mg  Mg27  1  0.75000000  0.46294000  0.81055900  1
  Mg  Mg28  1  0.25000000  0.23404200  0.27411000  1
  Mg  Mg29  1  0.25000000  0.73404200  0.22589000  1
  Mg  Mg30  1  0.75000000  0.76595800  0.72589000  1
  Mg  Mg31  1  0.75000000  0.26595800  0.77411000  1
  Ge  Ge32  1  0.25000000  0.13201400  0.01607700  1
  Ge  Ge33  1  0.25000000  0.63201400  0.48392300  1
  Ge  Ge34  1  0.75000000  0.86798600  0.98392300  1
  Ge  Ge35  1  0.75000000  0.36798600  0.51607700  1
  Ge  Ge36  1  0.25000000  0.35031300  0.82568400  1
  Ge  Ge37  1  0.25000000  0.85031300  0.67431600  1
  Ge  Ge38  1  0.75000000  0.64968700  0.17431600  1
  Ge  Ge39  1  0.75000000  0.14968700  0.32568400  1
  Ge  Ge40  1  0.25000000  0.74362300  0.37886500  1
  Ge  Ge41  1  0.25000000  0.24362300  0.12113500  1
  Ge  Ge42  1  0.75000000  0.25637700  0.62113500  1
  Ge  Ge43  1  0.75000000  0.75637700  0.87886500  1
  Ge  Ge44  1  0.25000000  0.42144700  0.30944800  1
  Ge  Ge45  1  0.25000000  0.92144700  0.19055200  1
  Ge  Ge46  1  0.75000000  0.57855300  0.69055200  1
  Ge  Ge47  1  0.75000000  0.07855300  0.80944800  1
  Ge  Ge48  1  0.25000000  0.91296600  0.42466100  1
  Ge  Ge49  1  0.25000000  0.41296600  0.07533900  1
  Ge  Ge50  1  0.75000000  0.08703400  0.57533900  1
  Ge  Ge51  1  0.75000000  0.58703400  0.92466100  1
