# generated using pymatgen
data_LaCr4(CuO4)3
_symmetry_space_group_name_H-M   'P 1'
_cell_length_a   6.45123230
_cell_length_b   6.45123117
_cell_length_c   6.45123174
_cell_angle_alpha   70.43120102
_cell_angle_beta   70.59026924
_cell_angle_gamma   109.43557964
_symmetry_Int_Tables_number   1
_chemical_formula_structural   LaCr4(CuO4)3
_chemical_formula_sum   'La1 Cr4 Cu3 O12'
_cell_volume   206.68212351
_cell_formula_units_Z   1
loop_
 _symmetry_equiv_pos_site_id
 _symmetry_equiv_pos_as_xyz
  1  'x, y, z'
loop_
 _atom_site_type_symbol
 _atom_site_label
 _atom_site_symmetry_multiplicity
 _atom_site_fract_x
 _atom_site_fract_y
 _atom_site_fract_z
 _atom_site_occupancy
  La  La0  1  0.00000000  0.00000000  0.00000000  1
  Cr  Cr1  1  0.00000000  0.50000000  0.00000000  1
  Cr  Cr2  1  0.50000000  0.50000000  0.50000000  1
  Cr  Cr3  1  0.50000000  0.00000000  0.00000000  1
  Cr  Cr4  1  0.00000000  0.00000000  0.50000000  1
  Cu  Cu5  1  0.50000000  0.50000000  0.00000000  1
  Cu  Cu6  1  0.50000000  0.00000000  0.50000000  1
  Cu  Cu7  1  0.00000000  0.50000000  0.50000000  1
  O  O8  1  0.85887600  0.68915600  0.83028000  1
  O  O9  1  0.48056400  0.31084400  0.83028000  1
  O  O10  1  0.51943600  0.68915600  0.16972000  1
  O  O11  1  0.14112400  0.31084400  0.16972000  1
  O  O12  1  0.83085400  0.14165100  0.68920400  1
  O  O13  1  0.83085300  0.52005700  0.31079600  1
  O  O14  1  0.16914700  0.47994300  0.68920400  1
  O  O15  1  0.16914600  0.85834900  0.31079600  1
  O  O16  1  0.31109100  0.16968600  0.51922300  1
  O  O17  1  0.68890900  0.16968600  0.14140600  1
  O  O18  1  0.31109100  0.83031400  0.85859400  1
  O  O19  1  0.68890800  0.83031400  0.48077700  1
