# generated using pymatgen
data_HC2N3
_symmetry_space_group_name_H-M   'P 1'
_cell_length_a   8.40960800
_cell_length_b   7.63419630
_cell_length_c   17.01646060
_cell_angle_alpha   89.89198418
_cell_angle_beta   90.00000000
_cell_angle_gamma   123.42091264
_symmetry_Int_Tables_number   1
_chemical_formula_structural   HC2N3
_chemical_formula_sum   'H12 C24 N36'
_cell_volume   911.82181139
_cell_formula_units_Z   12
loop_
 _symmetry_equiv_pos_site_id
 _symmetry_equiv_pos_as_xyz
  1  'x, y, z'
loop_
 _atom_site_type_symbol
 _atom_site_label
 _atom_site_symmetry_multiplicity
 _atom_site_fract_x
 _atom_site_fract_y
 _atom_site_fract_z
 _atom_site_occupancy
  H  H0  1  0.04893300  0.09786600  0.57867000  1
  H  H1  1  0.17471100  0.34942200  0.62576100  1
  H  H2  1  0.94379200  0.88758500  0.42206200  1
  H  H3  1  0.81811900  0.63623800  0.37521000  1
  H  H4  1  0.38426500  0.76853000  0.61881200  1
  H  H5  1  0.60527700  0.21055400  0.38163900  1
  H  H6  1  0.55411700  0.10823500  0.91993100  1
  H  H7  1  0.68218400  0.36436800  0.87639800  1
  H  H8  1  0.44328000  0.88656000  0.07552700  1
  H  H9  1  0.31868000  0.63736000  0.12441300  1
  H  H10  1  0.10697400  0.21394800  0.12047400  1
  H  H11  1  0.88582000  0.77164100  0.88169100  1
  C  C12  1  0.03414200  0.06828400  0.83795900  1
  C  C13  1  0.16906500  0.33813000  0.92638800  1
  C  C14  1  0.19652800  0.39305600  0.78415700  1
  C  C15  1  0.34642800  0.69285500  0.87067500  1
  C  C16  1  0.36576400  0.73152900  0.73781700  1
  C  C17  1  0.53421100  0.06842200  0.66130800  1
  C  C18  1  0.66983000  0.33966000  0.57316700  1
  C  C19  1  0.86523800  0.73047700  0.76204100  1
  C  C20  1  0.84674900  0.69349900  0.62890400  1
  C  C21  1  0.81888100  0.63776200  0.49600000  1
  C  C22  1  0.17358000  0.34716100  0.50500900  1
  C  C23  1  0.14457300  0.28914700  0.37232300  1
  C  C24  1  0.12540900  0.25081700  0.23939600  1
  C  C25  1  0.32174700  0.64349400  0.42727900  1
  C  C26  1  0.29441800  0.58883500  0.28508600  1
  C  C27  1  0.45651900  0.91303800  0.33860400  1
  C  C28  1  0.62504200  0.25008300  0.26233800  1
  C  C29  1  0.64481400  0.28962900  0.12921600  1
  C  C30  1  0.79436600  0.58873300  0.21647000  1
  C  C31  1  0.82296100  0.64592300  0.07461700  1
  C  C32  1  0.95726500  0.91453000  0.16313600  1
  C  C33  1  0.31764100  0.63528200  0.00337500  1
  C  C34  1  0.69629000  0.39258000  0.71555400  1
  C  C35  1  0.67551900  0.35103900  0.99669300  1
  N  N36  1  0.09359700  0.18719300  0.77299900  1
  N  N37  1  0.06556300  0.13112600  0.91343500  1
  N  N38  1  0.23721400  0.47442800  0.86027600  1
  N  N39  1  0.26146700  0.52293500  0.72231800  1
  N  N40  1  0.38628500  0.77257000  0.94180300  1
  N  N41  1  0.41051200  0.82102400  0.80815900  1
  N  N42  1  0.42620600  0.85241200  0.67030700  1
  N  N43  1  0.59322300  0.18644500  0.72640300  1
  N  N44  1  0.56616300  0.13232600  0.58593500  1
  N  N45  1  0.71167500  0.42334900  0.50134800  1
  N  N46  1  0.73748500  0.47497100  0.63935500  1
  N  N47  1  0.76083200  0.52166300  0.77752000  1
  N  N48  1  0.92608100  0.85216100  0.82933600  1
  N  N49  1  0.91024800  0.82049600  0.69153700  1
  N  N50  1  0.88709300  0.77418500  0.55767000  1
  N  N51  1  0.86313700  0.72627400  0.42515100  1
  N  N52  1  0.12962100  0.25924200  0.57580500  1
  N  N53  1  0.10495400  0.20990900  0.44354700  1
  N  N54  1  0.08050000  0.16099900  0.30991200  1
  N  N55  1  0.06512500  0.13024900  0.17216200  1
  N  N56  1  0.28069500  0.56139000  0.49923800  1
  N  N57  1  0.25370100  0.50740200  0.36132900  1
  N  N58  1  0.22967100  0.45934200  0.22341600  1
  N  N59  1  0.42523400  0.85046800  0.41406300  1
  N  N60  1  0.39730800  0.79461500  0.27368200  1
  N  N61  1  0.56437900  0.12875800  0.32966400  1
  N  N62  1  0.58052600  0.16105200  0.19173700  1
  N  N63  1  0.60581800  0.21163600  0.05781900  1
  N  N64  1  0.72920400  0.45840900  0.27816400  1
  N  N65  1  0.75404900  0.50809800  0.14031000  1
  N  N66  1  0.89720900  0.79441900  0.22791400  1
  N  N67  1  0.92639000  0.85278000  0.08774100  1
  N  N68  1  0.78252000  0.56504100  0.00279300  1
  N  N69  1  0.36253400  0.72506800  0.07382000  1
  N  N70  1  0.21047700  0.42095300  0.99827300  1
  N  N71  1  0.63432200  0.26864500  0.92525400  1
