# generated using pymatgen
data_Na3Nd9B8O27
_symmetry_space_group_name_H-M   'P 1'
_cell_length_a   8.83124927
_cell_length_b   8.83124927
_cell_length_c   8.54217400
_cell_angle_alpha   90.00000000
_cell_angle_beta   90.00000000
_cell_angle_gamma   119.99999450
_symmetry_Int_Tables_number   1
_chemical_formula_structural   Na3Nd9B8O27
_chemical_formula_sum   'Na3 Nd9 B8 O27'
_cell_volume   576.95687868
_cell_formula_units_Z   1
loop_
 _symmetry_equiv_pos_site_id
 _symmetry_equiv_pos_as_xyz
  1  'x, y, z'
loop_
 _atom_site_type_symbol
 _atom_site_label
 _atom_site_symmetry_multiplicity
 _atom_site_fract_x
 _atom_site_fract_y
 _atom_site_fract_z
 _atom_site_occupancy
  Na  Na0  1  0.33625400  0.00000000  0.00000000  1
  Na  Na1  1  0.00000000  0.33625400  0.00000000  1
  Na  Na2  1  0.66374600  0.66374600  0.00000000  1
  Nd  Nd3  1  0.65179700  0.00000000  0.23458800  1
  Nd  Nd4  1  0.00000000  0.65179700  0.23458800  1
  Nd  Nd5  1  0.65179700  0.00000000  0.76541200  1
  Nd  Nd6  1  0.00000000  0.65179700  0.76541200  1
  Nd  Nd7  1  0.34820300  0.34820300  0.23458800  1
  Nd  Nd8  1  0.34820300  0.34820300  0.76541200  1
  Nd  Nd9  1  0.28248100  0.00000000  0.50000000  1
  Nd  Nd10  1  0.00000000  0.28248100  0.50000000  1
  Nd  Nd11  1  0.71751900  0.71751900  0.50000000  1
  B  B12  1  0.00000000  0.00000000  0.20958500  1
  B  B13  1  0.00000000  0.00000000  0.79041500  1
  B  B14  1  0.33333300  0.66666700  0.00000000  1
  B  B15  1  0.66666700  0.33333300  0.00000000  1
  B  B16  1  0.33333300  0.66666700  0.32374400  1
  B  B17  1  0.33333300  0.66666700  0.67625600  1
  B  B18  1  0.66666700  0.33333300  0.67625600  1
  B  B19  1  0.66666700  0.33333300  0.32374400  1
  O  O20  1  0.17768100  0.51152300  0.31718000  1
  O  O21  1  0.48847700  0.66615800  0.31718000  1
  O  O22  1  0.17768100  0.51152300  0.68282000  1
  O  O23  1  0.51152300  0.17768100  0.68282000  1
  O  O24  1  0.33384200  0.82231900  0.31718000  1
  O  O25  1  0.48847700  0.66615800  0.68282000  1
  O  O26  1  0.66615800  0.48847700  0.68282000  1
  O  O27  1  0.51152300  0.17768100  0.31718000  1
  O  O28  1  0.33384200  0.82231900  0.68282000  1
  O  O29  1  0.66615800  0.48847700  0.31718000  1
  O  O30  1  0.82231900  0.33384200  0.68282000  1
  O  O31  1  0.82231900  0.33384200  0.31718000  1
  O  O32  1  0.32231900  0.50302100  0.00000000  1
  O  O33  1  0.49697900  0.81929800  0.00000000  1
  O  O34  1  0.50302100  0.32231900  0.00000000  1
  O  O35  1  0.18070200  0.67768100  0.00000000  1
  O  O36  1  0.81929800  0.49697900  0.00000000  1
  O  O37  1  0.67768100  0.18070200  0.00000000  1
  O  O38  1  0.74317800  0.00000000  0.50000000  1
  O  O39  1  0.00000000  0.74317800  0.50000000  1
  O  O40  1  0.25682200  0.25682200  0.50000000  1
  O  O41  1  0.15680800  0.00000000  0.21197400  1
  O  O42  1  0.00000000  0.15680800  0.21197400  1
  O  O43  1  0.15680800  0.00000000  0.78802600  1
  O  O44  1  0.00000000  0.15680800  0.78802600  1
  O  O45  1  0.84319200  0.84319200  0.21197400  1
  O  O46  1  0.84319200  0.84319200  0.78802600  1
