# generated using pymatgen
data_Eu3(SF2)2
_symmetry_space_group_name_H-M   'P 1'
_cell_length_a   10.16851913
_cell_length_b   10.16851913
_cell_length_c   10.16851913
_cell_angle_alpha   157.42228394
_cell_angle_beta   157.42228394
_cell_angle_gamma   32.14339325
_symmetry_Int_Tables_number   1
_chemical_formula_structural   Eu3(SF2)2
_chemical_formula_sum   'Eu3 S2 F4'
_cell_volume   154.86249988
_cell_formula_units_Z   1
loop_
 _symmetry_equiv_pos_site_id
 _symmetry_equiv_pos_as_xyz
  1  'x, y, z'
loop_
 _atom_site_type_symbol
 _atom_site_label
 _atom_site_symmetry_multiplicity
 _atom_site_fract_x
 _atom_site_fract_y
 _atom_site_fract_z
 _atom_site_occupancy
  Eu  Eu0  1  0.00000000  0.00000000  0.00000000  1
  Eu  Eu1  1  0.65765900  0.65765900  0.00000000  1
  Eu  Eu2  1  0.34234100  0.34234100  0.00000000  1
  S  S3  1  0.80279600  0.80279600  0.00000000  1
  S  S4  1  0.19720400  0.19720400  0.00000000  1
  F  F5  1  0.57011200  0.07011200  0.50000000  1
  F  F6  1  0.07011200  0.57011200  0.50000000  1
  F  F7  1  0.42988800  0.92988800  0.50000000  1
  F  F8  1  0.92988800  0.42988800  0.50000000  1
