# generated using pymatgen
data_Mg2SbN3
_symmetry_space_group_name_H-M   'P 1'
_cell_length_a   5.96996377
_cell_length_b   5.96996377
_cell_length_c   5.42062800
_cell_angle_alpha   90.00000000
_cell_angle_beta   90.00000000
_cell_angle_gamma   120.16877199
_symmetry_Int_Tables_number   1
_chemical_formula_structural   Mg2SbN3
_chemical_formula_sum   'Mg4 Sb2 N6'
_cell_volume   167.02540203
_cell_formula_units_Z   2
loop_
 _symmetry_equiv_pos_site_id
 _symmetry_equiv_pos_as_xyz
  1  'x, y, z'
loop_
 _atom_site_type_symbol
 _atom_site_label
 _atom_site_symmetry_multiplicity
 _atom_site_fract_x
 _atom_site_fract_y
 _atom_site_fract_z
 _atom_site_occupancy
  Mg  Mg0  1  0.99176200  0.33223000  0.98797600  1
  Mg  Mg1  1  0.33223000  0.99176200  0.98797600  1
  Mg  Mg2  1  0.00823800  0.66777000  0.48797600  1
  Mg  Mg3  1  0.66777000  0.00823800  0.48797600  1
  Sb  Sb4  1  0.67559400  0.67559400  0.98102600  1
  Sb  Sb5  1  0.32440600  0.32440600  0.48102600  1
  N  N6  1  0.01294300  0.33522900  0.37596900  1
  N  N7  1  0.33522900  0.01294300  0.37596900  1
  N  N8  1  0.98705700  0.66477100  0.87596900  1
  N  N9  1  0.66477100  0.98705700  0.87596900  1
  N  N10  1  0.65463700  0.65463700  0.36308400  1
  N  N11  1  0.34536300  0.34536300  0.86308400  1
