# generated using pymatgen
data_ScGaCu
_symmetry_space_group_name_H-M   'P 1'
_cell_length_a   4.23604300
_cell_length_b   5.38198287
_cell_length_c   5.32831902
_cell_angle_alpha   93.01392832
_cell_angle_beta   113.42216214
_cell_angle_gamma   66.82509231
_symmetry_Int_Tables_number   1
_chemical_formula_structural   ScGaCu
_chemical_formula_sum   'Sc2 Ga2 Cu2'
_cell_volume   101.69301595
_cell_formula_units_Z   2
loop_
 _symmetry_equiv_pos_site_id
 _symmetry_equiv_pos_as_xyz
  1  'x, y, z'
loop_
 _atom_site_type_symbol
 _atom_site_label
 _atom_site_symmetry_multiplicity
 _atom_site_fract_x
 _atom_site_fract_y
 _atom_site_fract_z
 _atom_site_occupancy
  Sc  Sc0  1  0.75572800  0.71775800  0.22921400  1
  Sc  Sc1  1  0.24427200  0.28224200  0.77078600  1
  Ga  Ga2  1  0.03870900  0.13073300  0.20815000  1
  Ga  Ga3  1  0.96129100  0.86926700  0.79185000  1
  Cu  Cu4  1  0.53492000  0.29872800  0.36856700  1
  Cu  Cu5  1  0.46508000  0.70127200  0.63143300  1
