# generated using pymatgen
data_Ti5MnSb2
_symmetry_space_group_name_H-M   'P 1'
_cell_length_a   5.14403300
_cell_length_b   7.85500263
_cell_length_c   7.85500263
_cell_angle_alpha   83.84521537
_cell_angle_beta   70.88673382
_cell_angle_gamma   70.88673382
_symmetry_Int_Tables_number   1
_chemical_formula_structural   Ti5MnSb2
_chemical_formula_sum   'Ti10 Mn2 Sb4'
_cell_volume   283.36317288
_cell_formula_units_Z   2
loop_
 _symmetry_equiv_pos_site_id
 _symmetry_equiv_pos_as_xyz
  1  'x, y, z'
loop_
 _atom_site_type_symbol
 _atom_site_label
 _atom_site_symmetry_multiplicity
 _atom_site_fract_x
 _atom_site_fract_y
 _atom_site_fract_z
 _atom_site_occupancy
  Ti  Ti0  1  0.06979100  0.13104500  0.72937300  1
  Ti  Ti1  1  0.93020900  0.86895500  0.27062700  1
  Ti  Ti2  1  0.79916400  0.27062700  0.13104500  1
  Ti  Ti3  1  0.43020900  0.27062700  0.86895500  1
  Ti  Ti4  1  0.20083600  0.72937300  0.86895500  1
  Ti  Ti5  1  0.56979100  0.72937300  0.13104500  1
  Ti  Ti6  1  0.70083600  0.86895500  0.72937300  1
  Ti  Ti7  1  0.29916400  0.13104500  0.27062700  1
  Ti  Ti8  1  0.25000000  0.50000000  0.50000000  1
  Ti  Ti9  1  0.75000000  0.50000000  0.50000000  1
  Mn  Mn10  1  0.25000000  0.00000000  0.00000000  1
  Mn  Mn11  1  0.75000000  0.00000000  0.00000000  1
  Sb  Sb12  1  0.16391000  0.50000000  0.17218100  1
  Sb  Sb13  1  0.83609000  0.50000000  0.82781900  1
  Sb  Sb14  1  0.33609000  0.82781900  0.50000000  1
  Sb  Sb15  1  0.66391000  0.17218100  0.50000000  1
