# generated using pymatgen
data_Ho2FeGe4
_symmetry_space_group_name_H-M   'P 1'
_cell_length_a   4.14113000
_cell_length_b   4.17651000
_cell_length_c   8.04532245
_cell_angle_alpha   74.95596241
_cell_angle_beta   90.00000000
_cell_angle_gamma   90.00000000
_symmetry_Int_Tables_number   1
_chemical_formula_structural   Ho2FeGe4
_chemical_formula_sum   'Ho2 Fe1 Ge4'
_cell_volume   134.37857905
_cell_formula_units_Z   1
loop_
 _symmetry_equiv_pos_site_id
 _symmetry_equiv_pos_as_xyz
  1  'x, y, z'
loop_
 _atom_site_type_symbol
 _atom_site_label
 _atom_site_symmetry_multiplicity
 _atom_site_fract_x
 _atom_site_fract_y
 _atom_site_fract_z
 _atom_site_occupancy
  Ho  Ho0  1  0.25000000  0.89732100  0.20535900  1
  Ho  Ho1  1  0.75000000  0.10249800  0.79500400  1
  Fe  Fe2  1  0.25000000  0.69435200  0.61129500  1
  Ge  Ge3  1  0.25000000  0.54707800  0.90584400  1
  Ge  Ge4  1  0.75000000  0.43708400  0.12583200  1
  Ge  Ge5  1  0.25000000  0.26061500  0.47876900  1
  Ge  Ge6  1  0.75000000  0.75805100  0.48389700  1
