# generated using pymatgen
data_PrNi3
_symmetry_space_group_name_H-M   'P 1'
_cell_length_a   8.79364654
_cell_length_b   8.79364654
_cell_length_c   8.79364667
_cell_angle_alpha   33.40663688
_cell_angle_beta   33.40663688
_cell_angle_gamma   33.40664145
_symmetry_Int_Tables_number   1
_chemical_formula_structural   PrNi3
_chemical_formula_sum   'Pr3 Ni9'
_cell_volume   183.56058257
_cell_formula_units_Z   3
loop_
 _symmetry_equiv_pos_site_id
 _symmetry_equiv_pos_as_xyz
  1  'x, y, z'
loop_
 _atom_site_type_symbol
 _atom_site_label
 _atom_site_symmetry_multiplicity
 _atom_site_fract_x
 _atom_site_fract_y
 _atom_site_fract_z
 _atom_site_occupancy
  Pr  Pr0  1  0.86119000  0.86119000  0.86119000  1
  Pr  Pr1  1  0.13881000  0.13881000  0.13881000  1
  Pr  Pr2  1  0.00000000  0.00000000  0.00000000  1
  Ni  Ni3  1  0.42015700  0.91743600  0.42015700  1
  Ni  Ni4  1  0.42015700  0.42015700  0.91743600  1
  Ni  Ni5  1  0.91743600  0.42015700  0.42015700  1
  Ni  Ni6  1  0.57984300  0.08256400  0.57984300  1
  Ni  Ni7  1  0.57984300  0.57984300  0.08256400  1
  Ni  Ni8  1  0.08256400  0.57984300  0.57984300  1
  Ni  Ni9  1  0.66760200  0.66760200  0.66760200  1
  Ni  Ni10  1  0.33239800  0.33239800  0.33239800  1
  Ni  Ni11  1  0.50000000  0.50000000  0.50000000  1
