# generated using pymatgen
data_CsNbV2O8
_symmetry_space_group_name_H-M   'P 1'
_cell_length_a   5.72331800
_cell_length_b   9.33434600
_cell_length_c   17.09207843
_cell_angle_alpha   74.20314703
_cell_angle_beta   90.00000000
_cell_angle_gamma   90.00000000
_symmetry_Int_Tables_number   1
_chemical_formula_structural   CsNbV2O8
_chemical_formula_sum   'Cs4 Nb4 V8 O32'
_cell_volume   878.63170822
_cell_formula_units_Z   4
loop_
 _symmetry_equiv_pos_site_id
 _symmetry_equiv_pos_as_xyz
  1  'x, y, z'
loop_
 _atom_site_type_symbol
 _atom_site_label
 _atom_site_symmetry_multiplicity
 _atom_site_fract_x
 _atom_site_fract_y
 _atom_site_fract_z
 _atom_site_occupancy
  Cs  Cs0  1  0.25000000  0.60100100  0.38995800  1
  Cs  Cs1  1  0.75000000  0.39899900  0.61004200  1
  Cs  Cs2  1  0.25000000  0.41895000  0.12128600  1
  Cs  Cs3  1  0.75000000  0.58105000  0.87871400  1
  Nb  Nb4  1  0.25000000  0.94166300  0.15139900  1
  Nb  Nb5  1  0.75000000  0.05833700  0.84860100  1
  Nb  Nb6  1  0.25000000  0.07564000  0.34661700  1
  Nb  Nb7  1  0.75000000  0.92436000  0.65338300  1
  V  V8  1  0.75000000  0.16547700  0.04008800  1
  V  V9  1  0.25000000  0.83452300  0.95991200  1
  V  V10  1  0.75000000  0.85009500  0.44631200  1
  V  V11  1  0.25000000  0.14990500  0.55368800  1
  V  V12  1  0.75000000  0.32272300  0.33842600  1
  V  V13  1  0.25000000  0.67727700  0.66157400  1
  V  V14  1  0.75000000  0.68814000  0.20548000  1
  V  V15  1  0.25000000  0.31186000  0.79452000  1
  O  O16  1  0.49582800  0.07359400  0.09002700  1
  O  O17  1  0.99582800  0.92640600  0.90997300  1
  O  O18  1  0.50417200  0.92640600  0.90997300  1
  O  O19  1  0.00417200  0.07359400  0.09002700  1
  O  O20  1  0.75000000  0.16979500  0.93726100  1
  O  O21  1  0.25000000  0.83020500  0.06273900  1
  O  O22  1  0.49394500  0.79213800  0.20932700  1
  O  O23  1  0.99394500  0.20786200  0.79067300  1
  O  O24  1  0.50605500  0.20786200  0.79067300  1
  O  O25  1  0.00605500  0.79213800  0.20932700  1
  O  O26  1  0.25000000  0.03871500  0.23966700  1
  O  O27  1  0.75000000  0.96128500  0.76033300  1
  O  O28  1  0.49391000  0.24212500  0.31107000  1
  O  O29  1  0.99391000  0.75787500  0.68893000  1
  O  O30  1  0.50609000  0.75787500  0.68893000  1
  O  O31  1  0.00609000  0.24212500  0.31107000  1
  O  O32  1  0.75000000  0.88236000  0.54180200  1
  O  O33  1  0.25000000  0.11764000  0.45819800  1
  O  O34  1  0.49826600  0.92873600  0.38815600  1
  O  O35  1  0.99826600  0.07126400  0.61184400  1
  O  O36  1  0.50173400  0.07126400  0.61184400  1
  O  O37  1  0.00173400  0.92873600  0.38815600  1
  O  O38  1  0.75000000  0.33841100  0.04821100  1
  O  O39  1  0.25000000  0.66158900  0.95178900  1
  O  O40  1  0.75000000  0.66910500  0.45463300  1
  O  O41  1  0.25000000  0.33089500  0.54536700  1
  O  O42  1  0.75000000  0.30121500  0.43704900  1
  O  O43  1  0.25000000  0.69878500  0.56295100  1
  O  O44  1  0.75000000  0.52364600  0.29151300  1
  O  O45  1  0.25000000  0.47635400  0.70848700  1
  O  O46  1  0.75000000  0.63304100  0.12220700  1
  O  O47  1  0.25000000  0.36695900  0.87779300  1
