# generated using pymatgen
data_Mg2Cu3Si
_symmetry_space_group_name_H-M   'P 1'
_cell_length_a   5.02233328
_cell_length_b   5.02233328
_cell_length_c   7.87348300
_cell_angle_alpha   90.00000000
_cell_angle_beta   90.00000000
_cell_angle_gamma   119.99999053
_symmetry_Int_Tables_number   1
_chemical_formula_structural   Mg2Cu3Si
_chemical_formula_sum   'Mg4 Cu6 Si2'
_cell_volume   171.99214994
_cell_formula_units_Z   2
loop_
 _symmetry_equiv_pos_site_id
 _symmetry_equiv_pos_as_xyz
  1  'x, y, z'
loop_
 _atom_site_type_symbol
 _atom_site_label
 _atom_site_symmetry_multiplicity
 _atom_site_fract_x
 _atom_site_fract_y
 _atom_site_fract_z
 _atom_site_occupancy
  Mg  Mg0  1  0.33333300  0.66666700  0.06075000  1
  Mg  Mg1  1  0.66666700  0.33333300  0.56075000  1
  Mg  Mg2  1  0.66666700  0.33333300  0.93925000  1
  Mg  Mg3  1  0.33333300  0.66666700  0.43925000  1
  Cu  Cu4  1  0.16856300  0.33712600  0.75000000  1
  Cu  Cu5  1  0.83143700  0.16856300  0.25000000  1
  Cu  Cu6  1  0.33712600  0.16856300  0.25000000  1
  Cu  Cu7  1  0.66287400  0.83143700  0.75000000  1
  Cu  Cu8  1  0.16856300  0.83143700  0.75000000  1
  Cu  Cu9  1  0.83143700  0.66287400  0.25000000  1
  Si  Si10  1  0.00000000  0.00000000  0.00000000  1
  Si  Si11  1  0.00000000  0.00000000  0.50000000  1
