# generated using pymatgen
data_UAs2
_symmetry_space_group_name_H-M   'P 1'
_cell_length_a   3.96307100
_cell_length_b   3.96307100
_cell_length_c   8.09680800
_cell_angle_alpha   90.00000000
_cell_angle_beta   90.00000000
_cell_angle_gamma   90.00000000
_symmetry_Int_Tables_number   1
_chemical_formula_structural   UAs2
_chemical_formula_sum   'U2 As4'
_cell_volume   127.16791385
_cell_formula_units_Z   2
loop_
 _symmetry_equiv_pos_site_id
 _symmetry_equiv_pos_as_xyz
  1  'x, y, z'
loop_
 _atom_site_type_symbol
 _atom_site_label
 _atom_site_symmetry_multiplicity
 _atom_site_fract_x
 _atom_site_fract_y
 _atom_site_fract_z
 _atom_site_occupancy
  U  U0  1  0.00000000  0.50000000  0.28363600  1
  U  U1  1  0.50000000  0.00000000  0.71636400  1
  As  As2  1  0.50000000  0.50000000  0.00000000  1
  As  As3  1  0.00000000  0.00000000  0.00000000  1
  As  As4  1  0.00000000  0.50000000  0.64241000  1
  As  As5  1  0.50000000  0.00000000  0.35759000  1
