# generated using pymatgen
data_TmSnGe
_symmetry_space_group_name_H-M   'P 1'
_cell_length_a   8.32384764
_cell_length_b   8.32384764
_cell_length_c   4.06049600
_cell_angle_alpha   90.00000000
_cell_angle_beta   90.00000000
_cell_angle_gamma   150.39727420
_symmetry_Int_Tables_number   1
_chemical_formula_structural   TmSnGe
_chemical_formula_sum   'Tm2 Sn2 Ge2'
_cell_volume   138.97591382
_cell_formula_units_Z   2
loop_
 _symmetry_equiv_pos_site_id
 _symmetry_equiv_pos_as_xyz
  1  'x, y, z'
loop_
 _atom_site_type_symbol
 _atom_site_label
 _atom_site_symmetry_multiplicity
 _atom_site_fract_x
 _atom_site_fract_y
 _atom_site_fract_z
 _atom_site_occupancy
  Tm  Tm0  1  0.40616800  0.59383200  0.25000000  1
  Tm  Tm1  1  0.59383200  0.40616800  0.75000000  1
  Sn  Sn2  1  0.75406100  0.24593900  0.25000000  1
  Sn  Sn3  1  0.24593900  0.75406100  0.75000000  1
  Ge  Ge4  1  0.05525300  0.94474700  0.25000000  1
  Ge  Ge5  1  0.94474700  0.05525300  0.75000000  1
