# generated using pymatgen
data_Hf3ZnN
_symmetry_space_group_name_H-M   'P 1'
_cell_length_a   5.88260444
_cell_length_b   5.88260444
_cell_length_c   8.82765800
_cell_angle_alpha   90.00000000
_cell_angle_beta   90.00000000
_cell_angle_gamma   147.24469290
_symmetry_Int_Tables_number   1
_chemical_formula_structural   Hf3ZnN
_chemical_formula_sum   'Hf6 Zn2 N2'
_cell_volume   165.28144345
_cell_formula_units_Z   2
loop_
 _symmetry_equiv_pos_site_id
 _symmetry_equiv_pos_as_xyz
  1  'x, y, z'
loop_
 _atom_site_type_symbol
 _atom_site_label
 _atom_site_symmetry_multiplicity
 _atom_site_fract_x
 _atom_site_fract_y
 _atom_site_fract_z
 _atom_site_occupancy
  Hf  Hf0  1  0.62781700  0.37218300  0.95419900  1
  Hf  Hf1  1  0.37218300  0.62781700  0.45419900  1
  Hf  Hf2  1  0.37218300  0.62781700  0.04580100  1
  Hf  Hf3  1  0.62781700  0.37218300  0.54580100  1
  Hf  Hf4  1  0.95474500  0.04525500  0.75000000  1
  Hf  Hf5  1  0.04525500  0.95474500  0.25000000  1
  Zn  Zn6  1  0.25412200  0.74587800  0.75000000  1
  Zn  Zn7  1  0.74587800  0.25412200  0.25000000  1
  N  N8  1  0.00000000  0.00000000  0.00000000  1
  N  N9  1  0.00000000  0.00000000  0.50000000  1
