# generated using pymatgen
data_KAsW2O9
_symmetry_space_group_name_H-M   'P 1'
_cell_length_a   5.06527300
_cell_length_b   9.37930300
_cell_length_c   17.14962200
_cell_angle_alpha   90.00000000
_cell_angle_beta   90.00000000
_cell_angle_gamma   90.00000000
_symmetry_Int_Tables_number   1
_chemical_formula_structural   KAsW2O9
_chemical_formula_sum   'K4 As4 W8 O36'
_cell_volume   814.75676540
_cell_formula_units_Z   4
loop_
 _symmetry_equiv_pos_site_id
 _symmetry_equiv_pos_as_xyz
  1  'x, y, z'
loop_
 _atom_site_type_symbol
 _atom_site_label
 _atom_site_symmetry_multiplicity
 _atom_site_fract_x
 _atom_site_fract_y
 _atom_site_fract_z
 _atom_site_occupancy
  K  K0  1  0.27744400  0.05000100  0.09192700  1
  K  K1  1  0.22255600  0.94999900  0.59192700  1
  K  K2  1  0.77744400  0.44999900  0.90807300  1
  K  K3  1  0.72255600  0.55000100  0.40807300  1
  As  As4  1  0.35101600  0.26817100  0.27553800  1
  As  As5  1  0.14898400  0.73182900  0.77553800  1
  As  As6  1  0.85101600  0.23182900  0.72446200  1
  As  As7  1  0.64898400  0.76817100  0.22446200  1
  W  W8  1  0.36238700  0.63423300  0.05087000  1
  W  W9  1  0.13761300  0.36576700  0.55087000  1
  W  W10  1  0.86238700  0.86576700  0.94913000  1
  W  W11  1  0.63761300  0.13423300  0.44913000  1
  W  W12  1  0.88296300  0.43416200  0.16640300  1
  W  W13  1  0.61703700  0.56583800  0.66640300  1
  W  W14  1  0.38296300  0.06583800  0.83359700  1
  W  W15  1  0.11703700  0.93416200  0.33359700  1
  O  O16  1  0.12424400  0.78414400  0.02284300  1
  O  O17  1  0.37575600  0.21585600  0.52284300  1
  O  O18  1  0.62424400  0.71585600  0.97715700  1
  O  O19  1  0.87575600  0.28414400  0.47715700  1
  O  O20  1  0.65406500  0.51384400  0.09046600  1
  O  O21  1  0.84593500  0.48615600  0.59046600  1
  O  O22  1  0.15406500  0.98615600  0.90953400  1
  O  O23  1  0.34593500  0.01384400  0.40953400  1
  O  O24  1  0.15022400  0.57309500  0.13959300  1
  O  O25  1  0.34977600  0.42690500  0.63959300  1
  O  O26  1  0.65022400  0.92690500  0.86040700  1
  O  O27  1  0.84977600  0.07309500  0.36040700  1
  O  O28  1  0.08384800  0.38382200  0.26561800  1
  O  O29  1  0.41615200  0.61617800  0.76561800  1
  O  O30  1  0.58384800  0.11617800  0.73438200  1
  O  O31  1  0.91615200  0.88382200  0.23438200  1
  O  O32  1  0.58206400  0.31402200  0.20581300  1
  O  O33  1  0.91793600  0.68597800  0.70581300  1
  O  O34  1  0.08206400  0.18597800  0.79418700  1
  O  O35  1  0.41793600  0.81402200  0.29418700  1
  O  O36  1  0.24957100  0.50279200  0.98550400  1
  O  O37  1  0.25042900  0.49720800  0.48550400  1
  O  O38  1  0.74957100  0.99720800  0.01449600  1
  O  O39  1  0.75042900  0.00279200  0.51449600  1
  O  O40  1  0.47630900  0.29168300  0.36664300  1
  O  O41  1  0.02369100  0.70831700  0.86664300  1
  O  O42  1  0.97630900  0.20831700  0.63335700  1
  O  O43  1  0.52369100  0.79168300  0.13335700  1
  O  O44  1  0.26592900  0.09623500  0.25360300  1
  O  O45  1  0.23407100  0.90376500  0.75360300  1
  O  O46  1  0.76592900  0.40376500  0.74639700  1
  O  O47  1  0.73407100  0.59623500  0.24639700  1
  O  O48  1  0.01282600  0.29359900  0.11040800  1
  O  O49  1  0.48717400  0.70640100  0.61040800  1
  O  O50  1  0.51282600  0.20640100  0.88959200  1
  O  O51  1  0.98717400  0.79359900  0.38959200  1
