# generated using pymatgen
data_KAgPSe3
_symmetry_space_group_name_H-M   'P 1'
_cell_length_a   11.41990200
_cell_length_b   8.65968900
_cell_length_c   21.32191158
_cell_angle_alpha   86.80816074
_cell_angle_beta   90.00000000
_cell_angle_gamma   90.00000000
_symmetry_Int_Tables_number   1
_chemical_formula_structural   KAgPSe3
_chemical_formula_sum   'K12 Ag12 P12 Se36'
_cell_volume   2105.31249615
_cell_formula_units_Z   12
loop_
 _symmetry_equiv_pos_site_id
 _symmetry_equiv_pos_as_xyz
  1  'x, y, z'
loop_
 _atom_site_type_symbol
 _atom_site_label
 _atom_site_symmetry_multiplicity
 _atom_site_fract_x
 _atom_site_fract_y
 _atom_site_fract_z
 _atom_site_occupancy
  K  K0  1  0.84414200  0.81227300  0.70951800  1
  K  K1  1  0.34414200  0.18772700  0.79048200  1
  K  K2  1  0.15585800  0.18772700  0.29048200  1
  K  K3  1  0.65585800  0.81227300  0.20951800  1
  K  K4  1  0.70793900  0.46811500  0.00926300  1
  K  K5  1  0.20793900  0.53188500  0.49073700  1
  K  K6  1  0.29206100  0.53188500  0.99073700  1
  K  K7  1  0.79206100  0.46811500  0.50926300  1
  K  K8  1  0.52514700  0.13648400  0.60007900  1
  K  K9  1  0.02514700  0.86351600  0.89992100  1
  K  K10  1  0.47485300  0.86351600  0.39992100  1
  K  K11  1  0.97485300  0.13648400  0.10007900  1
  Ag  Ag12  1  0.65706300  0.45998900  0.77797000  1
  Ag  Ag13  1  0.15706300  0.54001100  0.72203000  1
  Ag  Ag14  1  0.34293700  0.54001100  0.22203000  1
  Ag  Ag15  1  0.84293700  0.45998900  0.27797000  1
  Ag  Ag16  1  0.53815500  0.81856000  0.86371300  1
  Ag  Ag17  1  0.03815500  0.18144000  0.63628700  1
  Ag  Ag18  1  0.46184500  0.18144000  0.13628700  1
  Ag  Ag19  1  0.96184500  0.81856000  0.36371300  1
  Ag  Ag20  1  0.71920200  0.13133700  0.89731300  1
  Ag  Ag21  1  0.21920200  0.86866300  0.60268700  1
  Ag  Ag22  1  0.28079800  0.86866300  0.10268700  1
  Ag  Ag23  1  0.78079800  0.13133700  0.39731300  1
  P  P24  1  0.95805700  0.40389600  0.86015600  1
  P  P25  1  0.45805700  0.59610400  0.63984400  1
  P  P26  1  0.04194300  0.59610400  0.13984400  1
  P  P27  1  0.54194300  0.40389600  0.36015600  1
  P  P28  1  0.92669400  0.27166700  0.76988900  1
  P  P29  1  0.42669400  0.72833300  0.73011100  1
  P  P30  1  0.07330600  0.72833300  0.23011100  1
  P  P31  1  0.57330600  0.27166700  0.26988900  1
  P  P32  1  0.57559200  0.92932700  0.02561000  1
  P  P33  1  0.07559200  0.07067300  0.47439000  1
  P  P34  1  0.42440800  0.07067300  0.97439000  1
  P  P35  1  0.92440800  0.92932700  0.52561000  1
  Se  Se36  1  0.92440900  0.23549900  0.94055100  1
  Se  Se37  1  0.42440900  0.76450100  0.55944900  1
  Se  Se38  1  0.07559100  0.76450100  0.05944900  1
  Se  Se39  1  0.57559100  0.23549900  0.44055100  1
  Se  Se40  1  0.74679000  0.17385000  0.77279100  1
  Se  Se41  1  0.24679000  0.82615000  0.72720900  1
  Se  Se42  1  0.25321000  0.82615000  0.22720900  1
  Se  Se43  1  0.75321000  0.17385000  0.27279100  1
  Se  Se44  1  0.44556200  0.55260600  0.81080300  1
  Se  Se45  1  0.94556200  0.44739400  0.68919700  1
  Se  Se46  1  0.55443800  0.44739400  0.18919700  1
  Se  Se47  1  0.05443800  0.55260600  0.31080300  1
  Se  Se48  1  0.14137200  0.48358100  0.85345900  1
  Se  Se49  1  0.64137200  0.51641900  0.64654100  1
  Se  Se50  1  0.85862800  0.51641900  0.14654100  1
  Se  Se51  1  0.35862800  0.48358100  0.35345900  1
  Se  Se52  1  0.69578100  0.84396300  0.95196100  1
  Se  Se53  1  0.19578100  0.15603700  0.54803900  1
  Se  Se54  1  0.30421900  0.15603700  0.04803900  1
  Se  Se55  1  0.80421900  0.84396300  0.45196100  1
  Se  Se56  1  0.48921200  0.73085400  0.07723600  1
  Se  Se57  1  0.98921200  0.26914600  0.42276400  1
  Se  Se58  1  0.51078800  0.26914600  0.92276400  1
  Se  Se59  1  0.01078800  0.73085400  0.57723600  1
  Se  Se60  1  0.82383100  0.59060100  0.85400600  1
  Se  Se61  1  0.32383100  0.40939900  0.64599400  1
  Se  Se62  1  0.17616900  0.40939900  0.14599400  1
  Se  Se63  1  0.67616900  0.59060100  0.35400600  1
  Se  Se64  1  0.66652800  0.08612900  0.08709800  1
  Se  Se65  1  0.16652800  0.91387100  0.41290200  1
  Se  Se66  1  0.33347200  0.91387100  0.91290200  1
  Se  Se67  1  0.83347200  0.08612900  0.58709800  1
  Se  Se68  1  0.06013200  0.08765200  0.76456300  1
  Se  Se69  1  0.56013200  0.91234800  0.73543700  1
  Se  Se70  1  0.93986800  0.91234800  0.23543700  1
  Se  Se71  1  0.43986800  0.08765200  0.26456300  1
