# generated using pymatgen
data_CsLaZr6CCl18
_symmetry_space_group_name_H-M   'P 1'
_cell_length_a   9.66630638
_cell_length_b   9.66630638
_cell_length_c   18.30880700
_cell_angle_alpha   90.00000000
_cell_angle_beta   90.00000000
_cell_angle_gamma   120.00000263
_symmetry_Int_Tables_number   1
_chemical_formula_structural   CsLaZr6CCl18
_chemical_formula_sum   'Cs2 La2 Zr12 C2 Cl36'
_cell_volume   1481.53453591
_cell_formula_units_Z   2
loop_
 _symmetry_equiv_pos_site_id
 _symmetry_equiv_pos_as_xyz
  1  'x, y, z'
loop_
 _atom_site_type_symbol
 _atom_site_label
 _atom_site_symmetry_multiplicity
 _atom_site_fract_x
 _atom_site_fract_y
 _atom_site_fract_z
 _atom_site_occupancy
  Cs  Cs0  1  0.33333300  0.66666700  0.75000000  1
  Cs  Cs1  1  0.66666700  0.33333300  0.25000000  1
  La  La2  1  0.66666700  0.33333300  0.75000000  1
  La  La3  1  0.33333300  0.66666700  0.25000000  1
  Zr  Zr4  1  0.82865200  0.03864100  0.57213000  1
  Zr  Zr5  1  0.17134800  0.96135900  0.42787000  1
  Zr  Zr6  1  0.96135900  0.79001100  0.57213000  1
  Zr  Zr7  1  0.82865200  0.79001100  0.92787000  1
  Zr  Zr8  1  0.03864100  0.20998900  0.42787000  1
  Zr  Zr9  1  0.17134800  0.20998900  0.07213000  1
  Zr  Zr10  1  0.20998900  0.17134800  0.57213000  1
  Zr  Zr11  1  0.96135900  0.17134800  0.92787000  1
  Zr  Zr12  1  0.79001100  0.82865200  0.42787000  1
  Zr  Zr13  1  0.03864100  0.82865200  0.07213000  1
  Zr  Zr14  1  0.20998900  0.03864100  0.92787000  1
  Zr  Zr15  1  0.79001100  0.96135900  0.07213000  1
  C  C16  1  0.00000000  0.00000000  0.50000000  1
  C  C17  1  0.00000000  0.00000000  0.00000000  1
  Cl  Cl18  1  0.27351500  0.42209000  0.50071300  1
  Cl  Cl19  1  0.72648500  0.57791000  0.49928700  1
  Cl  Cl20  1  0.57791000  0.85142500  0.50071300  1
  Cl  Cl21  1  0.27351500  0.85142500  0.99928700  1
  Cl  Cl22  1  0.42209000  0.14857500  0.49928700  1
  Cl  Cl23  1  0.72648500  0.14857500  0.00071300  1
  Cl  Cl24  1  0.14857500  0.72648500  0.50071300  1
  Cl  Cl25  1  0.57791000  0.72648500  0.99928700  1
  Cl  Cl26  1  0.85142500  0.27351500  0.49928700  1
  Cl  Cl27  1  0.42209000  0.27351500  0.00071300  1
  Cl  Cl28  1  0.14857500  0.42209000  0.99928700  1
  Cl  Cl29  1  0.85142500  0.57791000  0.00071300  1
  Cl  Cl30  1  0.04250600  0.23302500  0.66015600  1
  Cl  Cl31  1  0.95749400  0.76697500  0.33984400  1
  Cl  Cl32  1  0.76697500  0.80948100  0.66015600  1
  Cl  Cl33  1  0.04250600  0.80948100  0.83984400  1
  Cl  Cl34  1  0.23302500  0.19051900  0.33984400  1
  Cl  Cl35  1  0.95749400  0.19051900  0.16015600  1
  Cl  Cl36  1  0.19051900  0.95749400  0.66015600  1
  Cl  Cl37  1  0.76697500  0.95749400  0.83984400  1
  Cl  Cl38  1  0.80948100  0.04250600  0.33984400  1
  Cl  Cl39  1  0.23302500  0.04250600  0.16015600  1
  Cl  Cl40  1  0.19051900  0.23302500  0.83984400  1
  Cl  Cl41  1  0.80948100  0.76697500  0.16015600  1
  Cl  Cl42  1  0.62246800  0.07466700  0.66082200  1
  Cl  Cl43  1  0.37753200  0.92533300  0.33917800  1
  Cl  Cl44  1  0.92533300  0.54780100  0.66082200  1
  Cl  Cl45  1  0.62246800  0.54780100  0.83917800  1
  Cl  Cl46  1  0.07466700  0.45219900  0.33917800  1
  Cl  Cl47  1  0.37753200  0.45219900  0.16082200  1
  Cl  Cl48  1  0.45219900  0.37753200  0.66082200  1
  Cl  Cl49  1  0.92533300  0.37753200  0.83917800  1
  Cl  Cl50  1  0.54780100  0.62246800  0.33917800  1
  Cl  Cl51  1  0.07466700  0.62246800  0.16082200  1
  Cl  Cl52  1  0.45219900  0.07466700  0.83917800  1
  Cl  Cl53  1  0.54780100  0.92533300  0.16082200  1
