# generated using pymatgen
data_Ca3SbI3
_symmetry_space_group_name_H-M   'P 1'
_cell_length_a   11.12574869
_cell_length_b   11.12574869
_cell_length_c   11.12574869
_cell_angle_alpha   109.47122063
_cell_angle_beta   109.47122063
_cell_angle_gamma   109.47122063
_symmetry_Int_Tables_number   1
_chemical_formula_structural   Ca3SbI3
_chemical_formula_sum   'Ca12 Sb4 I12'
_cell_volume   1060.14640861
_cell_formula_units_Z   4
loop_
 _symmetry_equiv_pos_site_id
 _symmetry_equiv_pos_as_xyz
  1  'x, y, z'
loop_
 _atom_site_type_symbol
 _atom_site_label
 _atom_site_symmetry_multiplicity
 _atom_site_fract_x
 _atom_site_fract_y
 _atom_site_fract_z
 _atom_site_occupancy
  Ca  Ca0  1  0.48200400  0.49100200  0.24100200  1
  Ca  Ca1  1  0.75000000  0.24100200  0.25899800  1
  Ca  Ca2  1  0.75000000  0.00899800  0.49100200  1
  Ca  Ca3  1  0.24100200  0.48200400  0.49100200  1
  Ca  Ca4  1  0.25899800  0.75000000  0.24100200  1
  Ca  Ca5  1  0.01799600  0.25899800  0.00899800  1
  Ca  Ca6  1  0.00899800  0.01799600  0.25899800  1
  Ca  Ca7  1  0.49100200  0.75000000  0.00899800  1
  Ca  Ca8  1  0.49100200  0.24100200  0.48200400  1
  Ca  Ca9  1  0.00899800  0.49100200  0.75000000  1
  Ca  Ca10  1  0.25899800  0.00899800  0.01799600  1
  Ca  Ca11  1  0.24100200  0.25899800  0.75000000  1
  Sb  Sb12  1  0.25000000  0.25000000  0.25000000  1
  Sb  Sb13  1  0.50000000  0.00000000  0.25000000  1
  Sb  Sb14  1  0.00000000  0.25000000  0.50000000  1
  Sb  Sb15  1  0.25000000  0.50000000  0.00000000  1
  I  I16  1  0.25000000  0.75182400  0.74817600  1
  I  I17  1  0.50364900  0.50182400  0.75182400  1
  I  I18  1  0.99635100  0.74817600  0.99817600  1
  I  I19  1  0.74817600  0.25000000  0.75182400  1
  I  I20  1  0.99817600  0.99635100  0.74817600  1
  I  I21  1  0.25000000  0.99817600  0.50182400  1
  I  I22  1  0.75182400  0.50364900  0.50182400  1
  I  I23  1  0.50182400  0.25000000  0.99817600  1
  I  I24  1  0.75182400  0.74817600  0.25000000  1
  I  I25  1  0.74817600  0.99817600  0.99635100  1
  I  I26  1  0.99817600  0.50182400  0.25000000  1
  I  I27  1  0.50182400  0.75182400  0.50364900  1
