# generated using pymatgen
data_HoOs2
_symmetry_space_group_name_H-M   'P 1'
_cell_length_a   5.32261269
_cell_length_b   5.32261269
_cell_length_c   8.81031000
_cell_angle_alpha   90.00000000
_cell_angle_beta   90.00000000
_cell_angle_gamma   120.00000854
_symmetry_Int_Tables_number   1
_chemical_formula_structural   HoOs2
_chemical_formula_sum   'Ho4 Os8'
_cell_volume   216.15809973
_cell_formula_units_Z   4
loop_
 _symmetry_equiv_pos_site_id
 _symmetry_equiv_pos_as_xyz
  1  'x, y, z'
loop_
 _atom_site_type_symbol
 _atom_site_label
 _atom_site_symmetry_multiplicity
 _atom_site_fract_x
 _atom_site_fract_y
 _atom_site_fract_z
 _atom_site_occupancy
  Ho  Ho0  1  0.33333300  0.66666700  0.43479900  1
  Ho  Ho1  1  0.66666700  0.33333300  0.56520100  1
  Ho  Ho2  1  0.66666700  0.33333300  0.93479900  1
  Ho  Ho3  1  0.33333300  0.66666700  0.06520100  1
  Os  Os4  1  0.00000000  0.00000000  0.50000000  1
  Os  Os5  1  0.00000000  0.00000000  0.00000000  1
  Os  Os6  1  0.82739000  0.17261000  0.25000000  1
  Os  Os7  1  0.82739000  0.65478000  0.25000000  1
  Os  Os8  1  0.34522000  0.17261000  0.25000000  1
  Os  Os9  1  0.17261000  0.82739000  0.75000000  1
  Os  Os10  1  0.17261000  0.34522000  0.75000000  1
  Os  Os11  1  0.65478000  0.82739000  0.75000000  1
