# generated using pymatgen
data_Rb5Er(MoO4)4
_symmetry_space_group_name_H-M   'P 1'
_cell_length_a   8.11194600
_cell_length_b   11.42876500
_cell_length_c   11.65190843
_cell_angle_alpha   66.52900872
_cell_angle_beta   90.00000000
_cell_angle_gamma   90.00000000
_symmetry_Int_Tables_number   1
_chemical_formula_structural   Rb5Er(MoO4)4
_chemical_formula_sum   'Rb10 Er2 Mo8 O32'
_cell_volume   990.86558442
_cell_formula_units_Z   2
loop_
 _symmetry_equiv_pos_site_id
 _symmetry_equiv_pos_as_xyz
  1  'x, y, z'
loop_
 _atom_site_type_symbol
 _atom_site_label
 _atom_site_symmetry_multiplicity
 _atom_site_fract_x
 _atom_site_fract_y
 _atom_site_fract_z
 _atom_site_occupancy
  Rb  Rb0  1  0.38515000  0.25000000  0.50000000  1
  Rb  Rb1  1  0.61485000  0.75000000  0.50000000  1
  Rb  Rb2  1  0.35070900  0.84176000  0.10705600  1
  Rb  Rb3  1  0.35070900  0.65824000  0.89294400  1
  Rb  Rb4  1  0.64929100  0.15824000  0.89294400  1
  Rb  Rb5  1  0.64929100  0.34176000  0.10705600  1
  Rb  Rb6  1  0.86886600  0.14461500  0.40928800  1
  Rb  Rb7  1  0.86886600  0.35538500  0.59071200  1
  Rb  Rb8  1  0.13113400  0.85538500  0.59071200  1
  Rb  Rb9  1  0.13113400  0.64461500  0.40928800  1
  Er  Er10  1  0.09364200  0.25000000  0.00000000  1
  Er  Er11  1  0.90635800  0.75000000  0.00000000  1
  Mo  Mo12  1  0.85502600  0.94328000  0.19678000  1
  Mo  Mo13  1  0.85502600  0.55672000  0.80322000  1
  Mo  Mo14  1  0.14497400  0.05672000  0.80322000  1
  Mo  Mo15  1  0.14497400  0.44328000  0.19678000  1
  Mo  Mo16  1  0.34952400  0.05356500  0.28522800  1
  Mo  Mo17  1  0.34952400  0.44643500  0.71477200  1
  Mo  Mo18  1  0.65047600  0.94643500  0.71477200  1
  Mo  Mo19  1  0.65047600  0.55356500  0.28522800  1
  O  O20  1  0.89359700  0.11487200  0.11734200  1
  O  O21  1  0.89359700  0.38512800  0.88265800  1
  O  O22  1  0.10640300  0.88512800  0.88265800  1
  O  O23  1  0.10640300  0.61487200  0.11734200  1
  O  O24  1  0.90464100  0.89322800  0.35758100  1
  O  O25  1  0.90464100  0.60677200  0.64241900  1
  O  O26  1  0.09535900  0.10677200  0.64241900  1
  O  O27  1  0.09535900  0.39322800  0.35758100  1
  O  O28  1  0.97226000  0.85166300  0.12670500  1
  O  O29  1  0.97226000  0.64833700  0.87329500  1
  O  O30  1  0.02774000  0.14833700  0.87329500  1
  O  O31  1  0.02774000  0.35166300  0.12670500  1
  O  O32  1  0.64408900  0.91487800  0.17805600  1
  O  O33  1  0.64408900  0.58512200  0.82194400  1
  O  O34  1  0.35591100  0.08512200  0.82194400  1
  O  O35  1  0.35591100  0.41487800  0.17805600  1
  O  O36  1  0.29202600  0.12041900  0.11637500  1
  O  O37  1  0.29202600  0.37958100  0.88362500  1
  O  O38  1  0.70797400  0.87958100  0.88362500  1
  O  O39  1  0.70797400  0.62041900  0.11637500  1
  O  O40  1  0.33271900  0.88356900  0.35097700  1
  O  O41  1  0.33271900  0.61643100  0.64902300  1
  O  O42  1  0.66728100  0.11643100  0.64902300  1
  O  O43  1  0.66728100  0.38356900  0.35097700  1
  O  O44  1  0.55101300  0.10121300  0.31241400  1
  O  O45  1  0.55101300  0.39878700  0.68758600  1
  O  O46  1  0.44898700  0.89878700  0.68758600  1
  O  O47  1  0.44898700  0.60121300  0.31241400  1
  O  O48  1  0.20734900  0.10979200  0.36762800  1
  O  O49  1  0.20734900  0.39020800  0.63237200  1
  O  O50  1  0.79265100  0.89020800  0.63237200  1
  O  O51  1  0.79265100  0.60979200  0.36762800  1
