# generated using pymatgen
data_Ba(AlSe2)2
_symmetry_space_group_name_H-M   'P 1'
_cell_length_a   6.57235843
_cell_length_b   6.57235843
_cell_length_c   11.62078900
_cell_angle_alpha   90.00000000
_cell_angle_beta   90.00000000
_cell_angle_gamma   123.32076931
_symmetry_Int_Tables_number   1
_chemical_formula_structural   Ba(AlSe2)2
_chemical_formula_sum   'Ba2 Al4 Se8'
_cell_volume   419.45061519
_cell_formula_units_Z   2
loop_
 _symmetry_equiv_pos_site_id
 _symmetry_equiv_pos_as_xyz
  1  'x, y, z'
loop_
 _atom_site_type_symbol
 _atom_site_label
 _atom_site_symmetry_multiplicity
 _atom_site_fract_x
 _atom_site_fract_y
 _atom_site_fract_z
 _atom_site_occupancy
  Ba  Ba0  1  0.00000000  0.00000000  0.75000000  1
  Ba  Ba1  1  0.00000000  0.00000000  0.25000000  1
  Al  Al2  1  0.74348800  0.25826300  0.50000000  1
  Al  Al3  1  0.25826300  0.74348800  0.00000000  1
  Al  Al4  1  0.25651200  0.74173700  0.50000000  1
  Al  Al5  1  0.74173700  0.25651200  0.00000000  1
  Se  Se6  1  0.00000000  0.50000000  0.65923100  1
  Se  Se7  1  0.50000000  0.00000000  0.84076900  1
  Se  Se8  1  0.00000000  0.50000000  0.34076900  1
  Se  Se9  1  0.50000000  0.00000000  0.15923100  1
  Se  Se10  1  0.85213800  0.67049700  0.00000000  1
  Se  Se11  1  0.67049700  0.85213800  0.50000000  1
  Se  Se12  1  0.32950300  0.14786200  0.50000000  1
  Se  Se13  1  0.14786200  0.32950300  0.00000000  1
