# generated using pymatgen
data_PrAsS
_symmetry_space_group_name_H-M   'P 1'
_cell_length_a   3.94341300
_cell_length_b   3.99532600
_cell_length_c   17.74687900
_cell_angle_alpha   90.00000000
_cell_angle_beta   90.00000000
_cell_angle_gamma   90.00000000
_symmetry_Int_Tables_number   1
_chemical_formula_structural   PrAsS
_chemical_formula_sum   'Pr4 As4 S4'
_cell_volume   279.60599161
_cell_formula_units_Z   4
loop_
 _symmetry_equiv_pos_site_id
 _symmetry_equiv_pos_as_xyz
  1  'x, y, z'
loop_
 _atom_site_type_symbol
 _atom_site_label
 _atom_site_symmetry_multiplicity
 _atom_site_fract_x
 _atom_site_fract_y
 _atom_site_fract_z
 _atom_site_occupancy
  Pr  Pr0  1  0.25000000  0.21917900  0.85442100  1
  Pr  Pr1  1  0.25000000  0.28082100  0.35442100  1
  Pr  Pr2  1  0.75000000  0.78082100  0.14557900  1
  Pr  Pr3  1  0.75000000  0.71917900  0.64557900  1
  As  As4  1  0.75000000  0.20583800  0.50217000  1
  As  As5  1  0.75000000  0.29416200  0.00217000  1
  As  As6  1  0.25000000  0.79416200  0.49783000  1
  As  As7  1  0.25000000  0.70583800  0.99783000  1
  S  S8  1  0.25000000  0.21954600  0.68647700  1
  S  S9  1  0.25000000  0.28045400  0.18647700  1
  S  S10  1  0.75000000  0.78045400  0.31352300  1
  S  S11  1  0.75000000  0.71954600  0.81352300  1
