# generated using pymatgen
data_K3Gd(AsS4)2
_symmetry_space_group_name_H-M   'P 1'
_cell_length_a   9.00886062
_cell_length_b   10.20662456
_cell_length_c   10.90144008
_cell_angle_alpha   107.45776142
_cell_angle_beta   102.86844125
_cell_angle_gamma   114.01022321
_symmetry_Int_Tables_number   1
_chemical_formula_structural   K3Gd(AsS4)2
_chemical_formula_sum   'K6 Gd2 As4 S16'
_cell_volume   802.19626614
_cell_formula_units_Z   2
loop_
 _symmetry_equiv_pos_site_id
 _symmetry_equiv_pos_as_xyz
  1  'x, y, z'
loop_
 _atom_site_type_symbol
 _atom_site_label
 _atom_site_symmetry_multiplicity
 _atom_site_fract_x
 _atom_site_fract_y
 _atom_site_fract_z
 _atom_site_occupancy
  K  K0  1  0.25499400  0.00499400  0.00998800  1
  K  K1  1  0.74500600  0.99500600  0.99001200  1
  K  K2  1  0.00000000  0.50000000  0.00000000  1
  K  K3  1  0.50000000  0.50000000  0.00000000  1
  K  K4  1  0.48797100  0.73797100  0.47594100  1
  K  K5  1  0.51202900  0.26202900  0.52405900  1
  Gd  Gd6  1  0.00694000  0.75694000  0.51388000  1
  Gd  Gd7  1  0.99306000  0.24306000  0.48612000  1
  As  As8  1  0.74081700  0.34311700  0.24791000  1
  As  As9  1  0.00709300  0.90479300  0.24791000  1
  As  As10  1  0.25918300  0.65688300  0.75209000  1
  As  As11  1  0.99290700  0.09520700  0.75209000  1
  S  S12  1  0.63806600  0.26535400  0.02457200  1
  S  S13  1  0.88650600  0.75921800  0.02457200  1
  S  S14  1  0.36193400  0.73464600  0.97542800  1
  S  S15  1  0.11349400  0.24078200  0.97542800  1
  S  S16  1  0.34412000  0.86723200  0.70851700  1
  S  S17  1  0.86439700  0.84128500  0.70851700  1
  S  S18  1  0.65588000  0.13276800  0.29148300  1
  S  S19  1  0.13560300  0.15871500  0.29148300  1
  S  S20  1  0.96781500  0.52728300  0.65264400  1
  S  S21  1  0.18482900  0.12536100  0.65264400  1
  S  S22  1  0.03218500  0.47271700  0.34735600  1
  S  S23  1  0.81517100  0.87463900  0.34735600  1
  S  S24  1  0.20305100  0.85747900  0.35636500  1
  S  S25  1  0.65331400  0.49888600  0.35636500  1
  S  S26  1  0.79694900  0.14252100  0.64363500  1
  S  S27  1  0.34668600  0.50111400  0.64363500  1
