# generated using pymatgen
data_NdSiPt
_symmetry_space_group_name_H-M   'P 1'
_cell_length_a   7.83807203
_cell_length_b   7.83807203
_cell_length_c   7.83807203
_cell_angle_alpha   148.75266794
_cell_angle_beta   148.75266794
_cell_angle_gamma   44.77549391
_symmetry_Int_Tables_number   1
_chemical_formula_structural   NdSiPt
_chemical_formula_sum   'Nd2 Si2 Pt2'
_cell_volume   129.17668232
_cell_formula_units_Z   2
loop_
 _symmetry_equiv_pos_site_id
 _symmetry_equiv_pos_as_xyz
  1  'x, y, z'
loop_
 _atom_site_type_symbol
 _atom_site_label
 _atom_site_symmetry_multiplicity
 _atom_site_fract_x
 _atom_site_fract_y
 _atom_site_fract_z
 _atom_site_occupancy
  Nd  Nd0  1  0.74907600  0.24907600  0.50000000  1
  Nd  Nd1  1  0.99907600  0.99907600  0.00000000  1
  Si  Si2  1  0.16884800  0.66884800  0.50000000  1
  Si  Si3  1  0.41884800  0.41884800  0.00000000  1
  Pt  Pt4  1  0.33607600  0.83607600  0.50000000  1
  Pt  Pt5  1  0.58607600  0.58607600  0.00000000  1
