# generated using pymatgen
data_SmSiPd
_symmetry_space_group_name_H-M   'P 1'
_cell_length_a   4.40758400
_cell_length_b   7.50324900
_cell_length_c   21.52870100
_cell_angle_alpha   90.00000000
_cell_angle_beta   90.00000000
_cell_angle_gamma   90.00000000
_symmetry_Int_Tables_number   1
_chemical_formula_structural   SmSiPd
_chemical_formula_sum   'Sm12 Si12 Pd12'
_cell_volume   711.97998169
_cell_formula_units_Z   12
loop_
 _symmetry_equiv_pos_site_id
 _symmetry_equiv_pos_as_xyz
  1  'x, y, z'
loop_
 _atom_site_type_symbol
 _atom_site_label
 _atom_site_symmetry_multiplicity
 _atom_site_fract_x
 _atom_site_fract_y
 _atom_site_fract_z
 _atom_site_occupancy
  Sm  Sm0  1  0.25000000  0.70610100  0.33285600  1
  Sm  Sm1  1  0.75000000  0.29389900  0.66714400  1
  Sm  Sm2  1  0.75000000  0.20610100  0.16714400  1
  Sm  Sm3  1  0.25000000  0.79389900  0.83285600  1
  Sm  Sm4  1  0.25000000  0.79293300  0.16633500  1
  Sm  Sm5  1  0.75000000  0.20706700  0.83366500  1
  Sm  Sm6  1  0.75000000  0.29293300  0.33366500  1
  Sm  Sm7  1  0.25000000  0.70706700  0.66633500  1
  Sm  Sm8  1  0.25000000  0.71316200  0.00187000  1
  Sm  Sm9  1  0.75000000  0.28683800  0.99813000  1
  Sm  Sm10  1  0.75000000  0.21316200  0.49813000  1
  Sm  Sm11  1  0.25000000  0.78683800  0.50187000  1
  Si  Si12  1  0.25000000  0.08881800  0.07093200  1
  Si  Si13  1  0.75000000  0.91118200  0.92906800  1
  Si  Si14  1  0.75000000  0.58881800  0.42906800  1
  Si  Si15  1  0.25000000  0.41118200  0.57093200  1
  Si  Si16  1  0.25000000  0.08362500  0.27209600  1
  Si  Si17  1  0.75000000  0.91637500  0.72790400  1
  Si  Si18  1  0.75000000  0.58362500  0.22790400  1
  Si  Si19  1  0.25000000  0.41637500  0.77209600  1
  Si  Si20  1  0.25000000  0.08416600  0.39453800  1
  Si  Si21  1  0.75000000  0.91583400  0.60546200  1
  Si  Si22  1  0.75000000  0.58416600  0.10546200  1
  Si  Si23  1  0.25000000  0.41583400  0.89453800  1
  Pd  Pd24  1  0.25000000  0.41669700  0.23724000  1
  Pd  Pd25  1  0.75000000  0.58330300  0.76276000  1
  Pd  Pd26  1  0.75000000  0.91669700  0.26276000  1
  Pd  Pd27  1  0.25000000  0.08330300  0.73724000  1
  Pd  Pd28  1  0.25000000  0.41693000  0.43608100  1
  Pd  Pd29  1  0.75000000  0.58307000  0.56391900  1
  Pd  Pd30  1  0.75000000  0.91693000  0.06391900  1
  Pd  Pd31  1  0.25000000  0.08307000  0.93608100  1
  Pd  Pd32  1  0.25000000  0.41999100  0.09359400  1
  Pd  Pd33  1  0.75000000  0.58000900  0.90640600  1
  Pd  Pd34  1  0.75000000  0.91999100  0.40640600  1
  Pd  Pd35  1  0.25000000  0.08000900  0.59359400  1
