# generated using pymatgen
data_LiCoN
_symmetry_space_group_name_H-M   'P 1'
_cell_length_a   9.96367700
_cell_length_b   2.84139100
_cell_length_c   4.22382000
_cell_angle_alpha   90.00000000
_cell_angle_beta   90.00000000
_cell_angle_gamma   90.00000000
_symmetry_Int_Tables_number   1
_chemical_formula_structural   LiCoN
_chemical_formula_sum   'Li4 Co4 N4'
_cell_volume   119.57930998
_cell_formula_units_Z   4
loop_
 _symmetry_equiv_pos_site_id
 _symmetry_equiv_pos_as_xyz
  1  'x, y, z'
loop_
 _atom_site_type_symbol
 _atom_site_label
 _atom_site_symmetry_multiplicity
 _atom_site_fract_x
 _atom_site_fract_y
 _atom_site_fract_z
 _atom_site_occupancy
  Li  Li0  1  0.55285800  0.25000000  0.21023300  1
  Li  Li1  1  0.05285800  0.25000000  0.28976700  1
  Li  Li2  1  0.44714200  0.75000000  0.78976700  1
  Li  Li3  1  0.94714200  0.75000000  0.71023300  1
  Co  Co4  1  0.71615100  0.25000000  0.72540100  1
  Co  Co5  1  0.21615100  0.25000000  0.77459900  1
  Co  Co6  1  0.28384900  0.75000000  0.27459900  1
  Co  Co7  1  0.78384900  0.75000000  0.22540100  1
  N  N8  1  0.85581900  0.25000000  0.43335600  1
  N  N9  1  0.35581900  0.25000000  0.06664400  1
  N  N10  1  0.14418100  0.75000000  0.56664400  1
  N  N11  1  0.64418100  0.75000000  0.93335600  1
