# generated using pymatgen
data_TaTlWO6
_symmetry_space_group_name_H-M   'P 1'
_cell_length_a   7.43074317
_cell_length_b   7.43074317
_cell_length_c   7.43074317
_cell_angle_alpha   120.19831661
_cell_angle_beta   119.89205311
_cell_angle_gamma   89.92196025
_symmetry_Int_Tables_number   1
_chemical_formula_structural   TaTlWO6
_chemical_formula_sum   'Ta2 Tl2 W2 O12'
_cell_volume   289.92170104
_cell_formula_units_Z   2
loop_
 _symmetry_equiv_pos_site_id
 _symmetry_equiv_pos_as_xyz
  1  'x, y, z'
loop_
 _atom_site_type_symbol
 _atom_site_label
 _atom_site_symmetry_multiplicity
 _atom_site_fract_x
 _atom_site_fract_y
 _atom_site_fract_z
 _atom_site_occupancy
  Ta  Ta0  1  0.50000000  0.99704100  0.49704100  1
  Ta  Ta1  1  0.00000000  0.99704100  0.99704100  1
  Tl  Tl2  1  0.09296700  0.27633600  0.68336900  1
  Tl  Tl3  1  0.90703300  0.59040200  0.18336900  1
  W  W4  1  0.50028200  0.49726100  0.49697900  1
  W  W5  1  0.49971800  0.99669700  0.99697900  1
  O  O6  1  0.55873800  0.30875700  0.25001900  1
  O  O7  1  0.18514800  0.93759000  0.25244200  1
  O  O8  1  0.19372700  0.94038000  0.87831500  1
  O  O9  1  0.56102000  0.31644400  0.62375800  1
  O  O10  1  0.56206600  0.94038000  0.24665300  1
  O  O11  1  0.19268600  0.31644400  0.25542400  1
  O  O12  1  0.44126200  0.69128100  0.75001900  1
  O  O13  1  0.81485200  0.06729400  0.75244200  1
  O  O14  1  0.80731400  0.06273800  0.12375800  1
  O  O15  1  0.43793400  0.68458800  0.37831500  1
  O  O16  1  0.43898000  0.06273800  0.75542400  1
  O  O17  1  0.80627300  0.68458800  0.74665300  1
