# generated using pymatgen
data_ZrAlCu
_symmetry_space_group_name_H-M   'P 1'
_cell_length_a   5.17484418
_cell_length_b   5.17484418
_cell_length_c   5.17484418
_cell_angle_alpha   120.12433408
_cell_angle_beta   118.72774637
_cell_angle_gamma   91.00121775
_symmetry_Int_Tables_number   1
_chemical_formula_structural   ZrAlCu
_chemical_formula_sum   'Zr2 Al2 Cu2'
_cell_volume   98.80468777
_cell_formula_units_Z   2
loop_
 _symmetry_equiv_pos_site_id
 _symmetry_equiv_pos_as_xyz
  1  'x, y, z'
loop_
 _atom_site_type_symbol
 _atom_site_label
 _atom_site_symmetry_multiplicity
 _atom_site_fract_x
 _atom_site_fract_y
 _atom_site_fract_z
 _atom_site_occupancy
  Zr  Zr0  1  0.87496400  0.62496400  0.25000000  1
  Zr  Zr1  1  0.12503600  0.37503600  0.75000000  1
  Al  Al2  1  0.00000000  0.00000000  0.00000000  1
  Al  Al3  1  0.50000000  0.00000000  0.50000000  1
  Cu  Cu4  1  0.50000000  0.00000000  0.00000000  1
  Cu  Cu5  1  0.50000000  0.50000000  0.50000000  1
