# generated using pymatgen
data_Nb2S3O14
_symmetry_space_group_name_H-M   'P 1'
_cell_length_a   9.00047700
_cell_length_b   10.08647400
_cell_length_c   12.03438500
_cell_angle_alpha   90.00000000
_cell_angle_beta   90.00000000
_cell_angle_gamma   90.00000000
_symmetry_Int_Tables_number   1
_chemical_formula_structural   Nb2S3O14
_chemical_formula_sum   'Nb8 S12 O56'
_cell_volume   1092.51850309
_cell_formula_units_Z   4
loop_
 _symmetry_equiv_pos_site_id
 _symmetry_equiv_pos_as_xyz
  1  'x, y, z'
loop_
 _atom_site_type_symbol
 _atom_site_label
 _atom_site_symmetry_multiplicity
 _atom_site_fract_x
 _atom_site_fract_y
 _atom_site_fract_z
 _atom_site_occupancy
  Nb  Nb0  1  0.57332300  0.56407400  0.62369700  1
  Nb  Nb1  1  0.07332300  0.43592600  0.37630300  1
  Nb  Nb2  1  0.07332300  0.93592600  0.12369700  1
  Nb  Nb3  1  0.57332300  0.06407400  0.87630300  1
  Nb  Nb4  1  0.60701800  0.11849000  0.38029900  1
  Nb  Nb5  1  0.10701800  0.88151000  0.61970100  1
  Nb  Nb6  1  0.10701800  0.38151000  0.88029900  1
  Nb  Nb7  1  0.60701800  0.61849000  0.11970100  1
  S  S8  1  0.71858700  0.83298200  0.49648900  1
  S  S9  1  0.21858700  0.16701800  0.50351100  1
  S  S10  1  0.21858700  0.66701800  0.99648900  1
  S  S11  1  0.71858700  0.33298200  0.00351100  1
  S  S12  1  0.67822800  0.24061500  0.64259800  1
  S  S13  1  0.17822800  0.75938500  0.35740200  1
  S  S14  1  0.17822800  0.25938500  0.14259800  1
  S  S15  1  0.67822800  0.74061500  0.85740200  1
  S  S16  1  0.99836100  0.55418800  0.63849600  1
  S  S17  1  0.49836100  0.44581200  0.36150400  1
  S  S18  1  0.49836100  0.94581200  0.13849600  1
  S  S19  1  0.99836100  0.05418800  0.86150400  1
  O  O20  1  0.60979500  0.37112100  0.67687100  1
  O  O21  1  0.10979500  0.62887900  0.32312900  1
  O  O22  1  0.10979500  0.12887900  0.17687100  1
  O  O23  1  0.60979500  0.87112100  0.82312900  1
  O  O24  1  0.83681100  0.24154900  0.64102100  1
  O  O25  1  0.33681100  0.75845100  0.35897900  1
  O  O26  1  0.33681100  0.25845100  0.14102100  1
  O  O27  1  0.83681100  0.74154900  0.85897900  1
  O  O28  1  0.05782600  0.68604600  0.67140500  1
  O  O29  1  0.55782600  0.31395400  0.32859500  1
  O  O30  1  0.55782600  0.81395400  0.17140500  1
  O  O31  1  0.05782600  0.18604600  0.82859500  1
  O  O32  1  0.08461800  0.50668500  0.54000200  1
  O  O33  1  0.58461800  0.49331500  0.45999800  1
  O  O34  1  0.58461800  0.99331500  0.04000200  1
  O  O35  1  0.08461800  0.00668500  0.95999800  1
  O  O36  1  0.61477000  0.13823400  0.71971900  1
  O  O37  1  0.11477000  0.86176600  0.28028100  1
  O  O38  1  0.11477000  0.36176600  0.21971900  1
  O  O39  1  0.61477000  0.63823400  0.78028100  1
  O  O40  1  0.60860800  0.74682400  0.56254300  1
  O  O41  1  0.10860800  0.25317600  0.43745700  1
  O  O42  1  0.10860800  0.75317600  0.06254300  1
  O  O43  1  0.60860800  0.24682400  0.93745700  1
  O  O44  1  0.84082700  0.55892400  0.61406200  1
  O  O45  1  0.34082700  0.44107600  0.38593800  1
  O  O46  1  0.34082700  0.94107600  0.11406200  1
  O  O47  1  0.84082700  0.05892400  0.88593800  1
  O  O48  1  0.61164400  0.94724000  0.46376000  1
  O  O49  1  0.11164400  0.05276000  0.53624000  1
  O  O50  1  0.11164400  0.55276000  0.96376000  1
  O  O51  1  0.61164400  0.44724000  0.03624000  1
  O  O52  1  0.38271400  0.56696900  0.63474700  1
  O  O53  1  0.88271400  0.43303100  0.36525300  1
  O  O54  1  0.88271400  0.93303100  0.13474700  1
  O  O55  1  0.38271400  0.06696900  0.86525300  1
  O  O56  1  0.02920700  0.46267100  0.73315600  1
  O  O57  1  0.52920700  0.53732900  0.26684400  1
  O  O58  1  0.52920700  0.03732900  0.23315600  1
  O  O59  1  0.02920700  0.96267100  0.76684400  1
  O  O60  1  0.82999500  0.88508700  0.57367000  1
  O  O61  1  0.32999500  0.11491300  0.42633000  1
  O  O62  1  0.32999500  0.61491300  0.07367000  1
  O  O63  1  0.82999500  0.38508700  0.92633000  1
  O  O64  1  0.77064900  0.76507300  0.39967700  1
  O  O65  1  0.27064900  0.23492700  0.60032300  1
  O  O66  1  0.27064900  0.73492700  0.89967700  1
  O  O67  1  0.77064900  0.26507300  0.10032300  1
  O  O68  1  0.79332900  0.12312200  0.34964700  1
  O  O69  1  0.29332900  0.87687800  0.65035300  1
  O  O70  1  0.29332900  0.37687800  0.84964700  1
  O  O71  1  0.79332900  0.62312200  0.15035300  1
  O  O72  1  0.60931000  0.21107700  0.53192500  1
  O  O73  1  0.10931000  0.78892300  0.46807500  1
  O  O74  1  0.10931000  0.28892300  0.03192500  1
  O  O75  1  0.60931000  0.71107700  0.96807500  1
