# generated using pymatgen
data_CaTiMo(PO4)3
_symmetry_space_group_name_H-M   'P 1'
_cell_length_a   8.97833777
_cell_length_b   8.97833800
_cell_length_c   8.97833853
_cell_angle_alpha   58.57371819
_cell_angle_beta   58.57372201
_cell_angle_gamma   58.57372416
_symmetry_Int_Tables_number   1
_chemical_formula_structural   CaTiMo(PO4)3
_chemical_formula_sum   'Ca2 Ti2 Mo2 P6 O24'
_cell_volume   495.07700241
_cell_formula_units_Z   2
loop_
 _symmetry_equiv_pos_site_id
 _symmetry_equiv_pos_as_xyz
  1  'x, y, z'
loop_
 _atom_site_type_symbol
 _atom_site_label
 _atom_site_symmetry_multiplicity
 _atom_site_fract_x
 _atom_site_fract_y
 _atom_site_fract_z
 _atom_site_occupancy
  Ca  Ca0  1  0.99916100  0.99916100  0.99916100  1
  Ca  Ca1  1  0.49916100  0.49916100  0.49916100  1
  Ti  Ti2  1  0.14832100  0.14832100  0.14832100  1
  Ti  Ti3  1  0.64832100  0.64832100  0.64832100  1
  Mo  Mo4  1  0.35500300  0.35500300  0.35500300  1
  Mo  Mo5  1  0.85500300  0.85500300  0.85500300  1
  P  P6  1  0.03841300  0.45391300  0.75790600  1
  P  P7  1  0.45391300  0.75790600  0.03841300  1
  P  P8  1  0.75790600  0.03841300  0.45391300  1
  P  P9  1  0.25790600  0.95391300  0.53841300  1
  P  P10  1  0.53841300  0.25790600  0.95391300  1
  P  P11  1  0.95391300  0.53841300  0.25790600  1
  O  O12  1  0.10724800  0.51109200  0.30430100  1
  O  O13  1  0.30430100  0.10724800  0.51109200  1
  O  O14  1  0.05143700  0.26806400  0.92633400  1
  O  O15  1  0.51109200  0.30430100  0.10724800  1
  O  O16  1  0.01109200  0.60724800  0.80430100  1
  O  O17  1  0.22525000  0.42975200  0.59547400  1
  O  O18  1  0.26806400  0.92633400  0.05143700  1
  O  O19  1  0.42975200  0.59547400  0.22525000  1
  O  O20  1  0.20693900  0.99957200  0.37181700  1
  O  O21  1  0.59547400  0.22525000  0.42975200  1
  O  O22  1  0.09547400  0.92975200  0.72525000  1
  O  O23  1  0.37181700  0.20693900  0.99957200  1
  O  O24  1  0.60724800  0.80430100  0.01109200  1
  O  O25  1  0.92633400  0.05143700  0.26806400  1
  O  O26  1  0.42633400  0.76806400  0.55143700  1
  O  O27  1  0.80430100  0.01109200  0.60724800  1
  O  O28  1  0.55143700  0.42633400  0.76806400  1
  O  O29  1  0.72525000  0.09547400  0.92975200  1
  O  O30  1  0.76806400  0.55143700  0.42633400  1
  O  O31  1  0.99957200  0.37181700  0.20693900  1
  O  O32  1  0.49957200  0.70693900  0.87181700  1
  O  O33  1  0.92975200  0.72525000  0.09547400  1
  O  O34  1  0.70693900  0.87181700  0.49957200  1
  O  O35  1  0.87181700  0.49957200  0.70693900  1
