# generated using pymatgen
data_La12Si4SnS28
_symmetry_space_group_name_H-M   'P 1'
_cell_length_a   10.41254800
_cell_length_b   11.63032010
_cell_length_c   11.92199569
_cell_angle_alpha   119.19528027
_cell_angle_beta   115.88277683
_cell_angle_gamma   89.99249707
_symmetry_Int_Tables_number   1
_chemical_formula_structural   La12Si4SnS28
_chemical_formula_sum   'La12 Si4 Sn1 S28'
_cell_volume   1091.51137721
_cell_formula_units_Z   1
loop_
 _symmetry_equiv_pos_site_id
 _symmetry_equiv_pos_as_xyz
  1  'x, y, z'
loop_
 _atom_site_type_symbol
 _atom_site_label
 _atom_site_symmetry_multiplicity
 _atom_site_fract_x
 _atom_site_fract_y
 _atom_site_fract_z
 _atom_site_occupancy
  La  La0  1  0.63399900  0.05439200  0.87417900  1
  La  La1  1  0.65333000  0.57200800  0.88125400  1
  La  La2  1  0.22721200  0.80445800  0.34622400  1
  La  La3  1  0.24127300  0.30057300  0.36690500  1
  La  La4  1  0.12446200  0.99637700  0.75810800  1
  La  La5  1  0.11962300  0.51789100  0.77316200  1
  La  La6  1  0.34606500  0.92592400  0.11855700  1
  La  La7  1  0.36670300  0.44598300  0.12649600  1
  La  La8  1  0.76017600  0.19881100  0.63252300  1
  La  La9  1  0.77243800  0.69411900  0.65469300  1
  La  La10  1  0.88163800  0.98050300  0.22762300  1
  La  La11  1  0.87323100  0.50260600  0.23984400  1
  Si  Si12  1  0.66701200  0.33534600  0.33439300  1
  Si  Si13  1  0.66637600  0.83529800  0.33233000  1
  Si  Si14  1  0.33451100  0.75025500  0.66658000  1
  Si  Si15  1  0.33211600  0.25091100  0.66678700  1
  Sn  Sn16  1  0.00006500  0.24160900  0.00003100  1
  S  S17  1  0.66825400  0.65512000  0.33694400  1
  S  S18  1  0.66499200  0.15144400  0.32973800  1
  S  S19  1  0.33340400  0.56923600  0.66708900  1
  S  S20  1  0.33318300  0.06873800  0.66632600  1
  S  S21  1  0.74320000  0.82639600  0.91330200  1
  S  S22  1  0.75692700  0.31586700  0.91558300  1
  S  S23  1  0.15855700  0.47948200  0.24303600  1
  S  S24  1  0.17042500  0.99825800  0.25694800  1
  S  S25  1  0.08637900  0.78445300  0.82957500  1
  S  S26  1  0.08453000  0.27881900  0.84145100  1
  S  S27  1  0.24331700  0.16629000  0.08089100  1
  S  S28  1  0.25699700  0.65978200  0.08780400  1
  S  S29  1  0.83047600  0.48762800  0.74275300  1
  S  S30  1  0.83766400  0.00405500  0.75659200  1
  S  S31  1  0.91900300  0.20720600  0.16250600  1
  S  S32  1  0.91229900  0.70062900  0.16938400  1
  S  S33  1  0.47211900  0.78253400  0.58710100  1
  S  S34  1  0.47979200  0.28658700  0.59777200  1
  S  S35  1  0.11829000  0.74795100  0.52019200  1
  S  S36  1  0.11463800  0.25273300  0.52781500  1
  S  S37  1  0.40611900  0.93029300  0.88432300  1
  S  S38  1  0.40915900  0.42995900  0.88317200  1
  S  S39  1  0.52328100  0.44299700  0.40686000  1
  S  S40  1  0.52592400  0.94350900  0.41006400  1
  S  S41  1  0.88419700  0.47620100  0.47420600  1
  S  S42  1  0.88354500  0.97727400  0.47653500  1
  S  S43  1  0.59178800  0.29632500  0.11610300  1
  S  S44  1  0.59131200  0.79817000  0.11624800  1
