# generated using pymatgen
data_Sc2(Al3Co)3
_symmetry_space_group_name_H-M   'P 1'
_cell_length_a   7.28988119
_cell_length_b   7.28988119
_cell_length_c   9.08975600
_cell_angle_alpha   90.00000000
_cell_angle_beta   90.00000000
_cell_angle_gamma   119.23451530
_symmetry_Int_Tables_number   1
_chemical_formula_structural   Sc2(Al3Co)3
_chemical_formula_sum   'Sc4 Al18 Co6'
_cell_volume   421.52397822
_cell_formula_units_Z   2
loop_
 _symmetry_equiv_pos_site_id
 _symmetry_equiv_pos_as_xyz
  1  'x, y, z'
loop_
 _atom_site_type_symbol
 _atom_site_label
 _atom_site_symmetry_multiplicity
 _atom_site_fract_x
 _atom_site_fract_y
 _atom_site_fract_z
 _atom_site_occupancy
  Sc  Sc0  1  0.99418300  0.67818900  0.25000000  1
  Sc  Sc1  1  0.00581700  0.32181100  0.75000000  1
  Sc  Sc2  1  0.67818900  0.99418300  0.25000000  1
  Sc  Sc3  1  0.32181100  0.00581700  0.75000000  1
  Al  Al4  1  0.99548100  0.33684300  0.07420500  1
  Al  Al5  1  0.00451900  0.66315700  0.92579500  1
  Al  Al6  1  0.00451900  0.66315700  0.57420500  1
  Al  Al7  1  0.33684300  0.99548100  0.42579500  1
  Al  Al8  1  0.99548100  0.33684300  0.42579500  1
  Al  Al9  1  0.66315700  0.00451900  0.57420500  1
  Al  Al10  1  0.66315700  0.00451900  0.92579500  1
  Al  Al11  1  0.33684300  0.99548100  0.07420500  1
  Al  Al12  1  0.34118600  0.56555600  0.25000000  1
  Al  Al13  1  0.65881400  0.43444400  0.75000000  1
  Al  Al14  1  0.56555600  0.34118600  0.25000000  1
  Al  Al15  1  0.43444400  0.65881400  0.75000000  1
  Al  Al16  1  0.32986100  0.32986100  0.54722300  1
  Al  Al17  1  0.67013900  0.67013900  0.45277700  1
  Al  Al18  1  0.67013900  0.67013900  0.04722300  1
  Al  Al19  1  0.32986100  0.32986100  0.95277700  1
  Al  Al20  1  0.12361400  0.12361400  0.25000000  1
  Al  Al21  1  0.87638600  0.87638600  0.75000000  1
  Co  Co22  1  0.67155200  0.32844800  0.00000000  1
  Co  Co23  1  0.32844800  0.67155200  0.00000000  1
  Co  Co24  1  0.32844800  0.67155200  0.50000000  1
  Co  Co25  1  0.67155200  0.32844800  0.50000000  1
  Co  Co26  1  0.00000000  0.00000000  0.00000000  1
  Co  Co27  1  0.00000000  0.00000000  0.50000000  1
