# generated using pymatgen
data_Cs3CeCl6
_symmetry_space_group_name_H-M   'P 1'
_cell_length_a   14.34909423
_cell_length_b   14.34909423
_cell_length_c   13.58978551
_cell_angle_alpha   80.81724287
_cell_angle_beta   80.81724287
_cell_angle_gamma   34.75276451
_symmetry_Int_Tables_number   1
_chemical_formula_structural   Cs3CeCl6
_chemical_formula_sum   'Cs12 Ce4 Cl24'
_cell_volume   1572.55567979
_cell_formula_units_Z   4
loop_
 _symmetry_equiv_pos_site_id
 _symmetry_equiv_pos_as_xyz
  1  'x, y, z'
loop_
 _atom_site_type_symbol
 _atom_site_label
 _atom_site_symmetry_multiplicity
 _atom_site_fract_x
 _atom_site_fract_y
 _atom_site_fract_z
 _atom_site_occupancy
  Cs  Cs0  1  0.30011400  0.79763900  0.06687600  1
  Cs  Cs1  1  0.69988600  0.20236100  0.93312400  1
  Cs  Cs2  1  0.20236100  0.69988600  0.43312400  1
  Cs  Cs3  1  0.79763900  0.30011400  0.56687600  1
  Cs  Cs4  1  0.46460000  0.84216000  0.35617100  1
  Cs  Cs5  1  0.53540000  0.15784000  0.64382900  1
  Cs  Cs6  1  0.15784000  0.53540000  0.14382900  1
  Cs  Cs7  1  0.84216000  0.46460000  0.85617100  1
  Cs  Cs8  1  0.64998600  0.02625800  0.29930100  1
  Cs  Cs9  1  0.35001400  0.97374200  0.70069900  1
  Cs  Cs10  1  0.97374200  0.35001400  0.20069900  1
  Cs  Cs11  1  0.02625800  0.64998600  0.79930100  1
  Ce  Ce12  1  0.78236000  0.21764000  0.25000000  1
  Ce  Ce13  1  0.21764000  0.78236000  0.75000000  1
  Ce  Ce14  1  0.50000000  0.00000000  0.00000000  1
  Ce  Ce15  1  0.00000000  0.50000000  0.50000000  1
  Cl  Cl16  1  0.61998800  0.72632500  0.08130800  1
  Cl  Cl17  1  0.38001200  0.27367500  0.91869200  1
  Cl  Cl18  1  0.27367500  0.38001200  0.41869200  1
  Cl  Cl19  1  0.72632500  0.61998800  0.58130800  1
  Cl  Cl20  1  0.49965500  0.38385400  0.17904500  1
  Cl  Cl21  1  0.50034500  0.61614600  0.82095500  1
  Cl  Cl22  1  0.61614600  0.50034500  0.32095500  1
  Cl  Cl23  1  0.38385400  0.49965500  0.67904500  1
  Cl  Cl24  1  0.77967700  0.86524100  0.03492600  1
  Cl  Cl25  1  0.22032300  0.13475900  0.96507400  1
  Cl  Cl26  1  0.13475900  0.22032300  0.46507400  1
  Cl  Cl27  1  0.86524100  0.77967700  0.53492600  1
  Cl  Cl28  1  0.91790500  0.96629500  0.69668600  1
  Cl  Cl29  1  0.08209500  0.03370500  0.30331400  1
  Cl  Cl30  1  0.03370500  0.08209500  0.80331400  1
  Cl  Cl31  1  0.96629500  0.91790500  0.19668600  1
  Cl  Cl32  1  0.71806600  0.16598500  0.43423400  1
  Cl  Cl33  1  0.28193400  0.83401500  0.56576600  1
  Cl  Cl34  1  0.83401500  0.28193400  0.06576600  1
  Cl  Cl35  1  0.16598500  0.71806600  0.93423400  1
  Cl  Cl36  1  0.36089600  0.13980600  0.18494100  1
  Cl  Cl37  1  0.63910400  0.86019400  0.81505900  1
  Cl  Cl38  1  0.86019400  0.63910400  0.31505900  1
  Cl  Cl39  1  0.13980600  0.36089600  0.68494100  1
