# generated using pymatgen
data_EuVO3
_symmetry_space_group_name_H-M   'P 1'
_cell_length_a   5.48374200
_cell_length_b   5.55807800
_cell_length_c   7.74553000
_cell_angle_alpha   90.00000000
_cell_angle_beta   90.00000000
_cell_angle_gamma   90.00000000
_symmetry_Int_Tables_number   1
_chemical_formula_structural   EuVO3
_chemical_formula_sum   'Eu4 V4 O12'
_cell_volume   236.07651828
_cell_formula_units_Z   4
loop_
 _symmetry_equiv_pos_site_id
 _symmetry_equiv_pos_as_xyz
  1  'x, y, z'
loop_
 _atom_site_type_symbol
 _atom_site_label
 _atom_site_symmetry_multiplicity
 _atom_site_fract_x
 _atom_site_fract_y
 _atom_site_fract_z
 _atom_site_occupancy
  Eu  Eu0  1  0.99269200  0.03943700  0.25000000  1
  Eu  Eu1  1  0.49269200  0.46056300  0.75000000  1
  Eu  Eu2  1  0.50730800  0.53943700  0.25000000  1
  Eu  Eu3  1  0.00730800  0.96056300  0.75000000  1
  V  V4  1  0.50000000  0.00000000  0.00000000  1
  V  V5  1  0.50000000  0.00000000  0.50000000  1
  V  V6  1  0.00000000  0.50000000  0.00000000  1
  V  V7  1  0.00000000  0.50000000  0.50000000  1
  O  O8  1  0.56906200  0.01467100  0.75000000  1
  O  O9  1  0.21508400  0.20913000  0.53662900  1
  O  O10  1  0.21508400  0.20913000  0.96337100  1
  O  O11  1  0.71508400  0.29087000  0.03662900  1
  O  O12  1  0.71508400  0.29087000  0.46337100  1
  O  O13  1  0.06906200  0.48532900  0.25000000  1
  O  O14  1  0.93093800  0.51467100  0.75000000  1
  O  O15  1  0.28491600  0.70913000  0.96337100  1
  O  O16  1  0.28491600  0.70913000  0.53662900  1
  O  O17  1  0.78491600  0.79087000  0.03662900  1
  O  O18  1  0.78491600  0.79087000  0.46337100  1
  O  O19  1  0.43093800  0.98532900  0.25000000  1
