# generated using pymatgen
data_K2(NbS2)3
_symmetry_space_group_name_H-M   'P 1'
_cell_length_a   5.93522060
_cell_length_b   5.93522060
_cell_length_c   15.87367800
_cell_angle_alpha   90.00000000
_cell_angle_beta   90.00000000
_cell_angle_gamma   119.99842384
_symmetry_Int_Tables_number   1
_chemical_formula_structural   K2(NbS2)3
_chemical_formula_sum   'K4 Nb6 S12'
_cell_volume   484.27140591
_cell_formula_units_Z   2
loop_
 _symmetry_equiv_pos_site_id
 _symmetry_equiv_pos_as_xyz
  1  'x, y, z'
loop_
 _atom_site_type_symbol
 _atom_site_label
 _atom_site_symmetry_multiplicity
 _atom_site_fract_x
 _atom_site_fract_y
 _atom_site_fract_z
 _atom_site_occupancy
  K  K0  1  0.00002400  0.66672100  0.50000000  1
  K  K1  1  0.66672100  0.00002400  0.50000000  1
  K  K2  1  0.66659300  0.33326800  0.00000000  1
  K  K3  1  0.33326800  0.66659300  0.00000000  1
  Nb  Nb4  1  0.66723800  0.33331800  0.25027400  1
  Nb  Nb5  1  0.99941700  0.99941700  0.25030000  1
  Nb  Nb6  1  0.33331800  0.66723800  0.25027400  1
  Nb  Nb7  1  0.66723800  0.33331800  0.74972600  1
  Nb  Nb8  1  0.99941700  0.99941700  0.74970000  1
  Nb  Nb9  1  0.33331800  0.66723800  0.74972600  1
  S  S10  1  0.66793900  0.66793900  0.15308700  1
  S  S11  1  0.00018500  0.33185200  0.15308500  1
  S  S12  1  0.33185200  0.00018500  0.15308500  1
  S  S13  1  0.66793900  0.66793900  0.84691300  1
  S  S14  1  0.00018500  0.33185200  0.84691500  1
  S  S15  1  0.33185200  0.00018500  0.84691500  1
  S  S16  1  0.66483500  0.66483500  0.34732000  1
  S  S17  1  0.00198200  0.33316300  0.34732900  1
  S  S18  1  0.33316300  0.00198200  0.34732900  1
  S  S19  1  0.66483500  0.66483500  0.65268000  1
  S  S20  1  0.00198200  0.33316300  0.65267100  1
  S  S21  1  0.33316300  0.00198200  0.65267100  1
