# generated using pymatgen
data_Tm8In3Co
_symmetry_space_group_name_H-M   'P 1'
_cell_length_a   10.24889214
_cell_length_b   10.24889214
_cell_length_c   6.90668200
_cell_angle_alpha   90.00000000
_cell_angle_beta   90.00000000
_cell_angle_gamma   120.00000094
_symmetry_Int_Tables_number   1
_chemical_formula_structural   Tm8In3Co
_chemical_formula_sum   'Tm16 In6 Co2'
_cell_volume   628.28101079
_cell_formula_units_Z   2
loop_
 _symmetry_equiv_pos_site_id
 _symmetry_equiv_pos_as_xyz
  1  'x, y, z'
loop_
 _atom_site_type_symbol
 _atom_site_label
 _atom_site_symmetry_multiplicity
 _atom_site_fract_x
 _atom_site_fract_y
 _atom_site_fract_z
 _atom_site_occupancy
  Tm  Tm0  1  0.53384700  0.06769500  0.51319700  1
  Tm  Tm1  1  0.93230500  0.46615300  0.51319700  1
  Tm  Tm2  1  0.53384700  0.46615300  0.51319700  1
  Tm  Tm3  1  0.46615300  0.93230500  0.01319700  1
  Tm  Tm4  1  0.06769500  0.53384700  0.01319700  1
  Tm  Tm5  1  0.46615300  0.53384700  0.01319700  1
  Tm  Tm6  1  0.17847900  0.35695800  0.72199600  1
  Tm  Tm7  1  0.64304200  0.82152100  0.72199600  1
  Tm  Tm8  1  0.17847900  0.82152100  0.72199600  1
  Tm  Tm9  1  0.82152100  0.64304200  0.22199600  1
  Tm  Tm10  1  0.35695800  0.17847900  0.22199600  1
  Tm  Tm11  1  0.82152100  0.17847900  0.22199600  1
  Tm  Tm12  1  0.66666700  0.33333300  0.90229500  1
  Tm  Tm13  1  0.33333300  0.66666700  0.40229500  1
  Tm  Tm14  1  0.00000000  0.00000000  0.50077100  1
  Tm  Tm15  1  0.00000000  0.00000000  0.00077100  1
  In  In16  1  0.83693900  0.67387800  0.76031300  1
  In  In17  1  0.32612200  0.16306100  0.76031300  1
  In  In18  1  0.83693900  0.16306100  0.76031300  1
  In  In19  1  0.16306100  0.32612200  0.26031300  1
  In  In20  1  0.67387800  0.83693900  0.26031300  1
  In  In21  1  0.16306100  0.83693900  0.26031300  1
  Co  Co22  1  0.66666700  0.33333300  0.28941800  1
  Co  Co23  1  0.33333300  0.66666700  0.78941800  1
