# generated using pymatgen
data_Mg4HgAu
_symmetry_space_group_name_H-M   'P 1'
_cell_length_a   4.64984100
_cell_length_b   6.00909100
_cell_length_c   8.74239700
_cell_angle_alpha   90.00000000
_cell_angle_beta   90.00000000
_cell_angle_gamma   90.00000000
_symmetry_Int_Tables_number   1
_chemical_formula_structural   Mg4HgAu
_chemical_formula_sum   'Mg8 Hg2 Au2'
_cell_volume   244.27409208
_cell_formula_units_Z   2
loop_
 _symmetry_equiv_pos_site_id
 _symmetry_equiv_pos_as_xyz
  1  'x, y, z'
loop_
 _atom_site_type_symbol
 _atom_site_label
 _atom_site_symmetry_multiplicity
 _atom_site_fract_x
 _atom_site_fract_y
 _atom_site_fract_z
 _atom_site_occupancy
  Mg  Mg0  1  0.75000000  0.04163000  0.29010900  1
  Mg  Mg1  1  0.75000000  0.54163000  0.20989100  1
  Mg  Mg2  1  0.25000000  0.97078300  0.71655700  1
  Mg  Mg3  1  0.25000000  0.47078300  0.78344300  1
  Mg  Mg4  1  0.75000000  0.68579500  0.57103100  1
  Mg  Mg5  1  0.75000000  0.18579500  0.92896900  1
  Mg  Mg6  1  0.25000000  0.30500900  0.44791000  1
  Mg  Mg7  1  0.25000000  0.80500900  0.05209000  1
  Hg  Hg8  1  0.25000000  0.77808500  0.38262900  1
  Hg  Hg9  1  0.25000000  0.27808500  0.11737100  1
  Au  Au10  1  0.75000000  0.21869800  0.61598600  1
  Au  Au11  1  0.75000000  0.71869800  0.88401400  1
