# generated using pymatgen
data_Mg149Cd
_symmetry_space_group_name_H-M   'P 1'
_cell_length_a   15.90719282
_cell_length_b   15.90719820
_cell_length_c   15.59195195
_cell_angle_alpha   90.00000000
_cell_angle_beta   90.00000000
_cell_angle_gamma   120.00001359
_symmetry_Int_Tables_number   1
_chemical_formula_structural   Mg149Cd
_chemical_formula_sum   'Mg149 Cd1'
_cell_volume   3416.79008055
_cell_formula_units_Z   1
loop_
 _symmetry_equiv_pos_site_id
 _symmetry_equiv_pos_as_xyz
  1  'x, y, z'
loop_
 _atom_site_type_symbol
 _atom_site_label
 _atom_site_symmetry_multiplicity
 _atom_site_fract_x
 _atom_site_fract_y
 _atom_site_fract_z
 _atom_site_occupancy
  Mg  Mg0  1  0.19945051  0.00065643  0.00000000  1
  Mg  Mg1  1  0.80120591  0.00065643  0.00000000  1
  Mg  Mg2  1  0.19945051  0.19879409  0.00000000  1
  Mg  Mg3  1  0.99934357  0.19879409  0.00000000  1
  Mg  Mg4  1  0.39956409  0.19978155  0.00000000  1
  Mg  Mg5  1  0.80021845  0.19978155  0.00000000  1
  Mg  Mg6  1  0.59993081  0.19986162  0.00000000  1
  Mg  Mg7  1  0.19960082  0.39920264  0.00000000  1
  Mg  Mg8  1  0.39985284  0.39992063  0.00000000  1
  Mg  Mg9  1  0.00006779  0.39992163  0.00000000  1
  Mg  Mg10  1  0.59993081  0.40006919  0.00000000  1
  Mg  Mg11  1  0.80013838  0.40006919  0.00000000  1
  Mg  Mg12  1  0.40004622  0.59995378  0.00000000  1
  Mg  Mg13  1  0.19990756  0.59995378  0.00000000  1
  Mg  Mg14  1  0.00006779  0.60014616  0.00000000  1
  Mg  Mg15  1  0.60007937  0.60014716  0.00000000  1
  Mg  Mg16  1  0.80021845  0.60043591  0.00000000  1
  Mg  Mg17  1  0.40004622  0.80009244  0.00000000  1
  Mg  Mg18  1  0.19960082  0.80039818  0.00000000  1
  Mg  Mg19  1  0.60079736  0.80039918  0.00000000  1
  Mg  Mg20  1  0.99934357  0.80054849  0.00000000  1
  Mg  Mg21  1  0.80120591  0.80054949  0.00000000  1
  Mg  Mg22  1  0.39985284  0.99993221  0.00000000  1
  Mg  Mg23  1  0.60007937  0.99993221  0.00000000  1
  Mg  Mg24  1  0.06639305  0.13278610  0.16601345  1
  Mg  Mg25  1  0.86721390  0.93360695  0.16601345  1
  Mg  Mg26  1  0.06639305  0.93360695  0.16601345  1
  Mg  Mg27  1  0.26637044  0.33281093  0.16640243  1
  Mg  Mg28  1  0.06644150  0.33281093  0.16640243  1
  Mg  Mg29  1  0.06644150  0.73362956  0.16640243  1
  Mg  Mg30  1  0.66718907  0.73362956  0.16640243  1
  Mg  Mg31  1  0.66718907  0.93355950  0.16640243  1
  Mg  Mg32  1  0.26637044  0.93355950  0.16640243  1
  Mg  Mg33  1  0.46682092  0.13334886  0.16656278  1
  Mg  Mg34  1  0.66652794  0.13334886  0.16656278  1
  Mg  Mg35  1  0.46682092  0.33347206  0.16656278  1
  Mg  Mg36  1  0.86665114  0.33347206  0.16656278  1
  Mg  Mg37  1  0.66652794  0.53317908  0.16656278  1
  Mg  Mg38  1  0.86665114  0.53317908  0.16656278  1
  Mg  Mg39  1  0.66666600  0.33333300  0.16662244  1
  Mg  Mg40  1  0.46664426  0.53335474  0.16659942  1
  Mg  Mg41  1  0.06671048  0.53335574  0.16659942  1
  Mg  Mg42  1  0.46664426  0.93328952  0.16659942  1
  Mg  Mg43  1  0.26657300  0.53314800  0.16665896  1
  Mg  Mg44  1  0.26657300  0.73342600  0.16665896  1
  Mg  Mg45  1  0.46685200  0.73342600  0.16665896  1
  Mg  Mg46  1  0.86634374  0.13365626  0.16716328  1
  Mg  Mg47  1  0.26731253  0.13365626  0.16716328  1
  Mg  Mg48  1  0.86634374  0.73268747  0.16716328  1
  Mg  Mg49  1  0.00000000  0.00000000  0.33291635  1
  Mg  Mg50  1  0.19981660  0.99996325  0.33326190  1
  Mg  Mg51  1  0.80014665  0.99996325  0.33326190  1
  Mg  Mg52  1  0.00003675  0.19985335  0.33326190  1
  Mg  Mg53  1  0.19981660  0.19985335  0.33326190  1
  Mg  Mg54  1  0.80014665  0.80018340  0.33326190  1
  Mg  Mg55  1  0.00003675  0.80018340  0.33326190  1
  Mg  Mg56  1  0.39987289  0.00003345  0.33322033  1
  Mg  Mg57  1  0.60016056  0.00003345  0.33322033  1
  Mg  Mg58  1  0.99996655  0.39983944  0.33322033  1
  Mg  Mg59  1  0.39987289  0.39984044  0.33322033  1
  Mg  Mg60  1  0.99996655  0.60012611  0.33322033  1
  Mg  Mg61  1  0.60016056  0.60012611  0.33322033  1
  Mg  Mg62  1  0.19995723  0.39991446  0.33322904  1
  Mg  Mg63  1  0.19995723  0.80004277  0.33322904  1
  Mg  Mg64  1  0.60008454  0.80004277  0.33322904  1
  Mg  Mg65  1  0.60000749  0.20001498  0.33327962  1
  Mg  Mg66  1  0.60000749  0.39999251  0.33327962  1
  Mg  Mg67  1  0.79998502  0.39999251  0.33327962  1
  Mg  Mg68  1  0.79998038  0.20001962  0.33339657  1
  Mg  Mg69  1  0.40003925  0.20001962  0.33339657  1
  Mg  Mg70  1  0.79998038  0.59996075  0.33339657  1
  Mg  Mg71  1  0.40000424  0.59999576  0.33340934  1
  Mg  Mg72  1  0.19999252  0.59999676  0.33340934  1
  Mg  Mg73  1  0.40000424  0.80000748  0.33340934  1
  Mg  Mg74  1  0.06663468  0.13326937  0.50000000  1
  Mg  Mg75  1  0.86669154  0.13330846  0.50000000  1
  Mg  Mg76  1  0.26661592  0.13330846  0.50000000  1
  Mg  Mg77  1  0.46674976  0.13332491  0.50000000  1
  Mg  Mg78  1  0.66657616  0.13332491  0.50000000  1
  Mg  Mg79  1  0.26670903  0.33326950  0.50000000  1
  Mg  Mg80  1  0.06656048  0.33326950  0.50000000  1
  Mg  Mg81  1  0.66666600  0.33333300  0.50000000  1
  Mg  Mg82  1  0.86667509  0.33342384  0.50000000  1
  Mg  Mg83  1  0.46674976  0.33342484  0.50000000  1
  Mg  Mg84  1  0.86667509  0.53325024  0.50000000  1
  Mg  Mg85  1  0.66657616  0.53325124  0.50000000  1
  Mg  Mg86  1  0.46671824  0.53328176  0.50000000  1
  Mg  Mg87  1  0.06656451  0.53328276  0.50000000  1
  Mg  Mg88  1  0.26662001  0.53324102  0.50000000  1
  Mg  Mg89  1  0.06656048  0.73329097  0.50000000  1
  Mg  Mg90  1  0.66673050  0.73329097  0.50000000  1
  Mg  Mg91  1  0.26662001  0.73337899  0.50000000  1
  Mg  Mg92  1  0.46675998  0.73337999  0.50000000  1
  Mg  Mg93  1  0.86669154  0.73338308  0.50000000  1
  Mg  Mg94  1  0.86673063  0.93336532  0.50000000  1
  Mg  Mg95  1  0.06663468  0.93336532  0.50000000  1
  Mg  Mg96  1  0.66673050  0.93343952  0.50000000  1
  Mg  Mg97  1  0.26670903  0.93343952  0.50000000  1
  Mg  Mg98  1  0.46671824  0.93343649  0.50000000  1
  Mg  Mg99  1  0.40000424  0.59999576  0.66659066  1
  Mg  Mg100  1  0.19999252  0.59999676  0.66659066  1
  Mg  Mg101  1  0.40000424  0.80000748  0.66659066  1
  Mg  Mg102  1  0.79998038  0.20001962  0.66660343  1
  Mg  Mg103  1  0.40003925  0.20001962  0.66660343  1
  Mg  Mg104  1  0.79998038  0.59996075  0.66660343  1
  Mg  Mg105  1  0.60000749  0.20001498  0.66672038  1
  Mg  Mg106  1  0.60000749  0.39999251  0.66672038  1
  Mg  Mg107  1  0.79998502  0.39999251  0.66672038  1
  Mg  Mg108  1  0.19995723  0.39991446  0.66676996  1
  Mg  Mg109  1  0.19995723  0.80004277  0.66676996  1
  Mg  Mg110  1  0.60008454  0.80004277  0.66676996  1
  Mg  Mg111  1  0.39987289  0.00003345  0.66677967  1
  Mg  Mg112  1  0.60016056  0.00003345  0.66677967  1
  Mg  Mg113  1  0.99996655  0.39983944  0.66677967  1
  Mg  Mg114  1  0.39987289  0.39984044  0.66677967  1
  Mg  Mg115  1  0.99996655  0.60012611  0.66677967  1
  Mg  Mg116  1  0.60016056  0.60012611  0.66677967  1
  Mg  Mg117  1  0.19981660  0.99996325  0.66673810  1
  Mg  Mg118  1  0.80014665  0.99996325  0.66673810  1
  Mg  Mg119  1  0.00003675  0.19985335  0.66673810  1
  Mg  Mg120  1  0.19981660  0.19985335  0.66673810  1
  Mg  Mg121  1  0.80014665  0.80018340  0.66673810  1
  Mg  Mg122  1  0.00003675  0.80018340  0.66673810  1
  Mg  Mg123  1  0.00000000  0.00000000  0.66708365  1
  Mg  Mg124  1  0.86634374  0.13365626  0.83283672  1
  Mg  Mg125  1  0.26731253  0.13365626  0.83283672  1
  Mg  Mg126  1  0.86634374  0.73268747  0.83283672  1
  Mg  Mg127  1  0.26657300  0.53314800  0.83334104  1
  Mg  Mg128  1  0.26657300  0.73342600  0.83334104  1
  Mg  Mg129  1  0.46685200  0.73342600  0.83334104  1
  Mg  Mg130  1  0.46664426  0.53335474  0.83340058  1
  Mg  Mg131  1  0.06671048  0.53335574  0.83340058  1
  Mg  Mg132  1  0.46664426  0.93328952  0.83340058  1
  Mg  Mg133  1  0.66666600  0.33333300  0.83337756  1
  Mg  Mg134  1  0.46682092  0.13334886  0.83343722  1
  Mg  Mg135  1  0.66652794  0.13334886  0.83343722  1
  Mg  Mg136  1  0.46682092  0.33347206  0.83343722  1
  Mg  Mg137  1  0.86665114  0.33347206  0.83343722  1
  Mg  Mg138  1  0.66652794  0.53317908  0.83343722  1
  Mg  Mg139  1  0.86665114  0.53317908  0.83343722  1
  Mg  Mg140  1  0.26637044  0.33281093  0.83359757  1
  Mg  Mg141  1  0.06644150  0.33281093  0.83359757  1
  Mg  Mg142  1  0.06644150  0.73362956  0.83359757  1
  Mg  Mg143  1  0.66718907  0.73362956  0.83359757  1
  Mg  Mg144  1  0.66718907  0.93355950  0.83359757  1
  Mg  Mg145  1  0.26637044  0.93355950  0.83359757  1
  Mg  Mg146  1  0.06639305  0.13278610  0.83398655  1
  Mg  Mg147  1  0.86721390  0.93360695  0.83398655  1
  Mg  Mg148  1  0.06639305  0.93360695  0.83398655  1
  Cd  Cd149  1  0.00000000  0.00000000  0.00000000  1
