# generated using pymatgen
data_Na3La(PO4)2
_symmetry_space_group_name_H-M   'P 1'
_cell_length_a   5.43044200
_cell_length_b   14.17153400
_cell_length_c   19.00887300
_cell_angle_alpha   90.00000000
_cell_angle_beta   90.00000000
_cell_angle_gamma   90.00000000
_symmetry_Int_Tables_number   1
_chemical_formula_structural   Na3La(PO4)2
_chemical_formula_sum   'Na24 La8 P16 O64'
_cell_volume   1462.87902094
_cell_formula_units_Z   8
loop_
 _symmetry_equiv_pos_site_id
 _symmetry_equiv_pos_as_xyz
  1  'x, y, z'
loop_
 _atom_site_type_symbol
 _atom_site_label
 _atom_site_symmetry_multiplicity
 _atom_site_fract_x
 _atom_site_fract_y
 _atom_site_fract_z
 _atom_site_occupancy
  Na  Na0  1  0.01765000  0.78329500  0.50638900  1
  Na  Na1  1  0.98235000  0.21670500  0.00638900  1
  Na  Na2  1  0.98235000  0.28329500  0.50638900  1
  Na  Na3  1  0.01765000  0.71670500  0.00638900  1
  Na  Na4  1  0.01220500  0.04766500  0.85214700  1
  Na  Na5  1  0.98779500  0.95233500  0.35214700  1
  Na  Na6  1  0.98779500  0.54766500  0.85214700  1
  Na  Na7  1  0.01220500  0.45233500  0.35214700  1
  Na  Na8  1  0.01039000  0.13819400  0.67158600  1
  Na  Na9  1  0.98961000  0.86180600  0.17158600  1
  Na  Na10  1  0.98961000  0.63819400  0.67158600  1
  Na  Na11  1  0.01039000  0.36180600  0.17158600  1
  Na  Na12  1  0.52536600  0.20269400  0.76806500  1
  Na  Na13  1  0.47463400  0.79730600  0.26806500  1
  Na  Na14  1  0.47463400  0.70269400  0.76806500  1
  Na  Na15  1  0.52536600  0.29730600  0.26806500  1
  Na  Na16  1  0.46058600  0.03264300  0.61190400  1
  Na  Na17  1  0.53941400  0.96735700  0.11190400  1
  Na  Na18  1  0.53941400  0.53264300  0.61190400  1
  Na  Na19  1  0.46058600  0.46735700  0.11190400  1
  Na  Na20  1  0.50291100  0.11553600  0.94898200  1
  Na  Na21  1  0.49708900  0.88446400  0.44898200  1
  Na  Na22  1  0.49708900  0.61553600  0.94898200  1
  Na  Na23  1  0.50291100  0.38446400  0.44898200  1
  La  La24  1  0.06856000  0.38620400  0.69699300  1
  La  La25  1  0.93144000  0.61379600  0.19699300  1
  La  La26  1  0.93144000  0.88620400  0.69699300  1
  La  La27  1  0.06856000  0.11379600  0.19699300  1
  La  La28  1  0.44525900  0.36528000  0.92546700  1
  La  La29  1  0.55474100  0.63472000  0.42546700  1
  La  La30  1  0.55474100  0.86528000  0.92546700  1
  La  La31  1  0.44525900  0.13472000  0.42546700  1
  P  P32  1  0.03124000  0.52494400  0.51951800  1
  P  P33  1  0.96876000  0.47505600  0.01951800  1
  P  P34  1  0.96876000  0.02494400  0.51951800  1
  P  P35  1  0.03124000  0.97505600  0.01951800  1
  P  P36  1  0.01452300  0.77015100  0.84713200  1
  P  P37  1  0.98547700  0.22984900  0.34713200  1
  P  P38  1  0.98547700  0.27015100  0.84713200  1
  P  P39  1  0.01452300  0.72984900  0.34713200  1
  P  P40  1  0.52611100  0.48038500  0.77637000  1
  P  P41  1  0.47388900  0.51961500  0.27637000  1
  P  P42  1  0.47388900  0.98038500  0.77637000  1
  P  P43  1  0.52611100  0.01961500  0.27637000  1
  P  P44  1  0.54039000  0.27346400  0.60321400  1
  P  P45  1  0.45961000  0.72653600  0.10321400  1
  P  P46  1  0.45961000  0.77346400  0.60321400  1
  P  P47  1  0.54039000  0.22653600  0.10321400  1
  O  O48  1  0.41583200  0.19641100  0.64861200  1
  O  O49  1  0.58416800  0.80358900  0.14861200  1
  O  O50  1  0.58416800  0.69641100  0.64861200  1
  O  O51  1  0.41583200  0.30358900  0.14861200  1
  O  O52  1  0.30870500  0.52984000  0.73738700  1
  O  O53  1  0.69129500  0.47016000  0.23738700  1
  O  O54  1  0.69129500  0.02984000  0.73738700  1
  O  O55  1  0.30870500  0.97016000  0.23738700  1
  O  O56  1  0.09543500  0.12189400  0.50459800  1
  O  O57  1  0.90456500  0.87810600  0.00459800  1
  O  O58  1  0.90456500  0.62189400  0.50459800  1
  O  O59  1  0.09543500  0.37810600  0.00459800  1
  O  O60  1  0.19433100  0.21890900  0.88858400  1
  O  O61  1  0.80566900  0.78109100  0.38858400  1
  O  O62  1  0.80566900  0.71890900  0.88858400  1
  O  O63  1  0.19433100  0.28109100  0.38858400  1
  O  O64  1  0.31403300  0.53226400  0.50340000  1
  O  O65  1  0.68596700  0.46773600  0.00340000  1
  O  O66  1  0.68596700  0.03226400  0.50340000  1
  O  O67  1  0.31403300  0.96773600  0.00340000  1
  O  O68  1  0.08811000  0.55260700  0.97328900  1
  O  O69  1  0.91189000  0.44739300  0.47328900  1
  O  O70  1  0.91189000  0.05260700  0.97328900  1
  O  O71  1  0.08811000  0.94739300  0.47328900  1
  O  O72  1  0.22734800  0.00863700  0.74037300  1
  O  O73  1  0.77265200  0.99136300  0.24037300  1
  O  O74  1  0.77265200  0.50863700  0.74037300  1
  O  O75  1  0.22734800  0.49136300  0.24037300  1
  O  O76  1  0.41029000  0.37011100  0.61595900  1
  O  O77  1  0.58971000  0.62988900  0.11595900  1
  O  O78  1  0.58971000  0.87011100  0.61595900  1
  O  O79  1  0.41029000  0.12988900  0.11595900  1
  O  O80  1  0.48461900  0.37191500  0.77413100  1
  O  O81  1  0.51538100  0.62808500  0.27413100  1
  O  O82  1  0.51538100  0.87191500  0.77413100  1
  O  O83  1  0.48461900  0.12808500  0.27413100  1
  O  O84  1  0.03277300  0.37831100  0.84965500  1
  O  O85  1  0.96722700  0.62168900  0.34965500  1
  O  O86  1  0.96722700  0.87831100  0.84965500  1
  O  O87  1  0.03277300  0.12168900  0.34965500  1
  O  O88  1  0.17959500  0.78151900  0.62334800  1
  O  O89  1  0.82040500  0.21848100  0.12334800  1
  O  O90  1  0.82040500  0.28151900  0.62334800  1
  O  O91  1  0.17959500  0.71848100  0.12334800  1
  O  O92  1  0.01110500  0.73802400  0.76865300  1
  O  O93  1  0.98889500  0.26197600  0.26865300  1
  O  O94  1  0.98889500  0.23802400  0.76865300  1
  O  O95  1  0.01110500  0.76197600  0.26865300  1
  O  O96  1  0.47014300  0.01289100  0.85478800  1
  O  O97  1  0.52985700  0.98710900  0.35478800  1
  O  O98  1  0.52985700  0.51289100  0.85478800  1
  O  O99  1  0.47014300  0.48710900  0.35478800  1
  O  O100  1  0.00752300  0.00331700  0.59952600  1
  O  O101  1  0.99247700  0.99668300  0.09952600  1
  O  O102  1  0.99247700  0.50331700  0.59952600  1
  O  O103  1  0.00752300  0.49668300  0.09952600  1
  O  O104  1  0.73340000  0.24337300  0.88055400  1
  O  O105  1  0.26660000  0.75662700  0.38055400  1
  O  O106  1  0.26660000  0.74337300  0.88055400  1
  O  O107  1  0.73340000  0.25662700  0.38055400  1
  O  O108  1  0.52764100  0.25114800  0.52277800  1
  O  O109  1  0.47235900  0.74885200  0.02277800  1
  O  O110  1  0.47235900  0.75114800  0.52277800  1
  O  O111  1  0.52764100  0.24885200  0.02277800  1
