# generated using pymatgen
data_EuCu3Pd2
_symmetry_space_group_name_H-M   'P 1'
_cell_length_a   4.30316300
_cell_length_b   5.20627130
_cell_length_c   5.20814732
_cell_angle_alpha   119.98807500
_cell_angle_beta   90.00000000
_cell_angle_gamma   90.00000000
_symmetry_Int_Tables_number   1
_chemical_formula_structural   EuCu3Pd2
_chemical_formula_sum   'Eu1 Cu3 Pd2'
_cell_volume   101.06031750
_cell_formula_units_Z   1
loop_
 _symmetry_equiv_pos_site_id
 _symmetry_equiv_pos_as_xyz
  1  'x, y, z'
loop_
 _atom_site_type_symbol
 _atom_site_label
 _atom_site_symmetry_multiplicity
 _atom_site_fract_x
 _atom_site_fract_y
 _atom_site_fract_z
 _atom_site_occupancy
  Eu  Eu0  1  0.00000000  0.99998400  0.00000000  1
  Cu  Cu1  1  0.50000000  0.49999000  0.00000000  1
  Cu  Cu2  1  0.50000000  0.49999100  0.49999900  1
  Cu  Cu3  1  0.50000000  0.99999200  0.50000100  1
  Pd  Pd4  1  0.00000000  0.33327800  0.66661300  1
  Pd  Pd5  1  0.00000000  0.66666500  0.33338700  1
