# generated using pymatgen
data_La2Ta3(SO4)2
_symmetry_space_group_name_H-M   'P 1'
_cell_length_a   7.70039100
_cell_length_b   9.96495200
_cell_length_c   11.89782900
_cell_angle_alpha   90.00000000
_cell_angle_beta   90.00000000
_cell_angle_gamma   90.00000000
_symmetry_Int_Tables_number   1
_chemical_formula_structural   La2Ta3(SO4)2
_chemical_formula_sum   'La8 Ta12 S8 O32'
_cell_volume   912.96832811
_cell_formula_units_Z   4
loop_
 _symmetry_equiv_pos_site_id
 _symmetry_equiv_pos_as_xyz
  1  'x, y, z'
loop_
 _atom_site_type_symbol
 _atom_site_label
 _atom_site_symmetry_multiplicity
 _atom_site_fract_x
 _atom_site_fract_y
 _atom_site_fract_z
 _atom_site_occupancy
  La  La0  1  0.00000000  0.79305600  0.66444200  1
  La  La1  1  0.50000000  0.70694400  0.16444200  1
  La  La2  1  0.50000000  0.29305600  0.83555800  1
  La  La3  1  0.00000000  0.72990800  0.15473300  1
  La  La4  1  0.00000000  0.27009200  0.84526700  1
  La  La5  1  0.50000000  0.22990800  0.34526700  1
  La  La6  1  0.00000000  0.20694400  0.33555800  1
  La  La7  1  0.50000000  0.77009200  0.65473300  1
  Ta  Ta8  1  0.25020400  0.13638900  0.58086800  1
  Ta  Ta9  1  0.25020400  0.86361100  0.41913200  1
  Ta  Ta10  1  0.24979600  0.63638900  0.91913200  1
  Ta  Ta11  1  0.24979600  0.36361100  0.08086800  1
  Ta  Ta12  1  0.75020400  0.63638900  0.91913200  1
  Ta  Ta13  1  0.74979600  0.13638900  0.58086800  1
  Ta  Ta14  1  0.74979600  0.86361100  0.41913200  1
  Ta  Ta15  1  0.28640900  0.00000000  0.00000000  1
  Ta  Ta16  1  0.21359100  0.50000000  0.50000000  1
  Ta  Ta17  1  0.71359100  0.00000000  0.00000000  1
  Ta  Ta18  1  0.78640900  0.50000000  0.50000000  1
  Ta  Ta19  1  0.75020400  0.36361100  0.08086800  1
  S  S20  1  0.50000000  0.98211800  0.84685300  1
  S  S21  1  0.50000000  0.01788200  0.15314700  1
  S  S22  1  0.00000000  0.48211800  0.65314700  1
  S  S23  1  0.00000000  0.51788200  0.34685300  1
  S  S24  1  0.50000000  0.48108900  0.63220100  1
  S  S25  1  0.50000000  0.51891100  0.36779900  1
  S  S26  1  0.00000000  0.98108900  0.86779900  1
  S  S27  1  0.00000000  0.01891100  0.13220100  1
  O  O28  1  0.50000000  0.36600400  0.05364300  1
  O  O29  1  0.50000000  0.63399600  0.94635700  1
  O  O30  1  0.00000000  0.86600400  0.44635700  1
  O  O31  1  0.00000000  0.13399600  0.55364300  1
  O  O32  1  0.50000000  0.15104200  0.54922500  1
  O  O33  1  0.50000000  0.84895800  0.45077500  1
  O  O34  1  0.00000000  0.65104200  0.95077500  1
  O  O35  1  0.00000000  0.34895800  0.04922500  1
  O  O36  1  0.74996700  0.78689800  0.27660100  1
  O  O37  1  0.74996700  0.21310200  0.72339900  1
  O  O38  1  0.75003300  0.28689800  0.22339900  1
  O  O39  1  0.75003300  0.71310200  0.77660100  1
  O  O40  1  0.25003300  0.21310200  0.72339900  1
  O  O41  1  0.25003300  0.78689800  0.27660100  1
  O  O42  1  0.26543300  0.19697800  0.97503300  1
  O  O43  1  0.24996700  0.71310200  0.77660100  1
  O  O44  1  0.75552500  0.55617900  0.10304700  1
  O  O45  1  0.75552500  0.44382100  0.89695300  1
  O  O46  1  0.74447500  0.05617900  0.39695300  1
  O  O47  1  0.74447500  0.94382100  0.60304700  1
  O  O48  1  0.24447500  0.44382100  0.89695300  1
  O  O49  1  0.24447500  0.55617900  0.10304700  1
  O  O50  1  0.25552500  0.94382100  0.60304700  1
  O  O51  1  0.25552500  0.05617900  0.39695300  1
  O  O52  1  0.73456700  0.80302200  0.02496700  1
  O  O53  1  0.73456700  0.19697800  0.97503300  1
  O  O54  1  0.76543300  0.30302200  0.47503300  1
  O  O55  1  0.76543300  0.69697800  0.52496700  1
  O  O56  1  0.23456700  0.30302200  0.47503300  1
  O  O57  1  0.23456700  0.69697800  0.52496700  1
  O  O58  1  0.26543300  0.80302200  0.02496700  1
  O  O59  1  0.24996700  0.28689800  0.22339900  1
