# generated using pymatgen
data_RbTm(MoO4)2
_symmetry_space_group_name_H-M   'P 1'
_cell_length_a   7.49138719
_cell_length_b   7.49138719
_cell_length_c   7.71389008
_cell_angle_alpha   61.87207870
_cell_angle_beta   61.87207870
_cell_angle_gamma   88.07787895
_symmetry_Int_Tables_number   1
_chemical_formula_structural   RbTm(MoO4)2
_chemical_formula_sum   'Rb2 Tm2 Mo4 O16'
_cell_volume   326.63073987
_cell_formula_units_Z   2
loop_
 _symmetry_equiv_pos_site_id
 _symmetry_equiv_pos_as_xyz
  1  'x, y, z'
loop_
 _atom_site_type_symbol
 _atom_site_label
 _atom_site_symmetry_multiplicity
 _atom_site_fract_x
 _atom_site_fract_y
 _atom_site_fract_z
 _atom_site_occupancy
  Rb  Rb0  1  0.19806300  0.80193700  0.75000000  1
  Rb  Rb1  1  0.80193700  0.19806300  0.25000000  1
  Tm  Tm2  1  0.77114500  0.22885500  0.75000000  1
  Tm  Tm3  1  0.22885500  0.77114500  0.25000000  1
  Mo  Mo4  1  0.69665500  0.69653100  0.76363700  1
  Mo  Mo5  1  0.30334500  0.30346900  0.23636300  1
  Mo  Mo6  1  0.30346900  0.30334500  0.73636300  1
  Mo  Mo7  1  0.69653100  0.69665500  0.26363700  1
  O  O8  1  0.61480300  0.76615400  0.56104600  1
  O  O9  1  0.38519700  0.23384600  0.43895400  1
  O  O10  1  0.23384600  0.38519700  0.93895400  1
  O  O11  1  0.76615400  0.61480300  0.06104600  1
  O  O12  1  0.38112300  0.06481300  0.87974600  1
  O  O13  1  0.61887700  0.93518700  0.12025400  1
  O  O14  1  0.93518700  0.61887700  0.62025400  1
  O  O15  1  0.06481300  0.38112300  0.37974600  1
  O  O16  1  0.58699300  0.36694400  0.96696700  1
  O  O17  1  0.41300700  0.63305600  0.03303300  1
  O  O18  1  0.63305600  0.41300700  0.53303300  1
  O  O19  1  0.36694400  0.58699300  0.46696700  1
  O  O20  1  0.79145700  0.95498500  0.69401400  1
  O  O21  1  0.20854300  0.04501500  0.30598700  1
  O  O22  1  0.04501500  0.20854300  0.80598600  1
  O  O23  1  0.95498500  0.79145700  0.19401400  1
