# generated using pymatgen
data_Ba5(In2Sb3)2
_symmetry_space_group_name_H-M   'P 1'
_cell_length_a   8.43245100
_cell_length_b   14.69950700
_cell_length_c   18.60657600
_cell_angle_alpha   90.00000000
_cell_angle_beta   90.00000000
_cell_angle_gamma   90.00000000
_symmetry_Int_Tables_number   1
_chemical_formula_structural   Ba5(In2Sb3)2
_chemical_formula_sum   'Ba20 In16 Sb24'
_cell_volume   2306.33854262
_cell_formula_units_Z   4
loop_
 _symmetry_equiv_pos_site_id
 _symmetry_equiv_pos_as_xyz
  1  'x, y, z'
loop_
 _atom_site_type_symbol
 _atom_site_label
 _atom_site_symmetry_multiplicity
 _atom_site_fract_x
 _atom_site_fract_y
 _atom_site_fract_z
 _atom_site_occupancy
  Ba  Ba0  1  0.76018700  0.33642500  0.25075100  1
  Ba  Ba1  1  0.76018700  0.66357500  0.25075100  1
  Ba  Ba2  1  0.76018700  0.33642500  0.74924900  1
  Ba  Ba3  1  0.76018700  0.66357500  0.74924900  1
  Ba  Ba4  1  0.23981300  0.16357500  0.24924900  1
  Ba  Ba5  1  0.23981300  0.83642500  0.24924900  1
  Ba  Ba6  1  0.23981300  0.16357500  0.75075100  1
  Ba  Ba7  1  0.23981300  0.83642500  0.75075100  1
  Ba  Ba8  1  0.73731200  0.34975700  0.50000000  1
  Ba  Ba9  1  0.73731200  0.65024300  0.50000000  1
  Ba  Ba10  1  0.26268800  0.15024300  0.00000000  1
  Ba  Ba11  1  0.26268800  0.84975700  0.00000000  1
  Ba  Ba12  1  0.26085400  0.50000000  0.75172000  1
  Ba  Ba13  1  0.26085400  0.50000000  0.24828000  1
  Ba  Ba14  1  0.73914600  0.00000000  0.74828000  1
  Ba  Ba15  1  0.73914600  0.00000000  0.25172000  1
  Ba  Ba16  1  0.92871400  0.50000000  0.00000000  1
  Ba  Ba17  1  0.07128600  0.00000000  0.50000000  1
  Ba  Ba18  1  0.29121000  0.50000000  0.50000000  1
  Ba  Ba19  1  0.70879000  0.00000000  0.00000000  1
  In  In20  1  0.89782200  0.81513700  0.91871700  1
  In  In21  1  0.89782200  0.18486300  0.91871700  1
  In  In22  1  0.89782200  0.81513700  0.08128300  1
  In  In23  1  0.89782200  0.18486300  0.08128300  1
  In  In24  1  0.10217800  0.68486300  0.58128300  1
  In  In25  1  0.10217800  0.31513700  0.58128300  1
  In  In26  1  0.10217800  0.68486300  0.41871700  1
  In  In27  1  0.10217800  0.31513700  0.41871700  1
  In  In28  1  0.56716700  0.84525000  0.42185400  1
  In  In29  1  0.56716700  0.15475000  0.42185400  1
  In  In30  1  0.56716700  0.84525000  0.57814600  1
  In  In31  1  0.56716700  0.15475000  0.57814600  1
  In  In32  1  0.43283300  0.65475000  0.07814600  1
  In  In33  1  0.43283300  0.34525000  0.07814600  1
  In  In34  1  0.43283300  0.65475000  0.92185400  1
  In  In35  1  0.43283300  0.34525000  0.92185400  1
  Sb  Sb36  1  0.42314900  0.32781700  0.36756900  1
  Sb  Sb37  1  0.42314900  0.67218300  0.36756900  1
  Sb  Sb38  1  0.42314900  0.32781700  0.63243100  1
  Sb  Sb39  1  0.42314900  0.67218300  0.63243100  1
  Sb  Sb40  1  0.57685100  0.17218300  0.13243100  1
  Sb  Sb41  1  0.57685100  0.82781700  0.13243100  1
  Sb  Sb42  1  0.57685100  0.17218300  0.86756900  1
  Sb  Sb43  1  0.57685100  0.82781700  0.86756900  1
  Sb  Sb44  1  0.90541100  0.83531700  0.37069900  1
  Sb  Sb45  1  0.90541100  0.16468300  0.37069900  1
  Sb  Sb46  1  0.90541100  0.83531700  0.62930100  1
  Sb  Sb47  1  0.90541100  0.16468300  0.62930100  1
  Sb  Sb48  1  0.09458900  0.66468300  0.12930100  1
  Sb  Sb49  1  0.09458900  0.33531700  0.12930100  1
  Sb  Sb50  1  0.09458900  0.66468300  0.87069900  1
  Sb  Sb51  1  0.09458900  0.33531700  0.87069900  1
  Sb  Sb52  1  0.94441400  0.50000000  0.37611600  1
  Sb  Sb53  1  0.94441400  0.50000000  0.62388400  1
  Sb  Sb54  1  0.05558600  0.00000000  0.12388400  1
  Sb  Sb55  1  0.05558600  0.00000000  0.87611600  1
  Sb  Sb56  1  0.60210200  0.50000000  0.86674300  1
  Sb  Sb57  1  0.60210200  0.50000000  0.13325700  1
  Sb  Sb58  1  0.39789800  0.00000000  0.63325700  1
  Sb  Sb59  1  0.39789800  0.00000000  0.36674300  1
