# generated using pymatgen
data_RbBS2
_symmetry_space_group_name_H-M   'P 1'
_cell_length_a   9.79553206
_cell_length_b   9.79553206
_cell_length_c   9.79553150
_cell_angle_alpha   110.59620987
_cell_angle_beta   110.59620987
_cell_angle_gamma   110.59621253
_symmetry_Int_Tables_number   1
_chemical_formula_structural   RbBS2
_chemical_formula_sum   'Rb6 B6 S12'
_cell_volume   691.76531262
_cell_formula_units_Z   6
loop_
 _symmetry_equiv_pos_site_id
 _symmetry_equiv_pos_as_xyz
  1  'x, y, z'
loop_
 _atom_site_type_symbol
 _atom_site_label
 _atom_site_symmetry_multiplicity
 _atom_site_fract_x
 _atom_site_fract_y
 _atom_site_fract_z
 _atom_site_occupancy
  Rb  Rb0  1  0.25000000  0.69912800  0.80087200  1
  Rb  Rb1  1  0.80087200  0.25000000  0.69912800  1
  Rb  Rb2  1  0.69912800  0.80087200  0.25000000  1
  Rb  Rb3  1  0.75000000  0.30087200  0.19912800  1
  Rb  Rb4  1  0.19912800  0.75000000  0.30087200  1
  Rb  Rb5  1  0.30087200  0.19912800  0.75000000  1
  B  B6  1  0.25000000  0.36206100  0.13793900  1
  B  B7  1  0.13793900  0.25000000  0.36206100  1
  B  B8  1  0.36206100  0.13793900  0.25000000  1
  B  B9  1  0.75000000  0.63793900  0.86206100  1
  B  B10  1  0.86206100  0.75000000  0.63793900  1
  B  B11  1  0.63793900  0.86206100  0.75000000  1
  S  S12  1  0.86612200  0.63387800  0.75000000  1
  S  S13  1  0.63387800  0.75000000  0.86612200  1
  S  S14  1  0.75000000  0.86612200  0.63387800  1
  S  S15  1  0.13387800  0.36612200  0.25000000  1
  S  S16  1  0.36612200  0.25000000  0.13387800  1
  S  S17  1  0.25000000  0.13387800  0.36612200  1
  S  S18  1  0.52758200  0.97241800  0.75000000  1
  S  S19  1  0.97241800  0.75000000  0.52758200  1
  S  S20  1  0.75000000  0.52758200  0.97241800  1
  S  S21  1  0.47241800  0.02758200  0.25000000  1
  S  S22  1  0.02758200  0.25000000  0.47241800  1
  S  S23  1  0.25000000  0.47241800  0.02758200  1
