# generated using pymatgen
data_TmZn12
_symmetry_space_group_name_H-M   'P 1'
_cell_length_a   6.74734284
_cell_length_b   6.74734284
_cell_length_c   6.74734284
_cell_angle_alpha   99.21996204
_cell_angle_beta   99.21996204
_cell_angle_gamma   132.80847292
_symmetry_Int_Tables_number   1
_chemical_formula_structural   TmZn12
_chemical_formula_sum   'Tm1 Zn12'
_cell_volume   206.51732681
_cell_formula_units_Z   1
loop_
 _symmetry_equiv_pos_site_id
 _symmetry_equiv_pos_as_xyz
  1  'x, y, z'
loop_
 _atom_site_type_symbol
 _atom_site_label
 _atom_site_symmetry_multiplicity
 _atom_site_fract_x
 _atom_site_fract_y
 _atom_site_fract_z
 _atom_site_occupancy
  Tm  Tm0  1  0.00000000  0.00000000  0.00000000  1
  Zn  Zn1  1  0.00000000  0.00000000  0.50000000  1
  Zn  Zn2  1  0.50000000  0.50000000  0.50000000  1
  Zn  Zn3  1  0.50000000  0.00000000  0.00000000  1
  Zn  Zn4  1  0.00000000  0.50000000  0.00000000  1
  Zn  Zn5  1  0.00000000  0.35237000  0.35237000  1
  Zn  Zn6  1  0.00000000  0.64763000  0.64763000  1
  Zn  Zn7  1  0.64763000  0.00000000  0.64763000  1
  Zn  Zn8  1  0.35237000  0.00000000  0.35237000  1
  Zn  Zn9  1  0.50000000  0.28237600  0.78237600  1
  Zn  Zn10  1  0.50000000  0.71762400  0.21762400  1
  Zn  Zn11  1  0.71762400  0.50000000  0.21762400  1
  Zn  Zn12  1  0.28237600  0.50000000  0.78237600  1
