# generated using pymatgen
data_DyMn2O5
_symmetry_space_group_name_H-M   'P 1'
_cell_length_a   5.78798900
_cell_length_b   7.35505700
_cell_length_c   8.56931800
_cell_angle_alpha   90.00000000
_cell_angle_beta   90.00000000
_cell_angle_gamma   90.00000000
_symmetry_Int_Tables_number   1
_chemical_formula_structural   DyMn2O5
_chemical_formula_sum   'Dy4 Mn8 O20'
_cell_volume   364.80434240
_cell_formula_units_Z   4
loop_
 _symmetry_equiv_pos_site_id
 _symmetry_equiv_pos_as_xyz
  1  'x, y, z'
loop_
 _atom_site_type_symbol
 _atom_site_label
 _atom_site_symmetry_multiplicity
 _atom_site_fract_x
 _atom_site_fract_y
 _atom_site_fract_z
 _atom_site_occupancy
  Dy  Dy0  1  0.00000000  0.36233800  0.67056200  1
  Dy  Dy1  1  0.00000000  0.63766200  0.32943800  1
  Dy  Dy2  1  0.00000000  0.86233800  0.82943800  1
  Dy  Dy3  1  0.00000000  0.13766200  0.17056200  1
  Mn  Mn4  1  0.50000000  0.08854500  0.84846200  1
  Mn  Mn5  1  0.50000000  0.91145500  0.15153800  1
  Mn  Mn6  1  0.50000000  0.58854500  0.65153800  1
  Mn  Mn7  1  0.50000000  0.41145500  0.34846200  1
  Mn  Mn8  1  0.25359800  0.50000000  0.00000000  1
  Mn  Mn9  1  0.74640200  0.00000000  0.50000000  1
  Mn  Mn10  1  0.74640200  0.50000000  0.00000000  1
  Mn  Mn11  1  0.25359800  0.00000000  0.50000000  1
  O  O12  1  0.24024000  0.89297600  0.29310200  1
  O  O13  1  0.24024000  0.10702400  0.70689800  1
  O  O14  1  0.75976000  0.39297600  0.20689800  1
  O  O15  1  0.75976000  0.60702400  0.79310200  1
  O  O16  1  0.75976000  0.10702400  0.70689800  1
  O  O17  1  0.75976000  0.89297600  0.29310200  1
  O  O18  1  0.24024000  0.60702400  0.79310200  1
  O  O19  1  0.24024000  0.39297600  0.20689800  1
  O  O20  1  0.50000000  0.34916000  0.93015600  1
  O  O21  1  0.50000000  0.65084000  0.06984400  1
  O  O22  1  0.50000000  0.84916000  0.56984400  1
  O  O23  1  0.50000000  0.15084000  0.43015600  1
  O  O24  1  0.27022600  0.00000000  0.00000000  1
  O  O25  1  0.72977400  0.50000000  0.50000000  1
  O  O26  1  0.72977400  0.00000000  0.00000000  1
  O  O27  1  0.27022600  0.50000000  0.50000000  1
  O  O28  1  0.00000000  0.16366800  0.44261200  1
  O  O29  1  0.00000000  0.83633200  0.55738800  1
  O  O30  1  0.00000000  0.66366800  0.05738800  1
  O  O31  1  0.00000000  0.33633200  0.94261200  1
