# generated using pymatgen
data_NiO
_symmetry_space_group_name_H-M   'P 1'
_cell_length_a   2.98307704
_cell_length_b   2.98308198
_cell_length_c   5.15994095
_cell_angle_alpha   106.80216283
_cell_angle_beta   73.19772653
_cell_angle_gamma   119.99806323
_symmetry_Int_Tables_number   1
_chemical_formula_structural   NiO
_chemical_formula_sum   'Ni2 O2'
_cell_volume   37.48543887
_cell_formula_units_Z   2
loop_
 _symmetry_equiv_pos_site_id
 _symmetry_equiv_pos_as_xyz
  1  'x, y, z'
loop_
 _atom_site_type_symbol
 _atom_site_label
 _atom_site_symmetry_multiplicity
 _atom_site_fract_x
 _atom_site_fract_y
 _atom_site_fract_z
 _atom_site_occupancy
  Ni  Ni0  1  0.00000000  0.00000000  0.00000000  1
  Ni  Ni1  1  0.50000000  0.50000000  0.50000000  1
  O  O2  1  0.25000100  0.74999900  0.24999300  1
  O  O3  1  0.74999900  0.25000100  0.75000700  1
