# generated using pymatgen
data_MnFeBiO5
_symmetry_space_group_name_H-M   'P 1'
_cell_length_a   5.86376900
_cell_length_b   7.62945800
_cell_length_c   8.73766700
_cell_angle_alpha   90.00000000
_cell_angle_beta   90.00000000
_cell_angle_gamma   90.00000000
_symmetry_Int_Tables_number   1
_chemical_formula_structural   MnFeBiO5
_chemical_formula_sum   'Mn4 Fe4 Bi4 O20'
_cell_volume   390.90032284
_cell_formula_units_Z   4
loop_
 _symmetry_equiv_pos_site_id
 _symmetry_equiv_pos_as_xyz
  1  'x, y, z'
loop_
 _atom_site_type_symbol
 _atom_site_label
 _atom_site_symmetry_multiplicity
 _atom_site_fract_x
 _atom_site_fract_y
 _atom_site_fract_z
 _atom_site_occupancy
  Mn  Mn0  1  0.25278900  0.50000000  0.00000000  1
  Mn  Mn1  1  0.74721100  0.00000000  0.50000000  1
  Mn  Mn2  1  0.74721100  0.50000000  0.00000000  1
  Mn  Mn3  1  0.25278900  0.00000000  0.50000000  1
  Fe  Fe4  1  0.50000000  0.88599900  0.14700000  1
  Fe  Fe5  1  0.50000000  0.11400100  0.85300000  1
  Fe  Fe6  1  0.50000000  0.38599900  0.35300000  1
  Fe  Fe7  1  0.50000000  0.61400100  0.64700000  1
  Bi  Bi8  1  0.00000000  0.64668600  0.33778600  1
  Bi  Bi9  1  0.00000000  0.35331400  0.66221400  1
  Bi  Bi10  1  0.00000000  0.14668600  0.16221400  1
  Bi  Bi11  1  0.00000000  0.85331400  0.83778600  1
  O  O12  1  0.00000000  0.65469400  0.05718800  1
  O  O13  1  0.00000000  0.34530600  0.94281200  1
  O  O14  1  0.00000000  0.15469400  0.44281200  1
  O  O15  1  0.00000000  0.84530600  0.55718800  1
  O  O16  1  0.28102700  0.50000000  0.50000000  1
  O  O17  1  0.71897300  0.00000000  0.00000000  1
  O  O18  1  0.71897300  0.50000000  0.50000000  1
  O  O19  1  0.28102700  0.00000000  0.00000000  1
  O  O20  1  0.50000000  0.64463000  0.07691300  1
  O  O21  1  0.50000000  0.35537000  0.92308700  1
  O  O22  1  0.50000000  0.14463000  0.42308700  1
  O  O23  1  0.50000000  0.85537000  0.57691300  1
  O  O24  1  0.25203500  0.88495400  0.30139100  1
  O  O25  1  0.25203500  0.11504600  0.69860900  1
  O  O26  1  0.74796500  0.38495400  0.19860900  1
  O  O27  1  0.74796500  0.61504600  0.80139100  1
  O  O28  1  0.74796500  0.11504600  0.69860900  1
  O  O29  1  0.74796500  0.88495400  0.30139100  1
  O  O30  1  0.25203500  0.61504600  0.80139100  1
  O  O31  1  0.25203500  0.38495400  0.19860900  1
