# generated using pymatgen
data_CaSiNi2
_symmetry_space_group_name_H-M   'P 1'
_cell_length_a   3.98335061
_cell_length_b   3.98335061
_cell_length_c   9.88753300
_cell_angle_alpha   90.00000000
_cell_angle_beta   90.00000000
_cell_angle_gamma   120.00001018
_symmetry_Int_Tables_number   1
_chemical_formula_structural   CaSiNi2
_chemical_formula_sum   'Ca2 Si2 Ni4'
_cell_volume   135.86750558
_cell_formula_units_Z   2
loop_
 _symmetry_equiv_pos_site_id
 _symmetry_equiv_pos_as_xyz
  1  'x, y, z'
loop_
 _atom_site_type_symbol
 _atom_site_label
 _atom_site_symmetry_multiplicity
 _atom_site_fract_x
 _atom_site_fract_y
 _atom_site_fract_z
 _atom_site_occupancy
  Ca  Ca0  1  0.66666700  0.33333300  0.75000000  1
  Ca  Ca1  1  0.33333300  0.66666700  0.25000000  1
  Si  Si2  1  0.00000000  0.00000000  0.50000000  1
  Si  Si3  1  0.00000000  0.00000000  0.00000000  1
  Ni  Ni4  1  0.66666700  0.33333300  0.45832200  1
  Ni  Ni5  1  0.33333300  0.66666700  0.54167800  1
  Ni  Ni6  1  0.33333300  0.66666700  0.95832200  1
  Ni  Ni7  1  0.66666700  0.33333300  0.04167800  1
