# generated using pymatgen
data_Pr(Al5Os)2
_symmetry_space_group_name_H-M   'P 1'
_cell_length_a   6.88899145
_cell_length_b   6.88899145
_cell_length_c   9.20232500
_cell_angle_alpha   90.00000000
_cell_angle_beta   90.00000000
_cell_angle_gamma   96.43410099
_symmetry_Int_Tables_number   1
_chemical_formula_structural   Pr(Al5Os)2
_chemical_formula_sum   'Pr2 Al20 Os4'
_cell_volume   433.97504791
_cell_formula_units_Z   2
loop_
 _symmetry_equiv_pos_site_id
 _symmetry_equiv_pos_as_xyz
  1  'x, y, z'
loop_
 _atom_site_type_symbol
 _atom_site_label
 _atom_site_symmetry_multiplicity
 _atom_site_fract_x
 _atom_site_fract_y
 _atom_site_fract_z
 _atom_site_occupancy
  Pr  Pr0  1  0.87444700  0.12555300  0.75000000  1
  Pr  Pr1  1  0.12555300  0.87444700  0.25000000  1
  Al  Al2  1  0.62326700  0.37673300  0.54875400  1
  Al  Al3  1  0.37673300  0.62326700  0.45124600  1
  Al  Al4  1  0.37673300  0.62326700  0.04875400  1
  Al  Al5  1  0.62326700  0.37673300  0.95124600  1
  Al  Al6  1  0.22765700  0.22765700  0.50000000  1
  Al  Al7  1  0.77234300  0.77234300  0.50000000  1
  Al  Al8  1  0.77234300  0.77234300  0.00000000  1
  Al  Al9  1  0.22765700  0.22765700  0.00000000  1
  Al  Al10  1  0.84000200  0.15999800  0.10178500  1
  Al  Al11  1  0.15999800  0.84000200  0.89821500  1
  Al  Al12  1  0.15999800  0.84000200  0.60178500  1
  Al  Al13  1  0.84000200  0.15999800  0.39821500  1
  Al  Al14  1  0.85954400  0.58727700  0.75000000  1
  Al  Al15  1  0.14045600  0.41272300  0.25000000  1
  Al  Al16  1  0.41272300  0.14045600  0.75000000  1
  Al  Al17  1  0.58727700  0.85954400  0.25000000  1
  Al  Al18  1  0.22112800  0.48289200  0.75000000  1
  Al  Al19  1  0.77887200  0.51710800  0.25000000  1
  Al  Al20  1  0.51710800  0.77887200  0.75000000  1
  Al  Al21  1  0.48289200  0.22112800  0.25000000  1
  Os  Os22  1  0.00000000  0.50000000  0.50000000  1
  Os  Os23  1  0.00000000  0.50000000  0.00000000  1
  Os  Os24  1  0.50000000  0.00000000  0.00000000  1
  Os  Os25  1  0.50000000  0.00000000  0.50000000  1
