# generated using pymatgen
data_Ba3CrN3
_symmetry_space_group_name_H-M   'P 1'
_cell_length_a   8.43191783
_cell_length_b   8.43191783
_cell_length_c   5.49928800
_cell_angle_alpha   90.00000000
_cell_angle_beta   90.00000000
_cell_angle_gamma   119.99999870
_symmetry_Int_Tables_number   1
_chemical_formula_structural   Ba3CrN3
_chemical_formula_sum   'Ba6 Cr2 N6'
_cell_volume   338.60224529
_cell_formula_units_Z   2
loop_
 _symmetry_equiv_pos_site_id
 _symmetry_equiv_pos_as_xyz
  1  'x, y, z'
loop_
 _atom_site_type_symbol
 _atom_site_label
 _atom_site_symmetry_multiplicity
 _atom_site_fract_x
 _atom_site_fract_y
 _atom_site_fract_z
 _atom_site_occupancy
  Ba  Ba0  1  0.63737700  0.71558400  0.75000000  1
  Ba  Ba1  1  0.92179200  0.63737700  0.25000000  1
  Ba  Ba2  1  0.71558400  0.07820800  0.25000000  1
  Ba  Ba3  1  0.28441600  0.92179200  0.75000000  1
  Ba  Ba4  1  0.07820800  0.36262300  0.75000000  1
  Ba  Ba5  1  0.36262300  0.28441600  0.25000000  1
  Cr  Cr6  1  0.66666700  0.33333300  0.75000000  1
  Cr  Cr7  1  0.33333300  0.66666700  0.25000000  1
  N  N8  1  0.54503400  0.68090500  0.25000000  1
  N  N9  1  0.86412900  0.54503400  0.75000000  1
  N  N10  1  0.68090500  0.13587100  0.75000000  1
  N  N11  1  0.31909500  0.86412900  0.25000000  1
  N  N12  1  0.13587100  0.45496600  0.25000000  1
  N  N13  1  0.45496600  0.31909500  0.75000000  1
