# generated using pymatgen
data_NaSnAu
_symmetry_space_group_name_H-M   'P 1'
_cell_length_a   4.63720400
_cell_length_b   7.60806600
_cell_length_c   8.26895400
_cell_angle_alpha   90.00000000
_cell_angle_beta   90.00000000
_cell_angle_gamma   90.00000000
_symmetry_Int_Tables_number   1
_chemical_formula_structural   NaSnAu
_chemical_formula_sum   'Na4 Sn4 Au4'
_cell_volume   291.72997126
_cell_formula_units_Z   4
loop_
 _symmetry_equiv_pos_site_id
 _symmetry_equiv_pos_as_xyz
  1  'x, y, z'
loop_
 _atom_site_type_symbol
 _atom_site_label
 _atom_site_symmetry_multiplicity
 _atom_site_fract_x
 _atom_site_fract_y
 _atom_site_fract_z
 _atom_site_occupancy
  Na  Na0  1  0.25000000  0.01659700  0.82711000  1
  Na  Na1  1  0.25000000  0.51659700  0.67289000  1
  Na  Na2  1  0.75000000  0.48340300  0.32711000  1
  Na  Na3  1  0.75000000  0.98340300  0.17289000  1
  Sn  Sn4  1  0.25000000  0.65956600  0.06188500  1
  Sn  Sn5  1  0.25000000  0.15956600  0.43811500  1
  Sn  Sn6  1  0.75000000  0.84043400  0.56188500  1
  Sn  Sn7  1  0.75000000  0.34043400  0.93811500  1
  Au  Au8  1  0.75000000  0.70988200  0.87440500  1
  Au  Au9  1  0.25000000  0.29011800  0.12559500  1
  Au  Au10  1  0.25000000  0.79011800  0.37440500  1
  Au  Au11  1  0.75000000  0.20988200  0.62559500  1
