# generated using pymatgen
data_PrSbPt
_symmetry_space_group_name_H-M   'P 1'
_cell_length_a   4.59300834
_cell_length_b   4.59300834
_cell_length_c   8.18448400
_cell_angle_alpha   90.00000000
_cell_angle_beta   90.00000000
_cell_angle_gamma   120.00000489
_symmetry_Int_Tables_number   1
_chemical_formula_structural   PrSbPt
_chemical_formula_sum   'Pr2 Sb2 Pt2'
_cell_volume   149.52588525
_cell_formula_units_Z   2
loop_
 _symmetry_equiv_pos_site_id
 _symmetry_equiv_pos_as_xyz
  1  'x, y, z'
loop_
 _atom_site_type_symbol
 _atom_site_label
 _atom_site_symmetry_multiplicity
 _atom_site_fract_x
 _atom_site_fract_y
 _atom_site_fract_z
 _atom_site_occupancy
  Pr  Pr0  1  0.00000000  0.00000000  0.74926900  1
  Pr  Pr1  1  0.00000000  0.00000000  0.24926900  1
  Sb  Sb2  1  0.66666700  0.33333300  0.98700300  1
  Sb  Sb3  1  0.33333300  0.66666700  0.48700300  1
  Pt  Pt4  1  0.66666700  0.33333300  0.53772800  1
  Pt  Pt5  1  0.33333300  0.66666700  0.03772800  1
