# generated using pymatgen
data_Cs3Ag(AsSe2)4
_symmetry_space_group_name_H-M   'P 1'
_cell_length_a   13.65517199
_cell_length_b   13.65517199
_cell_length_c   23.17133860
_cell_angle_alpha   64.22628105
_cell_angle_beta   64.22628105
_cell_angle_gamma   38.27199755
_symmetry_Int_Tables_number   1
_chemical_formula_structural   Cs3Ag(AsSe2)4
_chemical_formula_sum   'Cs12 Ag4 As16 Se32'
_cell_volume   2375.87382415
_cell_formula_units_Z   4
loop_
 _symmetry_equiv_pos_site_id
 _symmetry_equiv_pos_as_xyz
  1  'x, y, z'
loop_
 _atom_site_type_symbol
 _atom_site_label
 _atom_site_symmetry_multiplicity
 _atom_site_fract_x
 _atom_site_fract_y
 _atom_site_fract_z
 _atom_site_occupancy
  Cs  Cs0  1  0.00000000  0.50000000  0.50000000  1
  Cs  Cs1  1  0.50000000  0.00000000  0.00000000  1
  Cs  Cs2  1  0.44610300  0.15966100  0.22986100  1
  Cs  Cs3  1  0.84033900  0.55389700  0.27013900  1
  Cs  Cs4  1  0.55389700  0.84033900  0.77013900  1
  Cs  Cs5  1  0.15966100  0.44610300  0.72986100  1
  Cs  Cs6  1  0.74893400  0.39201200  0.50545100  1
  Cs  Cs7  1  0.60798800  0.25106600  0.99454900  1
  Cs  Cs8  1  0.25106600  0.60798800  0.49454900  1
  Cs  Cs9  1  0.39201200  0.74893400  0.00545100  1
  Cs  Cs10  1  0.71132900  0.28867100  0.25000000  1
  Cs  Cs11  1  0.28867100  0.71132900  0.75000000  1
  Ag  Ag12  1  0.41072800  0.09580300  0.41207400  1
  Ag  Ag13  1  0.90419700  0.58927200  0.08792600  1
  Ag  Ag14  1  0.58927200  0.90419700  0.58792600  1
  Ag  Ag15  1  0.09580300  0.41072800  0.91207400  1
  As  As16  1  0.03888300  0.69055900  0.11646300  1
  As  As17  1  0.30944100  0.96111700  0.38353700  1
  As  As18  1  0.96111700  0.30944100  0.88353700  1
  As  As19  1  0.69055900  0.03888300  0.61646300  1
  As  As20  1  0.82104800  0.87328700  0.31799400  1
  As  As21  1  0.12671300  0.17895200  0.18200600  1
  As  As22  1  0.17895200  0.12671300  0.68200600  1
  As  As23  1  0.87328700  0.82104800  0.81799400  1
  As  As24  1  0.63451000  0.05201900  0.46804000  1
  As  As25  1  0.94798100  0.36549000  0.03196000  1
  As  As26  1  0.36549000  0.94798100  0.53196000  1
  As  As27  1  0.05201900  0.63451000  0.96804000  1
  As  As28  1  0.19917000  0.70267900  0.20073400  1
  As  As29  1  0.29732100  0.80083000  0.29926600  1
  As  As30  1  0.80083000  0.29732100  0.79926600  1
  As  As31  1  0.70267900  0.19917000  0.70073400  1
  Se  Se32  1  0.01043700  0.88771900  0.12231700  1
  Se  Se33  1  0.11228100  0.98956300  0.37768300  1
  Se  Se34  1  0.98956300  0.11228100  0.87768300  1
  Se  Se35  1  0.88771900  0.01043700  0.62231700  1
  Se  Se36  1  0.15115200  0.23116400  0.38296400  1
  Se  Se37  1  0.76883600  0.84884800  0.11703600  1
  Se  Se38  1  0.84884800  0.76883600  0.61703600  1
  Se  Se39  1  0.23116400  0.15115200  0.88296400  1
  Se  Se40  1  0.16045400  0.68217800  0.00009100  1
  Se  Se41  1  0.31782200  0.83954600  0.49990900  1
  Se  Se42  1  0.83954600  0.31782200  0.99990900  1
  Se  Se43  1  0.68217800  0.16045400  0.50009100  1
  Se  Se44  1  0.43533000  0.27498700  0.40120600  1
  Se  Se45  1  0.72501300  0.56467000  0.09879400  1
  Se  Se46  1  0.56467000  0.72501300  0.59879400  1
  Se  Se47  1  0.27498700  0.43533000  0.90120600  1
  Se  Se48  1  0.89619600  0.88869200  0.39161800  1
  Se  Se49  1  0.11130800  0.10380400  0.10838200  1
  Se  Se50  1  0.10380400  0.11130800  0.60838200  1
  Se  Se51  1  0.88869200  0.89619600  0.89161800  1
  Se  Se52  1  0.69107200  0.79829800  0.38288600  1
  Se  Se53  1  0.20170200  0.30892800  0.11711400  1
  Se  Se54  1  0.30892800  0.20170200  0.61711400  1
  Se  Se55  1  0.79829800  0.69107200  0.88288600  1
  Se  Se56  1  0.08413900  0.61165000  0.28906700  1
  Se  Se57  1  0.38835000  0.91586100  0.21093300  1
  Se  Se58  1  0.91586100  0.38835000  0.71093300  1
  Se  Se59  1  0.61165000  0.08413900  0.78906700  1
  Se  Se60  1  0.42805100  0.47111800  0.15371900  1
  Se  Se61  1  0.52888200  0.57194900  0.34628100  1
  Se  Se62  1  0.57194900  0.52888200  0.84628100  1
  Se  Se63  1  0.47111800  0.42805100  0.65371900  1
