# generated using pymatgen
data_NaMnIO6
_symmetry_space_group_name_H-M   'P 1'
_cell_length_a   5.09306690
_cell_length_b   5.09306690
_cell_length_c   5.37465900
_cell_angle_alpha   90.00000000
_cell_angle_beta   90.00000000
_cell_angle_gamma   119.99998570
_symmetry_Int_Tables_number   1
_chemical_formula_structural   NaMnIO6
_chemical_formula_sum   'Na1 Mn1 I1 O6'
_cell_volume   120.73699739
_cell_formula_units_Z   1
loop_
 _symmetry_equiv_pos_site_id
 _symmetry_equiv_pos_as_xyz
  1  'x, y, z'
loop_
 _atom_site_type_symbol
 _atom_site_label
 _atom_site_symmetry_multiplicity
 _atom_site_fract_x
 _atom_site_fract_y
 _atom_site_fract_z
 _atom_site_occupancy
  Na  Na0  1  0.66666700  0.33333300  0.50000000  1
  Mn  Mn1  1  0.33333300  0.66666700  0.00000000  1
  I  I2  1  0.00000000  0.00000000  0.00000000  1
  O  O3  1  0.04136600  0.32901400  0.80040800  1
  O  O4  1  0.28764800  0.95863400  0.80040800  1
  O  O5  1  0.28764800  0.32901400  0.19959200  1
  O  O6  1  0.67098600  0.71235200  0.80040800  1
  O  O7  1  0.67098600  0.95863400  0.19959200  1
  O  O8  1  0.04136600  0.71235200  0.19959200  1
