# generated using pymatgen
data_Li2ZnSiO4
_symmetry_space_group_name_H-M   'P 1'
_cell_length_a   10.73537400
_cell_length_b   5.10776600
_cell_length_c   8.08758152
_cell_angle_alpha   51.43185700
_cell_angle_beta   90.00000000
_cell_angle_gamma   90.00000000
_symmetry_Int_Tables_number   1
_chemical_formula_structural   Li2ZnSiO4
_chemical_formula_sum   'Li8 Zn4 Si4 O16'
_cell_volume   346.73673630
_cell_formula_units_Z   4
loop_
 _symmetry_equiv_pos_site_id
 _symmetry_equiv_pos_as_xyz
  1  'x, y, z'
loop_
 _atom_site_type_symbol
 _atom_site_label
 _atom_site_symmetry_multiplicity
 _atom_site_fract_x
 _atom_site_fract_y
 _atom_site_fract_z
 _atom_site_occupancy
  Li  Li0  1  0.66315800  0.68497900  0.50653500  1
  Li  Li1  1  0.57527700  0.53820500  0.25987200  1
  Li  Li2  1  0.07527700  0.46179500  0.24012800  1
  Li  Li3  1  0.42472300  0.46179500  0.74012800  1
  Li  Li4  1  0.92472300  0.53820500  0.75987200  1
  Li  Li5  1  0.16315800  0.31502100  0.99346500  1
  Li  Li6  1  0.33684200  0.31502100  0.49346500  1
  Li  Li7  1  0.83684200  0.68497900  0.00653500  1
  Zn  Zn8  1  0.66445600  0.19049800  0.00140900  1
  Zn  Zn9  1  0.16445600  0.80950200  0.49859100  1
  Zn  Zn10  1  0.33554400  0.80950200  0.99859100  1
  Zn  Zn11  1  0.83554400  0.19049800  0.50140900  1
  Si  Si12  1  0.91192900  0.93596700  0.25384300  1
  Si  Si13  1  0.41192900  0.06403300  0.24615700  1
  Si  Si14  1  0.08807100  0.06403300  0.74615700  1
  Si  Si15  1  0.58807100  0.93596700  0.75384300  1
  O  O16  1  0.66032800  0.82682500  0.96949000  1
  O  O17  1  0.16032800  0.17317500  0.53051000  1
  O  O18  1  0.33967200  0.17317500  0.03051000  1
  O  O19  1  0.83956000  0.25676500  0.03949400  1
  O  O20  1  0.83967200  0.82682500  0.46949000  1
  O  O21  1  0.66044000  0.25676500  0.53949400  1
  O  O22  1  0.16044000  0.74323500  0.96050600  1
  O  O23  1  0.33956000  0.74323500  0.46050600  1
  O  O24  1  0.58944100  0.61065300  0.75431100  1
  O  O25  1  0.08944100  0.38934700  0.74568900  1
  O  O26  1  0.41055900  0.38934700  0.24568900  1
  O  O27  1  0.91055900  0.61065300  0.25431100  1
  O  O28  1  0.44364600  0.05501500  0.74380900  1
  O  O29  1  0.94364600  0.94498500  0.75619100  1
  O  O30  1  0.55635400  0.94498500  0.25619100  1
  O  O31  1  0.05635400  0.05501500  0.24380900  1
