# generated using pymatgen
data_La6Mg(SiS7)2
_symmetry_space_group_name_H-M   'P 1'
_cell_length_a   10.41066444
_cell_length_b   10.41066444
_cell_length_c   5.76531400
_cell_angle_alpha   90.00000000
_cell_angle_beta   90.00000000
_cell_angle_gamma   120.00000278
_symmetry_Int_Tables_number   1
_chemical_formula_structural   La6Mg(SiS7)2
_chemical_formula_sum   'La6 Mg1 Si2 S14'
_cell_volume   541.14105205
_cell_formula_units_Z   1
loop_
 _symmetry_equiv_pos_site_id
 _symmetry_equiv_pos_as_xyz
  1  'x, y, z'
loop_
 _atom_site_type_symbol
 _atom_site_label
 _atom_site_symmetry_multiplicity
 _atom_site_fract_x
 _atom_site_fract_y
 _atom_site_fract_z
 _atom_site_occupancy
  La  La0  1  0.64311500  0.76510000  0.75212800  1
  La  La1  1  0.12198500  0.35688500  0.75212800  1
  La  La2  1  0.23490000  0.87801500  0.75212800  1
  La  La3  1  0.35699900  0.23513900  0.25046800  1
  La  La4  1  0.87814000  0.64300100  0.25046800  1
  La  La5  1  0.76486100  0.12186000  0.25046800  1
  Mg  Mg6  1  0.00000000  0.00000000  0.50842300  1
  Si  Si7  1  0.33333300  0.66666700  0.16826400  1
  Si  Si8  1  0.66666700  0.33333300  0.66630800  1
  S  S9  1  0.33333300  0.66666700  0.53309200  1
  S  S10  1  0.66666700  0.33333300  0.03169900  1
  S  S11  1  0.75614600  0.83883100  0.27097400  1
  S  S12  1  0.08268500  0.24385400  0.27097400  1
  S  S13  1  0.16116900  0.91731500  0.27097400  1
  S  S14  1  0.24297300  0.16240500  0.75106000  1
  S  S15  1  0.91943300  0.75702700  0.75106000  1
  S  S16  1  0.83759500  0.08056700  0.75106000  1
  S  S17  1  0.47568200  0.88346000  0.02681500  1
  S  S18  1  0.40777700  0.52431800  0.02681500  1
  S  S19  1  0.11654000  0.59222300  0.02681500  1
  S  S20  1  0.52460700  0.11651700  0.52565700  1
  S  S21  1  0.59191000  0.47539300  0.52565700  1
  S  S22  1  0.88348300  0.40809000  0.52565700  1
