# generated using pymatgen
data_Ba2Ge2Te5
_symmetry_space_group_name_H-M   'P 1'
_cell_length_a   9.36486200
_cell_length_b   10.10031800
_cell_length_c   13.61946900
_cell_angle_alpha   90.00000000
_cell_angle_beta   90.00000000
_cell_angle_gamma   90.00000000
_symmetry_Int_Tables_number   1
_chemical_formula_structural   Ba2Ge2Te5
_chemical_formula_sum   'Ba8 Ge8 Te20'
_cell_volume   1288.23948089
_cell_formula_units_Z   4
loop_
 _symmetry_equiv_pos_site_id
 _symmetry_equiv_pos_as_xyz
  1  'x, y, z'
loop_
 _atom_site_type_symbol
 _atom_site_label
 _atom_site_symmetry_multiplicity
 _atom_site_fract_x
 _atom_site_fract_y
 _atom_site_fract_z
 _atom_site_occupancy
  Ba  Ba0  1  0.60342300  0.91953300  0.33429200  1
  Ba  Ba1  1  0.39657700  0.41953300  0.66570800  1
  Ba  Ba2  1  0.89657700  0.91953300  0.83429200  1
  Ba  Ba3  1  0.10342300  0.41953300  0.16570800  1
  Ba  Ba4  1  0.56012100  0.43658900  0.31809800  1
  Ba  Ba5  1  0.43987900  0.93658900  0.68190200  1
  Ba  Ba6  1  0.93987900  0.43658900  0.81809800  1
  Ba  Ba7  1  0.06012100  0.93658900  0.18190200  1
  Ge  Ge8  1  0.17844500  0.73006900  0.52232800  1
  Ge  Ge9  1  0.82155500  0.23006900  0.47767200  1
  Ge  Ge10  1  0.32155500  0.73006900  0.02232800  1
  Ge  Ge11  1  0.67844500  0.23006900  0.97767200  1
  Ge  Ge12  1  0.02442300  0.56324700  0.43505400  1
  Ge  Ge13  1  0.97557700  0.06324700  0.56494600  1
  Ge  Ge14  1  0.47557700  0.56324700  0.93505400  1
  Ge  Ge15  1  0.52442300  0.06324700  0.06494600  1
  Te  Te16  1  0.20122900  0.36431500  0.41700100  1
  Te  Te17  1  0.79877100  0.86431500  0.58299900  1
  Te  Te18  1  0.29877100  0.36431500  0.91700100  1
  Te  Te19  1  0.70122900  0.86431500  0.08299900  1
  Te  Te20  1  0.17788600  0.97336900  0.44648200  1
  Te  Te21  1  0.82211400  0.47336900  0.55351800  1
  Te  Te22  1  0.32211400  0.97336900  0.94648200  1
  Te  Te23  1  0.67788600  0.47336900  0.05351800  1
  Te  Te24  1  0.87595500  0.65675900  0.28658300  1
  Te  Te25  1  0.12404500  0.15675900  0.71341700  1
  Te  Te26  1  0.62404500  0.65675900  0.78658300  1
  Te  Te27  1  0.37595500  0.15675900  0.21341700  1
  Te  Te28  1  0.15761900  0.70173900  0.71481500  1
  Te  Te29  1  0.84238100  0.20173900  0.28518500  1
  Te  Te30  1  0.34238100  0.70173900  0.21481500  1
  Te  Te31  1  0.65761900  0.20173900  0.78518500  1
  Te  Te32  1  0.45347600  0.68188000  0.49539400  1
  Te  Te33  1  0.54652400  0.18188000  0.50460600  1
  Te  Te34  1  0.04652400  0.68188000  0.99539400  1
  Te  Te35  1  0.95347600  0.18188000  0.00460600  1
