# generated using pymatgen
data_BP(PbO2)4
_symmetry_space_group_name_H-M   'P 1'
_cell_length_a   7.12055100
_cell_length_b   10.34281400
_cell_length_c   13.12869882
_cell_angle_alpha   67.04089159
_cell_angle_beta   90.00000000
_cell_angle_gamma   90.00000000
_symmetry_Int_Tables_number   1
_chemical_formula_structural   BP(PbO2)4
_chemical_formula_sum   'B4 P4 Pb16 O32'
_cell_volume   890.29005235
_cell_formula_units_Z   4
loop_
 _symmetry_equiv_pos_site_id
 _symmetry_equiv_pos_as_xyz
  1  'x, y, z'
loop_
 _atom_site_type_symbol
 _atom_site_label
 _atom_site_symmetry_multiplicity
 _atom_site_fract_x
 _atom_site_fract_y
 _atom_site_fract_z
 _atom_site_occupancy
  B  B0  1  0.73367200  0.54162900  0.13774400  1
  B  B1  1  0.23367200  0.45837100  0.36225600  1
  B  B2  1  0.26632800  0.45837100  0.86225600  1
  B  B3  1  0.76632800  0.54162900  0.63774400  1
  P  P4  1  0.74963100  0.10143400  0.10110600  1
  P  P5  1  0.24963100  0.89856600  0.39889400  1
  P  P6  1  0.25036900  0.89856600  0.89889400  1
  P  P7  1  0.75036900  0.10143400  0.60110600  1
  Pb  Pb8  1  0.22637700  0.13220300  0.06761400  1
  Pb  Pb9  1  0.72637700  0.86779700  0.43238600  1
  Pb  Pb10  1  0.77362300  0.86779700  0.93238600  1
  Pb  Pb11  1  0.27362300  0.13220300  0.56761400  1
  Pb  Pb12  1  0.19529300  0.54816000  0.07472600  1
  Pb  Pb13  1  0.69529300  0.45184000  0.42527400  1
  Pb  Pb14  1  0.80470700  0.45184000  0.92527400  1
  Pb  Pb15  1  0.30470700  0.54816000  0.57472600  1
  Pb  Pb16  1  0.99179500  0.24122600  0.29315000  1
  Pb  Pb17  1  0.49179500  0.75877400  0.20685000  1
  Pb  Pb18  1  0.00820500  0.75877400  0.70685000  1
  Pb  Pb19  1  0.50820500  0.24122600  0.79315000  1
  Pb  Pb20  1  0.49116100  0.23176300  0.26541000  1
  Pb  Pb21  1  0.99116100  0.76823700  0.23459000  1
  Pb  Pb22  1  0.50883900  0.76823700  0.73459000  1
  Pb  Pb23  1  0.00883900  0.23176300  0.76541000  1
  O  O24  1  0.21913300  0.29151300  0.16242200  1
  O  O25  1  0.71913300  0.70848700  0.33757800  1
  O  O26  1  0.78086700  0.70848700  0.83757800  1
  O  O27  1  0.28086700  0.29151300  0.66242200  1
  O  O28  1  0.85858800  0.06616300  0.21203800  1
  O  O29  1  0.35858800  0.93383700  0.28796200  1
  O  O30  1  0.14141200  0.93383700  0.78796200  1
  O  O31  1  0.64141200  0.06616300  0.71203800  1
  O  O32  1  0.67340600  0.96290100  0.09583700  1
  O  O33  1  0.17340600  0.03709900  0.40416300  1
  O  O34  1  0.32659400  0.03709900  0.90416300  1
  O  O35  1  0.82659400  0.96290100  0.59583700  1
  O  O36  1  0.88888300  0.17304300  0.00254000  1
  O  O37  1  0.38888300  0.82695700  0.49746000  1
  O  O38  1  0.11111700  0.82695700  0.99746000  1
  O  O39  1  0.61111700  0.17304300  0.50254000  1
  O  O40  1  0.25054700  0.31460100  0.88788600  1
  O  O41  1  0.75054700  0.68539900  0.61211400  1
  O  O42  1  0.74945300  0.68539900  0.11211400  1
  O  O43  1  0.24945300  0.31460100  0.38788600  1
  O  O44  1  0.58386000  0.20622600  0.08949500  1
  O  O45  1  0.08386000  0.79377400  0.41050500  1
  O  O46  1  0.41614000  0.79377400  0.91050500  1
  O  O47  1  0.91614000  0.20622600  0.58949500  1
  O  O48  1  0.58669900  0.47012400  0.20527000  1
  O  O49  1  0.08669900  0.52987600  0.29473000  1
  O  O50  1  0.41330100  0.52987600  0.79473000  1
  O  O51  1  0.91330100  0.47012400  0.70527000  1
  O  O52  1  0.13273700  0.52530000  0.90337200  1
  O  O53  1  0.63273700  0.47470000  0.59662800  1
  O  O54  1  0.86726300  0.47470000  0.09662800  1
  O  O55  1  0.36726300  0.52530000  0.40337200  1
