# generated using pymatgen
data_Er2Mn(GeO3)4
_symmetry_space_group_name_H-M   'P 1'
_cell_length_a   5.00720700
_cell_length_b   9.98379751
_cell_length_c   9.98379751
_cell_angle_alpha   90.50646897
_cell_angle_beta   90.00000000
_cell_angle_gamma   90.00000000
_symmetry_Int_Tables_number   1
_chemical_formula_structural   Er2Mn(GeO3)4
_chemical_formula_sum   'Er4 Mn2 Ge8 O24'
_cell_volume   499.07993133
_cell_formula_units_Z   2
loop_
 _symmetry_equiv_pos_site_id
 _symmetry_equiv_pos_as_xyz
  1  'x, y, z'
loop_
 _atom_site_type_symbol
 _atom_site_label
 _atom_site_symmetry_multiplicity
 _atom_site_fract_x
 _atom_site_fract_y
 _atom_site_fract_z
 _atom_site_occupancy
  Er  Er0  1  0.50000000  0.00000000  0.50000000  1
  Er  Er1  1  0.50000000  0.50000000  0.00000000  1
  Er  Er2  1  0.50000000  0.75000000  0.75000000  1
  Er  Er3  1  0.50000000  0.25000000  0.25000000  1
  Mn  Mn4  1  0.50000000  0.50000000  0.50000000  1
  Mn  Mn5  1  0.50000000  0.00000000  0.00000000  1
  Ge  Ge6  1  0.99608400  0.74680000  0.47928700  1
  Ge  Ge7  1  0.00391600  0.25320000  0.52071300  1
  Ge  Ge8  1  0.00391600  0.24680000  0.97928700  1
  Ge  Ge9  1  0.99608400  0.75320000  0.02071300  1
  Ge  Ge10  1  0.00391600  0.47928700  0.74680000  1
  Ge  Ge11  1  0.99608400  0.52071300  0.25320000  1
  Ge  Ge12  1  0.99608400  0.97928700  0.24680000  1
  Ge  Ge13  1  0.00391600  0.02071300  0.75320000  1
  O  O14  1  0.26187500  0.56496900  0.66841200  1
  O  O15  1  0.25465100  0.06341600  0.33009400  1
  O  O16  1  0.25465100  0.43658400  0.16990600  1
  O  O17  1  0.26187500  0.93503100  0.83158800  1
  O  O18  1  0.73812500  0.43503100  0.33158800  1
  O  O19  1  0.74534900  0.93658400  0.66990600  1
  O  O20  1  0.74534900  0.56341600  0.83009400  1
  O  O21  1  0.73812500  0.06496900  0.16841200  1
  O  O22  1  0.73812500  0.66841200  0.56496900  1
  O  O23  1  0.74534900  0.33009400  0.06341600  1
  O  O24  1  0.74534900  0.16990600  0.43658400  1
  O  O25  1  0.73812500  0.83158800  0.93503100  1
  O  O26  1  0.26187500  0.33158800  0.43503100  1
  O  O27  1  0.25465100  0.66990600  0.93658400  1
  O  O28  1  0.25465100  0.83009400  0.56341600  1
  O  O29  1  0.26187500  0.16841200  0.06496900  1
  O  O30  1  0.83121000  0.36963400  0.63036600  1
  O  O31  1  0.83020200  0.87332200  0.37332200  1
  O  O32  1  0.83020200  0.62667800  0.12667800  1
  O  O33  1  0.83121000  0.13036600  0.86963400  1
  O  O34  1  0.16879000  0.63036600  0.36963400  1
  O  O35  1  0.16979800  0.12667800  0.62667800  1
  O  O36  1  0.16979800  0.37332200  0.87332200  1
  O  O37  1  0.16879000  0.86963400  0.13036600  1
