# generated using pymatgen
data_Na2(TaS2)3
_symmetry_space_group_name_H-M   'P 1'
_cell_length_a   14.90154786
_cell_length_b   14.90154786
_cell_length_c   14.90154769
_cell_angle_alpha   22.63064332
_cell_angle_beta   22.63064332
_cell_angle_gamma   22.63064043
_symmetry_Int_Tables_number   1
_chemical_formula_structural   Na2(TaS2)3
_chemical_formula_sum   'Na4 Ta6 S12'
_cell_volume   429.81076569
_cell_formula_units_Z   2
loop_
 _symmetry_equiv_pos_site_id
 _symmetry_equiv_pos_as_xyz
  1  'x, y, z'
loop_
 _atom_site_type_symbol
 _atom_site_label
 _atom_site_symmetry_multiplicity
 _atom_site_fract_x
 _atom_site_fract_y
 _atom_site_fract_z
 _atom_site_occupancy
  Na  Na0  1  0.91651500  0.91651500  0.91651500  1
  Na  Na1  1  0.58318300  0.58318300  0.58318300  1
  Na  Na2  1  0.41681700  0.41681700  0.41681700  1
  Na  Na3  1  0.08348500  0.08348500  0.08348500  1
  Ta  Ta4  1  0.33324000  0.33324000  0.33324000  1
  Ta  Ta5  1  0.66676000  0.66676000  0.66676000  1
  Ta  Ta6  1  0.00000000  0.00000000  0.00000000  1
  Ta  Ta7  1  0.83354700  0.16645300  0.50000000  1
  Ta  Ta8  1  0.50000000  0.83354700  0.16645300  1
  Ta  Ta9  1  0.16645300  0.50000000  0.83354700  1
  S  S10  1  0.96602900  0.62920100  0.29746400  1
  S  S11  1  0.29746400  0.96602900  0.62920100  1
  S  S12  1  0.62920100  0.29746400  0.96602900  1
  S  S13  1  0.70253600  0.37079900  0.03397100  1
  S  S14  1  0.03397100  0.70253600  0.37079900  1
  S  S15  1  0.37079900  0.03397100  0.70253600  1
  S  S16  1  0.86990100  0.53485500  0.20244500  1
  S  S17  1  0.20244500  0.86990100  0.53485500  1
  S  S18  1  0.53485500  0.20244500  0.86990100  1
  S  S19  1  0.79755500  0.46514500  0.13009900  1
  S  S20  1  0.13009900  0.79755500  0.46514500  1
  S  S21  1  0.46514500  0.13009900  0.79755500  1
