# generated using pymatgen
data_Cs4Fe2O5
_symmetry_space_group_name_H-M   'P 1'
_cell_length_a   9.96809066
_cell_length_b   9.96809066
_cell_length_c   7.81697424
_cell_angle_alpha   83.88001951
_cell_angle_beta   83.88001951
_cell_angle_gamma   135.47797413
_symmetry_Int_Tables_number   1
_chemical_formula_structural   Cs4Fe2O5
_chemical_formula_sum   'Cs8 Fe4 O10'
_cell_volume   522.60922063
_cell_formula_units_Z   2
loop_
 _symmetry_equiv_pos_site_id
 _symmetry_equiv_pos_as_xyz
  1  'x, y, z'
loop_
 _atom_site_type_symbol
 _atom_site_label
 _atom_site_symmetry_multiplicity
 _atom_site_fract_x
 _atom_site_fract_y
 _atom_site_fract_z
 _atom_site_occupancy
  Cs  Cs0  1  0.46675600  0.53324400  0.25000000  1
  Cs  Cs1  1  0.53324400  0.46675600  0.75000000  1
  Cs  Cs2  1  0.01724400  0.98275600  0.25000000  1
  Cs  Cs3  1  0.98275600  0.01724400  0.75000000  1
  Cs  Cs4  1  0.83336800  0.47434900  0.38462100  1
  Cs  Cs5  1  0.52565100  0.16663200  0.11537900  1
  Cs  Cs6  1  0.16663200  0.52565100  0.61537900  1
  Cs  Cs7  1  0.47434900  0.83336800  0.88462100  1
  Fe  Fe8  1  0.99217400  0.30804400  0.09803100  1
  Fe  Fe9  1  0.69195600  0.00782600  0.40196900  1
  Fe  Fe10  1  0.00782600  0.69195600  0.90196900  1
  Fe  Fe11  1  0.30804400  0.99217400  0.59803100  1
  O  O12  1  0.96627800  0.27351300  0.35651600  1
  O  O13  1  0.72648700  0.03372200  0.14348400  1
  O  O14  1  0.03372200  0.72648700  0.64348400  1
  O  O15  1  0.27351300  0.96627800  0.85651600  1
  O  O16  1  0.00000000  0.50000000  0.00000000  1
  O  O17  1  0.50000000  0.00000000  0.50000000  1
  O  O18  1  0.80260300  0.64075200  0.03189600  1
  O  O19  1  0.35924800  0.19739700  0.46810400  1
  O  O20  1  0.19739700  0.35924800  0.96810400  1
  O  O21  1  0.64075200  0.80260300  0.53189600  1
