# generated using pymatgen
data_Pr2MgPtO6
_symmetry_space_group_name_H-M   'P 1'
_cell_length_a   5.77003600
_cell_length_b   5.54786500
_cell_length_c   9.66456040
_cell_angle_alpha   55.15793998
_cell_angle_beta   90.00000000
_cell_angle_gamma   90.00000000
_symmetry_Int_Tables_number   1
_chemical_formula_structural   Pr2MgPtO6
_chemical_formula_sum   'Pr4 Mg2 Pt2 O12'
_cell_volume   253.91411224
_cell_formula_units_Z   2
loop_
 _symmetry_equiv_pos_site_id
 _symmetry_equiv_pos_as_xyz
  1  'x, y, z'
loop_
 _atom_site_type_symbol
 _atom_site_label
 _atom_site_symmetry_multiplicity
 _atom_site_fract_x
 _atom_site_fract_y
 _atom_site_fract_z
 _atom_site_occupancy
  Pr  Pr0  1  0.44109400  0.23503500  0.74952500  1
  Pr  Pr1  1  0.55890600  0.76496500  0.25047500  1
  Pr  Pr2  1  0.94109400  0.76496500  0.75047500  1
  Pr  Pr3  1  0.05890600  0.23503500  0.24952500  1
  Mg  Mg4  1  0.00000000  0.50000000  0.50000000  1
  Mg  Mg5  1  0.50000000  0.50000000  0.00000000  1
  Pt  Pt6  1  0.00000000  0.00000000  0.00000000  1
  Pt  Pt7  1  0.50000000  0.00000000  0.50000000  1
  O  O8  1  0.02972400  0.34370200  0.75193900  1
  O  O9  1  0.97027600  0.65629800  0.24806100  1
  O  O10  1  0.52972400  0.65629800  0.74806100  1
  O  O11  1  0.47027600  0.34370200  0.25193900  1
  O  O12  1  0.70623100  0.85392200  0.94849600  1
  O  O13  1  0.29376900  0.14607800  0.05150400  1
  O  O14  1  0.20623100  0.14607800  0.55150400  1
  O  O15  1  0.79376900  0.85392200  0.44849600  1
  O  O16  1  0.20211900  0.75264800  0.95028600  1
  O  O17  1  0.79788100  0.24735200  0.04971400  1
  O  O18  1  0.70211900  0.24735200  0.54971400  1
  O  O19  1  0.29788100  0.75264800  0.45028600  1
