# generated using pymatgen
data_Rb2CuF4
_symmetry_space_group_name_H-M   'P 1'
_cell_length_a   7.43652633
_cell_length_b   7.43652633
_cell_length_c   7.43652633
_cell_angle_alpha   146.82783357
_cell_angle_beta   146.82783357
_cell_angle_gamma   47.61877051
_symmetry_Int_Tables_number   1
_chemical_formula_structural   Rb2CuF4
_chemical_formula_sum   'Rb2 Cu1 F4'
_cell_volume   122.63601175
_cell_formula_units_Z   1
loop_
 _symmetry_equiv_pos_site_id
 _symmetry_equiv_pos_as_xyz
  1  'x, y, z'
loop_
 _atom_site_type_symbol
 _atom_site_label
 _atom_site_symmetry_multiplicity
 _atom_site_fract_x
 _atom_site_fract_y
 _atom_site_fract_z
 _atom_site_occupancy
  Rb  Rb0  1  0.35624800  0.35624800  0.00000000  1
  Rb  Rb1  1  0.64375200  0.64375200  0.00000000  1
  Cu  Cu2  1  0.00000000  0.00000000  0.00000000  1
  F  F3  1  0.14523700  0.14523700  0.00000000  1
  F  F4  1  0.85476300  0.85476300  0.00000000  1
  F  F5  1  0.50000000  0.00000000  0.50000000  1
  F  F6  1  0.00000000  0.50000000  0.50000000  1
