# generated using pymatgen
data_Te2P2O9
_symmetry_space_group_name_H-M   'P 1'
_cell_length_a   7.44928818
_cell_length_b   7.44928818
_cell_length_c   9.71702434
_cell_angle_alpha   85.16466262
_cell_angle_beta   85.16466262
_cell_angle_gamma   137.23787118
_symmetry_Int_Tables_number   1
_chemical_formula_structural   Te2P2O9
_chemical_formula_sum   'Te4 P4 O18'
_cell_volume   356.18399302
_cell_formula_units_Z   2
loop_
 _symmetry_equiv_pos_site_id
 _symmetry_equiv_pos_as_xyz
  1  'x, y, z'
loop_
 _atom_site_type_symbol
 _atom_site_label
 _atom_site_symmetry_multiplicity
 _atom_site_fract_x
 _atom_site_fract_y
 _atom_site_fract_z
 _atom_site_occupancy
  Te  Te0  1  0.63099300  0.05134400  0.43570100  1
  Te  Te1  1  0.05134400  0.63099300  0.93570100  1
  Te  Te2  1  0.60310600  0.54103500  0.19713700  1
  Te  Te3  1  0.54103500  0.60310600  0.69713700  1
  P  P4  1  0.00172800  0.19537600  0.14046000  1
  P  P5  1  0.19537600  0.00172800  0.64046000  1
  P  P6  1  0.22087400  0.85467300  0.23271100  1
  P  P7  1  0.85467300  0.22087400  0.73271100  1
  O  O8  1  0.89189500  0.29844600  0.09209700  1
  O  O9  1  0.29844600  0.89189500  0.59209700  1
  O  O10  1  0.33840400  0.77280800  0.30317200  1
  O  O11  1  0.77280800  0.33840400  0.80317200  1
  O  O12  1  0.89625300  0.27855100  0.56856500  1
  O  O13  1  0.27855100  0.89625300  0.06856500  1
  O  O14  1  0.93439700  0.12080700  0.30533100  1
  O  O15  1  0.12080700  0.93439700  0.80533100  1
  O  O16  1  0.51273800  0.72827600  0.52640600  1
  O  O17  1  0.72827600  0.51273800  0.02640600  1
  O  O18  1  0.35655700  0.12337400  0.27400300  1
  O  O19  1  0.12337400  0.35655700  0.77400300  1
  O  O20  1  0.31355000  0.42150500  0.08098900  1
  O  O21  1  0.42150500  0.31355000  0.58098900  1
  O  O22  1  0.86724100  0.93947800  0.08291900  1
  O  O23  1  0.93947800  0.86724100  0.58291900  1
  O  O24  1  0.90841500  0.62661500  0.28952800  1
  O  O25  1  0.62661500  0.90841500  0.78952800  1
