# generated using pymatgen
data_HoPPd
_symmetry_space_group_name_H-M   'P 1'
_cell_length_a   4.00349100
_cell_length_b   6.89551900
_cell_length_c   7.74365100
_cell_angle_alpha   90.00000000
_cell_angle_beta   90.00000000
_cell_angle_gamma   90.00000000
_symmetry_Int_Tables_number   1
_chemical_formula_structural   HoPPd
_chemical_formula_sum   'Ho4 P4 Pd4'
_cell_volume   213.77237756
_cell_formula_units_Z   4
loop_
 _symmetry_equiv_pos_site_id
 _symmetry_equiv_pos_as_xyz
  1  'x, y, z'
loop_
 _atom_site_type_symbol
 _atom_site_label
 _atom_site_symmetry_multiplicity
 _atom_site_fract_x
 _atom_site_fract_y
 _atom_site_fract_z
 _atom_site_occupancy
  Ho  Ho0  1  0.25000000  0.52887900  0.18683500  1
  Ho  Ho1  1  0.75000000  0.47112100  0.81316500  1
  Ho  Ho2  1  0.75000000  0.97112100  0.68683500  1
  Ho  Ho3  1  0.25000000  0.02887900  0.31316500  1
  P  P4  1  0.25000000  0.75257900  0.87727100  1
  P  P5  1  0.75000000  0.24742100  0.12272900  1
  P  P6  1  0.75000000  0.74742100  0.37727100  1
  P  P7  1  0.25000000  0.25257900  0.62272900  1
  Pd  Pd8  1  0.25000000  0.64831200  0.56145300  1
  Pd  Pd9  1  0.75000000  0.35168800  0.43854700  1
  Pd  Pd10  1  0.75000000  0.85168800  0.06145300  1
  Pd  Pd11  1  0.25000000  0.14831200  0.93854700  1
