# generated using pymatgen
data_Sr7Ag3
_symmetry_space_group_name_H-M   'P 1'
_cell_length_a   11.33538803
_cell_length_b   11.33538803
_cell_length_c   7.35013000
_cell_angle_alpha   90.00000000
_cell_angle_beta   90.00000000
_cell_angle_gamma   120.00000015
_symmetry_Int_Tables_number   1
_chemical_formula_structural   Sr7Ag3
_chemical_formula_sum   'Sr14 Ag6'
_cell_volume   817.89665850
_cell_formula_units_Z   2
loop_
 _symmetry_equiv_pos_site_id
 _symmetry_equiv_pos_as_xyz
  1  'x, y, z'
loop_
 _atom_site_type_symbol
 _atom_site_label
 _atom_site_symmetry_multiplicity
 _atom_site_fract_x
 _atom_site_fract_y
 _atom_site_fract_z
 _atom_site_occupancy
  Sr  Sr0  1  0.66666700  0.33333300  0.55123200  1
  Sr  Sr1  1  0.33333300  0.66666700  0.05123200  1
  Sr  Sr2  1  0.87447300  0.74894700  0.75227300  1
  Sr  Sr3  1  0.25105300  0.12552700  0.75227300  1
  Sr  Sr4  1  0.87447300  0.12552700  0.75227300  1
  Sr  Sr5  1  0.12552700  0.25105300  0.25227300  1
  Sr  Sr6  1  0.74894700  0.87447300  0.25227300  1
  Sr  Sr7  1  0.12552700  0.87447300  0.25227300  1
  Sr  Sr8  1  0.45844400  0.91688700  0.56159800  1
  Sr  Sr9  1  0.08311300  0.54155600  0.56159800  1
  Sr  Sr10  1  0.45844400  0.54155600  0.56159800  1
  Sr  Sr11  1  0.54155600  0.08311300  0.06159800  1
  Sr  Sr12  1  0.91688700  0.45844400  0.06159800  1
  Sr  Sr13  1  0.54155600  0.45844400  0.06159800  1
  Ag  Ag14  1  0.18840800  0.37681700  0.83102600  1
  Ag  Ag15  1  0.62318300  0.81159200  0.83102600  1
  Ag  Ag16  1  0.18840800  0.81159200  0.83102600  1
  Ag  Ag17  1  0.81159200  0.62318300  0.33102600  1
  Ag  Ag18  1  0.37681700  0.18840800  0.33102600  1
  Ag  Ag19  1  0.81159200  0.18840800  0.33102600  1
