# generated using pymatgen
data_Ba3Sc(BO3)3
_symmetry_space_group_name_H-M   'P 1'
_cell_length_a   9.36296564
_cell_length_b   9.36296564
_cell_length_c   17.64879800
_cell_angle_alpha   90.00000000
_cell_angle_beta   90.00000000
_cell_angle_gamma   119.99999749
_symmetry_Int_Tables_number   1
_chemical_formula_structural   Ba3Sc(BO3)3
_chemical_formula_sum   'Ba18 Sc6 B18 O54'
_cell_volume   1339.90076397
_cell_formula_units_Z   6
loop_
 _symmetry_equiv_pos_site_id
 _symmetry_equiv_pos_as_xyz
  1  'x, y, z'
loop_
 _atom_site_type_symbol
 _atom_site_label
 _atom_site_symmetry_multiplicity
 _atom_site_fract_x
 _atom_site_fract_y
 _atom_site_fract_z
 _atom_site_occupancy
  Ba  Ba0  1  0.66666700  0.33333300  0.05857500  1
  Ba  Ba1  1  0.33333300  0.66666700  0.55857500  1
  Ba  Ba2  1  0.66666700  0.33333300  0.55857500  1
  Ba  Ba3  1  0.33333300  0.66666700  0.05857500  1
  Ba  Ba4  1  0.34760600  0.00000000  0.40699600  1
  Ba  Ba5  1  0.34760600  0.34760600  0.90699600  1
  Ba  Ba6  1  0.00000000  0.65239400  0.90699600  1
  Ba  Ba7  1  0.00000000  0.34760600  0.40699600  1
  Ba  Ba8  1  0.65239400  0.65239400  0.40699600  1
  Ba  Ba9  1  0.65239400  0.00000000  0.90699600  1
  Ba  Ba10  1  0.31819500  0.00000000  0.65432000  1
  Ba  Ba11  1  0.31819500  0.31819500  0.15432000  1
  Ba  Ba12  1  0.00000000  0.68180500  0.15432000  1
  Ba  Ba13  1  0.00000000  0.31819500  0.65432000  1
  Ba  Ba14  1  0.68180500  0.68180500  0.65432000  1
  Ba  Ba15  1  0.68180500  0.00000000  0.15432000  1
  Ba  Ba16  1  0.00000000  0.00000000  0.49703200  1
  Ba  Ba17  1  0.00000000  0.00000000  0.99703200  1
  Sc  Sc18  1  0.00000000  0.00000000  0.78410400  1
  Sc  Sc19  1  0.00000000  0.00000000  0.28410400  1
  Sc  Sc20  1  0.33333300  0.66666700  0.27729600  1
  Sc  Sc21  1  0.66666700  0.33333300  0.77729600  1
  Sc  Sc22  1  0.33333300  0.66666700  0.77729600  1
  Sc  Sc23  1  0.66666700  0.33333300  0.27729600  1
  B  B24  1  0.66090400  0.00000000  0.70762300  1
  B  B25  1  0.66090400  0.66090400  0.20762300  1
  B  B26  1  0.00000000  0.33909600  0.20762300  1
  B  B27  1  0.00000000  0.66090400  0.70762300  1
  B  B28  1  0.33909600  0.33909600  0.70762300  1
  B  B29  1  0.33909600  0.00000000  0.20762300  1
  B  B30  1  0.67246600  0.00000000  0.34821500  1
  B  B31  1  0.67246600  0.67246600  0.84821500  1
  B  B32  1  0.00000000  0.32753400  0.84821500  1
  B  B33  1  0.00000000  0.67246600  0.34821500  1
  B  B34  1  0.32753400  0.32753400  0.34821500  1
  B  B35  1  0.32753400  0.00000000  0.84821500  1
  B  B36  1  0.66736400  0.00000000  0.52942600  1
  B  B37  1  0.66736400  0.66736400  0.02942600  1
  B  B38  1  0.00000000  0.33263600  0.02942600  1
  B  B39  1  0.00000000  0.66736400  0.52942600  1
  B  B40  1  0.33263600  0.33263600  0.52942600  1
  B  B41  1  0.33263600  0.00000000  0.02942600  1
  O  O42  1  0.67272400  0.52394300  0.84406500  1
  O  O43  1  0.47605700  0.14878100  0.84406500  1
  O  O44  1  0.85121900  0.32727600  0.84406500  1
  O  O45  1  0.14878100  0.67272400  0.34406500  1
  O  O46  1  0.32727600  0.47605700  0.34406500  1
  O  O47  1  0.52394300  0.85121900  0.34406500  1
  O  O48  1  0.67272400  0.14878100  0.34406500  1
  O  O49  1  0.52394300  0.67272400  0.84406500  1
  O  O50  1  0.14878100  0.47605700  0.84406500  1
  O  O51  1  0.85121900  0.52394300  0.34406500  1
  O  O52  1  0.47605700  0.32727600  0.34406500  1
  O  O53  1  0.32727600  0.85121900  0.84406500  1
  O  O54  1  0.66726300  0.81590200  0.02984500  1
  O  O55  1  0.18409800  0.85136200  0.02984500  1
  O  O56  1  0.14863800  0.33273700  0.02984500  1
  O  O57  1  0.85136200  0.66726300  0.52984500  1
  O  O58  1  0.33273700  0.18409800  0.52984500  1
  O  O59  1  0.81590200  0.14863800  0.52984500  1
  O  O60  1  0.66726300  0.85136200  0.52984500  1
  O  O61  1  0.81590200  0.66726300  0.02984500  1
  O  O62  1  0.85136200  0.18409800  0.02984500  1
  O  O63  1  0.14863800  0.81590200  0.52984500  1
  O  O64  1  0.18409800  0.33273700  0.52984500  1
  O  O65  1  0.33273700  0.14863800  0.02984500  1
  O  O66  1  0.82021200  0.00000000  0.35797800  1
  O  O67  1  0.82021200  0.82021200  0.85797800  1
  O  O68  1  0.00000000  0.17978800  0.85797800  1
  O  O69  1  0.00000000  0.82021200  0.35797800  1
  O  O70  1  0.17978800  0.17978800  0.35797800  1
  O  O71  1  0.17978800  0.00000000  0.85797800  1
  O  O72  1  0.80944500  0.00000000  0.71650000  1
  O  O73  1  0.80944500  0.80944500  0.21650000  1
  O  O74  1  0.00000000  0.19055500  0.21650000  1
  O  O75  1  0.00000000  0.80944500  0.71650000  1
  O  O76  1  0.19055500  0.19055500  0.71650000  1
  O  O77  1  0.19055500  0.00000000  0.21650000  1
  O  O78  1  0.51873800  0.00000000  0.52931900  1
  O  O79  1  0.51873800  0.51873800  0.02931900  1
  O  O80  1  0.00000000  0.48126200  0.02931900  1
  O  O81  1  0.00000000  0.51873800  0.52931900  1
  O  O82  1  0.48126200  0.48126200  0.52931900  1
  O  O83  1  0.48126200  0.00000000  0.02931900  1
  O  O84  1  0.48732000  0.14909300  0.20210600  1
  O  O85  1  0.85090700  0.33822700  0.20210600  1
  O  O86  1  0.66177300  0.51268000  0.20210600  1
  O  O87  1  0.33822700  0.48732000  0.70210600  1
  O  O88  1  0.51268000  0.85090700  0.70210600  1
  O  O89  1  0.14909300  0.66177300  0.70210600  1
  O  O90  1  0.48732000  0.33822700  0.70210600  1
  O  O91  1  0.14909300  0.48732000  0.20210600  1
  O  O92  1  0.33822700  0.85090700  0.20210600  1
  O  O93  1  0.66177300  0.14909300  0.70210600  1
  O  O94  1  0.85090700  0.51268000  0.70210600  1
  O  O95  1  0.51268000  0.66177300  0.20210600  1
