# generated using pymatgen
data_Pr5(In2Pt)2
_symmetry_space_group_name_H-M   'P 1'
_cell_length_a   3.83730800
_cell_length_b   8.42038700
_cell_length_c   18.92453700
_cell_angle_alpha   90.00000000
_cell_angle_beta   90.00000000
_cell_angle_gamma   90.00000000
_symmetry_Int_Tables_number   1
_chemical_formula_structural   Pr5(In2Pt)2
_chemical_formula_sum   'Pr10 In8 Pt4'
_cell_volume   611.48241791
_cell_formula_units_Z   2
loop_
 _symmetry_equiv_pos_site_id
 _symmetry_equiv_pos_as_xyz
  1  'x, y, z'
loop_
 _atom_site_type_symbol
 _atom_site_label
 _atom_site_symmetry_multiplicity
 _atom_site_fract_x
 _atom_site_fract_y
 _atom_site_fract_z
 _atom_site_occupancy
  Pr  Pr0  1  0.00000000  0.11620300  0.41292600  1
  Pr  Pr1  1  0.00000000  0.88379700  0.58707400  1
  Pr  Pr2  1  0.00000000  0.38379700  0.91292600  1
  Pr  Pr3  1  0.00000000  0.61620300  0.08707400  1
  Pr  Pr4  1  0.00000000  0.24534800  0.21936300  1
  Pr  Pr5  1  0.00000000  0.75465200  0.78063700  1
  Pr  Pr6  1  0.00000000  0.25465200  0.71936300  1
  Pr  Pr7  1  0.00000000  0.74534800  0.28063700  1
  Pr  Pr8  1  0.00000000  0.00000000  0.00000000  1
  Pr  Pr9  1  0.00000000  0.50000000  0.50000000  1
  In  In10  1  0.50000000  0.42632700  0.34830900  1
  In  In11  1  0.50000000  0.57367300  0.65169100  1
  In  In12  1  0.50000000  0.07367300  0.84830900  1
  In  In13  1  0.50000000  0.92632700  0.15169100  1
  In  In14  1  0.50000000  0.29294900  0.06803600  1
  In  In15  1  0.50000000  0.70705100  0.93196400  1
  In  In16  1  0.50000000  0.20705100  0.56803600  1
  In  In17  1  0.50000000  0.79294900  0.43196400  1
  Pt  Pt18  1  0.50000000  0.02171400  0.30238700  1
  Pt  Pt19  1  0.50000000  0.97828600  0.69761300  1
  Pt  Pt20  1  0.50000000  0.47828600  0.80238700  1
  Pt  Pt21  1  0.50000000  0.52171400  0.19761300  1
