# generated using pymatgen
data_SrTi4(PO4)6
_symmetry_space_group_name_H-M   'P 1'
_cell_length_a   9.03371383
_cell_length_b   9.03371383
_cell_length_c   9.03371442
_cell_angle_alpha   55.98420759
_cell_angle_beta   55.98420759
_cell_angle_gamma   55.98421537
_symmetry_Int_Tables_number   1
_chemical_formula_structural   SrTi4(PO4)6
_chemical_formula_sum   'Sr1 Ti4 P6 O24'
_cell_volume   472.79385116
_cell_formula_units_Z   1
loop_
 _symmetry_equiv_pos_site_id
 _symmetry_equiv_pos_as_xyz
  1  'x, y, z'
loop_
 _atom_site_type_symbol
 _atom_site_label
 _atom_site_symmetry_multiplicity
 _atom_site_fract_x
 _atom_site_fract_y
 _atom_site_fract_z
 _atom_site_occupancy
  Sr  Sr0  1  0.00000000  0.00000000  0.00000000  1
  Ti  Ti1  1  0.64392100  0.64392100  0.64392100  1
  Ti  Ti2  1  0.35607900  0.35607900  0.35607900  1
  Ti  Ti3  1  0.14972200  0.14972200  0.14972200  1
  Ti  Ti4  1  0.85027800  0.85027800  0.85027800  1
  P  P5  1  0.53728800  0.96946900  0.24855400  1
  P  P6  1  0.96946900  0.24855400  0.53728800  1
  P  P7  1  0.24855400  0.53728800  0.96946900  1
  P  P8  1  0.46271200  0.03053100  0.75144600  1
  P  P9  1  0.03053100  0.75144600  0.46271200  1
  P  P10  1  0.75144600  0.46271200  0.03053100  1
  O  O11  1  0.81106500  0.44616900  0.53657500  1
  O  O12  1  0.44616900  0.53657500  0.81106500  1
  O  O13  1  0.53657500  0.81106500  0.44616900  1
  O  O14  1  0.18893500  0.55383100  0.46342500  1
  O  O15  1  0.55383100  0.46342500  0.18893500  1
  O  O16  1  0.46342500  0.18893500  0.55383100  1
  O  O17  1  0.27001100  0.09392000  0.90829200  1
  O  O18  1  0.09392000  0.90829200  0.27001100  1
  O  O19  1  0.90829200  0.27001100  0.09392000  1
  O  O20  1  0.72998900  0.90608000  0.09170800  1
  O  O21  1  0.90608000  0.09170800  0.72998900  1
  O  O22  1  0.78916800  0.62679100  0.00037200  1
  O  O23  1  0.00037200  0.78916800  0.62679100  1
  O  O24  1  0.62679100  0.00037200  0.78916800  1
  O  O25  1  0.21083200  0.37320900  0.99962800  1
  O  O26  1  0.99962800  0.21083200  0.37320900  1
  O  O27  1  0.37320900  0.99962800  0.21083200  1
  O  O28  1  0.15591400  0.23660700  0.51829600  1
  O  O29  1  0.51829600  0.15591400  0.23660700  1
  O  O30  1  0.23660700  0.51829600  0.15591400  1
  O  O31  1  0.84408600  0.76339300  0.48170400  1
  O  O32  1  0.48170400  0.84408600  0.76339300  1
  O  O33  1  0.76339300  0.48170400  0.84408600  1
  O  O34  1  0.09170800  0.72998900  0.90608000  1
