# generated using pymatgen
data_Fe2Ni3H4(Se3O10)2
_symmetry_space_group_name_H-M   'P 1'
_cell_length_a   6.53449500
_cell_length_b   8.07049929
_cell_length_c   8.94480021
_cell_angle_alpha   85.33614772
_cell_angle_beta   78.36098424
_cell_angle_gamma   76.49827431
_symmetry_Int_Tables_number   1
_chemical_formula_structural   Fe2Ni3H4(Se3O10)2
_chemical_formula_sum   'Fe2 Ni3 H4 Se6 O20'
_cell_volume   448.96048665
_cell_formula_units_Z   1
loop_
 _symmetry_equiv_pos_site_id
 _symmetry_equiv_pos_as_xyz
  1  'x, y, z'
loop_
 _atom_site_type_symbol
 _atom_site_label
 _atom_site_symmetry_multiplicity
 _atom_site_fract_x
 _atom_site_fract_y
 _atom_site_fract_z
 _atom_site_occupancy
  Fe  Fe0  1  0.13533400  0.39732000  0.11882800  1
  Fe  Fe1  1  0.86466600  0.60268000  0.88117200  1
  Ni  Ni2  1  0.30937800  0.67514600  0.26543800  1
  Ni  Ni3  1  0.69062200  0.32485400  0.73456200  1
  Ni  Ni4  1  0.50000000  0.00000000  0.00000000  1
  H  H5  1  0.12962500  0.63456300  0.55758000  1
  H  H6  1  0.87037500  0.36543700  0.44242000  1
  H  H7  1  0.31415500  0.46609500  0.53546800  1
  H  H8  1  0.68584500  0.53390500  0.46453200  1
  Se  Se9  1  0.66786200  0.28887200  0.12946800  1
  Se  Se10  1  0.33213800  0.71112800  0.87053200  1
  Se  Se11  1  0.23635300  0.07395900  0.36901800  1
  Se  Se12  1  0.76364700  0.92604100  0.63098200  1
  Se  Se13  1  0.20311600  0.21377000  0.77523200  1
  Se  Se14  1  0.79688400  0.78623000  0.22476800  1
  O  O15  1  0.24794600  0.57019200  0.48219300  1
  O  O16  1  0.75205400  0.42980800  0.51780700  1
  O  O17  1  0.40061800  0.31064700  0.68244400  1
  O  O18  1  0.59938200  0.68935300  0.31755600  1
  O  O19  1  0.23305600  0.20237800  0.96950800  1
  O  O20  1  0.76694400  0.79762200  0.03049200  1
  O  O21  1  0.02294500  0.61957400  0.23279000  1
  O  O22  1  0.97705500  0.38042600  0.76721000  1
  O  O23  1  0.45904600  0.05529700  0.22281500  1
  O  O24  1  0.54095400  0.94470300  0.77718500  1
  O  O25  1  0.05886200  0.24651000  0.29567100  1
  O  O26  1  0.94113800  0.75349000  0.70432900  1
  O  O27  1  0.13325900  0.90523000  0.34820000  1
  O  O28  1  0.86674100  0.09477000  0.65180000  1
  O  O29  1  0.32987800  0.79915400  0.03967300  1
  O  O30  1  0.67012200  0.20084600  0.96032700  1
  O  O31  1  0.83068700  0.43894200  0.07090300  1
  O  O32  1  0.16931300  0.56105800  0.92909700  1
  O  O33  1  0.41563200  0.43068100  0.16347800  1
  O  O34  1  0.58436800  0.56931900  0.83652200  1
