# generated using pymatgen
data_Ho6Al43W4
_symmetry_space_group_name_H-M   'P 1'
_cell_length_a   11.05877244
_cell_length_b   11.05877244
_cell_length_c   17.59348600
_cell_angle_alpha   90.00000000
_cell_angle_beta   90.00000000
_cell_angle_gamma   120.00000266
_symmetry_Int_Tables_number   1
_chemical_formula_structural   Ho6Al43W4
_chemical_formula_sum   'Ho12 Al86 W8'
_cell_volume   1863.35826149
_cell_formula_units_Z   2
loop_
 _symmetry_equiv_pos_site_id
 _symmetry_equiv_pos_as_xyz
  1  'x, y, z'
loop_
 _atom_site_type_symbol
 _atom_site_label
 _atom_site_symmetry_multiplicity
 _atom_site_fract_x
 _atom_site_fract_y
 _atom_site_fract_z
 _atom_site_occupancy
  Ho  Ho0  1  0.46850700  0.46850700  0.90426900  1
  Ho  Ho1  1  0.53149300  0.00000000  0.90426900  1
  Ho  Ho2  1  0.00000000  0.53149300  0.90426900  1
  Ho  Ho3  1  0.53149300  0.53149300  0.09573100  1
  Ho  Ho4  1  0.46850700  0.00000000  0.09573100  1
  Ho  Ho5  1  0.00000000  0.46850700  0.09573100  1
  Ho  Ho6  1  0.53149300  0.53149300  0.40426900  1
  Ho  Ho7  1  0.46850700  0.00000000  0.40426900  1
  Ho  Ho8  1  0.00000000  0.46850700  0.40426900  1
  Ho  Ho9  1  0.46850700  0.46850700  0.59573100  1
  Ho  Ho10  1  0.53149300  0.00000000  0.59573100  1
  Ho  Ho11  1  0.00000000  0.53149300  0.59573100  1
  Al  Al12  1  0.84178000  0.23660700  0.83636100  1
  Al  Al13  1  0.76339300  0.60517300  0.83636100  1
  Al  Al14  1  0.39482700  0.15822000  0.83636100  1
  Al  Al15  1  0.23660700  0.84178000  0.83636100  1
  Al  Al16  1  0.60517300  0.76339300  0.83636100  1
  Al  Al17  1  0.15822000  0.39482700  0.83636100  1
  Al  Al18  1  0.15822000  0.76339300  0.16363900  1
  Al  Al19  1  0.23660700  0.39482700  0.16363900  1
  Al  Al20  1  0.60517300  0.84178000  0.16363900  1
  Al  Al21  1  0.76339300  0.15822000  0.16363900  1
  Al  Al22  1  0.39482700  0.23660700  0.16363900  1
  Al  Al23  1  0.84178000  0.60517300  0.16363900  1
  Al  Al24  1  0.15822000  0.76339300  0.33636100  1
  Al  Al25  1  0.23660700  0.39482700  0.33636100  1
  Al  Al26  1  0.60517300  0.84178000  0.33636100  1
  Al  Al27  1  0.76339300  0.15822000  0.33636100  1
  Al  Al28  1  0.39482700  0.23660700  0.33636100  1
  Al  Al29  1  0.84178000  0.60517300  0.33636100  1
  Al  Al30  1  0.84178000  0.23660700  0.66363900  1
  Al  Al31  1  0.76339300  0.60517300  0.66363900  1
  Al  Al32  1  0.39482700  0.15822000  0.66363900  1
  Al  Al33  1  0.23660700  0.84178000  0.66363900  1
  Al  Al34  1  0.60517300  0.76339300  0.66363900  1
  Al  Al35  1  0.15822000  0.39482700  0.66363900  1
  Al  Al36  1  0.84080600  0.84080600  0.38503700  1
  Al  Al37  1  0.15919400  0.00000000  0.38503700  1
  Al  Al38  1  0.00000000  0.15919400  0.38503700  1
  Al  Al39  1  0.15919400  0.15919400  0.61496300  1
  Al  Al40  1  0.84080600  0.00000000  0.61496300  1
  Al  Al41  1  0.00000000  0.84080600  0.61496300  1
  Al  Al42  1  0.15919400  0.15919400  0.88503700  1
  Al  Al43  1  0.84080600  0.00000000  0.88503700  1
  Al  Al44  1  0.00000000  0.84080600  0.88503700  1
  Al  Al45  1  0.84080600  0.84080600  0.11496300  1
  Al  Al46  1  0.15919400  0.00000000  0.11496300  1
  Al  Al47  1  0.00000000  0.15919400  0.11496300  1
  Al  Al48  1  0.74572800  0.74572800  0.96916200  1
  Al  Al49  1  0.25427200  0.00000000  0.96916200  1
  Al  Al50  1  0.00000000  0.25427200  0.96916200  1
  Al  Al51  1  0.25427200  0.25427200  0.03083800  1
  Al  Al52  1  0.74572800  0.00000000  0.03083800  1
  Al  Al53  1  0.00000000  0.74572800  0.03083800  1
  Al  Al54  1  0.25427200  0.25427200  0.46916200  1
  Al  Al55  1  0.74572800  0.00000000  0.46916200  1
  Al  Al56  1  0.00000000  0.74572800  0.46916200  1
  Al  Al57  1  0.74572800  0.74572800  0.53083800  1
  Al  Al58  1  0.25427200  0.00000000  0.53083800  1
  Al  Al59  1  0.00000000  0.25427200  0.53083800  1
  Al  Al60  1  0.85272200  0.44781200  0.75000000  1
  Al  Al61  1  0.55218800  0.40491000  0.75000000  1
  Al  Al62  1  0.59509000  0.14727800  0.75000000  1
  Al  Al63  1  0.44781200  0.85272200  0.75000000  1
  Al  Al64  1  0.40491000  0.55218800  0.75000000  1
  Al  Al65  1  0.14727800  0.59509000  0.75000000  1
  Al  Al66  1  0.14727800  0.55218800  0.25000000  1
  Al  Al67  1  0.44781200  0.59509000  0.25000000  1
  Al  Al68  1  0.40491000  0.85272200  0.25000000  1
  Al  Al69  1  0.55218800  0.14727800  0.25000000  1
  Al  Al70  1  0.59509000  0.44781200  0.25000000  1
  Al  Al71  1  0.85272200  0.40491000  0.25000000  1
  Al  Al72  1  0.75319700  0.24680300  0.00000000  1
  Al  Al73  1  0.75319700  0.50639400  0.00000000  1
  Al  Al74  1  0.49360600  0.24680300  0.00000000  1
  Al  Al75  1  0.24680300  0.75319700  0.00000000  1
  Al  Al76  1  0.50639400  0.75319700  0.00000000  1
  Al  Al77  1  0.24680300  0.49360600  0.00000000  1
  Al  Al78  1  0.24680300  0.75319700  0.50000000  1
  Al  Al79  1  0.24680300  0.49360600  0.50000000  1
  Al  Al80  1  0.50639400  0.75319700  0.50000000  1
  Al  Al81  1  0.75319700  0.24680300  0.50000000  1
  Al  Al82  1  0.49360600  0.24680300  0.50000000  1
  Al  Al83  1  0.75319700  0.50639400  0.50000000  1
  Al  Al84  1  0.66666700  0.33333300  0.87386300  1
  Al  Al85  1  0.33333300  0.66666700  0.87386300  1
  Al  Al86  1  0.33333300  0.66666700  0.12613700  1
  Al  Al87  1  0.66666700  0.33333300  0.12613700  1
  Al  Al88  1  0.33333300  0.66666700  0.37386300  1
  Al  Al89  1  0.66666700  0.33333300  0.37386300  1
  Al  Al90  1  0.66666700  0.33333300  0.62613700  1
  Al  Al91  1  0.33333300  0.66666700  0.62613700  1
  Al  Al92  1  0.85259800  0.85259800  0.75000000  1
  Al  Al93  1  0.14740200  0.00000000  0.75000000  1
  Al  Al94  1  0.00000000  0.14740200  0.75000000  1
  Al  Al95  1  0.14740200  0.14740200  0.25000000  1
  Al  Al96  1  0.85259800  0.00000000  0.25000000  1
  Al  Al97  1  0.00000000  0.85259800  0.25000000  1
  W  W98  1  0.27138500  0.27138500  0.75000000  1
  W  W99  1  0.72861500  0.00000000  0.75000000  1
  W  W100  1  0.00000000  0.72861500  0.75000000  1
  W  W101  1  0.72861500  0.72861500  0.25000000  1
  W  W102  1  0.27138500  0.00000000  0.25000000  1
  W  W103  1  0.00000000  0.27138500  0.25000000  1
  W  W104  1  0.00000000  0.00000000  0.00000000  1
  W  W105  1  0.00000000  0.00000000  0.50000000  1
