# generated using pymatgen
data_Er3Rh
_symmetry_space_group_name_H-M   'P 1'
_cell_length_a   6.26177200
_cell_length_b   7.11763500
_cell_length_c   9.35307100
_cell_angle_alpha   90.00000000
_cell_angle_beta   90.00000000
_cell_angle_gamma   90.00000000
_symmetry_Int_Tables_number   1
_chemical_formula_structural   Er3Rh
_chemical_formula_sum   'Er12 Rh4'
_cell_volume   416.85709201
_cell_formula_units_Z   4
loop_
 _symmetry_equiv_pos_site_id
 _symmetry_equiv_pos_as_xyz
  1  'x, y, z'
loop_
 _atom_site_type_symbol
 _atom_site_label
 _atom_site_symmetry_multiplicity
 _atom_site_fract_x
 _atom_site_fract_y
 _atom_site_fract_z
 _atom_site_occupancy
  Er  Er0  1  0.67253600  0.17791800  0.06295300  1
  Er  Er1  1  0.17253600  0.32208200  0.93704700  1
  Er  Er2  1  0.82746400  0.67791800  0.43704700  1
  Er  Er3  1  0.32746400  0.82208200  0.56295300  1
  Er  Er4  1  0.32746400  0.82208200  0.93704700  1
  Er  Er5  1  0.82746400  0.67791800  0.06295300  1
  Er  Er6  1  0.17253600  0.32208200  0.56295300  1
  Er  Er7  1  0.67253600  0.17791800  0.43704700  1
  Er  Er8  1  0.86504700  0.96492900  0.75000000  1
  Er  Er9  1  0.36504700  0.53507100  0.25000000  1
  Er  Er10  1  0.63495300  0.46492900  0.75000000  1
  Er  Er11  1  0.13495300  0.03507100  0.25000000  1
  Rh  Rh12  1  0.05232300  0.61593600  0.75000000  1
  Rh  Rh13  1  0.55232300  0.88406400  0.25000000  1
  Rh  Rh14  1  0.44767700  0.11593600  0.75000000  1
  Rh  Rh15  1  0.94767700  0.38406400  0.25000000  1
