# generated using pymatgen
data_NaCdIn2(PO4)3
_symmetry_space_group_name_H-M   'P 1'
_cell_length_a   6.69403788
_cell_length_b   9.13587038
_cell_length_c   9.13587001
_cell_angle_alpha   91.62272668
_cell_angle_beta   107.44731963
_cell_angle_gamma   107.44731934
_symmetry_Int_Tables_number   1
_chemical_formula_structural   NaCdIn2(PO4)3
_chemical_formula_sum   'Na2 Cd2 In4 P6 O24'
_cell_volume   504.17747070
_cell_formula_units_Z   2
loop_
 _symmetry_equiv_pos_site_id
 _symmetry_equiv_pos_as_xyz
  1  'x, y, z'
loop_
 _atom_site_type_symbol
 _atom_site_label
 _atom_site_symmetry_multiplicity
 _atom_site_fract_x
 _atom_site_fract_y
 _atom_site_fract_z
 _atom_site_occupancy
  Na  Na0  1  0.00000000  0.50000000  0.50000000  1
  Na  Na1  1  0.50000000  0.50000000  0.50000000  1
  Cd  Cd2  1  0.25000000  0.26048600  0.73951400  1
  Cd  Cd3  1  0.75000000  0.73951400  0.26048600  1
  In  In4  1  0.36884800  0.93040600  0.62900800  1
  In  In5  1  0.13115200  0.37099200  0.06959400  1
  In  In6  1  0.86884800  0.62900800  0.93040600  1
  In  In7  1  0.63115200  0.06959400  0.37099200  1
  P  P8  1  0.36607400  0.64749000  0.86564000  1
  P  P9  1  0.75000000  0.28715000  0.71285000  1
  P  P10  1  0.13392600  0.13436000  0.35251000  1
  P  P11  1  0.86607400  0.86564000  0.64749000  1
  P  P12  1  0.25000000  0.71285000  0.28715000  1
  P  P13  1  0.63392600  0.35251000  0.13436000  1
  O  O14  1  0.96004700  0.26430000  0.82824400  1
  O  O15  1  0.18056900  0.27191000  0.47361500  1
  O  O16  1  0.18744200  0.59138900  0.95038200  1
  O  O17  1  0.26091000  0.54652100  0.26720100  1
  O  O18  1  0.14204500  0.18498300  0.19542600  1
  O  O19  1  0.40496800  0.33388700  0.01008600  1
  O  O20  1  0.46004700  0.82824400  0.26430000  1
  O  O21  1  0.68056900  0.47361500  0.27191000  1
  O  O22  1  0.68744200  0.95038200  0.59138900  1
  O  O23  1  0.76091000  0.26720100  0.54652100  1
  O  O24  1  0.64204500  0.19542600  0.18498300  1
  O  O25  1  0.09503200  0.98991400  0.66611300  1
  O  O26  1  0.90496800  0.01008600  0.33388700  1
  O  O27  1  0.35795500  0.80457400  0.81501700  1
  O  O28  1  0.23909000  0.73279900  0.45347900  1
  O  O29  1  0.31255800  0.04961800  0.40861100  1
  O  O30  1  0.31943100  0.52638500  0.72809000  1
  O  O31  1  0.53995300  0.17175600  0.73570000  1
  O  O32  1  0.59503200  0.66611300  0.98991400  1
  O  O33  1  0.85795500  0.81501700  0.80457400  1
  O  O34  1  0.73909000  0.45347900  0.73279900  1
  O  O35  1  0.81255800  0.40861100  0.04961800  1
  O  O36  1  0.81943100  0.72809000  0.52638500  1
  O  O37  1  0.03995300  0.73570000  0.17175600  1
