# generated using pymatgen
data_Rb2PH4Se3O2
_symmetry_space_group_name_H-M   'P 1'
_cell_length_a   7.70262700
_cell_length_b   9.96975900
_cell_length_c   12.68311300
_cell_angle_alpha   90.00000000
_cell_angle_beta   90.00000000
_cell_angle_gamma   90.00000000
_symmetry_Int_Tables_number   1
_chemical_formula_structural   Rb2PH4Se3O2
_chemical_formula_sum   'Rb8 P4 H16 Se12 O8'
_cell_volume   973.97854364
_cell_formula_units_Z   4
loop_
 _symmetry_equiv_pos_site_id
 _symmetry_equiv_pos_as_xyz
  1  'x, y, z'
loop_
 _atom_site_type_symbol
 _atom_site_label
 _atom_site_symmetry_multiplicity
 _atom_site_fract_x
 _atom_site_fract_y
 _atom_site_fract_z
 _atom_site_occupancy
  Rb  Rb0  1  0.00000000  0.00000000  0.00000000  1
  Rb  Rb1  1  0.50000000  0.50000000  0.50000000  1
  Rb  Rb2  1  0.50000000  0.00000000  0.00000000  1
  Rb  Rb3  1  0.00000000  0.50000000  0.50000000  1
  Rb  Rb4  1  0.50000000  0.39625400  0.15778900  1
  Rb  Rb5  1  0.50000000  0.60374600  0.84221100  1
  Rb  Rb6  1  0.00000000  0.89625400  0.34221100  1
  Rb  Rb7  1  0.00000000  0.10374600  0.65778900  1
  P  P8  1  0.00000000  0.38443000  0.00819900  1
  P  P9  1  0.00000000  0.61557000  0.99180100  1
  P  P10  1  0.50000000  0.88443000  0.49180100  1
  P  P11  1  0.50000000  0.11557000  0.50819900  1
  H  H12  1  0.79704700  0.85010300  0.80822200  1
  H  H13  1  0.79704700  0.14989700  0.19177800  1
  H  H14  1  0.70295300  0.35010300  0.69177800  1
  H  H15  1  0.70295300  0.64989700  0.30822200  1
  H  H16  1  0.20295300  0.14989700  0.19177800  1
  H  H17  1  0.20295300  0.85010300  0.80822200  1
  H  H18  1  0.29704700  0.64989700  0.30822200  1
  H  H19  1  0.29704700  0.35010300  0.69177800  1
  H  H20  1  0.67942700  0.96935300  0.76857900  1
  H  H21  1  0.67942700  0.03064700  0.23142100  1
  H  H22  1  0.82057300  0.46935300  0.73142100  1
  H  H23  1  0.82057300  0.53064700  0.26857900  1
  H  H24  1  0.32057300  0.03064700  0.23142100  1
  H  H25  1  0.32057300  0.96935300  0.76857900  1
  H  H26  1  0.17942700  0.53064700  0.26857900  1
  H  H27  1  0.17942700  0.46935300  0.73142100  1
  Se  Se28  1  0.23778200  0.31109000  0.93211000  1
  Se  Se29  1  0.23778200  0.68891000  0.06789000  1
  Se  Se30  1  0.26221800  0.81109000  0.56789000  1
  Se  Se31  1  0.26221800  0.18891000  0.43211000  1
  Se  Se32  1  0.76221800  0.68891000  0.06789000  1
  Se  Se33  1  0.76221800  0.31109000  0.93211000  1
  Se  Se34  1  0.73778200  0.18891000  0.43211000  1
  Se  Se35  1  0.73778200  0.81109000  0.56789000  1
  Se  Se36  1  0.00000000  0.34769400  0.18258100  1
  Se  Se37  1  0.00000000  0.65230600  0.81741900  1
  Se  Se38  1  0.50000000  0.84769400  0.31741900  1
  Se  Se39  1  0.50000000  0.15230600  0.68258100  1
  O  O40  1  0.74503600  0.93610800  0.83033900  1
  O  O41  1  0.74503600  0.06389200  0.16966100  1
  O  O42  1  0.75496400  0.43610800  0.66966100  1
  O  O43  1  0.75496400  0.56389200  0.33033900  1
  O  O44  1  0.25496400  0.06389200  0.16966100  1
  O  O45  1  0.25496400  0.93610800  0.83033900  1
  O  O46  1  0.24503600  0.56389200  0.33033900  1
  O  O47  1  0.24503600  0.43610800  0.66966100  1
