# generated using pymatgen
data_Sm3CrS6
_symmetry_space_group_name_H-M   'P 1'
_cell_length_a   3.85217800
_cell_length_b   13.46767900
_cell_length_c   16.18476600
_cell_angle_alpha   90.00000000
_cell_angle_beta   90.00000000
_cell_angle_gamma   90.00000000
_symmetry_Int_Tables_number   1
_chemical_formula_structural   Sm3CrS6
_chemical_formula_sum   'Sm12 Cr4 S24'
_cell_volume   839.66398908
_cell_formula_units_Z   4
loop_
 _symmetry_equiv_pos_site_id
 _symmetry_equiv_pos_as_xyz
  1  'x, y, z'
loop_
 _atom_site_type_symbol
 _atom_site_label
 _atom_site_symmetry_multiplicity
 _atom_site_fract_x
 _atom_site_fract_y
 _atom_site_fract_z
 _atom_site_occupancy
  Sm  Sm0  1  0.00000000  0.55023000  0.28198600  1
  Sm  Sm1  1  0.00000000  0.44977000  0.71801400  1
  Sm  Sm2  1  0.50000000  0.94977000  0.78198600  1
  Sm  Sm3  1  0.50000000  0.05023000  0.21801400  1
  Sm  Sm4  1  0.00000000  0.75459100  0.09675200  1
  Sm  Sm5  1  0.00000000  0.24540900  0.90324800  1
  Sm  Sm6  1  0.50000000  0.74540900  0.59675200  1
  Sm  Sm7  1  0.50000000  0.25459100  0.40324800  1
  Sm  Sm8  1  0.00000000  0.31924600  0.14869100  1
  Sm  Sm9  1  0.00000000  0.68075400  0.85130900  1
  Sm  Sm10  1  0.50000000  0.18075400  0.64869100  1
  Sm  Sm11  1  0.50000000  0.81924600  0.35130900  1
  Cr  Cr12  1  0.00000000  0.00000000  0.50000000  1
  Cr  Cr13  1  0.50000000  0.50000000  0.00000000  1
  Cr  Cr14  1  0.00000000  0.00000000  0.00000000  1
  Cr  Cr15  1  0.50000000  0.50000000  0.50000000  1
  S  S16  1  0.00000000  0.12058500  0.10472700  1
  S  S17  1  0.00000000  0.87941500  0.89527300  1
  S  S18  1  0.50000000  0.37941500  0.60472700  1
  S  S19  1  0.50000000  0.62058500  0.39527300  1
  S  S20  1  0.00000000  0.18644700  0.28912900  1
  S  S21  1  0.00000000  0.81355300  0.71087100  1
  S  S22  1  0.50000000  0.31355300  0.78912900  1
  S  S23  1  0.50000000  0.68644700  0.21087100  1
  S  S24  1  0.00000000  0.17733900  0.52119900  1
  S  S25  1  0.00000000  0.82266100  0.47880100  1
  S  S26  1  0.50000000  0.32266100  0.02119900  1
  S  S27  1  0.50000000  0.67733900  0.97880100  1
  S  S28  1  0.00000000  0.52440000  0.09515600  1
  S  S29  1  0.00000000  0.47560000  0.90484400  1
  S  S30  1  0.50000000  0.97560000  0.59515600  1
  S  S31  1  0.50000000  0.02440000  0.40484400  1
  S  S32  1  0.00000000  0.10300700  0.75491200  1
  S  S33  1  0.00000000  0.89699300  0.24508800  1
  S  S34  1  0.50000000  0.39699300  0.25491200  1
  S  S35  1  0.50000000  0.60300700  0.74508800  1
  S  S36  1  0.00000000  0.41851100  0.42734100  1
  S  S37  1  0.00000000  0.58148900  0.57265900  1
  S  S38  1  0.50000000  0.08148900  0.92734100  1
  S  S39  1  0.50000000  0.91851100  0.07265900  1
