# generated using pymatgen
data_PrMg149
_symmetry_space_group_name_H-M   'P 1'
_cell_length_a   15.97732615
_cell_length_b   15.97733143
_cell_length_c   15.61049492
_cell_angle_alpha   90.00000000
_cell_angle_beta   90.00000000
_cell_angle_gamma   120.00001091
_symmetry_Int_Tables_number   1
_chemical_formula_structural   PrMg149
_chemical_formula_sum   'Pr1 Mg149'
_cell_volume   3451.08456336
_cell_formula_units_Z   1
loop_
 _symmetry_equiv_pos_site_id
 _symmetry_equiv_pos_as_xyz
  1  'x, y, z'
loop_
 _atom_site_type_symbol
 _atom_site_label
 _atom_site_symmetry_multiplicity
 _atom_site_fract_x
 _atom_site_fract_y
 _atom_site_fract_z
 _atom_site_occupancy
  Pr  Pr0  1  0.00000000  -0.00000000  -0.00000000  1
  Mg  Mg1  1  0.60009437  0.20018875  0.00000000  1
  Mg  Mg2  1  0.79920211  0.20079789  0.00000000  1
  Mg  Mg3  1  0.40159677  0.20079789  0.00000000  1
  Mg  Mg4  1  0.00349118  0.20699338  0.00000000  1
  Mg  Mg5  1  0.20350320  0.20699438  0.00000000  1
  Mg  Mg6  1  0.79981125  0.39990563  -0.00000000  1
  Mg  Mg7  1  0.60009437  0.39990563  -0.00000000  1
  Mg  Mg8  1  0.40041968  0.40063766  0.00000000  1
  Mg  Mg9  1  0.00021798  0.40063766  0.00000000  1
  Mg  Mg10  1  0.20186205  0.40372509  0.00000000  1
  Mg  Mg11  1  0.79920211  0.59840323  -0.00000000  1
  Mg  Mg12  1  0.00021798  0.59958032  -0.00000000  1
  Mg  Mg13  1  0.59936234  0.59958132  0.00000000  1
  Mg  Mg14  1  0.39965355  0.60034745  -0.00000000  1
  Mg  Mg15  1  0.20069389  0.60034745  -0.00000000  1
  Mg  Mg16  1  0.79300562  0.79649680  -0.00000000  1
  Mg  Mg17  1  0.00349118  0.79649680  0.00000000  1
  Mg  Mg18  1  0.20186205  0.79813695  0.00000000  1
  Mg  Mg19  1  0.59627491  0.79813795  -0.00000000  1
  Mg  Mg20  1  0.39965355  0.79930611  -0.00000000  1
  Mg  Mg21  1  0.20350320  0.99650982  -0.00000000  1
  Mg  Mg22  1  0.79300562  0.99650982  -0.00000000  1
  Mg  Mg23  1  0.59936234  0.99978102  0.00000000  1
  Mg  Mg24  1  0.40041968  0.99978102  0.00000000  1
  Mg  Mg25  1  0.86848291  0.13151609  0.16429099  1
  Mg  Mg26  1  0.26303318  0.13151709  0.16429099  1
  Mg  Mg27  1  0.86848291  0.73696682  0.16429099  1
  Mg  Mg28  1  0.66666700  0.33333300  0.16609398  1
  Mg  Mg29  1  0.66747446  0.13288477  0.16648520  1
  Mg  Mg30  1  0.46541032  0.13288477  0.16648520  1
  Mg  Mg31  1  0.46541032  0.33252554  0.16648520  1
  Mg  Mg32  1  0.86711523  0.33252554  0.16648520  1
  Mg  Mg33  1  0.66747446  0.53458968  0.16648520  1
  Mg  Mg34  1  0.86711523  0.53458968  0.16648520  1
  Mg  Mg35  1  0.46663422  0.53336578  0.16737104  1
  Mg  Mg36  1  0.06673256  0.53336678  0.16737104  1
  Mg  Mg37  1  0.46663422  0.93326744  0.16737104  1
  Mg  Mg38  1  0.26720501  0.53441102  0.16740488  1
  Mg  Mg39  1  0.26720501  0.73279399  0.16740488  1
  Mg  Mg40  1  0.46558898  0.73279499  0.16740488  1
  Mg  Mg41  1  0.06814936  0.33616972  0.16787631  1
  Mg  Mg42  1  0.26801936  0.33616972  0.16787631  1
  Mg  Mg43  1  0.66383028  0.73197964  0.16787631  1
  Mg  Mg44  1  0.06814936  0.73197964  0.16787631  1
  Mg  Mg45  1  0.26801936  0.93184964  0.16787631  1
  Mg  Mg46  1  0.66383028  0.93185064  0.16787631  1
  Mg  Mg47  1  0.06861611  0.13723221  0.17123331  1
  Mg  Mg48  1  0.06861611  0.93138389  0.17123331  1
  Mg  Mg49  1  0.86276779  0.93138389  0.17123331  1
  Mg  Mg50  1  0.80016368  0.19983632  0.33273961  1
  Mg  Mg51  1  0.39967264  0.19983632  0.33273961  1
  Mg  Mg52  1  0.80016368  0.60032736  0.33273961  1
  Mg  Mg53  1  0.60000995  0.20001990  0.33278913  1
  Mg  Mg54  1  0.79998010  0.39999005  0.33278913  1
  Mg  Mg55  1  0.60000995  0.39999005  0.33278913  1
  Mg  Mg56  1  0.40050637  0.00018357  0.33377774  1
  Mg  Mg57  1  0.59967720  0.00018357  0.33377774  1
  Mg  Mg58  1  0.40050637  0.40032280  0.33377774  1
  Mg  Mg59  1  0.99981643  0.40032380  0.33377774  1
  Mg  Mg60  1  0.99981643  0.59949263  0.33377774  1
  Mg  Mg61  1  0.59967720  0.59949363  0.33377774  1
  Mg  Mg62  1  0.20085637  0.00013510  0.33379975  1
  Mg  Mg63  1  0.79927873  0.00013610  0.33379975  1
  Mg  Mg64  1  0.99986390  0.20072027  0.33379975  1
  Mg  Mg65  1  0.20085637  0.20072127  0.33379975  1
  Mg  Mg66  1  0.79927873  0.79914363  0.33379975  1
  Mg  Mg67  1  0.99986390  0.79914363  0.33379975  1
  Mg  Mg68  1  0.40003348  0.59996652  0.33377507  1
  Mg  Mg69  1  0.19993403  0.59996752  0.33377507  1
  Mg  Mg70  1  0.40003348  0.80006697  0.33377507  1
  Mg  Mg71  1  0.20023108  0.40046216  0.33418227  1
  Mg  Mg72  1  0.20023108  0.79976892  0.33418227  1
  Mg  Mg73  1  0.59953784  0.79976892  0.33418227  1
  Mg  Mg74  1  0.00000000  -0.00000000  0.33461011  1
  Mg  Mg75  1  0.86643332  0.13356668  0.50000000  1
  Mg  Mg76  1  0.26713435  0.13356668  0.50000000  1
  Mg  Mg77  1  0.06678271  0.13356541  0.50000000  1
  Mg  Mg78  1  0.46709259  0.13428400  0.50000000  1
  Mg  Mg79  1  0.66719141  0.13428400  0.50000000  1
  Mg  Mg80  1  0.46709259  0.33280859  0.50000000  1
  Mg  Mg81  1  0.86571600  0.33280859  0.50000000  1
  Mg  Mg82  1  0.66666700  0.33333300  0.50000000  1
  Mg  Mg83  1  0.26679287  0.33364337  0.50000000  1
  Mg  Mg84  1  0.06685050  0.33364337  0.50000000  1
  Mg  Mg85  1  0.66719141  0.53290641  0.50000000  1
  Mg  Mg86  1  0.86571600  0.53290741  0.50000000  1
  Mg  Mg87  1  0.46696965  0.53303035  0.50000000  1
  Mg  Mg88  1  0.06605971  0.53303035  0.50000000  1
  Mg  Mg89  1  0.26676793  0.53353585  0.50000000  1
  Mg  Mg90  1  0.86643332  0.73286665  0.50000000  1
  Mg  Mg91  1  0.06685050  0.73320713  0.50000000  1
  Mg  Mg92  1  0.66635663  0.73320713  0.50000000  1
  Mg  Mg93  1  0.26676793  0.73323207  0.50000000  1
  Mg  Mg94  1  0.46646415  0.73323207  0.50000000  1
  Mg  Mg95  1  0.06678271  0.93321729  0.50000000  1
  Mg  Mg96  1  0.86643459  0.93321729  0.50000000  1
  Mg  Mg97  1  0.26679287  0.93314950  0.50000000  1
  Mg  Mg98  1  0.66635663  0.93314950  0.50000000  1
  Mg  Mg99  1  0.46696965  0.93393929  0.50000000  1
  Mg  Mg100  1  0.00000000  -0.00000000  0.66538889  1
  Mg  Mg101  1  0.20023108  0.40046216  0.66581773  1
  Mg  Mg102  1  0.20023108  0.79976892  0.66581773  1
  Mg  Mg103  1  0.59953784  0.79976892  0.66581773  1
  Mg  Mg104  1  0.40003348  0.59996652  0.66622493  1
  Mg  Mg105  1  0.19993403  0.59996752  0.66622493  1
  Mg  Mg106  1  0.40003348  0.80006697  0.66622493  1
  Mg  Mg107  1  0.20085637  0.00013510  0.66620025  1
  Mg  Mg108  1  0.79927873  0.00013610  0.66620025  1
  Mg  Mg109  1  0.99986390  0.20072027  0.66620025  1
  Mg  Mg110  1  0.20085637  0.20072127  0.66620025  1
  Mg  Mg111  1  0.79927873  0.79914363  0.66620025  1
  Mg  Mg112  1  0.99986390  0.79914363  0.66620025  1
  Mg  Mg113  1  0.40050637  0.00018357  0.66622326  1
  Mg  Mg114  1  0.59967720  0.00018357  0.66622326  1
  Mg  Mg115  1  0.40050637  0.40032280  0.66622326  1
  Mg  Mg116  1  0.99981643  0.40032380  0.66622326  1
  Mg  Mg117  1  0.99981643  0.59949263  0.66622326  1
  Mg  Mg118  1  0.59967720  0.59949363  0.66622326  1
  Mg  Mg119  1  0.60000995  0.20001990  0.66721087  1
  Mg  Mg120  1  0.79998010  0.39999005  0.66721087  1
  Mg  Mg121  1  0.60000995  0.39999005  0.66721087  1
  Mg  Mg122  1  0.80016368  0.19983632  0.66725939  1
  Mg  Mg123  1  0.39967264  0.19983632  0.66725939  1
  Mg  Mg124  1  0.80016368  0.60032736  0.66725939  1
  Mg  Mg125  1  0.06861611  0.13723221  0.82876669  1
  Mg  Mg126  1  0.06861611  0.93138389  0.82876669  1
  Mg  Mg127  1  0.86276779  0.93138389  0.82876669  1
  Mg  Mg128  1  0.06814936  0.33616972  0.83212469  1
  Mg  Mg129  1  0.26801936  0.33616972  0.83212469  1
  Mg  Mg130  1  0.66383028  0.73197964  0.83212469  1
  Mg  Mg131  1  0.06814936  0.73197964  0.83212469  1
  Mg  Mg132  1  0.26801936  0.93184964  0.83212469  1
  Mg  Mg133  1  0.66383028  0.93185064  0.83212469  1
  Mg  Mg134  1  0.26720501  0.53441102  0.83259512  1
  Mg  Mg135  1  0.26720501  0.73279399  0.83259512  1
  Mg  Mg136  1  0.46558898  0.73279499  0.83259512  1
  Mg  Mg137  1  0.46663422  0.53336578  0.83262996  1
  Mg  Mg138  1  0.06673256  0.53336678  0.83262996  1
  Mg  Mg139  1  0.46663422  0.93326744  0.83262996  1
  Mg  Mg140  1  0.66747446  0.13288477  0.83351480  1
  Mg  Mg141  1  0.46541032  0.13288477  0.83351480  1
  Mg  Mg142  1  0.46541032  0.33252554  0.83351480  1
  Mg  Mg143  1  0.86711523  0.33252554  0.83351480  1
  Mg  Mg144  1  0.66747446  0.53458968  0.83351480  1
  Mg  Mg145  1  0.86711523  0.53458968  0.83351480  1
  Mg  Mg146  1  0.66666700  0.33333300  0.83390602  1
  Mg  Mg147  1  0.86848291  0.13151609  0.83570901  1
  Mg  Mg148  1  0.26303318  0.13151709  0.83570901  1
  Mg  Mg149  1  0.86848291  0.73696682  0.83570901  1
