# generated using pymatgen
data_Mg149Ga
_symmetry_space_group_name_H-M   'P 1'
_cell_length_a   15.89894295
_cell_length_b   15.89894874
_cell_length_c   15.54142610
_cell_angle_alpha   90.00000000
_cell_angle_beta   90.00000000
_cell_angle_gamma   120.00001436
_symmetry_Int_Tables_number   1
_chemical_formula_structural   Mg149Ga
_chemical_formula_sum   'Mg149 Ga1'
_cell_volume   3402.18634194
_cell_formula_units_Z   1
loop_
 _symmetry_equiv_pos_site_id
 _symmetry_equiv_pos_as_xyz
  1  'x, y, z'
loop_
 _atom_site_type_symbol
 _atom_site_label
 _atom_site_symmetry_multiplicity
 _atom_site_fract_x
 _atom_site_fract_y
 _atom_site_fract_z
 _atom_site_occupancy
  Mg  Mg0  1  0.19811173  0.00089642  0.00000000  1
  Mg  Mg1  1  0.80278369  0.00089642  0.00000000  1
  Mg  Mg2  1  0.19811173  0.19721531  0.00000000  1
  Mg  Mg3  1  0.99910358  0.19721531  0.00000000  1
  Mg  Mg4  1  0.39921463  0.19960781  0.00000000  1
  Mg  Mg5  1  0.80039219  0.19960781  0.00000000  1
  Mg  Mg6  1  0.59989921  0.19979742  0.00000000  1
  Mg  Mg7  1  0.19924986  0.39849872  0.00000000  1
  Mg  Mg8  1  0.39948512  0.39954307  0.00000000  1
  Mg  Mg9  1  0.00005894  0.39954307  0.00000000  1
  Mg  Mg10  1  0.59989921  0.40010079  0.00000000  1
  Mg  Mg11  1  0.80020258  0.40010079  0.00000000  1
  Mg  Mg12  1  0.19977024  0.59988562  0.00000000  1
  Mg  Mg13  1  0.40011438  0.59988562  0.00000000  1
  Mg  Mg14  1  0.60045693  0.60051488  0.00000000  1
  Mg  Mg15  1  0.00005894  0.60051488  0.00000000  1
  Mg  Mg16  1  0.80039219  0.60078537  0.00000000  1
  Mg  Mg17  1  0.40011438  0.80022976  0.00000000  1
  Mg  Mg18  1  0.19924986  0.80075014  0.00000000  1
  Mg  Mg19  1  0.60150028  0.80075014  0.00000000  1
  Mg  Mg20  1  0.80278369  0.80188727  0.00000000  1
  Mg  Mg21  1  0.99910358  0.80188827  0.00000000  1
  Mg  Mg22  1  0.39948512  0.99994106  0.00000000  1
  Mg  Mg23  1  0.60045693  0.99994206  0.00000000  1
  Mg  Mg24  1  0.06573153  0.13146306  0.16472015  1
  Mg  Mg25  1  0.86853694  0.93426847  0.16472015  1
  Mg  Mg26  1  0.06573153  0.93426847  0.16472015  1
  Mg  Mg27  1  0.26613399  0.33241683  0.16608523  1
  Mg  Mg28  1  0.06628383  0.33241683  0.16608523  1
  Mg  Mg29  1  0.06628383  0.73386601  0.16608523  1
  Mg  Mg30  1  0.66758317  0.73386601  0.16608523  1
  Mg  Mg31  1  0.26613399  0.93371617  0.16608523  1
  Mg  Mg32  1  0.66758317  0.93371717  0.16608523  1
  Mg  Mg33  1  0.66658154  0.13327747  0.16644670  1
  Mg  Mg34  1  0.46669593  0.13327847  0.16644670  1
  Mg  Mg35  1  0.46669593  0.33341846  0.16644670  1
  Mg  Mg36  1  0.86672153  0.33341846  0.16644670  1
  Mg  Mg37  1  0.86672153  0.53330307  0.16644670  1
  Mg  Mg38  1  0.66658154  0.53330407  0.16644670  1
  Mg  Mg39  1  0.66666700  0.33333300  0.16659482  1
  Mg  Mg40  1  0.46667026  0.53332874  0.16637105  1
  Mg  Mg41  1  0.06665849  0.53332974  0.16637105  1
  Mg  Mg42  1  0.46667026  0.93334151  0.16637105  1
  Mg  Mg43  1  0.26651175  0.53302451  0.16655441  1
  Mg  Mg44  1  0.26651175  0.73348825  0.16655441  1
  Mg  Mg45  1  0.46697549  0.73348825  0.16655441  1
  Mg  Mg46  1  0.86634330  0.13365570  0.16711195  1
  Mg  Mg47  1  0.26731340  0.13365670  0.16711195  1
  Mg  Mg48  1  0.86634330  0.73268660  0.16711195  1
  Mg  Mg49  1  0.00000000  0.00000000  0.33262183  1
  Mg  Mg50  1  0.19941355  0.99982992  0.33313275  1
  Mg  Mg51  1  0.80041637  0.99982992  0.33313275  1
  Mg  Mg52  1  0.00016908  0.19958363  0.33313275  1
  Mg  Mg53  1  0.19941355  0.19958363  0.33313275  1
  Mg  Mg54  1  0.80041637  0.80058545  0.33313275  1
  Mg  Mg55  1  0.00016908  0.80058645  0.33313275  1
  Mg  Mg56  1  0.19992376  0.39984752  0.33303756  1
  Mg  Mg57  1  0.19992376  0.80007624  0.33303756  1
  Mg  Mg58  1  0.60015248  0.80007624  0.33303756  1
  Mg  Mg59  1  0.60026957  0.99999226  0.33314083  1
  Mg  Mg60  1  0.39972169  0.99999226  0.33314083  1
  Mg  Mg61  1  0.39972169  0.39973043  0.33314083  1
  Mg  Mg62  1  0.00000774  0.39973043  0.33314083  1
  Mg  Mg63  1  0.60026957  0.60027831  0.33314083  1
  Mg  Mg64  1  0.00000774  0.60027731  0.33314083  1
  Mg  Mg65  1  0.60003095  0.20006290  0.33310664  1
  Mg  Mg66  1  0.60003095  0.39996905  0.33310664  1
  Mg  Mg67  1  0.79993710  0.39996905  0.33310664  1
  Mg  Mg68  1  0.80005194  0.19994806  0.33328466  1
  Mg  Mg69  1  0.39989713  0.19994806  0.33328466  1
  Mg  Mg70  1  0.80005194  0.60010387  0.33328466  1
  Mg  Mg71  1  0.20004799  0.60002449  0.33322547  1
  Mg  Mg72  1  0.39997551  0.60002449  0.33322547  1
  Mg  Mg73  1  0.39997551  0.79995101  0.33322547  1
  Mg  Mg74  1  0.06650152  0.13300204  0.50000000  1
  Mg  Mg75  1  0.86679561  0.13320439  0.50000000  1
  Mg  Mg76  1  0.26640977  0.13320439  0.50000000  1
  Mg  Mg77  1  0.46669282  0.13322048  0.50000000  1
  Mg  Mg78  1  0.66652766  0.13322048  0.50000000  1
  Mg  Mg79  1  0.06640909  0.33303871  0.50000000  1
  Mg  Mg80  1  0.26663063  0.33303871  0.50000000  1
  Mg  Mg81  1  0.66666700  0.33333300  0.50000000  1
  Mg  Mg82  1  0.86678052  0.33347334  0.50000000  1
  Mg  Mg83  1  0.46669282  0.33347334  0.50000000  1
  Mg  Mg84  1  0.86678052  0.53330718  0.50000000  1
  Mg  Mg85  1  0.66652766  0.53330718  0.50000000  1
  Mg  Mg86  1  0.26652263  0.53304526  0.50000000  1
  Mg  Mg87  1  0.06649934  0.53324967  0.50000000  1
  Mg  Mg88  1  0.46675033  0.53324967  0.50000000  1
  Mg  Mg89  1  0.46695474  0.73347737  0.50000000  1
  Mg  Mg90  1  0.26652263  0.73347837  0.50000000  1
  Mg  Mg91  1  0.66696129  0.73336937  0.50000000  1
  Mg  Mg92  1  0.06640909  0.73336937  0.50000000  1
  Mg  Mg93  1  0.86679561  0.73359123  0.50000000  1
  Mg  Mg94  1  0.46675033  0.93349966  0.50000000  1
  Mg  Mg95  1  0.86699796  0.93349948  0.50000000  1
  Mg  Mg96  1  0.06650152  0.93349948  0.50000000  1
  Mg  Mg97  1  0.26663063  0.93359191  0.50000000  1
  Mg  Mg98  1  0.66696129  0.93359191  0.50000000  1
  Mg  Mg99  1  0.20004799  0.60002449  0.66677353  1
  Mg  Mg100  1  0.39997551  0.60002449  0.66677353  1
  Mg  Mg101  1  0.39997551  0.79995101  0.66677353  1
  Mg  Mg102  1  0.80005194  0.19994806  0.66671534  1
  Mg  Mg103  1  0.39989713  0.19994806  0.66671534  1
  Mg  Mg104  1  0.80005194  0.60010387  0.66671534  1
  Mg  Mg105  1  0.60003095  0.20006290  0.66689336  1
  Mg  Mg106  1  0.60003095  0.39996905  0.66689336  1
  Mg  Mg107  1  0.79993710  0.39996905  0.66689336  1
  Mg  Mg108  1  0.60026957  0.99999226  0.66685917  1
  Mg  Mg109  1  0.39972169  0.99999226  0.66685917  1
  Mg  Mg110  1  0.39972169  0.39973043  0.66685917  1
  Mg  Mg111  1  0.00000774  0.39973043  0.66685917  1
  Mg  Mg112  1  0.60026957  0.60027831  0.66685917  1
  Mg  Mg113  1  0.00000774  0.60027731  0.66685917  1
  Mg  Mg114  1  0.19992376  0.39984752  0.66696244  1
  Mg  Mg115  1  0.19992376  0.80007624  0.66696244  1
  Mg  Mg116  1  0.60015248  0.80007624  0.66696244  1
  Mg  Mg117  1  0.19941355  0.99982992  0.66686725  1
  Mg  Mg118  1  0.80041637  0.99982992  0.66686725  1
  Mg  Mg119  1  0.00016908  0.19958363  0.66686725  1
  Mg  Mg120  1  0.19941355  0.19958363  0.66686725  1
  Mg  Mg121  1  0.80041637  0.80058545  0.66686725  1
  Mg  Mg122  1  0.00016908  0.80058645  0.66686725  1
  Mg  Mg123  1  0.00000000  0.00000000  0.66737817  1
  Mg  Mg124  1  0.86634330  0.13365570  0.83288805  1
  Mg  Mg125  1  0.26731340  0.13365670  0.83288805  1
  Mg  Mg126  1  0.86634330  0.73268660  0.83288805  1
  Mg  Mg127  1  0.26651175  0.53302451  0.83344559  1
  Mg  Mg128  1  0.26651175  0.73348825  0.83344559  1
  Mg  Mg129  1  0.46697549  0.73348825  0.83344559  1
  Mg  Mg130  1  0.46667026  0.53332874  0.83362895  1
  Mg  Mg131  1  0.06665849  0.53332974  0.83362895  1
  Mg  Mg132  1  0.46667026  0.93334151  0.83362895  1
  Mg  Mg133  1  0.66666700  0.33333300  0.83340518  1
  Mg  Mg134  1  0.66658154  0.13327747  0.83355230  1
  Mg  Mg135  1  0.46669593  0.13327847  0.83355230  1
  Mg  Mg136  1  0.46669593  0.33341846  0.83355230  1
  Mg  Mg137  1  0.86672153  0.33341846  0.83355230  1
  Mg  Mg138  1  0.86672153  0.53330307  0.83355230  1
  Mg  Mg139  1  0.66658154  0.53330407  0.83355230  1
  Mg  Mg140  1  0.26613399  0.33241683  0.83391477  1
  Mg  Mg141  1  0.06628383  0.33241683  0.83391477  1
  Mg  Mg142  1  0.06628383  0.73386601  0.83391477  1
  Mg  Mg143  1  0.66758317  0.73386601  0.83391477  1
  Mg  Mg144  1  0.26613399  0.93371617  0.83391477  1
  Mg  Mg145  1  0.66758317  0.93371717  0.83391477  1
  Mg  Mg146  1  0.06573153  0.13146306  0.83527985  1
  Mg  Mg147  1  0.86853694  0.93426847  0.83527985  1
  Mg  Mg148  1  0.06573153  0.93426847  0.83527985  1
  Ga  Ga149  1  0.00000000  0.00000000  0.00000000  1
