# generated using pymatgen
data_Ce2(InSn)3
_symmetry_space_group_name_H-M   'P 1'
_cell_length_a   4.69290600
_cell_length_b   4.76869200
_cell_length_c   9.30654600
_cell_angle_alpha   90.00000000
_cell_angle_beta   90.00000000
_cell_angle_gamma   90.00000000
_symmetry_Int_Tables_number   1
_chemical_formula_structural   Ce2(InSn)3
_chemical_formula_sum   'Ce2 In3 Sn3'
_cell_volume   208.27140977
_cell_formula_units_Z   1
loop_
 _symmetry_equiv_pos_site_id
 _symmetry_equiv_pos_as_xyz
  1  'x, y, z'
loop_
 _atom_site_type_symbol
 _atom_site_label
 _atom_site_symmetry_multiplicity
 _atom_site_fract_x
 _atom_site_fract_y
 _atom_site_fract_z
 _atom_site_occupancy
  Ce  Ce0  1  0.00000000  0.00000000  0.24572000  1
  Ce  Ce1  1  0.00000000  0.00000000  0.75428000  1
  In  In2  1  0.50000000  0.50000000  0.25166300  1
  In  In3  1  0.50000000  0.50000000  0.74833700  1
  In  In4  1  0.00000000  0.50000000  0.50000000  1
  Sn  Sn5  1  0.00000000  0.50000000  0.00000000  1
  Sn  Sn6  1  0.50000000  0.00000000  0.50000000  1
  Sn  Sn7  1  0.50000000  0.00000000  0.00000000  1
