# generated using pymatgen
data_CsSr(BH4)3
_symmetry_space_group_name_H-M   'P 1'
_cell_length_a   6.21185200
_cell_length_b   8.40765100
_cell_length_c   8.37824300
_cell_angle_alpha   90.00000000
_cell_angle_beta   90.00000000
_cell_angle_gamma   90.00000000
_symmetry_Int_Tables_number   1
_chemical_formula_structural   CsSr(BH4)3
_chemical_formula_sum   'Cs2 Sr2 B6 H24'
_cell_volume   437.57119825
_cell_formula_units_Z   2
loop_
 _symmetry_equiv_pos_site_id
 _symmetry_equiv_pos_as_xyz
  1  'x, y, z'
loop_
 _atom_site_type_symbol
 _atom_site_label
 _atom_site_symmetry_multiplicity
 _atom_site_fract_x
 _atom_site_fract_y
 _atom_site_fract_z
 _atom_site_occupancy
  Cs  Cs0  1  0.51085000  0.50000000  0.00000000  1
  Cs  Cs1  1  0.48915000  0.00000000  0.50000000  1
  Sr  Sr2  1  0.98490600  0.50000000  0.50000000  1
  Sr  Sr3  1  0.01509400  0.00000000  0.00000000  1
  B  B4  1  0.00861200  0.69706000  0.79757300  1
  B  B5  1  0.00861200  0.30294000  0.20242700  1
  B  B6  1  0.99138800  0.19706000  0.70242700  1
  B  B7  1  0.99138800  0.80294000  0.29757300  1
  B  B8  1  0.51577500  0.00000000  0.00000000  1
  B  B9  1  0.48422500  0.50000000  0.50000000  1
  H  H10  1  0.03925500  0.55309600  0.80508600  1
  H  H11  1  0.03925500  0.44690400  0.19491400  1
  H  H12  1  0.96074500  0.05309600  0.69491400  1
  H  H13  1  0.96074500  0.94690400  0.30508600  1
  H  H14  1  0.98750200  0.74476100  0.65944100  1
  H  H15  1  0.98750200  0.25523900  0.34055900  1
  H  H16  1  0.01249800  0.24476100  0.84055900  1
  H  H17  1  0.01249800  0.75523900  0.15944100  1
  H  H18  1  0.84776800  0.73245200  0.87446000  1
  H  H19  1  0.84776800  0.26754800  0.12554000  1
  H  H20  1  0.15223200  0.23245200  0.62554000  1
  H  H21  1  0.15223200  0.76754800  0.37446000  1
  H  H22  1  0.16815700  0.76300900  0.85142300  1
  H  H23  1  0.16815700  0.23699100  0.14857700  1
  H  H24  1  0.83184300  0.26300900  0.64857700  1
  H  H25  1  0.83184300  0.73699100  0.35142300  1
  H  H26  1  0.62587500  0.93820000  0.10489500  1
  H  H27  1  0.62587500  0.06180000  0.89510500  1
  H  H28  1  0.37412500  0.43820000  0.39510500  1
  H  H29  1  0.37412500  0.56180000  0.60489500  1
  H  H30  1  0.40455600  0.89604600  0.93878300  1
  H  H31  1  0.40455600  0.10395400  0.06121700  1
  H  H32  1  0.59544400  0.39604600  0.56121700  1
  H  H33  1  0.59544400  0.60395400  0.43878300  1
