# generated using pymatgen
data_Tb3Zn11
_symmetry_space_group_name_H-M   'P 1'
_cell_length_a   8.15608614
_cell_length_b   8.15608614
_cell_length_c   8.15608614
_cell_angle_alpha   148.43362802
_cell_angle_beta   114.73816546
_cell_angle_gamma   74.30559271
_symmetry_Int_Tables_number   1
_chemical_formula_structural   Tb3Zn11
_chemical_formula_sum   'Tb3 Zn11'
_cell_volume   253.69657228
_cell_formula_units_Z   1
loop_
 _symmetry_equiv_pos_site_id
 _symmetry_equiv_pos_as_xyz
  1  'x, y, z'
loop_
 _atom_site_type_symbol
 _atom_site_label
 _atom_site_symmetry_multiplicity
 _atom_site_fract_x
 _atom_site_fract_y
 _atom_site_fract_z
 _atom_site_occupancy
  Tb  Tb0  1  0.00000000  0.00000000  0.00000000  1
  Tb  Tb1  1  0.29426100  0.29426100  0.00000000  1
  Tb  Tb2  1  0.70573900  0.70573900  0.00000000  1
  Zn  Zn3  1  0.50000000  0.00000000  0.50000000  1
  Zn  Zn4  1  0.68192200  0.50000000  0.18192200  1
  Zn  Zn5  1  0.31807800  0.50000000  0.81807800  1
  Zn  Zn6  1  0.69937300  0.34036100  0.35901200  1
  Zn  Zn7  1  0.30062700  0.65963900  0.64098800  1
  Zn  Zn8  1  0.98134900  0.34036100  0.64098800  1
  Zn  Zn9  1  0.01865100  0.65963900  0.35901200  1
  Zn  Zn10  1  0.41795700  0.13744700  0.28051000  1
  Zn  Zn11  1  0.58204300  0.86255300  0.71949000  1
  Zn  Zn12  1  0.85693700  0.13744700  0.71949000  1
  Zn  Zn13  1  0.14306300  0.86255300  0.28051000  1
