# generated using pymatgen
data_Pr(Sn2Rh)2
_symmetry_space_group_name_H-M   'P 1'
_cell_length_a   4.56244800
_cell_length_b   7.21997200
_cell_length_c   18.74161200
_cell_angle_alpha   90.00000000
_cell_angle_beta   90.00000000
_cell_angle_gamma   90.00000000
_symmetry_Int_Tables_number   1
_chemical_formula_structural   Pr(Sn2Rh)2
_chemical_formula_sum   'Pr4 Sn16 Rh8'
_cell_volume   617.36269573
_cell_formula_units_Z   4
loop_
 _symmetry_equiv_pos_site_id
 _symmetry_equiv_pos_as_xyz
  1  'x, y, z'
loop_
 _atom_site_type_symbol
 _atom_site_label
 _atom_site_symmetry_multiplicity
 _atom_site_fract_x
 _atom_site_fract_y
 _atom_site_fract_z
 _atom_site_occupancy
  Pr  Pr0  1  0.25000000  0.99906900  0.85817800  1
  Pr  Pr1  1  0.25000000  0.50093100  0.35817800  1
  Pr  Pr2  1  0.75000000  0.00093100  0.14182200  1
  Pr  Pr3  1  0.75000000  0.49906900  0.64182200  1
  Sn  Sn4  1  0.25000000  0.30268300  0.18182800  1
  Sn  Sn5  1  0.25000000  0.19731700  0.68182800  1
  Sn  Sn6  1  0.75000000  0.69731700  0.81817200  1
  Sn  Sn7  1  0.75000000  0.80268300  0.31817200  1
  Sn  Sn8  1  0.25000000  0.72191400  0.19455900  1
  Sn  Sn9  1  0.25000000  0.77808600  0.69455900  1
  Sn  Sn10  1  0.75000000  0.27808600  0.80544100  1
  Sn  Sn11  1  0.75000000  0.22191400  0.30544100  1
  Sn  Sn12  1  0.25000000  0.86409800  0.03115600  1
  Sn  Sn13  1  0.25000000  0.63590200  0.53115600  1
  Sn  Sn14  1  0.75000000  0.13590200  0.96884400  1
  Sn  Sn15  1  0.75000000  0.36409800  0.46884400  1
  Sn  Sn16  1  0.25000000  0.51720700  0.93184900  1
  Sn  Sn17  1  0.25000000  0.98279300  0.43184900  1
  Sn  Sn18  1  0.75000000  0.48279300  0.06815100  1
  Sn  Sn19  1  0.75000000  0.01720700  0.56815100  1
  Rh  Rh20  1  0.25000000  0.25059600  0.03453500  1
  Rh  Rh21  1  0.25000000  0.24940400  0.53453500  1
  Rh  Rh22  1  0.75000000  0.74940400  0.96546500  1
  Rh  Rh23  1  0.75000000  0.75059600  0.46546500  1
  Rh  Rh24  1  0.25000000  0.01784200  0.28675400  1
  Rh  Rh25  1  0.25000000  0.48215800  0.78675400  1
  Rh  Rh26  1  0.75000000  0.98215800  0.71324600  1
  Rh  Rh27  1  0.75000000  0.51784200  0.21324600  1
