# generated using pymatgen
data_ErB7Mo3
_symmetry_space_group_name_H-M   'P 1'
_cell_length_a   3.10426100
_cell_length_b   11.02190100
_cell_length_c   12.85992200
_cell_angle_alpha   90.00000000
_cell_angle_beta   90.00000000
_cell_angle_gamma   90.00000000
_symmetry_Int_Tables_number   1
_chemical_formula_structural   ErB7Mo3
_chemical_formula_sum   'Er4 B28 Mo12'
_cell_volume   440.00039766
_cell_formula_units_Z   4
loop_
 _symmetry_equiv_pos_site_id
 _symmetry_equiv_pos_as_xyz
  1  'x, y, z'
loop_
 _atom_site_type_symbol
 _atom_site_label
 _atom_site_symmetry_multiplicity
 _atom_site_fract_x
 _atom_site_fract_y
 _atom_site_fract_z
 _atom_site_occupancy
  Er  Er0  1  0.75000000  0.55180500  0.30800800  1
  Er  Er1  1  0.25000000  0.44819500  0.69199200  1
  Er  Er2  1  0.25000000  0.94819500  0.80800800  1
  Er  Er3  1  0.75000000  0.05180500  0.19199200  1
  B  B4  1  0.75000000  0.74988200  0.17371600  1
  B  B5  1  0.25000000  0.25011800  0.82628400  1
  B  B6  1  0.25000000  0.75011800  0.67371600  1
  B  B7  1  0.75000000  0.24988200  0.32628400  1
  B  B8  1  0.75000000  0.93238300  0.38384000  1
  B  B9  1  0.25000000  0.06761700  0.61616000  1
  B  B10  1  0.25000000  0.56761700  0.88384000  1
  B  B11  1  0.75000000  0.43238300  0.11616000  1
  B  B12  1  0.75000000  0.98930700  0.63815200  1
  B  B13  1  0.25000000  0.01069300  0.36184800  1
  B  B14  1  0.25000000  0.51069300  0.13815200  1
  B  B15  1  0.75000000  0.48930700  0.86184800  1
  B  B16  1  0.75000000  0.76923900  0.41793000  1
  B  B17  1  0.25000000  0.23076100  0.58207000  1
  B  B18  1  0.25000000  0.73076100  0.91793000  1
  B  B19  1  0.75000000  0.26923900  0.08207000  1
  B  B20  1  0.75000000  0.96273200  0.98161500  1
  B  B21  1  0.25000000  0.03726800  0.01838500  1
  B  B22  1  0.25000000  0.53726800  0.48161500  1
  B  B23  1  0.75000000  0.46273200  0.51838500  1
  B  B24  1  0.75000000  0.81374000  0.93302900  1
  B  B25  1  0.25000000  0.18626000  0.06697100  1
  B  B26  1  0.25000000  0.68626000  0.43302900  1
  B  B27  1  0.75000000  0.31374000  0.56697100  1
  B  B28  1  0.75000000  0.83437600  0.66766700  1
  B  B29  1  0.25000000  0.16562400  0.33233300  1
  B  B30  1  0.25000000  0.66562400  0.16766700  1
  B  B31  1  0.75000000  0.33437600  0.83233300  1
  Mo  Mo32  1  0.75000000  0.11792600  0.47308600  1
  Mo  Mo33  1  0.25000000  0.88207400  0.52691400  1
  Mo  Mo34  1  0.25000000  0.38207400  0.97308600  1
  Mo  Mo35  1  0.75000000  0.61792600  0.02691400  1
  Mo  Mo36  1  0.75000000  0.65913500  0.56419800  1
  Mo  Mo37  1  0.25000000  0.34086500  0.43580200  1
  Mo  Mo38  1  0.25000000  0.84086500  0.06419800  1
  Mo  Mo39  1  0.75000000  0.15913500  0.93580200  1
  Mo  Mo40  1  0.75000000  0.68462100  0.79813800  1
  Mo  Mo41  1  0.25000000  0.31537900  0.20186200  1
  Mo  Mo42  1  0.25000000  0.81537900  0.29813800  1
  Mo  Mo43  1  0.75000000  0.18462100  0.70186200  1
