# generated using pymatgen
data_DyGa2Pd
_symmetry_space_group_name_H-M   'P 1'
_cell_length_a   5.56495199
_cell_length_b   5.56495199
_cell_length_c   6.59264400
_cell_angle_alpha   90.00000000
_cell_angle_beta   90.00000000
_cell_angle_gamma   132.85199621
_symmetry_Int_Tables_number   1
_chemical_formula_structural   DyGa2Pd
_chemical_formula_sum   'Dy2 Ga4 Pd2'
_cell_volume   149.67641405
_cell_formula_units_Z   2
loop_
 _symmetry_equiv_pos_site_id
 _symmetry_equiv_pos_as_xyz
  1  'x, y, z'
loop_
 _atom_site_type_symbol
 _atom_site_label
 _atom_site_symmetry_multiplicity
 _atom_site_fract_x
 _atom_site_fract_y
 _atom_site_fract_z
 _atom_site_occupancy
  Dy  Dy0  1  0.58798400  0.41201600  0.25000000  1
  Dy  Dy1  1  0.41201600  0.58798400  0.75000000  1
  Ga  Ga2  1  0.87228600  0.12771400  0.44681300  1
  Ga  Ga3  1  0.12771400  0.87228600  0.55318700  1
  Ga  Ga4  1  0.87228600  0.12771400  0.05318700  1
  Ga  Ga5  1  0.12771400  0.87228600  0.94681300  1
  Pd  Pd6  1  0.30015600  0.69984400  0.25000000  1
  Pd  Pd7  1  0.69984400  0.30015600  0.75000000  1
