# generated using pymatgen
data_Sr2In4Au3
_symmetry_space_group_name_H-M   'P 1'
_cell_length_a   15.36904440
_cell_length_b   15.36904440
_cell_length_c   4.61111000
_cell_angle_alpha   90.00000000
_cell_angle_beta   90.00000000
_cell_angle_gamma   120.00000173
_symmetry_Int_Tables_number   1
_chemical_formula_structural   Sr2In4Au3
_chemical_formula_sum   'Sr8 In16 Au12'
_cell_volume   943.25656673
_cell_formula_units_Z   4
loop_
 _symmetry_equiv_pos_site_id
 _symmetry_equiv_pos_as_xyz
  1  'x, y, z'
loop_
 _atom_site_type_symbol
 _atom_site_label
 _atom_site_symmetry_multiplicity
 _atom_site_fract_x
 _atom_site_fract_y
 _atom_site_fract_z
 _atom_site_occupancy
  Sr  Sr0  1  0.45131600  0.00000000  0.00000000  1
  Sr  Sr1  1  0.00000000  0.45131600  0.00000000  1
  Sr  Sr2  1  0.54868400  0.54868400  0.00000000  1
  Sr  Sr3  1  0.33333300  0.66666700  0.00000000  1
  Sr  Sr4  1  0.66666700  0.33333300  0.00000000  1
  Sr  Sr5  1  0.81886900  0.00000000  0.50000000  1
  Sr  Sr6  1  0.00000000  0.81886900  0.50000000  1
  Sr  Sr7  1  0.18113100  0.18113100  0.50000000  1
  In  In8  1  0.18367200  0.38051800  0.00000000  1
  In  In9  1  0.61948200  0.80315500  0.00000000  1
  In  In10  1  0.38051800  0.18367200  0.00000000  1
  In  In11  1  0.19684500  0.81632800  0.00000000  1
  In  In12  1  0.80315500  0.61948200  0.00000000  1
  In  In13  1  0.81632800  0.19684500  0.00000000  1
  In  In14  1  0.27982600  0.00000000  0.50000000  1
  In  In15  1  0.00000000  0.27982600  0.50000000  1
  In  In16  1  0.72017400  0.72017400  0.50000000  1
  In  In17  1  0.35056100  0.47332600  0.50000000  1
  In  In18  1  0.52667400  0.87723500  0.50000000  1
  In  In19  1  0.47332600  0.35056100  0.50000000  1
  In  In20  1  0.12276500  0.64943900  0.50000000  1
  In  In21  1  0.87723500  0.52667400  0.50000000  1
  In  In22  1  0.64943900  0.12276500  0.50000000  1
  In  In23  1  0.00000000  0.00000000  0.00000000  1
  Au  Au24  1  0.17280900  0.49147600  0.50000000  1
  Au  Au25  1  0.50852400  0.68133300  0.50000000  1
  Au  Au26  1  0.49147600  0.17280900  0.50000000  1
  Au  Au27  1  0.31866700  0.82719100  0.50000000  1
  Au  Au28  1  0.68133300  0.50852400  0.50000000  1
  Au  Au29  1  0.82719100  0.31866700  0.50000000  1
  Au  Au30  1  0.17748700  0.00000000  0.00000000  1
  Au  Au31  1  0.00000000  0.17748700  0.00000000  1
  Au  Au32  1  0.82251300  0.82251300  0.00000000  1
  Au  Au33  1  0.65820700  0.00000000  0.00000000  1
  Au  Au34  1  0.00000000  0.65820700  0.00000000  1
  Au  Au35  1  0.34179300  0.34179300  0.00000000  1
