# generated using pymatgen
data_K2LiIn(MoO4)3
_symmetry_space_group_name_H-M   'P 1'
_cell_length_a   9.43258900
_cell_length_b   7.15186600
_cell_length_c   10.35271626
_cell_angle_alpha   72.50596430
_cell_angle_beta   90.00000000
_cell_angle_gamma   90.00000000
_symmetry_Int_Tables_number   1
_chemical_formula_structural   K2LiIn(MoO4)3
_chemical_formula_sum   'K4 Li2 In2 Mo6 O24'
_cell_volume   666.09833046
_cell_formula_units_Z   2
loop_
 _symmetry_equiv_pos_site_id
 _symmetry_equiv_pos_as_xyz
  1  'x, y, z'
loop_
 _atom_site_type_symbol
 _atom_site_label
 _atom_site_symmetry_multiplicity
 _atom_site_fract_x
 _atom_site_fract_y
 _atom_site_fract_z
 _atom_site_occupancy
  K  K0  1  0.50232100  0.15962300  0.20283000  1
  K  K1  1  0.00232100  0.84037700  0.79717000  1
  K  K2  1  0.00652000  0.45364000  0.57995000  1
  K  K3  1  0.50652000  0.54636000  0.42005000  1
  Li  Li4  1  0.35075600  0.94983200  0.87087200  1
  Li  Li5  1  0.85075600  0.05016800  0.12912800  1
  In  In6  1  0.59549500  0.72246000  0.73865000  1
  In  In7  1  0.09549500  0.27754000  0.26135000  1
  Mo  Mo8  1  0.17138100  0.80441900  0.18795600  1
  Mo  Mo9  1  0.67138100  0.19558100  0.81204400  1
  Mo  Mo10  1  0.78466700  0.57162500  0.07913800  1
  Mo  Mo11  1  0.28466700  0.42837500  0.92086200  1
  Mo  Mo12  1  0.28701700  0.95228800  0.54194100  1
  Mo  Mo13  1  0.78701700  0.04771200  0.45805900  1
  O  O14  1  0.34212000  0.83152900  0.24929100  1
  O  O15  1  0.84212000  0.16847100  0.75070900  1
  O  O16  1  0.19207700  0.82383100  0.01380400  1
  O  O17  1  0.69207700  0.17616900  0.98619600  1
  O  O18  1  0.06442900  0.01037000  0.20551300  1
  O  O19  1  0.56442900  0.98963000  0.79448700  1
  O  O20  1  0.10645500  0.56352400  0.29101800  1
  O  O21  1  0.60645500  0.43647600  0.70898200  1
  O  O22  1  0.62588800  0.52949800  0.17312000  1
  O  O23  1  0.12588800  0.47050200  0.82688000  1
  O  O24  1  0.87014500  0.78355700  0.09651500  1
  O  O25  1  0.37014500  0.21644300  0.90348500  1
  O  O26  1  0.74996100  0.62319000  0.89857900  1
  O  O27  1  0.24996100  0.37681000  0.10142100  1
  O  O28  1  0.90313800  0.35947600  0.14071000  1
  O  O29  1  0.40313800  0.64052400  0.85929000  1
  O  O30  1  0.15395400  0.78596600  0.53090800  1
  O  O31  1  0.65395400  0.21403400  0.46909200  1
  O  O32  1  0.24986500  0.02426100  0.68819700  1
  O  O33  1  0.74986500  0.97573900  0.31180300  1
  O  O34  1  0.46049300  0.83029000  0.55828700  1
  O  O35  1  0.96049300  0.16971000  0.44171300  1
  O  O36  1  0.27943600  0.17071100  0.39252900  1
  O  O37  1  0.77943600  0.82928900  0.60747100  1
