# generated using pymatgen
data_Na15Cr7N19
_symmetry_space_group_name_H-M   'P 1'
_cell_length_a   5.96587500
_cell_length_b   11.25701852
_cell_length_c   17.87258055
_cell_angle_alpha   91.00283385
_cell_angle_beta   93.56942868
_cell_angle_gamma   101.31324945
_symmetry_Int_Tables_number   1
_chemical_formula_structural   Na15Cr7N19
_chemical_formula_sum   'Na30 Cr14 N38'
_cell_volume   1174.13896762
_cell_formula_units_Z   2
loop_
 _symmetry_equiv_pos_site_id
 _symmetry_equiv_pos_as_xyz
  1  'x, y, z'
loop_
 _atom_site_type_symbol
 _atom_site_label
 _atom_site_symmetry_multiplicity
 _atom_site_fract_x
 _atom_site_fract_y
 _atom_site_fract_z
 _atom_site_occupancy
  Na  Na0  1  0.52531800  0.62199600  0.44585300  1
  Na  Na1  1  0.47468200  0.37800400  0.55414700  1
  Na  Na2  1  0.60034000  0.14144100  0.64132600  1
  Na  Na3  1  0.39966000  0.85855900  0.35867400  1
  Na  Na4  1  0.71689200  0.01725200  0.19712500  1
  Na  Na5  1  0.28310800  0.98274800  0.80287500  1
  Na  Na6  1  0.91733600  0.02773800  0.39180700  1
  Na  Na7  1  0.08266400  0.97226200  0.60819300  1
  Na  Na8  1  0.83885200  0.77663100  0.29315000  1
  Na  Na9  1  0.16114800  0.22336900  0.70685000  1
  Na  Na10  1  0.86769100  0.17037500  0.84021400  1
  Na  Na11  1  0.13230900  0.82962500  0.15978600  1
  Na  Na12  1  0.86221600  0.90370100  0.90029600  1
  Na  Na13  1  0.13778400  0.09629900  0.09970400  1
  Na  Na14  1  0.72017000  0.08405900  0.00917100  1
  Na  Na15  1  0.27983000  0.91594100  0.99082900  1
  Na  Na16  1  0.60574900  0.89674600  0.53405500  1
  Na  Na17  1  0.39425100  0.10325400  0.46594500  1
  Na  Na18  1  0.65878800  0.48857100  0.29231200  1
  Na  Na19  1  0.34121200  0.51142900  0.70768800  1
  Na  Na20  1  0.95960400  0.34444300  0.01180300  1
  Na  Na21  1  0.04039600  0.65555700  0.98819700  1
  Na  Na22  1  0.86588400  0.66617200  0.79732800  1
  Na  Na23  1  0.13411600  0.33382800  0.20267200  1
  Na  Na24  1  0.76171100  0.25810800  0.37262200  1
  Na  Na25  1  0.23828900  0.74189200  0.62737800  1
  Na  Na26  1  0.57782700  0.36695300  0.83899600  1
  Na  Na27  1  0.42217300  0.63304700  0.16100400  1
  Na  Na28  1  0.00000000  0.50000000  0.50000000  1
  Na  Na29  1  0.50000000  0.50000000  0.00000000  1
  Cr  Cr30  1  0.59818100  0.26158300  0.13117100  1
  Cr  Cr31  1  0.40181900  0.73841700  0.86882900  1
  Cr  Cr32  1  0.82116700  0.40039000  0.69031400  1
  Cr  Cr33  1  0.17883300  0.59961000  0.30968600  1
  Cr  Cr34  1  0.73539100  0.65967100  0.61256800  1
  Cr  Cr35  1  0.26460900  0.34032900  0.38743200  1
  Cr  Cr36  1  0.00097600  0.77396700  0.45656800  1
  Cr  Cr37  1  0.99902400  0.22603300  0.54343200  1
  Cr  Cr38  1  0.88853400  0.55270000  0.13951400  1
  Cr  Cr39  1  0.11146600  0.44730000  0.86048600  1
  Cr  Cr40  1  0.67280800  0.90378000  0.72194000  1
  Cr  Cr41  1  0.32719200  0.09622000  0.27806000  1
  Cr  Cr42  1  0.67980600  0.79563400  0.05180600  1
  Cr  Cr43  1  0.32019400  0.20436600  0.94819400  1
  N  N44  1  0.83061000  0.20245500  0.12423200  1
  N  N45  1  0.16939000  0.79754500  0.87576800  1
  N  N46  1  0.91341900  0.32620600  0.61457300  1
  N  N47  1  0.08658100  0.67379400  0.38542700  1
  N  N48  1  0.55741200  0.05812500  0.32240500  1
  N  N49  1  0.44258800  0.94187500  0.67759500  1
  N  N50  1  0.58228700  0.81817700  0.80327200  1
  N  N51  1  0.41771300  0.18182300  0.19672800  1
  N  N52  1  0.67199600  0.41912200  0.15557700  1
  N  N53  1  0.32800400  0.58087800  0.84442300  1
  N  N54  1  0.53820000  0.39881000  0.41434600  1
  N  N55  1  0.46180000  0.60119000  0.58565400  1
  N  N56  1  0.78195100  0.11028600  0.51703900  1
  N  N57  1  0.21804900  0.88971400  0.48296100  1
  N  N58  1  0.90448700  0.68303000  0.53494700  1
  N  N59  1  0.09551300  0.31697000  0.46505300  1
  N  N60  1  0.92377000  0.89907500  0.05084400  1
  N  N61  1  0.07623000  0.10092500  0.94915600  1
  N  N62  1  0.77338700  0.82408300  0.42022100  1
  N  N63  1  0.22661300  0.17591700  0.57977900  1
  N  N64  1  0.78031100  0.79918800  0.65928800  1
  N  N65  1  0.21968900  0.20081200  0.34071200  1
  N  N66  1  0.90164700  0.48461900  0.90639600  1
  N  N67  1  0.09835300  0.51538100  0.09360400  1
  N  N68  1  0.55668200  0.75753000  0.95778700  1
  N  N69  1  0.44331800  0.24247000  0.04221300  1
  N  N70  1  0.75646800  0.65604900  0.08919100  1
  N  N71  1  0.24353200  0.34395100  0.91080900  1
  N  N72  1  0.88762800  0.02471900  0.74242700  1
  N  N73  1  0.11237200  0.97528100  0.25757300  1
  N  N74  1  0.99462900  0.62037000  0.22800300  1
  N  N75  1  0.00537100  0.37963000  0.77199700  1
  N  N76  1  0.85159700  0.55623900  0.67367000  1
  N  N77  1  0.14840300  0.44376100  0.32633000  1
  N  N78  1  0.55150300  0.34047300  0.70564600  1
  N  N79  1  0.44849700  0.65952700  0.29435400  1
  N  N80  1  0.48995700  0.84627800  0.10428500  1
  N  N81  1  0.51004300  0.15372200  0.89571500  1
