# generated using pymatgen
data_Sr2V2O7
_symmetry_space_group_name_H-M   'P 1'
_cell_length_a   7.17933000
_cell_length_b   7.23792477
_cell_length_c   13.16761498
_cell_angle_alpha   98.87558792
_cell_angle_beta   93.57819684
_cell_angle_gamma   90.89196617
_symmetry_Int_Tables_number   1
_chemical_formula_structural   Sr2V2O7
_chemical_formula_sum   'Sr8 V8 O28'
_cell_volume   674.50326894
_cell_formula_units_Z   4
loop_
 _symmetry_equiv_pos_site_id
 _symmetry_equiv_pos_as_xyz
  1  'x, y, z'
loop_
 _atom_site_type_symbol
 _atom_site_label
 _atom_site_symmetry_multiplicity
 _atom_site_fract_x
 _atom_site_fract_y
 _atom_site_fract_z
 _atom_site_occupancy
  Sr  Sr0  1  0.74663100  0.27299700  0.34859500  1
  Sr  Sr1  1  0.25337000  0.72700300  0.65140500  1
  Sr  Sr2  1  0.07328700  0.34414100  0.84524400  1
  Sr  Sr3  1  0.92671300  0.65585900  0.15475600  1
  Sr  Sr4  1  0.67076800  0.71550800  0.86354500  1
  Sr  Sr5  1  0.32923200  0.28449200  0.13645500  1
  Sr  Sr6  1  0.63559000  0.12717700  0.63636800  1
  Sr  Sr7  1  0.36441000  0.87282300  0.36363200  1
  V  V8  1  0.83470100  0.80555200  0.41085400  1
  V  V9  1  0.16529900  0.19444800  0.58914600  1
  V  V10  1  0.84052300  0.17962800  0.08301600  1
  V  V11  1  0.15947700  0.82037200  0.91698400  1
  V  V12  1  0.55637000  0.20084800  0.88530100  1
  V  V13  1  0.44362900  0.79915300  0.11469900  1
  V  V14  1  0.78272200  0.60387100  0.61099500  1
  V  V15  1  0.21727800  0.39612900  0.38900500  1
  O  O16  1  0.69214900  0.39782600  0.54437400  1
  O  O17  1  0.30785200  0.60217300  0.45562600  1
  O  O18  1  0.93258500  0.57113500  0.71270900  1
  O  O19  1  0.06741500  0.42886600  0.28729200  1
  O  O20  1  0.69660900  0.06595400  0.96823200  1
  O  O21  1  0.30339100  0.93404600  0.03176800  1
  O  O22  1  0.46545900  0.03682000  0.78738400  1
  O  O23  1  0.53454100  0.96317900  0.21261600  1
  O  O24  1  0.99102800  0.67229200  0.95230100  1
  O  O25  1  0.00897200  0.32770900  0.04769900  1
  O  O26  1  0.60952200  0.74616500  0.66208600  1
  O  O27  1  0.39047800  0.25383400  0.33791400  1
  O  O28  1  0.30256000  0.36352400  0.66306300  1
  O  O29  1  0.69744000  0.63647600  0.33693700  1
  O  O30  1  0.05346800  0.97840300  0.85279300  1
  O  O31  1  0.94653200  0.02159600  0.14720600  1
  O  O32  1  0.00906900  0.86675500  0.33915400  1
  O  O33  1  0.99093100  0.13324600  0.66084600  1
  O  O34  1  0.30113000  0.65240200  0.17096000  1
  O  O35  1  0.69886900  0.34759900  0.82904000  1
  O  O36  1  0.92647300  0.72298100  0.52921900  1
  O  O37  1  0.07352700  0.27701800  0.47078000  1
  O  O38  1  0.30998100  0.00679400  0.55497000  1
  O  O39  1  0.61815000  0.68305100  0.05111600  1
  O  O40  1  0.69610800  0.32029900  0.16063300  1
  O  O41  1  0.30389300  0.67970100  0.83936700  1
  O  O42  1  0.69001900  0.99320500  0.44503000  1
  O  O43  1  0.38185000  0.31695000  0.94888400  1
