# generated using pymatgen
data_Pd3(PbSe)2
_symmetry_space_group_name_H-M   'P 1'
_cell_length_a   6.05478056
_cell_length_b   6.05478056
_cell_length_c   6.05478024
_cell_angle_alpha   60.22268181
_cell_angle_beta   60.22268181
_cell_angle_gamma   60.22267636
_symmetry_Int_Tables_number   1
_chemical_formula_structural   Pd3(PbSe)2
_chemical_formula_sum   'Pd3 Pb2 Se2'
_cell_volume   157.74813379
_cell_formula_units_Z   1
loop_
 _symmetry_equiv_pos_site_id
 _symmetry_equiv_pos_as_xyz
  1  'x, y, z'
loop_
 _atom_site_type_symbol
 _atom_site_label
 _atom_site_symmetry_multiplicity
 _atom_site_fract_x
 _atom_site_fract_y
 _atom_site_fract_z
 _atom_site_occupancy
  Pd  Pd0  1  0.50000000  0.50000000  0.00000000  1
  Pd  Pd1  1  0.00000000  0.50000000  0.50000000  1
  Pd  Pd2  1  0.50000000  0.00000000  0.50000000  1
  Pb  Pb3  1  0.00000000  0.00000000  0.00000000  1
  Pb  Pb4  1  0.50000000  0.50000000  0.50000000  1
  Se  Se5  1  0.78502400  0.78502400  0.78502400  1
  Se  Se6  1  0.21497600  0.21497600  0.21497600  1
