# generated using pymatgen
data_Cs2Sn3(SbS5)2
_symmetry_space_group_name_H-M   'P 1'
_cell_length_a   13.79491100
_cell_length_b   7.19443700
_cell_length_c   12.30087709
_cell_angle_alpha   59.24707002
_cell_angle_beta   90.00000000
_cell_angle_gamma   90.00000000
_symmetry_Int_Tables_number   1
_chemical_formula_structural   Cs2Sn3(SbS5)2
_chemical_formula_sum   'Cs4 Sn6 Sb4 S20'
_cell_volume   1049.14900135
_cell_formula_units_Z   2
loop_
 _symmetry_equiv_pos_site_id
 _symmetry_equiv_pos_as_xyz
  1  'x, y, z'
loop_
 _atom_site_type_symbol
 _atom_site_label
 _atom_site_symmetry_multiplicity
 _atom_site_fract_x
 _atom_site_fract_y
 _atom_site_fract_z
 _atom_site_occupancy
  Cs  Cs0  1  0.33500100  0.46081800  0.15537200  1
  Cs  Cs1  1  0.16499900  0.46081800  0.65537200  1
  Cs  Cs2  1  0.66499900  0.53918200  0.84462800  1
  Cs  Cs3  1  0.83500100  0.53918200  0.34462800  1
  Sn  Sn4  1  0.00000000  0.50000000  0.00000000  1
  Sn  Sn5  1  0.50000000  0.50000000  0.50000000  1
  Sn  Sn6  1  0.05326000  0.10673800  0.34810400  1
  Sn  Sn7  1  0.44674000  0.10673800  0.84810400  1
  Sn  Sn8  1  0.94674000  0.89326200  0.65189600  1
  Sn  Sn9  1  0.55326000  0.89326200  0.15189600  1
  Sb  Sb10  1  0.14186800  0.00864700  0.09664300  1
  Sb  Sb11  1  0.35813200  0.00864700  0.59664300  1
  Sb  Sb12  1  0.85813200  0.99135300  0.90335700  1
  Sb  Sb13  1  0.64186800  0.99135300  0.40335700  1
  S  S14  1  0.17048400  0.40061600  0.96196300  1
  S  S15  1  0.32951600  0.40061600  0.46196300  1
  S  S16  1  0.82951600  0.59938400  0.03803700  1
  S  S17  1  0.67048400  0.59938400  0.53803700  1
  S  S18  1  0.97127200  0.07809300  0.13120900  1
  S  S19  1  0.52872800  0.07809300  0.63120900  1
  S  S20  1  0.02872800  0.92190700  0.86879100  1
  S  S21  1  0.47127200  0.92190700  0.36879100  1
  S  S22  1  0.94014100  0.50719500  0.79671900  1
  S  S23  1  0.55985900  0.50719500  0.29671900  1
  S  S24  1  0.05985900  0.49280500  0.20328100  1
  S  S25  1  0.44014100  0.49280500  0.70328100  1
  S  S26  1  0.19077500  0.92885000  0.31559100  1
  S  S27  1  0.30922500  0.92885000  0.81559100  1
  S  S28  1  0.80922500  0.07115000  0.68440900  1
  S  S29  1  0.69077500  0.07115000  0.18440900  1
  S  S30  1  0.89765800  0.93197000  0.44347600  1
  S  S31  1  0.60234200  0.93197000  0.94347600  1
  S  S32  1  0.10234200  0.06803000  0.55652400  1
  S  S33  1  0.39765800  0.06803000  0.05652400  1
