# generated using pymatgen
data_Ba8Eu7Cl34
_symmetry_space_group_name_H-M   'P 1'
_cell_length_a   13.58310909
_cell_length_b   13.58310909
_cell_length_c   13.58310909
_cell_angle_alpha   130.51341283
_cell_angle_beta   130.51341283
_cell_angle_gamma   72.58731313
_symmetry_Int_Tables_number   1
_chemical_formula_structural   Ba8Eu7Cl34
_chemical_formula_sum   'Ba8 Eu7 Cl34'
_cell_volume   1415.43879798
_cell_formula_units_Z   1
loop_
 _symmetry_equiv_pos_site_id
 _symmetry_equiv_pos_as_xyz
  1  'x, y, z'
loop_
 _atom_site_type_symbol
 _atom_site_label
 _atom_site_symmetry_multiplicity
 _atom_site_fract_x
 _atom_site_fract_y
 _atom_site_fract_z
 _atom_site_occupancy
  Ba  Ba0  1  0.70326300  0.52418900  0.54505000  1
  Ba  Ba1  1  0.97914000  0.15821300  0.45495000  1
  Ba  Ba2  1  0.15821300  0.70326300  0.17907400  1
  Ba  Ba3  1  0.52418900  0.97914000  0.82092600  1
  Ba  Ba4  1  0.29673700  0.47581100  0.45495000  1
  Ba  Ba5  1  0.02086000  0.84178700  0.54505000  1
  Ba  Ba6  1  0.84178700  0.29673700  0.82092600  1
  Ba  Ba7  1  0.47581100  0.02086000  0.17907400  1
  Eu  Eu8  1  0.00000000  0.00000000  0.00000000  1
  Eu  Eu9  1  0.68844700  0.68844700  0.00000000  1
  Eu  Eu10  1  0.31155300  0.31155300  0.00000000  1
  Eu  Eu11  1  0.18004100  0.60831000  0.78835100  1
  Eu  Eu12  1  0.81995900  0.39169000  0.21164900  1
  Eu  Eu13  1  0.39169000  0.18004100  0.57173100  1
  Eu  Eu14  1  0.60831000  0.81995900  0.42826900  1
  Cl  Cl15  1  0.92299400  0.42299400  0.50000000  1
  Cl  Cl16  1  0.42299400  0.92299400  0.50000000  1
  Cl  Cl17  1  0.07700600  0.57700600  0.50000000  1
  Cl  Cl18  1  0.57700600  0.07700600  0.50000000  1
  Cl  Cl19  1  0.00404700  0.72253900  0.87849200  1
  Cl  Cl20  1  0.84404700  0.12555500  0.12150800  1
  Cl  Cl21  1  0.12555500  0.00404700  0.28150800  1
  Cl  Cl22  1  0.72253900  0.84404700  0.71849200  1
  Cl  Cl23  1  0.99595300  0.27746100  0.12150800  1
  Cl  Cl24  1  0.15595300  0.87444500  0.87849200  1
  Cl  Cl25  1  0.87444500  0.99595300  0.71849200  1
  Cl  Cl26  1  0.27746100  0.15595300  0.28150800  1
  Cl  Cl27  1  0.75000000  0.25000000  0.50000000  1
  Cl  Cl28  1  0.25000000  0.75000000  0.50000000  1
  Cl  Cl29  1  0.85153100  0.56629600  0.89576300  1
  Cl  Cl30  1  0.67053300  0.95576800  0.10423700  1
  Cl  Cl31  1  0.95576800  0.85153100  0.28523500  1
  Cl  Cl32  1  0.56629600  0.67053300  0.71476500  1
  Cl  Cl33  1  0.14846900  0.43370400  0.10423700  1
  Cl  Cl34  1  0.32946700  0.04423200  0.89576300  1
  Cl  Cl35  1  0.04423200  0.14846900  0.71476500  1
  Cl  Cl36  1  0.43370400  0.32946700  0.28523500  1
  Cl  Cl37  1  0.54783500  0.40956200  0.71643200  1
  Cl  Cl38  1  0.69313100  0.83140400  0.28356800  1
  Cl  Cl39  1  0.83140400  0.54783500  0.13827300  1
  Cl  Cl40  1  0.40956200  0.69313100  0.86172700  1
  Cl  Cl41  1  0.45216500  0.59043800  0.28356800  1
  Cl  Cl42  1  0.30686900  0.16859600  0.71643200  1
  Cl  Cl43  1  0.16859600  0.45216500  0.86172700  1
  Cl  Cl44  1  0.59043800  0.30686900  0.13827300  1
  Cl  Cl45  1  0.36148900  0.77331100  0.13480000  1
  Cl  Cl46  1  0.63851100  0.22668900  0.86520000  1
  Cl  Cl47  1  0.22668900  0.36148900  0.58817800  1
  Cl  Cl48  1  0.77331100  0.63851100  0.41182200  1
