# generated using pymatgen
data_HoB3Mo
_symmetry_space_group_name_H-M   'P 1'
_cell_length_a   3.16600700
_cell_length_b   5.44669400
_cell_length_c   6.83540123
_cell_angle_alpha   78.08332382
_cell_angle_beta   90.00000000
_cell_angle_gamma   90.00000000
_symmetry_Int_Tables_number   1
_chemical_formula_structural   HoB3Mo
_chemical_formula_sum   'Ho2 B6 Mo2'
_cell_volume   115.33125589
_cell_formula_units_Z   2
loop_
 _symmetry_equiv_pos_site_id
 _symmetry_equiv_pos_as_xyz
  1  'x, y, z'
loop_
 _atom_site_type_symbol
 _atom_site_label
 _atom_site_symmetry_multiplicity
 _atom_site_fract_x
 _atom_site_fract_y
 _atom_site_fract_z
 _atom_site_occupancy
  Ho  Ho0  1  0.25000000  0.32351900  0.70957200  1
  Ho  Ho1  1  0.75000000  0.67648100  0.29042800  1
  B  B2  1  0.25000000  0.91957800  0.52402200  1
  B  B3  1  0.75000000  0.08042200  0.47597800  1
  B  B4  1  0.25000000  0.91234100  0.00455200  1
  B  B5  1  0.75000000  0.08765900  0.99544800  1
  B  B6  1  0.25000000  0.58368400  0.00664700  1
  B  B7  1  0.75000000  0.41631600  0.99335300  1
  Mo  Mo8  1  0.25000000  0.18861200  0.22022800  1
  Mo  Mo9  1  0.75000000  0.81138800  0.77977200  1
