# generated using pymatgen
data_Sc2(SeO4)3
_symmetry_space_group_name_H-M   'P 1'
_cell_length_a   9.33662600
_cell_length_b   9.06942000
_cell_length_c   15.52762055
_cell_angle_alpha   55.04514703
_cell_angle_beta   90.00000000
_cell_angle_gamma   90.00000000
_symmetry_Int_Tables_number   1
_chemical_formula_structural   Sc2(SeO4)3
_chemical_formula_sum   'Sc8 Se12 O48'
_cell_volume   1077.65146125
_cell_formula_units_Z   4
loop_
 _symmetry_equiv_pos_site_id
 _symmetry_equiv_pos_as_xyz
  1  'x, y, z'
loop_
 _atom_site_type_symbol
 _atom_site_label
 _atom_site_symmetry_multiplicity
 _atom_site_fract_x
 _atom_site_fract_y
 _atom_site_fract_z
 _atom_site_occupancy
  Sc  Sc0  1  0.53256900  0.13258000  0.61471000  1
  Sc  Sc1  1  0.03256900  0.86742000  0.88529000  1
  Sc  Sc2  1  0.46743100  0.86742000  0.38529000  1
  Sc  Sc3  1  0.96743100  0.13258000  0.11471000  1
  Sc  Sc4  1  0.03316900  0.63263000  0.61626400  1
  Sc  Sc5  1  0.53316900  0.36737000  0.88373600  1
  Sc  Sc6  1  0.96683100  0.36737000  0.38373600  1
  Sc  Sc7  1  0.46683100  0.63263000  0.11626400  1
  Se  Se8  1  0.25236600  0.04052800  0.99429300  1
  Se  Se9  1  0.75236600  0.95947200  0.50570700  1
  Se  Se10  1  0.74763400  0.95947200  0.00570700  1
  Se  Se11  1  0.24763400  0.04052800  0.49429300  1
  Se  Se12  1  0.88485900  0.53315000  0.85621600  1
  Se  Se13  1  0.38485900  0.46685000  0.64378400  1
  Se  Se14  1  0.11514100  0.46685000  0.14378400  1
  Se  Se15  1  0.61514100  0.53315000  0.35621600  1
  Se  Se16  1  0.37991700  0.75503000  0.84961600  1
  Se  Se17  1  0.87991700  0.24497000  0.65038400  1
  Se  Se18  1  0.62008300  0.24497000  0.15038400  1
  Se  Se19  1  0.12008300  0.75503000  0.34961600  1
  O  O20  1  0.37447700  0.01749900  0.57642700  1
  O  O21  1  0.87447700  0.98250100  0.92357300  1
  O  O22  1  0.62552300  0.98250100  0.42357300  1
  O  O23  1  0.12552300  0.01749900  0.07642700  1
  O  O24  1  0.63182500  0.12594900  0.93354500  1
  O  O25  1  0.13182500  0.87405100  0.56645500  1
  O  O26  1  0.36817500  0.87405100  0.06645500  1
  O  O27  1  0.86817500  0.12594900  0.43354500  1
  O  O28  1  0.33291700  0.23728200  0.94297400  1
  O  O29  1  0.83291700  0.76271800  0.55702600  1
  O  O30  1  0.66708300  0.76271800  0.05702600  1
  O  O31  1  0.16708300  0.23728200  0.44297400  1
  O  O32  1  0.18552100  0.03300400  0.89723200  1
  O  O33  1  0.68552100  0.96699600  0.60276800  1
  O  O34  1  0.81447900  0.96699600  0.10276800  1
  O  O35  1  0.31447900  0.03300400  0.39723200  1
  O  O36  1  0.00030100  0.60197100  0.75888200  1
  O  O37  1  0.42751400  0.67648800  0.54524600  1
  O  O38  1  0.57248600  0.32351200  0.45475400  1
  O  O39  1  0.07248600  0.67648800  0.04524600  1
  O  O40  1  0.08217600  0.60787000  0.32175700  1
  O  O41  1  0.58217600  0.39213000  0.17824300  1
  O  O42  1  0.91782400  0.39213000  0.67824300  1
  O  O43  1  0.41782400  0.60787000  0.82175700  1
  O  O44  1  0.08389300  0.66566700  0.47513100  1
  O  O45  1  0.58389300  0.33433300  0.02486900  1
  O  O46  1  0.91610700  0.33433300  0.52486900  1
  O  O47  1  0.41610700  0.66566700  0.97513100  1
  O  O48  1  0.29484500  0.79855400  0.32804700  1
  O  O49  1  0.79484500  0.20144600  0.17195300  1
  O  O50  1  0.70515500  0.20144600  0.67195300  1
  O  O51  1  0.20515500  0.79855400  0.82804700  1
  O  O52  1  0.52208500  0.05939300  0.22500500  1
  O  O53  1  0.02208500  0.94060700  0.27499500  1
  O  O54  1  0.47791500  0.94060700  0.77499500  1
  O  O55  1  0.97791500  0.05939300  0.72500500  1
  O  O56  1  0.60479700  0.67175900  0.39410300  1
  O  O57  1  0.10479700  0.32824100  0.10589700  1
  O  O58  1  0.39520300  0.32824100  0.60589700  1
  O  O59  1  0.89520300  0.67175900  0.89410300  1
  O  O60  1  0.78098900  0.53322500  0.31725500  1
  O  O61  1  0.28098900  0.46677500  0.18274500  1
  O  O62  1  0.21901100  0.46677500  0.68274500  1
  O  O63  1  0.71901100  0.53322500  0.81725500  1
  O  O64  1  0.49969900  0.60197100  0.25888200  1
  O  O65  1  0.99969900  0.39802900  0.24111800  1
  O  O66  1  0.50030100  0.39802900  0.74111800  1
  O  O67  1  0.92751400  0.32351200  0.95475400  1
