# generated using pymatgen
data_CaMnF6
_symmetry_space_group_name_H-M   'P 1'
_cell_length_a   5.72771763
_cell_length_b   5.72771763
_cell_length_c   5.72771687
_cell_angle_alpha   57.99304758
_cell_angle_beta   57.99304758
_cell_angle_gamma   57.99305518
_symmetry_Int_Tables_number   1
_chemical_formula_structural   CaMnF6
_chemical_formula_sum   'Ca1 Mn1 F6'
_cell_volume   126.75363644
_cell_formula_units_Z   1
loop_
 _symmetry_equiv_pos_site_id
 _symmetry_equiv_pos_as_xyz
  1  'x, y, z'
loop_
 _atom_site_type_symbol
 _atom_site_label
 _atom_site_symmetry_multiplicity
 _atom_site_fract_x
 _atom_site_fract_y
 _atom_site_fract_z
 _atom_site_occupancy
  Ca  Ca0  1  0.50000000  0.50000000  0.50000000  1
  Mn  Mn1  1  0.00000000  0.00000000  0.00000000  1
  F  F2  1  0.68613500  0.87041800  0.21923100  1
  F  F3  1  0.87041800  0.21923100  0.68613500  1
  F  F4  1  0.78076900  0.31386500  0.12958200  1
  F  F5  1  0.12958200  0.78076900  0.31386500  1
  F  F6  1  0.31386500  0.12958200  0.78076900  1
  F  F7  1  0.21923100  0.68613500  0.87041800  1
