# generated using pymatgen
data_RbNa2Fe3P4ClO14
_symmetry_space_group_name_H-M   'P 1'
_cell_length_a   10.88329256
_cell_length_b   10.88329256
_cell_length_c   13.90095499
_cell_angle_alpha   62.10553361
_cell_angle_beta   62.10553361
_cell_angle_gamma   27.96761206
_symmetry_Int_Tables_number   1
_chemical_formula_structural   RbNa2Fe3P4ClO14
_chemical_formula_sum   'Rb2 Na4 Fe6 P8 Cl2 O28'
_cell_volume   676.49600912
_cell_formula_units_Z   2
loop_
 _symmetry_equiv_pos_site_id
 _symmetry_equiv_pos_as_xyz
  1  'x, y, z'
loop_
 _atom_site_type_symbol
 _atom_site_label
 _atom_site_symmetry_multiplicity
 _atom_site_fract_x
 _atom_site_fract_y
 _atom_site_fract_z
 _atom_site_occupancy
  Rb  Rb0  1  0.50000000  0.50000000  0.00000000  1
  Rb  Rb1  1  0.50000000  0.50000000  0.50000000  1
  Na  Na2  1  0.24794500  0.30994500  0.15099300  1
  Na  Na3  1  0.69005500  0.75205500  0.34900700  1
  Na  Na4  1  0.75205500  0.69005500  0.84900700  1
  Na  Na5  1  0.30994500  0.24794500  0.65099300  1
  Fe  Fe6  1  0.66421300  0.64352500  0.15773300  1
  Fe  Fe7  1  0.35647500  0.33578700  0.34226700  1
  Fe  Fe8  1  0.33578700  0.35647500  0.84226700  1
  Fe  Fe9  1  0.64352500  0.66421300  0.65773300  1
  Fe  Fe10  1  0.93952800  0.06047200  0.25000000  1
  Fe  Fe11  1  0.06047200  0.93952800  0.75000000  1
  P  P12  1  0.17896900  0.13721400  0.00729600  1
  P  P13  1  0.86278600  0.82103100  0.49270400  1
  P  P14  1  0.82103100  0.86278600  0.99270400  1
  P  P15  1  0.13721400  0.17896900  0.50729600  1
  P  P16  1  0.87155900  0.89236300  0.17239300  1
  P  P17  1  0.10763700  0.12844100  0.32760700  1
  P  P18  1  0.12844100  0.10763700  0.82760700  1
  P  P19  1  0.89236300  0.87155900  0.67239300  1
  Cl  Cl20  1  0.46102300  0.53897700  0.25000000  1
  Cl  Cl21  1  0.53897700  0.46102300  0.75000000  1
  O  O22  1  0.95490800  0.96634500  0.14791400  1
  O  O23  1  0.03365500  0.04509200  0.35208600  1
  O  O24  1  0.04509200  0.03365500  0.85208600  1
  O  O25  1  0.96634500  0.95490800  0.64791400  1
  O  O26  1  0.06767400  0.14705600  0.95024900  1
  O  O27  1  0.85294400  0.93232600  0.54975100  1
  O  O28  1  0.93232600  0.85294400  0.04975100  1
  O  O29  1  0.14705600  0.06767400  0.45024900  1
  O  O30  1  0.88207300  0.42594100  0.28989300  1
  O  O31  1  0.57405900  0.11792700  0.21010700  1
  O  O32  1  0.11792700  0.57405900  0.71010700  1
  O  O33  1  0.42594100  0.88207300  0.78989300  1
  O  O34  1  0.98761600  0.25159600  0.11470000  1
  O  O35  1  0.74840400  0.01238400  0.38530000  1
  O  O36  1  0.01238400  0.74840400  0.88530000  1
  O  O37  1  0.25159600  0.98761600  0.61470000  1
  O  O38  1  0.46500500  0.84543500  0.02614500  1
  O  O39  1  0.15456500  0.53499500  0.47385500  1
  O  O40  1  0.53499500  0.15456500  0.97385500  1
  O  O41  1  0.84543500  0.46500500  0.52614500  1
  O  O42  1  0.04012100  0.62862900  0.24587900  1
  O  O43  1  0.37137100  0.95987900  0.25412100  1
  O  O44  1  0.95987900  0.37137100  0.75412100  1
  O  O45  1  0.62862900  0.04012100  0.74587900  1
  O  O46  1  0.84648500  0.68826600  0.07376900  1
  O  O47  1  0.31173400  0.15351500  0.42623100  1
  O  O48  1  0.15351500  0.31173400  0.92623100  1
  O  O49  1  0.68826600  0.84648500  0.57376900  1
