# generated using pymatgen
data_PH10S3N2O
_symmetry_space_group_name_H-M   'P 1'
_cell_length_a   7.14202300
_cell_length_b   12.80157100
_cell_length_c   17.55339094
_cell_angle_alpha   90.00000000
_cell_angle_beta   95.27754531
_cell_angle_gamma   90.00000000
_symmetry_Int_Tables_number   1
_chemical_formula_structural   PH10S3N2O
_chemical_formula_sum   'P8 H80 S24 N16 O8'
_cell_volume   1598.08757265
_cell_formula_units_Z   8
loop_
 _symmetry_equiv_pos_site_id
 _symmetry_equiv_pos_as_xyz
  1  'x, y, z'
loop_
 _atom_site_type_symbol
 _atom_site_label
 _atom_site_symmetry_multiplicity
 _atom_site_fract_x
 _atom_site_fract_y
 _atom_site_fract_z
 _atom_site_occupancy
  P  P0  1  0.25224500  0.24883300  0.56049600  1
  P  P1  1  0.74775500  0.74883300  0.93950400  1
  P  P2  1  0.74775500  0.75116700  0.43950400  1
  P  P3  1  0.25224500  0.25116700  0.06049600  1
  P  P4  1  0.21181100  0.25608700  0.42772900  1
  P  P5  1  0.78818900  0.75608700  0.07227100  1
  P  P6  1  0.78818900  0.74391300  0.57227100  1
  P  P7  1  0.21181100  0.24391300  0.92772900  1
  H  H8  1  0.44916400  0.42184900  0.77029000  1
  H  H9  1  0.55083600  0.92184900  0.72971000  1
  H  H10  1  0.55083600  0.57815100  0.22971000  1
  H  H11  1  0.44916400  0.07815100  0.27029000  1
  H  H12  1  0.49238300  0.40937300  0.68310300  1
  H  H13  1  0.50761700  0.90937300  0.81689700  1
  H  H14  1  0.50761700  0.59062700  0.31689700  1
  H  H15  1  0.49238300  0.09062700  0.18310300  1
  H  H16  1  0.04238600  0.69965000  0.72171500  1
  H  H17  1  0.95761400  0.19965000  0.77828500  1
  H  H18  1  0.95761400  0.30035000  0.27828500  1
  H  H19  1  0.04238600  0.80035000  0.22171500  1
  H  H20  1  0.04113200  0.71195400  0.81184300  1
  H  H21  1  0.95886800  0.21195400  0.68815700  1
  H  H22  1  0.95886800  0.28804600  0.18815700  1
  H  H23  1  0.04113200  0.78804600  0.31184300  1
  H  H24  1  0.19279400  0.62872400  0.56211100  1
  H  H25  1  0.80720600  0.12872400  0.93788900  1
  H  H26  1  0.80720600  0.37127600  0.43788900  1
  H  H27  1  0.19279400  0.87127600  0.06211100  1
  H  H28  1  0.25068500  0.54391200  0.49323700  1
  H  H29  1  0.74931500  0.04391200  0.00676300  1
  H  H30  1  0.74931500  0.45608800  0.50676300  1
  H  H31  1  0.25068500  0.95608800  0.99323700  1
  H  H32  1  0.22103200  0.49720200  0.57913400  1
  H  H33  1  0.77896800  0.99720200  0.92086600  1
  H  H34  1  0.77896800  0.50279800  0.42086600  1
  H  H35  1  0.22103200  0.00279800  0.07913400  1
  H  H36  1  0.41343800  0.57546700  0.56541200  1
  H  H37  1  0.58656200  0.07546700  0.93458800  1
  H  H38  1  0.58656200  0.42453300  0.43458800  1
  H  H39  1  0.41343800  0.92453300  0.06541200  1
  H  H40  1  0.32055000  0.65332000  0.93366800  1
  H  H41  1  0.67945000  0.15332000  0.56633200  1
  H  H42  1  0.67945000  0.34668000  0.06633200  1
  H  H43  1  0.32055000  0.84668000  0.43366800  1
  H  H44  1  0.28617800  0.51924000  0.93420800  1
  H  H45  1  0.71382200  0.01924000  0.56579200  1
  H  H46  1  0.71382200  0.48076000  0.06579200  1
  H  H47  1  0.28617800  0.98076000  0.43420800  1
  H  H48  1  0.27958800  0.59088000  0.01410000  1
  H  H49  1  0.72041200  0.09088000  0.48590000  1
  H  H50  1  0.72041200  0.40912000  0.98590000  1
  H  H51  1  0.27958800  0.90912000  0.51410000  1
  H  H52  1  0.10134000  0.60102100  0.94453600  1
  H  H53  1  0.89866000  0.10102100  0.55546400  1
  H  H54  1  0.89866000  0.39897900  0.05546400  1
  H  H55  1  0.10134000  0.89897900  0.44453600  1
  H  H56  1  0.03459800  0.91349400  0.69170500  1
  H  H57  1  0.96540200  0.41349400  0.80829500  1
  H  H58  1  0.96540200  0.08650600  0.30829500  1
  H  H59  1  0.03459800  0.58650600  0.19170500  1
  H  H60  1  0.00712200  0.93205800  0.78583900  1
  H  H61  1  0.99287800  0.43205800  0.71416100  1
  H  H62  1  0.99287800  0.06794200  0.21416100  1
  H  H63  1  0.00712200  0.56794200  0.28583900  1
  H  H64  1  0.01903200  0.03859800  0.72870200  1
  H  H65  1  0.98096800  0.53859800  0.77129800  1
  H  H66  1  0.98096800  0.96140200  0.27129800  1
  H  H67  1  0.01903200  0.46140200  0.22870200  1
  H  H68  1  0.21311500  0.96285000  0.75071700  1
  H  H69  1  0.78688500  0.46285000  0.74928300  1
  H  H70  1  0.78688500  0.03715000  0.24928300  1
  H  H71  1  0.21311500  0.53715000  0.25071700  1
  H  H72  1  0.56556600  0.68469700  0.79407400  1
  H  H73  1  0.43443400  0.18469700  0.70592600  1
  H  H74  1  0.43443400  0.31530300  0.20592600  1
  H  H75  1  0.56556600  0.81530300  0.29407400  1
  H  H76  1  0.52396600  0.72152000  0.70056500  1
  H  H77  1  0.47603400  0.22152000  0.79943500  1
  H  H78  1  0.47603400  0.27848000  0.29943500  1
  H  H79  1  0.52396600  0.77848000  0.20056500  1
  H  H80  1  0.49713100  0.59414800  0.72768600  1
  H  H81  1  0.50286900  0.09414800  0.77231400  1
  H  H82  1  0.50286900  0.40585200  0.27231400  1
  H  H83  1  0.49713100  0.90585200  0.22768600  1
  H  H84  1  0.34327500  0.68535300  0.75385900  1
  H  H85  1  0.65672500  0.18535300  0.74614100  1
  H  H86  1  0.65672500  0.31464700  0.24614100  1
  H  H87  1  0.34327500  0.81464700  0.25385900  1
  S  S88  1  0.51904700  0.30105000  0.58890200  1
  S  S89  1  0.48095300  0.80105000  0.91109800  1
  S  S90  1  0.48095300  0.69895000  0.41109800  1
  S  S91  1  0.51904700  0.19895000  0.08890200  1
  S  S92  1  0.05304900  0.34478600  0.59916500  1
  S  S93  1  0.94695100  0.84478600  0.90083500  1
  S  S94  1  0.94695100  0.65521400  0.40083500  1
  S  S95  1  0.05304900  0.15521400  0.09916500  1
  S  S96  1  0.21668700  0.09816100  0.59034000  1
  S  S97  1  0.78331300  0.59816100  0.90966000  1
  S  S98  1  0.78331300  0.90183900  0.40966000  1
  S  S99  1  0.21668700  0.40183900  0.09034000  1
  S  S100  1  0.39371300  0.14820100  0.38916200  1
  S  S101  1  0.60628700  0.64820100  0.11083800  1
  S  S102  1  0.60628700  0.85179900  0.61083800  1
  S  S103  1  0.39371300  0.35179900  0.88916200  1
  S  S104  1  0.93724900  0.21918100  0.39496200  1
  S  S105  1  0.06275100  0.71918100  0.10503800  1
  S  S106  1  0.06275100  0.78081900  0.60503800  1
  S  S107  1  0.93724900  0.28081900  0.89496200  1
  S  S108  1  0.27037000  0.40500200  0.39888700  1
  S  S109  1  0.72963000  0.90500200  0.10111300  1
  S  S110  1  0.72963000  0.59499800  0.60111300  1
  S  S111  1  0.27037000  0.09499800  0.89888700  1
  N  N112  1  0.27029400  0.56204000  0.55084800  1
  N  N113  1  0.72970600  0.06204000  0.94915200  1
  N  N114  1  0.72970600  0.43796000  0.44915200  1
  N  N115  1  0.27029400  0.93796000  0.05084800  1
  N  N116  1  0.24691800  0.59092700  0.95584000  1
  N  N117  1  0.75308200  0.09092700  0.54416000  1
  N  N118  1  0.75308200  0.40907300  0.04416000  1
  N  N119  1  0.24691800  0.90907300  0.45584000  1
  N  N120  1  0.06767600  0.96204700  0.73904200  1
  N  N121  1  0.93232400  0.46204700  0.76095800  1
  N  N122  1  0.93232400  0.03795300  0.26095800  1
  N  N123  1  0.06767600  0.53795300  0.23904200  1
  N  N124  1  0.48228000  0.67233900  0.74330200  1
  N  N125  1  0.51772000  0.17233900  0.75669800  1
  N  N126  1  0.51772000  0.32766100  0.25669800  1
  N  N127  1  0.48228000  0.82766100  0.24330200  1
  O  O128  1  0.51400000  0.45546500  0.72930100  1
  O  O129  1  0.48600000  0.95546500  0.77069900  1
  O  O130  1  0.48600000  0.54453500  0.27069900  1
  O  O131  1  0.51400000  0.04453500  0.22930100  1
  O  O132  1  0.08947600  0.66753100  0.77157400  1
  O  O133  1  0.91052400  0.16753100  0.72842600  1
  O  O134  1  0.91052400  0.33246900  0.22842600  1
  O  O135  1  0.08947600  0.83246900  0.27157400  1
