# generated using pymatgen
data_Pr(In2Pd)2
_symmetry_space_group_name_H-M   'P 1'
_cell_length_a   4.63393402
_cell_length_b   10.05027690
_cell_length_c   33.59232833
_cell_angle_alpha   90.00000000
_cell_angle_beta   90.00000000
_cell_angle_gamma   90.00000000
_symmetry_Int_Tables_number   1
_chemical_formula_structural   Pr(In2Pd)2
_chemical_formula_sum   'Pr10 In40 Pd20'
_cell_volume   1564.47266578
_cell_formula_units_Z   10
loop_
 _symmetry_equiv_pos_site_id
 _symmetry_equiv_pos_as_xyz
  1  'x, y, z'
loop_
 _atom_site_type_symbol
 _atom_site_label
 _atom_site_symmetry_multiplicity
 _atom_site_fract_x
 _atom_site_fract_y
 _atom_site_fract_z
 _atom_site_occupancy
  Pr  Pr0  1  0.50000000  0.95826302  0.63881324  1
  Pr  Pr1  1  0.50000000  0.04173698  0.13881324  1
  Pr  Pr2  1  0.50000000  0.82641559  0.33755671  1
  Pr  Pr3  1  0.50000000  0.17358441  0.83755671  1
  Pr  Pr4  1  0.50000000  0.78383775  0.93811216  1
  Pr  Pr5  1  0.50000000  0.21616225  0.43811216  1
  Pr  Pr6  1  -0.00000000  0.70197649  0.49971968  1
  Pr  Pr7  1  -0.00000000  0.29802351  0.99971968  1
  Pr  Pr8  1  -0.00000000  0.45594177  0.69873907  1
  Pr  Pr9  1  -0.00000000  0.54405823  0.19873907  1
  In  In10  1  0.50000000  0.96641371  0.75017568  1
  In  In11  1  0.50000000  0.03358629  0.25017568  1
  In  In12  1  0.50000000  0.87977601  0.43952398  1
  In  In13  1  0.50000000  0.12022399  0.93952398  1
  In  In14  1  0.50000000  0.82457069  0.83294279  1
  In  In15  1  0.50000000  0.17542931  0.33294279  1
  In  In16  1  0.50000000  0.80664399  0.05173281  1
  In  In17  1  0.50000000  0.19335601  0.55173281  1
  In  In18  1  0.50000000  0.71290001  0.56776829  1
  In  In19  1  0.50000000  0.28709999  0.06776829  1
  In  In20  1  0.50000000  0.61718362  0.65133725  1
  In  In21  1  0.50000000  0.38281638  0.15133725  1
  In  In22  1  0.50000000  0.52743480  0.86136597  1
  In  In23  1  0.50000000  0.47256520  0.36136597  1
  In  In24  1  0.50000000  0.46935474  0.50880420  1
  In  In25  1  0.50000000  0.53064526  0.00880420  1
  In  In26  1  0.50000000  0.44640023  0.77099771  1
  In  In27  1  0.50000000  0.55359977  0.27099771  1
  In  In28  1  0.50000000  0.30854566  0.63971515  1
  In  In29  1  0.50000000  0.69145434  0.13971515  1
  In  In30  1  0.00000000  0.97933244  0.89049059  1
  In  In31  1  0.00000000  0.02066756  0.39049059  1
  In  In32  1  0.00000000  0.95167951  0.57006003  1
  In  In33  1  -0.00000000  0.04832049  0.07006003  1
  In  In34  1  0.00000000  0.94714607  0.98611053  1
  In  In35  1  -0.00000000  0.05285393  0.48611053  1
  In  In36  1  -0.00000000  0.87772004  0.18372113  1
  In  In37  1  -0.00000000  0.12227996  0.68372113  1
  In  In38  1  -0.00000000  0.80897829  0.69568378  1
  In  In39  1  -0.00000000  0.19102171  0.19568378  1
  In  In40  1  0.00000000  0.79661496  0.26931894  1
  In  In41  1  -0.00000000  0.20338504  0.76931894  1
  In  In42  1  -0.00000000  0.67268744  0.78127496  1
  In  In43  1  -0.00000000  0.32731256  0.28127496  1
  In  In44  1  0.00000000  0.56145803  0.93629262  1
  In  In45  1  -0.00000000  0.43854197  0.43629262  1
  In  In46  1  -0.00000000  0.46663570  0.58330608  1
  In  In47  1  -0.00000000  0.53336430  0.08330608  1
  In  In48  1  -0.00000000  0.29910108  0.89494001  1
  In  In49  1  0.00000000  0.70089892  0.39494001  1
  Pd  Pd50  1  0.50000000  0.93880523  0.51967897  1
  Pd  Pd51  1  0.50000000  0.06119477  0.01967897  1
  Pd  Pd52  1  0.50000000  0.77663815  0.22021257  1
  Pd  Pd53  1  0.50000000  0.22336185  0.72021257  1
  Pd  Pd54  1  0.50000000  0.69722790  0.73103572  1
  Pd  Pd55  1  0.50000000  0.30277210  0.23103572  1
  Pd  Pd56  1  0.50000000  0.39371199  0.93426973  1
  Pd  Pd57  1  0.50000000  0.60628801  0.43426973  1
  Pd  Pd58  1  -0.00000000  0.95339271  0.80593068  1
  Pd  Pd59  1  -0.00000000  0.04660729  0.30593068  1
  Pd  Pd60  1  -0.00000000  0.79702715  0.10416922  1
  Pd  Pd61  1  -0.00000000  0.20297285  0.60416922  1
  Pd  Pd62  1  -0.00000000  0.71642273  0.61577831  1
  Pd  Pd63  1  -0.00000000  0.28357727  0.11577831  1
  Pd  Pd64  1  -0.00000000  0.70821515  0.86536917  1
  Pd  Pd65  1  0.00000000  0.29178485  0.36536917  1
  Pd  Pd66  1  -0.00000000  0.68321537  0.01260523  1
  Pd  Pd67  1  -0.00000000  0.31678463  0.51260523  1
  Pd  Pd68  1  -0.00000000  0.42264362  0.81998706  1
  Pd  Pd69  1  -0.00000000  0.57735638  0.31998706  1
