# generated using pymatgen
data_Tl2V3O8
_symmetry_space_group_name_H-M   'P 1'
_cell_length_a   9.11103500
_cell_length_b   9.11103500
_cell_length_c   5.53164600
_cell_angle_alpha   90.00000000
_cell_angle_beta   90.00000000
_cell_angle_gamma   90.00000000
_symmetry_Int_Tables_number   1
_chemical_formula_structural   Tl2V3O8
_chemical_formula_sum   'Tl4 V6 O16'
_cell_volume   459.18723804
_cell_formula_units_Z   2
loop_
 _symmetry_equiv_pos_site_id
 _symmetry_equiv_pos_as_xyz
  1  'x, y, z'
loop_
 _atom_site_type_symbol
 _atom_site_label
 _atom_site_symmetry_multiplicity
 _atom_site_fract_x
 _atom_site_fract_y
 _atom_site_fract_z
 _atom_site_occupancy
  Tl  Tl0  1  0.16956800  0.66956800  0.76700600  1
  Tl  Tl1  1  0.83043200  0.33043200  0.76700600  1
  Tl  Tl2  1  0.66956800  0.83043200  0.76700600  1
  Tl  Tl3  1  0.33043200  0.16956800  0.76700600  1
  V  V4  1  0.63375600  0.13375600  0.29615900  1
  V  V5  1  0.36624400  0.86624400  0.29615900  1
  V  V6  1  0.13375600  0.36624400  0.29615900  1
  V  V7  1  0.86624400  0.63375600  0.29615900  1
  V  V8  1  0.00000000  0.00000000  0.30285300  1
  V  V9  1  0.50000000  0.50000000  0.30285300  1
  O  O10  1  0.00000000  0.50000000  0.41335800  1
  O  O11  1  0.50000000  0.00000000  0.41335800  1
  O  O12  1  0.63022500  0.13022500  0.99454700  1
  O  O13  1  0.36977500  0.86977500  0.99454700  1
  O  O14  1  0.13022500  0.36977500  0.99454700  1
  O  O15  1  0.86977500  0.63022500  0.99454700  1
  O  O16  1  0.08644700  0.19254500  0.40472400  1
  O  O17  1  0.91355300  0.80745500  0.40472400  1
  O  O18  1  0.19254500  0.91355300  0.40472400  1
  O  O19  1  0.41355300  0.69254500  0.40472400  1
  O  O20  1  0.80745500  0.08644700  0.40472400  1
  O  O21  1  0.58644700  0.30745500  0.40472400  1
  O  O22  1  0.30745500  0.41355300  0.40472400  1
  O  O23  1  0.69254500  0.58644700  0.40472400  1
  O  O24  1  0.00000000  0.00000000  0.00677000  1
  O  O25  1  0.50000000  0.50000000  0.00677000  1
