# generated using pymatgen
data_GdB4
_symmetry_space_group_name_H-M   'P 1'
_cell_length_a   7.13382200
_cell_length_b   7.13382200
_cell_length_c   4.04785000
_cell_angle_alpha   90.00000000
_cell_angle_beta   90.00000000
_cell_angle_gamma   90.00000000
_symmetry_Int_Tables_number   1
_chemical_formula_structural   GdB4
_chemical_formula_sum   'Gd4 B16'
_cell_volume   206.00081958
_cell_formula_units_Z   4
loop_
 _symmetry_equiv_pos_site_id
 _symmetry_equiv_pos_as_xyz
  1  'x, y, z'
loop_
 _atom_site_type_symbol
 _atom_site_label
 _atom_site_symmetry_multiplicity
 _atom_site_fract_x
 _atom_site_fract_y
 _atom_site_fract_z
 _atom_site_occupancy
  Gd  Gd0  1  0.81686300  0.31686300  0.00000000  1
  Gd  Gd1  1  0.18313700  0.68313700  0.00000000  1
  Gd  Gd2  1  0.31686300  0.18313700  0.00000000  1
  Gd  Gd3  1  0.68313700  0.81686300  0.00000000  1
  B  B4  1  0.50000000  0.50000000  0.79673700  1
  B  B5  1  0.00000000  0.00000000  0.79673700  1
  B  B6  1  0.50000000  0.50000000  0.20326300  1
  B  B7  1  0.00000000  0.00000000  0.20326300  1
  B  B8  1  0.67576100  0.53853000  0.50000000  1
  B  B9  1  0.32423900  0.46147000  0.50000000  1
  B  B10  1  0.17576100  0.96147000  0.50000000  1
  B  B11  1  0.82423900  0.03853000  0.50000000  1
  B  B12  1  0.46147000  0.67576100  0.50000000  1
  B  B13  1  0.53853000  0.32423900  0.50000000  1
  B  B14  1  0.03853000  0.17576100  0.50000000  1
  B  B15  1  0.96147000  0.82423900  0.50000000  1
  B  B16  1  0.91291800  0.58708200  0.50000000  1
  B  B17  1  0.08708200  0.41291800  0.50000000  1
  B  B18  1  0.41291800  0.91291800  0.50000000  1
  B  B19  1  0.58708200  0.08708200  0.50000000  1
