# generated using pymatgen
data_NaPN2
_symmetry_space_group_name_H-M   'P 1'
_cell_length_a   4.99877372
_cell_length_b   4.99877372
_cell_length_c   4.99877372
_cell_angle_alpha   120.05255935
_cell_angle_beta   120.05255935
_cell_angle_gamma   89.90898861
_symmetry_Int_Tables_number   1
_chemical_formula_structural   NaPN2
_chemical_formula_sum   'Na2 P2 N4'
_cell_volume   88.25304273
_cell_formula_units_Z   2
loop_
 _symmetry_equiv_pos_site_id
 _symmetry_equiv_pos_as_xyz
  1  'x, y, z'
loop_
 _atom_site_type_symbol
 _atom_site_label
 _atom_site_symmetry_multiplicity
 _atom_site_fract_x
 _atom_site_fract_y
 _atom_site_fract_z
 _atom_site_occupancy
  Na  Na0  1  0.50000000  0.50000000  0.00000000  1
  Na  Na1  1  0.25000000  0.75000000  0.50000000  1
  P  P2  1  0.75000000  0.25000000  0.50000000  1
  P  P3  1  0.00000000  0.00000000  0.00000000  1
  N  N4  1  0.87500000  0.00094700  0.62594700  1
  N  N5  1  0.99905300  0.62500000  0.87405300  1
  N  N6  1  0.37500000  0.24905300  0.37405300  1
  N  N7  1  0.75094700  0.12500000  0.12594700  1
