# generated using pymatgen
data_SrNdNiO4
_symmetry_space_group_name_H-M   'P 1'
_cell_length_a   6.75916518
_cell_length_b   6.75916518
_cell_length_c   6.75916518
_cell_angle_alpha   147.06597570
_cell_angle_beta   147.06597570
_cell_angle_gamma   47.26610435
_symmetry_Int_Tables_number   1
_chemical_formula_structural   SrNdNiO4
_chemical_formula_sum   'Sr1 Nd1 Ni1 O4'
_cell_volume   90.92652714
_cell_formula_units_Z   1
loop_
 _symmetry_equiv_pos_site_id
 _symmetry_equiv_pos_as_xyz
  1  'x, y, z'
loop_
 _atom_site_type_symbol
 _atom_site_label
 _atom_site_symmetry_multiplicity
 _atom_site_fract_x
 _atom_site_fract_y
 _atom_site_fract_z
 _atom_site_occupancy
  Sr  Sr0  1  0.64125200  0.64125200  0.00000000  1
  Nd  Nd1  1  0.36184200  0.36184200  0.00000000  1
  Ni  Ni2  1  0.00343500  0.00343500  0.00000000  1
  O  O3  1  0.83729100  0.83729100  0.00000000  1
  O  O4  1  0.17272600  0.17272600  0.00000000  1
  O  O5  1  0.99172700  0.49172700  0.50000000  1
  O  O6  1  0.49172700  0.99172700  0.50000000  1
