# generated using pymatgen
data_Ho2Fe14B
_symmetry_space_group_name_H-M   'P 1'
_cell_length_a   8.72324800
_cell_length_b   8.72324800
_cell_length_c   11.87205900
_cell_angle_alpha   90.00000000
_cell_angle_beta   90.00000000
_cell_angle_gamma   90.00000000
_symmetry_Int_Tables_number   1
_chemical_formula_structural   Ho2Fe14B
_chemical_formula_sum   'Ho8 Fe56 B4'
_cell_volume   903.40499052
_cell_formula_units_Z   4
loop_
 _symmetry_equiv_pos_site_id
 _symmetry_equiv_pos_as_xyz
  1  'x, y, z'
loop_
 _atom_site_type_symbol
 _atom_site_label
 _atom_site_symmetry_multiplicity
 _atom_site_fract_x
 _atom_site_fract_y
 _atom_site_fract_z
 _atom_site_occupancy
  Ho  Ho0  1  0.26691800  0.73308200  0.00000000  1
  Ho  Ho1  1  0.76691800  0.76691800  0.50000000  1
  Ho  Ho2  1  0.23308200  0.23308200  0.50000000  1
  Ho  Ho3  1  0.73308200  0.26691800  0.00000000  1
  Ho  Ho4  1  0.85643300  0.85643300  0.00000000  1
  Ho  Ho5  1  0.64356700  0.35643300  0.50000000  1
  Ho  Ho6  1  0.35643300  0.64356700  0.50000000  1
  Ho  Ho7  1  0.14356700  0.14356700  0.00000000  1
  Fe  Fe8  1  0.00000000  0.00000000  0.61592400  1
  Fe  Fe9  1  0.50000000  0.50000000  0.11592400  1
  Fe  Fe10  1  0.50000000  0.50000000  0.88407600  1
  Fe  Fe11  1  0.00000000  0.00000000  0.38407600  1
  Fe  Fe12  1  0.59723600  0.59723600  0.69995300  1
  Fe  Fe13  1  0.40276400  0.40276400  0.69995300  1
  Fe  Fe14  1  0.59723600  0.59723600  0.30004700  1
  Fe  Fe15  1  0.09723600  0.90276400  0.19995300  1
  Fe  Fe16  1  0.90276400  0.09723600  0.19995300  1
  Fe  Fe17  1  0.90276400  0.09723600  0.80004700  1
  Fe  Fe18  1  0.09723600  0.90276400  0.80004700  1
  Fe  Fe19  1  0.40276400  0.40276400  0.30004700  1
  Fe  Fe20  1  0.81707000  0.81707000  0.74587300  1
  Fe  Fe21  1  0.18293000  0.18293000  0.74587300  1
  Fe  Fe22  1  0.81707000  0.81707000  0.25412700  1
  Fe  Fe23  1  0.31707000  0.68293000  0.24587200  1
  Fe  Fe24  1  0.68293000  0.31707000  0.24587200  1
  Fe  Fe25  1  0.68293000  0.31707000  0.75412700  1
  Fe  Fe26  1  0.31707000  0.68293000  0.75412700  1
  Fe  Fe27  1  0.18293000  0.18293000  0.25412700  1
  Fe  Fe28  1  0.14132400  0.46291600  0.32549200  1
  Fe  Fe29  1  0.85867600  0.53708400  0.32549200  1
  Fe  Fe30  1  0.46291600  0.14132400  0.67450800  1
  Fe  Fe31  1  0.96291600  0.35867600  0.82549200  1
  Fe  Fe32  1  0.03708400  0.64132400  0.82549200  1
  Fe  Fe33  1  0.35867600  0.96291600  0.17450800  1
  Fe  Fe34  1  0.64132400  0.03708400  0.17450800  1
  Fe  Fe35  1  0.53708400  0.85867600  0.67450800  1
  Fe  Fe36  1  0.85867600  0.53708400  0.67450800  1
  Fe  Fe37  1  0.14132400  0.46291600  0.67450800  1
  Fe  Fe38  1  0.53708400  0.85867600  0.32549200  1
  Fe  Fe39  1  0.03708400  0.64132400  0.17450800  1
  Fe  Fe40  1  0.96291600  0.35867600  0.17450800  1
  Fe  Fe41  1  0.64132400  0.03708400  0.82549200  1
  Fe  Fe42  1  0.35867600  0.96291600  0.82549200  1
  Fe  Fe43  1  0.46291600  0.14132400  0.32549200  1
  Fe  Fe44  1  0.06610800  0.72441900  0.37391800  1
  Fe  Fe45  1  0.93389200  0.27558100  0.37391800  1
  Fe  Fe46  1  0.72441900  0.06610800  0.62608200  1
  Fe  Fe47  1  0.22441900  0.43389200  0.87391800  1
  Fe  Fe48  1  0.77558100  0.56610800  0.87391800  1
  Fe  Fe49  1  0.43389200  0.22441900  0.12608200  1
  Fe  Fe50  1  0.56610800  0.77558100  0.12608200  1
  Fe  Fe51  1  0.27558100  0.93389200  0.62608200  1
  Fe  Fe52  1  0.93389200  0.27558100  0.62608200  1
  Fe  Fe53  1  0.06610800  0.72441900  0.62608200  1
  Fe  Fe54  1  0.27558100  0.93389200  0.37391800  1
  Fe  Fe55  1  0.77558100  0.56610800  0.12608200  1
  Fe  Fe56  1  0.22441900  0.43389200  0.12608200  1
  Fe  Fe57  1  0.56610800  0.77558100  0.87391800  1
  Fe  Fe58  1  0.43389200  0.22441900  0.87391800  1
  Fe  Fe59  1  0.72441900  0.06610800  0.37391800  1
  Fe  Fe60  1  0.50000000  0.00000000  0.00000000  1
  Fe  Fe61  1  0.50000000  0.00000000  0.50000000  1
  Fe  Fe62  1  0.00000000  0.50000000  0.50000000  1
  Fe  Fe63  1  0.00000000  0.50000000  0.00000000  1
  B  B64  1  0.62476200  0.62476200  0.00000000  1
  B  B65  1  0.87523800  0.12476200  0.50000000  1
  B  B66  1  0.12476200  0.87523800  0.50000000  1
  B  B67  1  0.37523800  0.37523800  0.00000000  1
