# generated using pymatgen
data_Ho5NiBi2
_symmetry_space_group_name_H-M   'P 1'
_cell_length_a   7.99879300
_cell_length_b   8.87651900
_cell_length_c   12.32395400
_cell_angle_alpha   90.00000000
_cell_angle_beta   90.00000000
_cell_angle_gamma   90.00000000
_symmetry_Int_Tables_number   1
_chemical_formula_structural   Ho5NiBi2
_chemical_formula_sum   'Ho20 Ni4 Bi8'
_cell_volume   875.01845636
_cell_formula_units_Z   4
loop_
 _symmetry_equiv_pos_site_id
 _symmetry_equiv_pos_as_xyz
  1  'x, y, z'
loop_
 _atom_site_type_symbol
 _atom_site_label
 _atom_site_symmetry_multiplicity
 _atom_site_fract_x
 _atom_site_fract_y
 _atom_site_fract_z
 _atom_site_occupancy
  Ho  Ho0  1  0.84090000  0.75000000  0.79621900  1
  Ho  Ho1  1  0.15910000  0.25000000  0.20378100  1
  Ho  Ho2  1  0.34090000  0.25000000  0.70378100  1
  Ho  Ho3  1  0.65910000  0.75000000  0.29621900  1
  Ho  Ho4  1  0.37481900  0.75000000  0.68733600  1
  Ho  Ho5  1  0.62518100  0.25000000  0.31266400  1
  Ho  Ho6  1  0.87481900  0.25000000  0.81266400  1
  Ho  Ho7  1  0.12518100  0.75000000  0.18733600  1
  Ho  Ho8  1  0.95326300  0.75000000  0.50175300  1
  Ho  Ho9  1  0.04673700  0.25000000  0.49824700  1
  Ho  Ho10  1  0.45326300  0.25000000  0.99824700  1
  Ho  Ho11  1  0.54673700  0.75000000  0.00175300  1
  Ho  Ho12  1  0.67689900  0.04038400  0.56555000  1
  Ho  Ho13  1  0.32310100  0.95961600  0.43445000  1
  Ho  Ho14  1  0.17689900  0.95961600  0.93445000  1
  Ho  Ho15  1  0.32310100  0.54038400  0.43445000  1
  Ho  Ho16  1  0.82310100  0.04038400  0.06555000  1
  Ho  Ho17  1  0.67689900  0.45961600  0.56555000  1
  Ho  Ho18  1  0.82310100  0.45961600  0.06555000  1
  Ho  Ho19  1  0.17689900  0.54038400  0.93445000  1
  Ni  Ni20  1  0.57226700  0.75000000  0.50824400  1
  Ni  Ni21  1  0.42773300  0.25000000  0.49175600  1
  Ni  Ni22  1  0.07226700  0.25000000  0.99175600  1
  Ni  Ni23  1  0.92773300  0.75000000  0.00824400  1
  Bi  Bi24  1  0.56622200  0.49322900  0.82567700  1
  Bi  Bi25  1  0.43377800  0.50677100  0.17432300  1
  Bi  Bi26  1  0.06622200  0.50677100  0.67432300  1
  Bi  Bi27  1  0.43377800  0.99322900  0.17432300  1
  Bi  Bi28  1  0.93377800  0.49322900  0.32567700  1
  Bi  Bi29  1  0.56622200  0.00677100  0.82567700  1
  Bi  Bi30  1  0.93377800  0.00677100  0.32567700  1
  Bi  Bi31  1  0.06622200  0.99322900  0.67432300  1
