# generated using pymatgen
data_Na2Ta2(P2O7)3
_symmetry_space_group_name_H-M   'P 1'
_cell_length_a   9.18922500
_cell_length_b   9.18922450
_cell_length_c   12.79977600
_cell_angle_alpha   90.00000000
_cell_angle_beta   90.00000000
_cell_angle_gamma   119.99999821
_symmetry_Int_Tables_number   1
_chemical_formula_structural   Na2Ta2(P2O7)3
_chemical_formula_sum   'Na4 Ta4 P12 O42'
_cell_volume   936.03212924
_cell_formula_units_Z   2
loop_
 _symmetry_equiv_pos_site_id
 _symmetry_equiv_pos_as_xyz
  1  'x, y, z'
loop_
 _atom_site_type_symbol
 _atom_site_label
 _atom_site_symmetry_multiplicity
 _atom_site_fract_x
 _atom_site_fract_y
 _atom_site_fract_z
 _atom_site_occupancy
  Na  Na0  1  0.00000000  0.00000000  0.50000000  1
  Na  Na1  1  0.00000000  0.00000000  0.00000000  1
  Na  Na2  1  0.00000000  0.00000000  0.75000000  1
  Na  Na3  1  0.00000000  0.00000000  0.25000000  1
  Ta  Ta4  1  0.66666700  0.33333300  0.52409600  1
  Ta  Ta5  1  0.33333300  0.66666700  0.02409600  1
  Ta  Ta6  1  0.33333300  0.66666700  0.47590400  1
  Ta  Ta7  1  0.66666700  0.33333300  0.97590400  1
  P  P8  1  0.33948200  0.97874300  0.63457300  1
  P  P9  1  0.02125700  0.36073900  0.63457300  1
  P  P10  1  0.63926100  0.66051800  0.63457300  1
  P  P11  1  0.66051800  0.02125700  0.13457300  1
  P  P12  1  0.97874300  0.63926100  0.13457300  1
  P  P13  1  0.36073900  0.33948200  0.13457300  1
  P  P14  1  0.66051800  0.02125700  0.36542700  1
  P  P15  1  0.97874300  0.63926100  0.36542700  1
  P  P16  1  0.36073900  0.33948200  0.36542700  1
  P  P17  1  0.33948200  0.97874300  0.86542700  1
  P  P18  1  0.02125700  0.36073900  0.86542700  1
  P  P19  1  0.63926100  0.66051800  0.86542700  1
  O  O20  1  0.38325100  0.94046800  0.75000000  1
  O  O21  1  0.05953200  0.44278300  0.75000000  1
  O  O22  1  0.55721700  0.61674900  0.75000000  1
  O  O23  1  0.61674900  0.05953200  0.25000000  1
  O  O24  1  0.94046800  0.55721700  0.25000000  1
  O  O25  1  0.44278300  0.38325100  0.25000000  1
  O  O26  1  0.48430200  0.16150200  0.61100400  1
  O  O27  1  0.83849800  0.32279900  0.61100400  1
  O  O28  1  0.67720100  0.51569800  0.61100400  1
  O  O29  1  0.51569800  0.83849800  0.11100400  1
  O  O30  1  0.16150200  0.67720100  0.11100400  1
  O  O31  1  0.32279900  0.48430200  0.11100400  1
  O  O32  1  0.51569800  0.83849800  0.38899600  1
  O  O33  1  0.16150200  0.67720100  0.38899600  1
  O  O34  1  0.32279900  0.48430200  0.38899600  1
  O  O35  1  0.48430200  0.16150200  0.88899600  1
  O  O36  1  0.83849800  0.32279900  0.88899600  1
  O  O37  1  0.67720100  0.51569800  0.88899600  1
  O  O38  1  0.36873000  0.85651500  0.56624000  1
  O  O39  1  0.14348500  0.51221500  0.56624000  1
  O  O40  1  0.48778500  0.63127000  0.56624000  1
  O  O41  1  0.63127000  0.14348500  0.06624000  1
  O  O42  1  0.85651500  0.48778500  0.06624000  1
  O  O43  1  0.51221500  0.36873000  0.06624000  1
  O  O44  1  0.63127000  0.14348500  0.43376000  1
  O  O45  1  0.85651500  0.48778500  0.43376000  1
  O  O46  1  0.51221500  0.36873000  0.43376000  1
  O  O47  1  0.36873000  0.85651500  0.93376000  1
  O  O48  1  0.14348500  0.51221500  0.93376000  1
  O  O49  1  0.48778500  0.63127000  0.93376000  1
  O  O50  1  0.16882600  0.95650000  0.62666500  1
  O  O51  1  0.04350000  0.21232600  0.62666500  1
  O  O52  1  0.78767400  0.83117400  0.62666500  1
  O  O53  1  0.83117400  0.04350000  0.12666500  1
  O  O54  1  0.95650000  0.78767400  0.12666500  1
  O  O55  1  0.21232600  0.16882600  0.12666500  1
  O  O56  1  0.83117400  0.04350000  0.37333500  1
  O  O57  1  0.95650000  0.78767400  0.37333500  1
  O  O58  1  0.21232600  0.16882600  0.37333500  1
  O  O59  1  0.16882600  0.95650000  0.87333500  1
  O  O60  1  0.04350000  0.21232600  0.87333500  1
  O  O61  1  0.78767400  0.83117400  0.87333500  1
