# generated using pymatgen
data_Ti2Sb2Pb4O13
_symmetry_space_group_name_H-M   'P 1'
_cell_length_a   7.47085714
_cell_length_b   7.47085714
_cell_length_c   7.47085714
_cell_angle_alpha   120.15950758
_cell_angle_beta   119.77329924
_cell_angle_gamma   90.05852593
_symmetry_Int_Tables_number   1
_chemical_formula_structural   Ti2Sb2Pb4O13
_chemical_formula_sum   'Ti2 Sb2 Pb4 O13'
_cell_volume   294.99209465
_cell_formula_units_Z   1
loop_
 _symmetry_equiv_pos_site_id
 _symmetry_equiv_pos_as_xyz
  1  'x, y, z'
loop_
 _atom_site_type_symbol
 _atom_site_label
 _atom_site_symmetry_multiplicity
 _atom_site_fract_x
 _atom_site_fract_y
 _atom_site_fract_z
 _atom_site_occupancy
  Ti  Ti0  1  0.62600500  0.87720500  0.25120000  1
  Ti  Ti1  1  0.62600500  0.37480500  0.74880000  1
  Sb  Sb2  1  0.62533800  0.37502900  0.25030900  1
  Sb  Sb3  1  0.12471900  0.37502900  0.74969100  1
  Pb  Pb4  1  0.12715900  0.38176900  0.25461100  1
  Pb  Pb5  1  0.12715900  0.87254800  0.74538900  1
  Pb  Pb6  1  0.12658100  0.87327700  0.25330500  1
  Pb  Pb7  1  0.61997200  0.87327700  0.74669500  1
  O  O8  1  0.55623500  0.44218400  0.50000100  1
  O  O9  1  0.94218200  0.44218400  0.88594900  1
  O  O10  1  0.94671800  0.44671800  0.50000000  1
  O  O11  1  0.94218200  0.05623400  0.49999900  1
  O  O12  1  0.55623500  0.05623400  0.11405100  1
  O  O13  1  0.56182900  0.06182900  0.50000000  1
  O  O14  1  0.00044300  0.00044300  0.00000000  1
  O  O15  1  0.30380200  0.69564300  0.99944300  1
  O  O16  1  0.69620000  0.69564300  0.39184000  1
  O  O17  1  0.69115000  0.69115000  0.00000000  1
  O  O18  1  0.69620000  0.30436000  0.00055700  1
  O  O19  1  0.30380200  0.30436000  0.60816000  1
  O  O20  1  0.30036900  0.30036900  0.00000000  1
