# generated using pymatgen
data_Ca(As2Rh3)2
_symmetry_space_group_name_H-M   'P 1'
_cell_length_a   7.29731820
_cell_length_b   7.29731820
_cell_length_c   3.81592000
_cell_angle_alpha   90.00000000
_cell_angle_beta   90.00000000
_cell_angle_gamma   120.00000183
_symmetry_Int_Tables_number   1
_chemical_formula_structural   Ca(As2Rh3)2
_chemical_formula_sum   'Ca1 As4 Rh6'
_cell_volume   175.97722026
_cell_formula_units_Z   1
loop_
 _symmetry_equiv_pos_site_id
 _symmetry_equiv_pos_as_xyz
  1  'x, y, z'
loop_
 _atom_site_type_symbol
 _atom_site_label
 _atom_site_symmetry_multiplicity
 _atom_site_fract_x
 _atom_site_fract_y
 _atom_site_fract_z
 _atom_site_occupancy
  Ca  Ca0  1  0.00000000  0.00000000  0.00000000  1
  As  As1  1  0.81113400  0.18886600  0.50000000  1
  As  As2  1  0.37773200  0.18886600  0.50000000  1
  As  As3  1  0.33333300  0.66666700  0.00000000  1
  As  As4  1  0.81113400  0.62226800  0.50000000  1
  Rh  Rh5  1  0.19967100  0.80032900  0.50000000  1
  Rh  Rh6  1  0.19967100  0.39934200  0.50000000  1
  Rh  Rh7  1  0.53482000  0.06964100  0.00000000  1
  Rh  Rh8  1  0.93035900  0.46518000  0.00000000  1
  Rh  Rh9  1  0.53482000  0.46518000  0.00000000  1
  Rh  Rh10  1  0.60065800  0.80032900  0.50000000  1
