# generated using pymatgen
data_CaSiAu
_symmetry_space_group_name_H-M   'P 1'
_cell_length_a   4.31441167
_cell_length_b   4.31524492
_cell_length_c   4.09864300
_cell_angle_alpha   90.00000000
_cell_angle_beta   90.00000000
_cell_angle_gamma   119.98545343
_symmetry_Int_Tables_number   1
_chemical_formula_structural   CaSiAu
_chemical_formula_sum   'Ca1 Si1 Au1'
_cell_volume   66.09390261
_cell_formula_units_Z   1
loop_
 _symmetry_equiv_pos_site_id
 _symmetry_equiv_pos_as_xyz
  1  'x, y, z'
loop_
 _atom_site_type_symbol
 _atom_site_label
 _atom_site_symmetry_multiplicity
 _atom_site_fract_x
 _atom_site_fract_y
 _atom_site_fract_z
 _atom_site_occupancy
  Ca  Ca0  1  0.99995100  0.99998800  0.00000000  1
  Si  Si1  1  0.66682000  0.33361000  0.50000000  1
  Au  Au2  1  0.33313000  0.66640200  0.50000000  1
