# generated using pymatgen
data_Cs3Na2SnP3
_symmetry_space_group_name_H-M   'P 1'
_cell_length_a   10.88369198
_cell_length_b   10.88369198
_cell_length_c   16.55818300
_cell_angle_alpha   90.00000000
_cell_angle_beta   90.00000000
_cell_angle_gamma   142.91085930
_symmetry_Int_Tables_number   1
_chemical_formula_structural   Cs3Na2SnP3
_chemical_formula_sum   'Cs12 Na8 Sn4 P12'
_cell_volume   1182.83288053
_cell_formula_units_Z   4
loop_
 _symmetry_equiv_pos_site_id
 _symmetry_equiv_pos_as_xyz
  1  'x, y, z'
loop_
 _atom_site_type_symbol
 _atom_site_label
 _atom_site_symmetry_multiplicity
 _atom_site_fract_x
 _atom_site_fract_y
 _atom_site_fract_z
 _atom_site_occupancy
  Cs  Cs0  1  0.94142000  0.60725600  0.82728800  1
  Cs  Cs1  1  0.55858000  0.89274400  0.32728800  1
  Cs  Cs2  1  0.39274400  0.05858000  0.17271200  1
  Cs  Cs3  1  0.05858000  0.39274400  0.17271200  1
  Cs  Cs4  1  0.89274400  0.55858000  0.32728800  1
  Cs  Cs5  1  0.44142000  0.10725600  0.67271200  1
  Cs  Cs6  1  0.60725600  0.94142000  0.82728800  1
  Cs  Cs7  1  0.26749100  0.26749100  0.32134500  1
  Cs  Cs8  1  0.76749100  0.76749100  0.17865500  1
  Cs  Cs9  1  0.23250900  0.23250900  0.82134500  1
  Cs  Cs10  1  0.73250900  0.73250900  0.67865500  1
  Cs  Cs11  1  0.10725600  0.44142000  0.67271200  1
  Na  Na12  1  0.91939600  0.08060400  0.00000000  1
  Na  Na13  1  0.58060400  0.41939600  0.50000000  1
  Na  Na14  1  0.08060400  0.91939600  0.00000000  1
  Na  Na15  1  0.41939600  0.58060400  0.50000000  1
  Na  Na16  1  0.75409700  0.24590300  0.00000000  1
  Na  Na17  1  0.74590300  0.25409700  0.50000000  1
  Na  Na18  1  0.24590300  0.75409700  0.00000000  1
  Na  Na19  1  0.25409700  0.74590300  0.50000000  1
  Sn  Sn20  1  0.58739700  0.41260300  0.00000000  1
  Sn  Sn21  1  0.91260300  0.08739700  0.50000000  1
  Sn  Sn22  1  0.41260300  0.58739700  0.00000000  1
  Sn  Sn23  1  0.08739700  0.91260300  0.50000000  1
  P  P24  1  0.87523800  0.56109900  0.09130500  1
  P  P25  1  0.43890100  0.12476200  0.90869500  1
  P  P26  1  0.62476200  0.93890100  0.59130500  1
  P  P27  1  0.93890100  0.62476200  0.59130500  1
  P  P28  1  0.12476200  0.43890100  0.90869500  1
  P  P29  1  0.56109900  0.87523800  0.09130500  1
  P  P30  1  0.37523800  0.06109900  0.40869500  1
  P  P31  1  0.20078100  0.20078100  0.58236700  1
  P  P32  1  0.70078100  0.70078100  0.91763300  1
  P  P33  1  0.29921900  0.29921900  0.08236700  1
  P  P34  1  0.06109900  0.37523800  0.40869500  1
  P  P35  1  0.79921900  0.79921900  0.41763300  1
