# generated using pymatgen
data_Li2P7(H3N)9
_symmetry_space_group_name_H-M   'P 1'
_cell_length_a   9.46052900
_cell_length_b   9.69813470
_cell_length_c   13.74151217
_cell_angle_alpha   99.39369504
_cell_angle_beta   91.79838422
_cell_angle_gamma   118.54168196
_symmetry_Int_Tables_number   1
_chemical_formula_structural   Li2P7(H3N)9
_chemical_formula_sum   'Li4 P14 H54 N18'
_cell_volume   1083.96704853
_cell_formula_units_Z   2
loop_
 _symmetry_equiv_pos_site_id
 _symmetry_equiv_pos_as_xyz
  1  'x, y, z'
loop_
 _atom_site_type_symbol
 _atom_site_label
 _atom_site_symmetry_multiplicity
 _atom_site_fract_x
 _atom_site_fract_y
 _atom_site_fract_z
 _atom_site_occupancy
  Li  Li0  1  0.66423400  0.85783800  0.07523100  1
  Li  Li1  1  0.33576600  0.14216200  0.92476900  1
  Li  Li2  1  0.09609400  0.71991900  0.37331600  1
  Li  Li3  1  0.90390600  0.28008100  0.62668400  1
  P  P4  1  0.33617300  0.20507400  0.38046200  1
  P  P5  1  0.66382700  0.79492600  0.61953800  1
  P  P6  1  0.37553400  0.44509800  0.45710700  1
  P  P7  1  0.62446600  0.55490200  0.54289300  1
  P  P8  1  0.54679000  0.26039500  0.30172800  1
  P  P9  1  0.45321000  0.73960500  0.69827200  1
  P  P10  1  0.14513700  0.16597200  0.26800500  1
  P  P11  1  0.85486300  0.83402800  0.73199500  1
  P  P12  1  0.45025000  0.57719000  0.33457100  1
  P  P13  1  0.54975000  0.42281000  0.66542900  1
  P  P14  1  0.54320400  0.43936900  0.23051500  1
  P  P15  1  0.45679600  0.56063100  0.76948500  1
  P  P16  1  0.27838200  0.37912300  0.20818700  1
  P  P17  1  0.72161800  0.62087700  0.79181300  1
  H  H18  1  0.34810300  0.69593200  0.03040400  1
  H  H19  1  0.65189700  0.30406800  0.96959600  1
  H  H20  1  0.42870400  0.60031400  0.96558100  1
  H  H21  1  0.57129600  0.39968600  0.03441900  1
  H  H22  1  0.40416400  0.58561000  0.08320000  1
  H  H23  1  0.59583600  0.41439000  0.91680000  1
  H  H24  1  0.63745400  0.88737200  0.26587700  1
  H  H25  1  0.36254600  0.11262800  0.73412300  1
  H  H26  1  0.80640100  0.04200000  0.24816600  1
  H  H27  1  0.19359900  0.95800000  0.75183400  1
  H  H28  1  0.63163000  0.03924800  0.23042100  1
  H  H29  1  0.36837000  0.96075200  0.76957900  1
  H  H30  1  0.79879200  0.69386500  0.12427100  1
  H  H31  1  0.20120800  0.30613500  0.87572900  1
  H  H32  1  0.85164100  0.73867600  0.01498900  1
  H  H33  1  0.14835900  0.26132400  0.98501100  1
  H  H34  1  0.94407800  0.87635000  0.11935200  1
  H  H35  1  0.05592200  0.12365000  0.88064800  1
  H  H36  1  0.76446700  0.10965000  0.99253000  1
  H  H37  1  0.23553300  0.89035000  0.00747000  1
  H  H38  1  0.75457800  0.95786800  0.90935700  1
  H  H39  1  0.24542200  0.04213200  0.09064300  1
  H  H40  1  0.59066400  0.96590000  0.92831500  1
  H  H41  1  0.40933600  0.03410000  0.07168500  1
  H  H42  1  0.29503100  0.73604200  0.24242700  1
  H  H43  1  0.70496900  0.26395800  0.75757300  1
  H  H44  1  0.13278700  0.72180900  0.18373300  1
  H  H45  1  0.86721300  0.27819100  0.81626700  1
  H  H46  1  0.27008300  0.89548400  0.25070400  1
  H  H47  1  0.72991700  0.10451600  0.74929600  1
  H  H48  1  0.04733300  0.45509600  0.42883300  1
  H  H49  1  0.95266700  0.54490400  0.57116700  1
  H  H50  1  0.87165500  0.42527600  0.37639000  1
  H  H51  1  0.12834500  0.57472400  0.62361000  1
  H  H52  1  0.00958100  0.41660800  0.30964300  1
  H  H53  1  0.99041900  0.58339200  0.69035700  1
  H  H54  1  0.97063200  0.90586000  0.36258000  1
  H  H55  1  0.02936800  0.09414000  0.63742000  1
  H  H56  1  0.82053300  0.71812400  0.33903800  1
  H  H57  1  0.17946700  0.28187600  0.66096200  1
  H  H58  1  0.89790800  0.80972100  0.45360700  1
  H  H59  1  0.10209200  0.19027900  0.54639300  1
  H  H60  1  0.31861300  0.78542400  0.51905300  1
  H  H61  1  0.68138700  0.21457600  0.48094700  1
  H  H62  1  0.36100800  0.94874300  0.47491800  1
  H  H63  1  0.63899200  0.05125700  0.52508200  1
  H  H64  1  0.22579800  0.88880700  0.55196400  1
  H  H65  1  0.77420200  0.11119300  0.44803600  1
  H  H66  1  0.84334100  0.40791300  0.13638200  1
  H  H67  1  0.15665900  0.59208700  0.86361800  1
  H  H68  1  0.98966800  0.36072600  0.12923600  1
  H  H69  1  0.01033200  0.63927400  0.87076400  1
  H  H70  1  0.95776400  0.44916400  0.04694000  1
  H  H71  1  0.04223600  0.55083600  0.95306000  1
  N  N72  1  0.43564400  0.66309400  0.03509600  1
  N  N73  1  0.56435600  0.33690600  0.96490400  1
  N  N74  1  0.68592300  0.96885400  0.22075500  1
  N  N75  1  0.31407700  0.03114600  0.77924500  1
  N  N76  1  0.83510700  0.78249200  0.08402000  1
  N  N77  1  0.16489300  0.21750800  0.91598000  1
  N  N78  1  0.69784000  0.98831400  0.96480600  1
  N  N79  1  0.30216000  0.01168600  0.03519400  1
  N  N80  1  0.21109300  0.77425900  0.24813400  1
  N  N81  1  0.78890700  0.22574100  0.75186600  1
  N  N82  1  0.99448000  0.47885500  0.37241700  1
  N  N83  1  0.00552000  0.52114500  0.62758300  1
  N  N84  1  0.92801000  0.79718300  0.38299900  1
  N  N85  1  0.07199000  0.20281700  0.61700100  1
  N  N86  1  0.26949600  0.84873600  0.49327500  1
  N  N87  1  0.73050400  0.15126400  0.50672500  1
  N  N88  1  0.89955600  0.36378100  0.08777500  1
  N  N89  1  0.10044400  0.63621900  0.91222500  1
