# generated using pymatgen
data_LiVN2
_symmetry_space_group_name_H-M   'P 1'
_cell_length_a   5.08226100
_cell_length_b   5.46863200
_cell_length_c   6.65077000
_cell_angle_alpha   90.00000000
_cell_angle_beta   90.00000000
_cell_angle_gamma   90.00000000
_symmetry_Int_Tables_number   1
_chemical_formula_structural   LiVN2
_chemical_formula_sum   'Li4 V4 N8'
_cell_volume   184.84495128
_cell_formula_units_Z   4
loop_
 _symmetry_equiv_pos_site_id
 _symmetry_equiv_pos_as_xyz
  1  'x, y, z'
loop_
 _atom_site_type_symbol
 _atom_site_label
 _atom_site_symmetry_multiplicity
 _atom_site_fract_x
 _atom_site_fract_y
 _atom_site_fract_z
 _atom_site_occupancy
  Li  Li0  1  0.99166000  0.58232900  0.87710800  1
  Li  Li1  1  0.49166000  0.41767100  0.12289200  1
  Li  Li2  1  0.49166000  0.91767100  0.37710800  1
  Li  Li3  1  0.99166000  0.08232900  0.62289200  1
  V  V4  1  0.00459400  0.57392400  0.37471000  1
  V  V5  1  0.50459400  0.42607600  0.62529000  1
  V  V6  1  0.50459400  0.92607600  0.87471000  1
  V  V7  1  0.00459400  0.07392400  0.12529000  1
  N  N8  1  0.35756800  0.55379400  0.40070900  1
  N  N9  1  0.85756800  0.44620600  0.59929100  1
  N  N10  1  0.85756800  0.94620600  0.90070900  1
  N  N11  1  0.35756800  0.05379400  0.09929100  1
  N  N12  1  0.41617700  0.60551300  0.84547700  1
  N  N13  1  0.91617700  0.39448700  0.15452300  1
  N  N14  1  0.91617700  0.89448700  0.34547700  1
  N  N15  1  0.41617700  0.10551300  0.65452300  1
