# generated using pymatgen
data_Nd2HfS5
_symmetry_space_group_name_H-M   'P 1'
_cell_length_a   7.39740700
_cell_length_b   7.96432300
_cell_length_c   11.69334800
_cell_angle_alpha   90.00000000
_cell_angle_beta   90.00000000
_cell_angle_gamma   90.00000000
_symmetry_Int_Tables_number   1
_chemical_formula_structural   Nd2HfS5
_chemical_formula_sum   'Nd8 Hf4 S20'
_cell_volume   688.91755808
_cell_formula_units_Z   4
loop_
 _symmetry_equiv_pos_site_id
 _symmetry_equiv_pos_as_xyz
  1  'x, y, z'
loop_
 _atom_site_type_symbol
 _atom_site_label
 _atom_site_symmetry_multiplicity
 _atom_site_fract_x
 _atom_site_fract_y
 _atom_site_fract_z
 _atom_site_occupancy
  Nd  Nd0  1  0.52806800  0.49815600  0.32259500  1
  Nd  Nd1  1  0.97193200  0.00184400  0.82259500  1
  Nd  Nd2  1  0.47193200  0.99815600  0.67740500  1
  Nd  Nd3  1  0.02806800  0.50184400  0.17740500  1
  Nd  Nd4  1  0.47193200  0.50184400  0.67740500  1
  Nd  Nd5  1  0.02806800  0.99815600  0.17740500  1
  Nd  Nd6  1  0.52806800  0.00184400  0.32259500  1
  Nd  Nd7  1  0.97193200  0.49815600  0.82259500  1
  Hf  Hf8  1  0.07391700  0.75000000  0.49343700  1
  Hf  Hf9  1  0.42608300  0.75000000  0.99343700  1
  Hf  Hf10  1  0.92608300  0.25000000  0.50656300  1
  Hf  Hf11  1  0.57391700  0.25000000  0.00656300  1
  S  S12  1  0.83946600  0.96471500  0.58751400  1
  S  S13  1  0.66053400  0.53528500  0.08751400  1
  S  S14  1  0.16053400  0.46471500  0.41248600  1
  S  S15  1  0.33946600  0.03528500  0.91248600  1
  S  S16  1  0.16053400  0.03528500  0.41248600  1
  S  S17  1  0.33946600  0.46471500  0.91248600  1
  S  S18  1  0.83946600  0.53528500  0.58751400  1
  S  S19  1  0.66053400  0.96471500  0.08751400  1
  S  S20  1  0.83894600  0.75000000  0.31942500  1
  S  S21  1  0.66105400  0.75000000  0.81942500  1
  S  S22  1  0.16105400  0.25000000  0.68057500  1
  S  S23  1  0.33894600  0.25000000  0.18057500  1
  S  S24  1  0.44033900  0.75000000  0.49458600  1
  S  S25  1  0.05966100  0.75000000  0.99458600  1
  S  S26  1  0.55966100  0.25000000  0.50541400  1
  S  S27  1  0.94033900  0.25000000  0.00541400  1
  S  S28  1  0.18326100  0.75000000  0.70424000  1
  S  S29  1  0.31673900  0.75000000  0.20424000  1
  S  S30  1  0.81673900  0.25000000  0.29576000  1
  S  S31  1  0.68326100  0.25000000  0.79576000  1
