# generated using pymatgen
data_Na(CrS2)2
_symmetry_space_group_name_H-M   'P 1'
_cell_length_a   5.92225500
_cell_length_b   6.88820700
_cell_length_c   14.05330600
_cell_angle_alpha   90.00000000
_cell_angle_beta   90.00000000
_cell_angle_gamma   90.00000000
_symmetry_Int_Tables_number   1
_chemical_formula_structural   Na(CrS2)2
_chemical_formula_sum   'Na4 Cr8 S16'
_cell_volume   573.28660681
_cell_formula_units_Z   4
loop_
 _symmetry_equiv_pos_site_id
 _symmetry_equiv_pos_as_xyz
  1  'x, y, z'
loop_
 _atom_site_type_symbol
 _atom_site_label
 _atom_site_symmetry_multiplicity
 _atom_site_fract_x
 _atom_site_fract_y
 _atom_site_fract_z
 _atom_site_occupancy
  Na  Na0  1  0.32325800  0.00000000  0.00000000  1
  Na  Na1  1  0.67674200  0.50000000  0.50000000  1
  Na  Na2  1  0.02663900  0.00000000  0.50000000  1
  Na  Na3  1  0.97336100  0.50000000  0.00000000  1
  Cr  Cr4  1  0.98628300  0.00000000  0.24697100  1
  Cr  Cr5  1  0.98628300  0.00000000  0.75302900  1
  Cr  Cr6  1  0.01371700  0.50000000  0.25302900  1
  Cr  Cr7  1  0.01371700  0.50000000  0.74697100  1
  Cr  Cr8  1  0.50000000  0.25000000  0.25000000  1
  Cr  Cr9  1  0.50000000  0.75000000  0.75000000  1
  Cr  Cr10  1  0.50000000  0.75000000  0.25000000  1
  Cr  Cr11  1  0.50000000  0.25000000  0.75000000  1
  S  S12  1  0.83573000  0.25000600  0.34573800  1
  S  S13  1  0.83573000  0.74999400  0.65426200  1
  S  S14  1  0.16427000  0.75000600  0.15426200  1
  S  S15  1  0.16427000  0.24999400  0.84573800  1
  S  S16  1  0.16427000  0.24999400  0.15426200  1
  S  S17  1  0.16427000  0.75000600  0.84573800  1
  S  S18  1  0.83573000  0.74999400  0.34573800  1
  S  S19  1  0.83573000  0.25000600  0.65426200  1
  S  S20  1  0.66206100  0.00000000  0.15281200  1
  S  S21  1  0.66206100  0.00000000  0.84718800  1
  S  S22  1  0.33793900  0.50000000  0.34718800  1
  S  S23  1  0.33793900  0.50000000  0.65281200  1
  S  S24  1  0.32991700  0.00000000  0.34177700  1
  S  S25  1  0.32991700  0.00000000  0.65822300  1
  S  S26  1  0.67008300  0.50000000  0.15822300  1
  S  S27  1  0.67008300  0.50000000  0.84177700  1
