# generated using pymatgen
data_CeZnPt
_symmetry_space_group_name_H-M   'P 1'
_cell_length_a   4.34376400
_cell_length_b   6.95261200
_cell_length_c   8.12430700
_cell_angle_alpha   90.00000000
_cell_angle_beta   90.00000000
_cell_angle_gamma   90.00000000
_symmetry_Int_Tables_number   1
_chemical_formula_structural   CeZnPt
_chemical_formula_sum   'Ce4 Zn4 Pt4'
_cell_volume   245.35817996
_cell_formula_units_Z   4
loop_
 _symmetry_equiv_pos_site_id
 _symmetry_equiv_pos_as_xyz
  1  'x, y, z'
loop_
 _atom_site_type_symbol
 _atom_site_label
 _atom_site_symmetry_multiplicity
 _atom_site_fract_x
 _atom_site_fract_y
 _atom_site_fract_z
 _atom_site_occupancy
  Ce  Ce0  1  0.75000000  0.46534400  0.80661200  1
  Ce  Ce1  1  0.25000000  0.03465600  0.30661200  1
  Ce  Ce2  1  0.75000000  0.96534400  0.69338800  1
  Ce  Ce3  1  0.25000000  0.53465600  0.19338800  1
  Zn  Zn4  1  0.25000000  0.64615800  0.56540900  1
  Zn  Zn5  1  0.25000000  0.14615800  0.93459100  1
  Zn  Zn6  1  0.75000000  0.35384200  0.43459100  1
  Zn  Zn7  1  0.75000000  0.85384200  0.06540900  1
  Pt  Pt8  1  0.25000000  0.75467600  0.88668900  1
  Pt  Pt9  1  0.25000000  0.25467600  0.61331100  1
  Pt  Pt10  1  0.75000000  0.74532400  0.38668900  1
  Pt  Pt11  1  0.75000000  0.24532400  0.11331100  1
