# generated using pymatgen
data_BaTbAgS3
_symmetry_space_group_name_H-M   'P 1'
_cell_length_a   9.08461414
_cell_length_b   9.08461414
_cell_length_c   8.63372620
_cell_angle_alpha   77.28902516
_cell_angle_beta   77.28902516
_cell_angle_gamma   26.04622405
_symmetry_Int_Tables_number   1
_chemical_formula_structural   BaTbAgS3
_chemical_formula_sum   'Ba2 Tb2 Ag2 S6'
_cell_volume   304.79153635
_cell_formula_units_Z   2
loop_
 _symmetry_equiv_pos_site_id
 _symmetry_equiv_pos_as_xyz
  1  'x, y, z'
loop_
 _atom_site_type_symbol
 _atom_site_label
 _atom_site_symmetry_multiplicity
 _atom_site_fract_x
 _atom_site_fract_y
 _atom_site_fract_z
 _atom_site_occupancy
  Ba  Ba0  1  0.13511700  0.13511700  0.43074300  1
  Ba  Ba1  1  0.86488300  0.86488300  0.56925700  1
  Tb  Tb2  1  0.16389100  0.16389100  0.91830700  1
  Tb  Tb3  1  0.83610900  0.83610900  0.08169300  1
  Ag  Ag4  1  0.51632400  0.51632400  0.79144800  1
  Ag  Ag5  1  0.48367600  0.48367600  0.20855200  1
  S  S6  1  0.32538100  0.32538100  0.86971100  1
  S  S7  1  0.67461900  0.67461900  0.13028900  1
  S  S8  1  0.67592100  0.67592100  0.69803000  1
  S  S9  1  0.32407900  0.32407900  0.30197000  1
  S  S10  1  0.50000000  0.50000000  0.50000000  1
  S  S11  1  0.00000000  0.00000000  0.00000000  1
