# generated using pymatgen
data_KSb5S8
_symmetry_space_group_name_H-M   'P 1'
_cell_length_a   19.71886500
_cell_length_b   8.64863400
_cell_length_c   12.57252462
_cell_angle_alpha   46.71040089
_cell_angle_beta   90.00000000
_cell_angle_gamma   90.00000000
_symmetry_Int_Tables_number   1
_chemical_formula_structural   KSb5S8
_chemical_formula_sum   'K4 Sb20 S32'
_cell_volume   1560.70923858
_cell_formula_units_Z   4
loop_
 _symmetry_equiv_pos_site_id
 _symmetry_equiv_pos_as_xyz
  1  'x, y, z'
loop_
 _atom_site_type_symbol
 _atom_site_label
 _atom_site_symmetry_multiplicity
 _atom_site_fract_x
 _atom_site_fract_y
 _atom_site_fract_z
 _atom_site_occupancy
  K  K0  1  0.94935500  0.07820900  0.23442900  1
  K  K1  1  0.05064500  0.07820900  0.73442900  1
  K  K2  1  0.55349500  0.01721000  0.49868100  1
  K  K3  1  0.44650500  0.01721000  0.99868100  1
  Sb  Sb4  1  0.84704500  0.39917900  0.53585400  1
  Sb  Sb5  1  0.15295500  0.39917900  0.03585400  1
  Sb  Sb6  1  0.95527200  0.56681800  0.70307500  1
  Sb  Sb7  1  0.04472800  0.56681800  0.20307500  1
  Sb  Sb8  1  0.87016500  0.99894000  0.97234000  1
  Sb  Sb9  1  0.12983500  0.99894000  0.47234000  1
  Sb  Sb10  1  0.63063000  0.64322600  0.29435100  1
  Sb  Sb11  1  0.36937000  0.64322600  0.79435100  1
  Sb  Sb12  1  0.73782000  0.80035000  0.49349600  1
  Sb  Sb13  1  0.26218000  0.80035000  0.99349600  1
  Sb  Sb14  1  0.78410200  0.37519100  0.24580200  1
  Sb  Sb15  1  0.21589800  0.37519100  0.74580200  1
  Sb  Sb16  1  0.71323200  0.21085600  0.05045000  1
  Sb  Sb17  1  0.28676800  0.21085600  0.55045000  1
  Sb  Sb18  1  0.53936400  0.58063900  0.95244600  1
  Sb  Sb19  1  0.46063600  0.58063900  0.45244600  1
  Sb  Sb20  1  0.64957300  0.14548500  0.77212800  1
  Sb  Sb21  1  0.35042700  0.14548500  0.27212800  1
  Sb  Sb22  1  0.76991900  0.79414500  0.79963900  1
  Sb  Sb23  1  0.23008100  0.79414500  0.29963900  1
  S  S24  1  0.96263900  0.55606900  0.51283400  1
  S  S25  1  0.03736100  0.55606900  0.01283400  1
  S  S26  1  0.91758100  0.63785400  0.19390400  1
  S  S27  1  0.08241900  0.63785400  0.69390400  1
  S  S28  1  0.98077600  0.18565800  0.92530200  1
  S  S29  1  0.01922400  0.18565800  0.42530200  1
  S  S30  1  0.50822500  0.54854200  0.28561100  1
  S  S31  1  0.49177500  0.54854200  0.78561100  1
  S  S32  1  0.59524800  0.60535200  0.49917000  1
  S  S33  1  0.40475200  0.60535200  0.99917000  1
  S  S34  1  0.80253800  0.43293200  0.70416700  1
  S  S35  1  0.19746200  0.43293200  0.20416700  1
  S  S36  1  0.77324200  0.77622800  0.31915600  1
  S  S37  1  0.22675800  0.77622800  0.81915600  1
  S  S38  1  0.83752300  0.01846600  0.45696900  1
  S  S39  1  0.16247700  0.01846600  0.95696900  1
  S  S40  1  0.60304600  0.02549700  0.08453500  1
  S  S41  1  0.39695400  0.02549700  0.58453500  1
  S  S42  1  0.67662800  0.20481100  0.24672400  1
  S  S43  1  0.32337200  0.20481100  0.74672400  1
  S  S44  1  0.53999800  0.97714500  0.78861800  1
  S  S45  1  0.46000200  0.97714500  0.28861800  1
  S  S46  1  0.65942700  0.56825000  0.84057200  1
  S  S47  1  0.34057300  0.56825000  0.34057200  1
  S  S48  1  0.27836100  0.81692400  0.47124500  1
  S  S49  1  0.72163900  0.81692400  0.97124500  1
  S  S50  1  0.29332700  0.16133000  0.08897000  1
  S  S51  1  0.70667300  0.16133000  0.58897000  1
  S  S52  1  0.11171500  0.99950500  0.27756000  1
  S  S53  1  0.88828500  0.99950500  0.77756000  1
  S  S54  1  0.16839500  0.42288900  0.54587000  1
  S  S55  1  0.83160500  0.42288900  0.04587000  1
