# generated using pymatgen
data_NaErGeO4
_symmetry_space_group_name_H-M   'P 1'
_cell_length_a   5.31325600
_cell_length_b   6.45840300
_cell_length_c   11.43935900
_cell_angle_alpha   90.00000000
_cell_angle_beta   90.00000000
_cell_angle_gamma   90.00000000
_symmetry_Int_Tables_number   1
_chemical_formula_structural   NaErGeO4
_chemical_formula_sum   'Na4 Er4 Ge4 O16'
_cell_volume   392.54330272
_cell_formula_units_Z   4
loop_
 _symmetry_equiv_pos_site_id
 _symmetry_equiv_pos_as_xyz
  1  'x, y, z'
loop_
 _atom_site_type_symbol
 _atom_site_label
 _atom_site_symmetry_multiplicity
 _atom_site_fract_x
 _atom_site_fract_y
 _atom_site_fract_z
 _atom_site_occupancy
  Na  Na0  1  0.50000000  0.00000000  0.00000000  1
  Na  Na1  1  0.00000000  0.00000000  0.50000000  1
  Na  Na2  1  0.50000000  0.50000000  0.00000000  1
  Na  Na3  1  0.00000000  0.50000000  0.50000000  1
  Er  Er4  1  0.00532700  0.75000000  0.77709900  1
  Er  Er5  1  0.50532700  0.25000000  0.72290100  1
  Er  Er6  1  0.99467300  0.25000000  0.22290100  1
  Er  Er7  1  0.49467300  0.75000000  0.27709900  1
  Ge  Ge8  1  0.05260200  0.75000000  0.09809400  1
  Ge  Ge9  1  0.55260200  0.25000000  0.40190600  1
  Ge  Ge10  1  0.94739800  0.25000000  0.90190600  1
  Ge  Ge11  1  0.44739800  0.75000000  0.59809400  1
  O  O12  1  0.79220100  0.04135100  0.82452400  1
  O  O13  1  0.29220100  0.95864900  0.67547600  1
  O  O14  1  0.20779900  0.54135100  0.17547600  1
  O  O15  1  0.70779900  0.45864900  0.32452400  1
  O  O16  1  0.20779900  0.95864900  0.17547600  1
  O  O17  1  0.70779900  0.04135100  0.32452400  1
  O  O18  1  0.79220100  0.45864900  0.82452400  1
  O  O19  1  0.29220100  0.54135100  0.67547600  1
  O  O20  1  0.17066700  0.75000000  0.95402000  1
  O  O21  1  0.67066700  0.25000000  0.54598000  1
  O  O22  1  0.82933300  0.25000000  0.04598000  1
  O  O23  1  0.32933300  0.75000000  0.45402000  1
  O  O24  1  0.77465000  0.75000000  0.61184600  1
  O  O25  1  0.27465000  0.25000000  0.88815400  1
  O  O26  1  0.22535000  0.25000000  0.38815400  1
  O  O27  1  0.72535000  0.75000000  0.11184600  1
