# generated using pymatgen
data_Pr(Cu2P)2
_symmetry_space_group_name_H-M   'P 1'
_cell_length_a   3.90487600
_cell_length_b   11.06252400
_cell_length_c   14.69019800
_cell_angle_alpha   90.00000000
_cell_angle_beta   90.00000000
_cell_angle_gamma   90.00000000
_symmetry_Int_Tables_number   1
_chemical_formula_structural   Pr(Cu2P)2
_chemical_formula_sum   'Pr6 Cu24 P12'
_cell_volume   634.58400698
_cell_formula_units_Z   6
loop_
 _symmetry_equiv_pos_site_id
 _symmetry_equiv_pos_as_xyz
  1  'x, y, z'
loop_
 _atom_site_type_symbol
 _atom_site_label
 _atom_site_symmetry_multiplicity
 _atom_site_fract_x
 _atom_site_fract_y
 _atom_site_fract_z
 _atom_site_occupancy
  Pr  Pr0  1  0.00000000  0.12047000  0.72572100  1
  Pr  Pr1  1  0.00000000  0.87953000  0.27427900  1
  Pr  Pr2  1  0.50000000  0.37953000  0.22572100  1
  Pr  Pr3  1  0.50000000  0.62047000  0.77427900  1
  Pr  Pr4  1  0.00000000  0.00000000  0.00000000  1
  Pr  Pr5  1  0.50000000  0.50000000  0.50000000  1
  Cu  Cu6  1  0.00000000  0.07230700  0.43851100  1
  Cu  Cu7  1  0.00000000  0.92769300  0.56148900  1
  Cu  Cu8  1  0.50000000  0.42769300  0.93851100  1
  Cu  Cu9  1  0.50000000  0.57230700  0.06148900  1
  Cu  Cu10  1  0.00000000  0.39907500  0.05183800  1
  Cu  Cu11  1  0.00000000  0.60092500  0.94816200  1
  Cu  Cu12  1  0.50000000  0.10092500  0.55183800  1
  Cu  Cu13  1  0.50000000  0.89907500  0.44816200  1
  Cu  Cu14  1  0.00000000  0.57519200  0.33092000  1
  Cu  Cu15  1  0.00000000  0.42480800  0.66908000  1
  Cu  Cu16  1  0.50000000  0.92480800  0.83092000  1
  Cu  Cu17  1  0.50000000  0.07519200  0.16908000  1
  Cu  Cu18  1  0.00000000  0.26717800  0.53653500  1
  Cu  Cu19  1  0.00000000  0.73282200  0.46346500  1
  Cu  Cu20  1  0.50000000  0.23282200  0.03653500  1
  Cu  Cu21  1  0.50000000  0.76717800  0.96346500  1
  Cu  Cu22  1  0.00000000  0.74462400  0.08833400  1
  Cu  Cu23  1  0.00000000  0.25537600  0.91166600  1
  Cu  Cu24  1  0.50000000  0.75537600  0.58833400  1
  Cu  Cu25  1  0.50000000  0.24462400  0.41166600  1
  Cu  Cu26  1  0.00000000  0.17254100  0.28641700  1
  Cu  Cu27  1  0.00000000  0.82745900  0.71358300  1
  Cu  Cu28  1  0.50000000  0.32745900  0.78641700  1
  Cu  Cu29  1  0.50000000  0.67254100  0.21358300  1
  P  P30  1  0.00000000  0.36722300  0.38524600  1
  P  P31  1  0.00000000  0.63277700  0.61475400  1
  P  P32  1  0.50000000  0.13277700  0.88524600  1
  P  P33  1  0.50000000  0.86722300  0.11475400  1
  P  P34  1  0.00000000  0.56086100  0.16313700  1
  P  P35  1  0.00000000  0.43913900  0.83686300  1
  P  P36  1  0.50000000  0.93913900  0.66313700  1
  P  P37  1  0.50000000  0.06086100  0.33686300  1
  P  P38  1  0.00000000  0.20626500  0.12942100  1
  P  P39  1  0.00000000  0.79373500  0.87057900  1
  P  P40  1  0.50000000  0.29373500  0.62942100  1
  P  P41  1  0.50000000  0.70626500  0.37057900  1
