# generated using pymatgen
data_Er12Ga9Ge11
_symmetry_space_group_name_H-M   'P 1'
_cell_length_a   5.98032912
_cell_length_b   5.98032912
_cell_length_c   18.73256300
_cell_angle_alpha   90.00000000
_cell_angle_beta   90.00000000
_cell_angle_gamma   102.97241388
_symmetry_Int_Tables_number   1
_chemical_formula_structural   Er12Ga9Ge11
_chemical_formula_sum   'Er12 Ga9 Ge11'
_cell_volume   652.85919815
_cell_formula_units_Z   1
loop_
 _symmetry_equiv_pos_site_id
 _symmetry_equiv_pos_as_xyz
  1  'x, y, z'
loop_
 _atom_site_type_symbol
 _atom_site_label
 _atom_site_symmetry_multiplicity
 _atom_site_fract_x
 _atom_site_fract_y
 _atom_site_fract_z
 _atom_site_occupancy
  Er  Er0  1  0.65449700  0.65449700  0.00000000  1
  Er  Er1  1  0.65376000  0.65376000  0.50000000  1
  Er  Er2  1  0.34623600  0.34623600  0.25007200  1
  Er  Er3  1  0.34623600  0.34623600  0.74992800  1
  Er  Er4  1  0.19923800  0.80121300  0.12480000  1
  Er  Er5  1  0.19873700  0.80118300  0.62507100  1
  Er  Er6  1  0.19923800  0.80121300  0.87520000  1
  Er  Er7  1  0.19873700  0.80118300  0.37492900  1
  Er  Er8  1  0.80121300  0.19923800  0.12480000  1
  Er  Er9  1  0.80118300  0.19873700  0.62507100  1
  Er  Er10  1  0.80118300  0.19873700  0.37492900  1
  Er  Er11  1  0.80121300  0.19923800  0.87520000  1
  Ga  Ga12  1  0.31983600  0.31983600  0.90123400  1
  Ga  Ga13  1  0.32268200  0.32268200  0.40014600  1
  Ga  Ga14  1  0.67749500  0.67749500  0.34973200  1
  Ga  Ga15  1  0.67815700  0.67815700  0.84997700  1
  Ga  Ga16  1  0.31983600  0.31983600  0.09876600  1
  Ga  Ga17  1  0.32268200  0.32268200  0.59985400  1
  Ga  Ga18  1  0.67815700  0.67815700  0.15002300  1
  Ga  Ga19  1  0.67749500  0.67749500  0.65026800  1
  Ga  Ga20  1  0.04111800  0.04111800  0.00000000  1
  Ge  Ge21  1  0.49456700  0.08702900  0.00000000  1
  Ge  Ge22  1  0.49486400  0.08734500  0.50000000  1
  Ge  Ge23  1  0.91295400  0.50533500  0.24985700  1
  Ge  Ge24  1  0.91295400  0.50533500  0.75014300  1
  Ge  Ge25  1  0.50533500  0.91295400  0.24985700  1
  Ge  Ge26  1  0.50533500  0.91295400  0.75014300  1
  Ge  Ge27  1  0.08702900  0.49456700  0.00000000  1
  Ge  Ge28  1  0.08734500  0.49486400  0.50000000  1
  Ge  Ge29  1  0.04007200  0.04007200  0.50000000  1
  Ge  Ge30  1  0.96030900  0.96030900  0.25012500  1
  Ge  Ge31  1  0.96030900  0.96030900  0.74987500  1
