# generated using pymatgen
data_Sc4OsCl4
_symmetry_space_group_name_H-M   'P 1'
_cell_length_a   8.07649135
_cell_length_b   8.07649135
_cell_length_c   6.15920931
_cell_angle_alpha   89.48572423
_cell_angle_beta   89.48572423
_cell_angle_gamma   89.30910862
_symmetry_Int_Tables_number   1
_chemical_formula_structural   Sc4OsCl4
_chemical_formula_sum   'Sc8 Os2 Cl8'
_cell_volume   401.70226324
_cell_formula_units_Z   2
loop_
 _symmetry_equiv_pos_site_id
 _symmetry_equiv_pos_as_xyz
  1  'x, y, z'
loop_
 _atom_site_type_symbol
 _atom_site_label
 _atom_site_symmetry_multiplicity
 _atom_site_fract_x
 _atom_site_fract_y
 _atom_site_fract_z
 _atom_site_occupancy
  Sc  Sc0  1  0.10402600  0.74083700  0.98361300  1
  Sc  Sc1  1  0.25916300  0.89597400  0.51638700  1
  Sc  Sc2  1  0.89597400  0.25916300  0.01638700  1
  Sc  Sc3  1  0.74083700  0.10402600  0.48361300  1
  Sc  Sc4  1  0.74256200  0.89709000  0.01316700  1
  Sc  Sc5  1  0.10291000  0.25743800  0.48683300  1
  Sc  Sc6  1  0.25743800  0.10291000  0.98683300  1
  Sc  Sc7  1  0.89709000  0.74256200  0.51316700  1
  Os  Os8  1  0.00921500  0.99078500  0.25000000  1
  Os  Os9  1  0.99078500  0.00921500  0.75000000  1
  Cl  Cl10  1  0.42174600  0.81918500  0.89781300  1
  Cl  Cl11  1  0.18081500  0.57825400  0.60218700  1
  Cl  Cl12  1  0.57825400  0.18081500  0.10218700  1
  Cl  Cl13  1  0.81918500  0.42174600  0.39781300  1
  Cl  Cl14  1  0.80679000  0.58167200  0.89529200  1
  Cl  Cl15  1  0.41832800  0.19321000  0.60470800  1
  Cl  Cl16  1  0.19321000  0.41832800  0.10470800  1
  Cl  Cl17  1  0.58167200  0.80679000  0.39529200  1
