# generated using pymatgen
data_SiPtSe
_symmetry_space_group_name_H-M   'P 1'
_cell_length_a   5.94753500
_cell_length_b   5.99530000
_cell_length_c   6.09495300
_cell_angle_alpha   90.00000000
_cell_angle_beta   90.00000000
_cell_angle_gamma   90.00000000
_symmetry_Int_Tables_number   1
_chemical_formula_structural   SiPtSe
_chemical_formula_sum   'Si4 Pt4 Se4'
_cell_volume   217.32930300
_cell_formula_units_Z   4
loop_
 _symmetry_equiv_pos_site_id
 _symmetry_equiv_pos_as_xyz
  1  'x, y, z'
loop_
 _atom_site_type_symbol
 _atom_site_label
 _atom_site_symmetry_multiplicity
 _atom_site_fract_x
 _atom_site_fract_y
 _atom_site_fract_z
 _atom_site_occupancy
  Si  Si0  1  0.61505000  0.88518500  0.87640400  1
  Si  Si1  1  0.11505000  0.11481500  0.12359600  1
  Si  Si2  1  0.11505000  0.61481500  0.87640400  1
  Si  Si3  1  0.61505000  0.38518500  0.12359600  1
  Pt  Pt4  1  0.99432900  0.48289300  0.22936700  1
  Pt  Pt5  1  0.49432900  0.51710700  0.77063300  1
  Pt  Pt6  1  0.49432900  0.01710700  0.22936700  1
  Pt  Pt7  1  0.99432900  0.98289300  0.77063300  1
  Se  Se8  1  0.38962100  0.11396200  0.64046600  1
  Se  Se9  1  0.88962100  0.88603800  0.35953400  1
  Se  Se10  1  0.88962100  0.38603800  0.64046600  1
  Se  Se11  1  0.38962100  0.61396200  0.35953400  1
