# generated using pymatgen
data_Rb4MgFe8H6(Se8O25)2
_symmetry_space_group_name_H-M   'P 1'
_cell_length_a   7.85226200
_cell_length_b   10.51530752
_cell_length_c   16.13059088
_cell_angle_alpha   77.45945308
_cell_angle_beta   88.64679850
_cell_angle_gamma   86.21290620
_symmetry_Int_Tables_number   1
_chemical_formula_structural   Rb4MgFe8H6(Se8O25)2
_chemical_formula_sum   'Rb4 Mg1 Fe8 H6 Se16 O50'
_cell_volume   1297.21283360
_cell_formula_units_Z   1
loop_
 _symmetry_equiv_pos_site_id
 _symmetry_equiv_pos_as_xyz
  1  'x, y, z'
loop_
 _atom_site_type_symbol
 _atom_site_label
 _atom_site_symmetry_multiplicity
 _atom_site_fract_x
 _atom_site_fract_y
 _atom_site_fract_z
 _atom_site_occupancy
  Rb  Rb0  1  0.51703600  0.69687900  0.26141100  1
  Rb  Rb1  1  0.48296400  0.30312100  0.73858900  1
  Rb  Rb2  1  0.90615600  0.69603300  0.83730400  1
  Rb  Rb3  1  0.09384400  0.30396700  0.16269600  1
  Mg  Mg4  1  0.50000000  0.00000000  0.50000000  1
  Fe  Fe5  1  0.59182100  0.25939600  0.30699100  1
  Fe  Fe6  1  0.40817900  0.74060400  0.69300900  1
  Fe  Fe7  1  0.74960900  0.64795900  0.51968400  1
  Fe  Fe8  1  0.25039100  0.35204100  0.48031600  1
  Fe  Fe9  1  0.54835700  0.74927700  0.99765800  1
  Fe  Fe10  1  0.45164300  0.25072300  0.00234200  1
  Fe  Fe11  1  0.97720000  0.09705300  0.77027200  1
  Fe  Fe12  1  0.02280000  0.90294700  0.22972800  1
  H  H13  1  0.21296500  0.61823200  0.09705300  1
  H  H14  1  0.78703500  0.38176800  0.90294700  1
  H  H15  1  0.00322300  0.71809500  0.61355700  1
  H  H16  1  0.99677700  0.28190500  0.38644300  1
  H  H17  1  0.81590600  0.78129100  0.63858400  1
  H  H18  1  0.18409400  0.21870900  0.36141600  1
  Se  Se19  1  0.55206300  0.46073600  0.11880100  1
  Se  Se20  1  0.44793700  0.53926400  0.88119900  1
  Se  Se21  1  0.80646600  0.94419000  0.39959100  1
  Se  Se22  1  0.19353400  0.05581000  0.60040900  1
  Se  Se23  1  0.68874000  0.03147500  0.93387300  1
  Se  Se24  1  0.31126000  0.96852500  0.06612700  1
  Se  Se25  1  0.96449000  0.38060500  0.63602000  1
  Se  Se26  1  0.03551000  0.61939500  0.36398000  1
  Se  Se27  1  0.67573900  0.37547200  0.45429700  1
  Se  Se28  1  0.32426100  0.62452800  0.54570300  1
  Se  Se29  1  0.71577900  0.10408600  0.15103000  1
  Se  Se30  1  0.28422100  0.89591400  0.84897000  1
  Se  Se31  1  0.66701100  0.98629200  0.68205300  1
  Se  Se32  1  0.33298900  0.01370800  0.31794700  1
  Se  Se33  1  0.95817500  0.75089600  0.08149200  1
  Se  Se34  1  0.04182500  0.24910400  0.91850800  1
  O  O35  1  0.51040900  0.42714700  0.22750600  1
  O  O36  1  0.48959100  0.57285300  0.77249400  1
  O  O37  1  0.44564200  0.61542400  0.09457100  1
  O  O38  1  0.55435800  0.38457600  0.90542900  1
  O  O39  1  0.40224000  0.37669500  0.07930600  1
  O  O40  1  0.59776000  0.62330500  0.92069400  1
  O  O41  1  0.66387500  0.83338500  0.45474500  1
  O  O42  1  0.33612500  0.16661500  0.54525500  1
  O  O43  1  0.65583900  0.07751100  0.39236900  1
  O  O44  1  0.34416100  0.92248900  0.60763100  1
  O  O45  1  0.80025500  0.91020500  0.29987900  1
  O  O46  1  0.19974500  0.08979500  0.70012100  1
  O  O47  1  0.48813900  0.11532000  0.92938300  1
  O  O48  1  0.51186100  0.88468000  0.07061700  1
  O  O49  1  0.64298700  0.88992200  0.90273800  1
  O  O50  1  0.35701300  0.11007800  0.09726200  1
  O  O51  1  0.76991400  0.12334700  0.84075200  1
  O  O52  1  0.23008600  0.87665300  0.15924800  1
  O  O53  1  0.86219100  0.24236200  0.68180100  1
  O  O54  1  0.13780900  0.75763800  0.31819900  1
  O  O55  1  0.02651300  0.34298900  0.53903000  1
  O  O56  1  0.97348700  0.65701100  0.46097000  1
  O  O57  1  0.78561900  0.48176800  0.60615400  1
  O  O58  1  0.21438100  0.51823200  0.39384600  1
  O  O59  1  0.65701600  0.54516500  0.43527300  1
  O  O60  1  0.34298400  0.45483500  0.56472700  1
  O  O61  1  0.78370700  0.34269500  0.36474600  1
  O  O62  1  0.21629300  0.65730500  0.63525400  1
  O  O63  1  0.48171900  0.33540200  0.41551300  1
  O  O64  1  0.51828100  0.66459800  0.58448700  1
  O  O65  1  0.74049100  0.21813900  0.21470200  1
  O  O66  1  0.25950900  0.78186100  0.78529800  1
  O  O67  1  0.68991600  0.20939900  0.05241100  1
  O  O68  1  0.31008400  0.79060100  0.94758900  1
  O  O69  1  0.92689600  0.05402200  0.13812800  1
  O  O70  1  0.07310400  0.94597800  0.86187200  1
  O  O71  1  0.69160500  0.01846100  0.57510700  1
  O  O72  1  0.30839500  0.98153900  0.42489300  1
  O  O73  1  0.87732900  0.96440600  0.71483600  1
  O  O74  1  0.12267100  0.03559400  0.28516400  1
  O  O75  1  0.62865000  0.81764500  0.70592700  1
  O  O76  1  0.37135000  0.18235500  0.29407300  1
  O  O77  1  0.78711700  0.68606000  0.04734700  1
  O  O78  1  0.21288300  0.31394000  0.95265300  1
  O  O79  1  0.89443100  0.76868700  0.18087000  1
  O  O80  1  0.10556900  0.23131300  0.81913000  1
  O  O81  1  0.08906800  0.59957400  0.10660200  1
  O  O82  1  0.91093200  0.40042600  0.89339800  1
  O  O83  1  0.88316300  0.74500100  0.59581700  1
  O  O84  1  0.11683700  0.25499900  0.40418300  1
