# generated using pymatgen
data_NdAsS
_symmetry_space_group_name_H-M   'P 1'
_cell_length_a   3.93192400
_cell_length_b   3.97682300
_cell_length_c   17.60926100
_cell_angle_alpha   90.00000000
_cell_angle_beta   90.00000000
_cell_angle_gamma   90.00000000
_symmetry_Int_Tables_number   1
_chemical_formula_structural   NdAsS
_chemical_formula_sum   'Nd4 As4 S4'
_cell_volume   275.34836827
_cell_formula_units_Z   4
loop_
 _symmetry_equiv_pos_site_id
 _symmetry_equiv_pos_as_xyz
  1  'x, y, z'
loop_
 _atom_site_type_symbol
 _atom_site_label
 _atom_site_symmetry_multiplicity
 _atom_site_fract_x
 _atom_site_fract_y
 _atom_site_fract_z
 _atom_site_occupancy
  Nd  Nd0  1  0.25000000  0.21775500  0.85436100  1
  Nd  Nd1  1  0.25000000  0.28224500  0.35436100  1
  Nd  Nd2  1  0.75000000  0.78224500  0.14563900  1
  Nd  Nd3  1  0.75000000  0.71775500  0.64563900  1
  As  As4  1  0.75000000  0.20874300  0.50214200  1
  As  As5  1  0.75000000  0.29125700  0.00214200  1
  As  As6  1  0.25000000  0.79125700  0.49785800  1
  As  As7  1  0.25000000  0.70874300  0.99785800  1
  S  S8  1  0.25000000  0.21827300  0.68632300  1
  S  S9  1  0.25000000  0.28172700  0.18632300  1
  S  S10  1  0.75000000  0.78172700  0.31367700  1
  S  S11  1  0.75000000  0.71827300  0.81367700  1
