# generated using pymatgen
data_LaMg2Ni
_symmetry_space_group_name_H-M   'P 1'
_cell_length_a   5.51019807
_cell_length_b   5.51019807
_cell_length_c   8.39438400
_cell_angle_alpha   90.00000000
_cell_angle_beta   90.00000000
_cell_angle_gamma   135.32920076
_symmetry_Int_Tables_number   1
_chemical_formula_structural   LaMg2Ni
_chemical_formula_sum   'La2 Mg4 Ni2'
_cell_volume   179.18372611
_cell_formula_units_Z   2
loop_
 _symmetry_equiv_pos_site_id
 _symmetry_equiv_pos_as_xyz
  1  'x, y, z'
loop_
 _atom_site_type_symbol
 _atom_site_label
 _atom_site_symmetry_multiplicity
 _atom_site_fract_x
 _atom_site_fract_y
 _atom_site_fract_z
 _atom_site_occupancy
  La  La0  1  0.43982500  0.56017500  0.25000000  1
  La  La1  1  0.56017500  0.43982500  0.75000000  1
  Mg  Mg2  1  0.84546800  0.15453200  0.55499000  1
  Mg  Mg3  1  0.15453200  0.84546800  0.44501000  1
  Mg  Mg4  1  0.84546800  0.15453200  0.94501000  1
  Mg  Mg5  1  0.15453200  0.84546800  0.05499000  1
  Ni  Ni6  1  0.27422800  0.72577200  0.75000000  1
  Ni  Ni7  1  0.72577200  0.27422800  0.25000000  1
