# generated using pymatgen
data_Ge22Rh17
_symmetry_space_group_name_H-M   'P 1'
_cell_length_a   5.68386815
_cell_length_b   5.68386815
_cell_length_c   40.07018444
_cell_angle_alpha   94.06705449
_cell_angle_beta   94.06705449
_cell_angle_gamma   90.00000000
_symmetry_Int_Tables_number   1
_chemical_formula_structural   Ge22Rh17
_chemical_formula_sum   'Ge44 Rh34'
_cell_volume   1287.99352706
_cell_formula_units_Z   2
loop_
 _symmetry_equiv_pos_site_id
 _symmetry_equiv_pos_as_xyz
  1  'x, y, z'
loop_
 _atom_site_type_symbol
 _atom_site_label
 _atom_site_symmetry_multiplicity
 _atom_site_fract_x
 _atom_site_fract_y
 _atom_site_fract_z
 _atom_site_occupancy
  Ge  Ge0  1  0.05858654  0.41780120  0.52538729  1
  Ge  Ge1  1  0.19141346  0.64241391  0.97461271  1
  Ge  Ge2  1  0.46680075  0.10758609  0.52538729  1
  Ge  Ge3  1  0.78319925  0.33219880  0.97461271  1
  Ge  Ge4  1  0.58219880  0.53319925  0.47461271  1
  Ge  Ge5  1  0.66780120  0.80858654  0.02538729  1
  Ge  Ge6  1  0.89241391  0.94141346  0.47461271  1
  Ge  Ge7  1  0.35758609  0.21680075  0.02538729  1
  Ge  Ge8  1  0.07212871  0.93475339  0.56424323  1
  Ge  Ge9  1  0.17787129  0.12051016  0.93575677  1
  Ge  Ge10  1  0.49211453  0.62948984  0.56424323  1
  Ge  Ge11  1  0.75788547  0.81524661  0.93575677  1
  Ge  Ge12  1  0.06524661  0.50788547  0.43575677  1
  Ge  Ge13  1  0.18475339  0.82212871  0.06424323  1
  Ge  Ge14  1  0.37051016  0.92787129  0.43575677  1
  Ge  Ge15  1  0.87948984  0.24211453  0.06424323  1
  Ge  Ge16  1  0.96883013  0.50189633  0.61524432  1
  Ge  Ge17  1  0.28116987  0.63665201  0.88475568  1
  Ge  Ge18  1  0.64641419  0.11334799  0.61524432  1
  Ge  Ge19  1  0.60358581  0.24810367  0.88475568  1
  Ge  Ge20  1  0.49810367  0.35358581  0.38475568  1
  Ge  Ge21  1  0.75189633  0.71883013  0.11524432  1
  Ge  Ge22  1  0.88665201  0.03116987  0.38475568  1
  Ge  Ge23  1  0.36334799  0.39641419  0.11524432  1
  Ge  Ge24  1  0.17998494  0.10062819  0.65630727  1
  Ge  Ge25  1  0.07001506  0.19432091  0.84369273  1
  Ge  Ge26  1  0.47632233  0.55567909  0.65630727  1
  Ge  Ge27  1  0.77367767  0.64937181  0.84369273  1
  Ge  Ge28  1  0.89937181  0.52367767  0.34369273  1
  Ge  Ge29  1  0.35062819  0.92998494  0.15630727  1
  Ge  Ge30  1  0.44432091  0.82001506  0.34369273  1
  Ge  Ge31  1  0.80567909  0.22632233  0.15630727  1
  Ge  Ge32  1  0.03507606  0.68103405  0.70511388  1
  Ge  Ge33  1  0.21492394  0.72592017  0.79488612  1
  Ge  Ge34  1  0.67003782  0.02407983  0.70511388  1
  Ge  Ge35  1  0.57996218  0.06896595  0.79488612  1
  Ge  Ge36  1  0.31896595  0.32996218  0.29488612  1
  Ge  Ge37  1  0.93103405  0.78507606  0.20511388  1
  Ge  Ge38  1  0.97592017  0.96492394  0.29488612  1
  Ge  Ge39  1  0.27407983  0.42003782  0.20511388  1
  Ge  Ge40  1  0.12500000  0.22835727  0.75000000  1
  Ge  Ge41  1  0.62500000  0.52164273  0.75000000  1
  Ge  Ge42  1  0.77164273  0.37500000  0.25000000  1
  Ge  Ge43  1  0.47835727  0.87500000  0.25000000  1
  Rh  Rh44  1  0.30726564  0.80726564  0.61453129  1
  Rh  Rh45  1  0.94273436  0.94273436  0.88546871  1
  Rh  Rh46  1  0.19273436  0.69273436  0.38546871  1
  Rh  Rh47  1  0.05726564  0.05726564  0.11453129  1
  Rh  Rh48  1  0.36993209  0.86993209  0.73986418  1
  Rh  Rh49  1  0.88006791  0.88006791  0.76013582  1
  Rh  Rh50  1  0.13006791  0.63006791  0.26013582  1
  Rh  Rh51  1  0.11993209  0.11993209  0.23986418  1
  Rh  Rh52  1  0.42400799  0.92400799  0.84801598  1
  Rh  Rh53  1  0.82599201  0.82599201  0.65198402  1
  Rh  Rh54  1  0.07599201  0.57599201  0.15198402  1
  Rh  Rh55  1  0.17400799  0.17400799  0.34801598  1
  Rh  Rh56  1  0.48732953  0.98732953  0.97465906  1
  Rh  Rh57  1  0.76267047  0.76267047  0.52534094  1
  Rh  Rh58  1  0.01267047  0.51267047  0.02534094  1
  Rh  Rh59  1  0.23732953  0.23732953  0.47465906  1
  Rh  Rh60  1  0.54330581  0.04330581  0.08661163  1
  Rh  Rh61  1  0.70669419  0.70669419  0.41338837  1
  Rh  Rh62  1  0.95669419  0.45669419  0.91338837  1
  Rh  Rh63  1  0.29330581  0.29330581  0.58661163  1
  Rh  Rh64  1  0.60238619  0.10238619  0.20477237  1
  Rh  Rh65  1  0.64761381  0.64761381  0.29522763  1
  Rh  Rh66  1  0.89761381  0.39761381  0.79522763  1
  Rh  Rh67  1  0.35238619  0.35238619  0.70477237  1
  Rh  Rh68  1  0.66343900  0.16343900  0.32687800  1
  Rh  Rh69  1  0.58656100  0.58656100  0.17312200  1
  Rh  Rh70  1  0.83656100  0.33656100  0.67312200  1
  Rh  Rh71  1  0.41343900  0.41343900  0.82687800  1
  Rh  Rh72  1  0.71829730  0.21829730  0.43659459  1
  Rh  Rh73  1  0.53170270  0.53170270  0.06340541  1
  Rh  Rh74  1  0.78170270  0.28170270  0.56340541  1
  Rh  Rh75  1  0.46829730  0.46829730  0.93659459  1
  Rh  Rh76  1  0.25000000  0.75000000  0.50000000  1
  Rh  Rh77  1  0.00000000  0.00000000  0.00000000  1
