# generated using pymatgen
data_Nd2ZrSe5
_symmetry_space_group_name_H-M   'P 1'
_cell_length_a   7.75625700
_cell_length_b   8.39742300
_cell_length_c   12.18186800
_cell_angle_alpha   90.00000000
_cell_angle_beta   90.00000000
_cell_angle_gamma   90.00000000
_symmetry_Int_Tables_number   1
_chemical_formula_structural   Nd2ZrSe5
_chemical_formula_sum   'Nd8 Zr4 Se20'
_cell_volume   793.43638152
_cell_formula_units_Z   4
loop_
 _symmetry_equiv_pos_site_id
 _symmetry_equiv_pos_as_xyz
  1  'x, y, z'
loop_
 _atom_site_type_symbol
 _atom_site_label
 _atom_site_symmetry_multiplicity
 _atom_site_fract_x
 _atom_site_fract_y
 _atom_site_fract_z
 _atom_site_occupancy
  Nd  Nd0  1  0.45983800  0.49723800  0.17638500  1
  Nd  Nd1  1  0.04016200  0.00276200  0.67638500  1
  Nd  Nd2  1  0.54016200  0.99723800  0.82361500  1
  Nd  Nd3  1  0.95983800  0.50276200  0.32361500  1
  Nd  Nd4  1  0.54016200  0.50276200  0.82361500  1
  Nd  Nd5  1  0.95983800  0.99723800  0.32361500  1
  Nd  Nd6  1  0.45983800  0.00276200  0.17638500  1
  Nd  Nd7  1  0.04016200  0.49723800  0.67638500  1
  Zr  Zr8  1  0.92180000  0.75000000  0.00875200  1
  Zr  Zr9  1  0.57820000  0.75000000  0.50875200  1
  Zr  Zr10  1  0.07820000  0.25000000  0.99124800  1
  Zr  Zr11  1  0.42180000  0.25000000  0.49124800  1
  Se  Se12  1  0.15614600  0.75000000  0.18569300  1
  Se  Se13  1  0.34385400  0.75000000  0.68569300  1
  Se  Se14  1  0.84385400  0.25000000  0.81430700  1
  Se  Se15  1  0.65614600  0.25000000  0.31430700  1
  Se  Se16  1  0.67527700  0.75000000  0.29156100  1
  Se  Se17  1  0.82472300  0.75000000  0.79156100  1
  Se  Se18  1  0.32472300  0.25000000  0.70843900  1
  Se  Se19  1  0.17527700  0.25000000  0.20843900  1
  Se  Se20  1  0.55333500  0.75000000  0.00415300  1
  Se  Se21  1  0.94666500  0.75000000  0.50415300  1
  Se  Se22  1  0.44666500  0.25000000  0.99584700  1
  Se  Se23  1  0.05333500  0.25000000  0.49584700  1
  Se  Se24  1  0.83045600  0.46248600  0.08391600  1
  Se  Se25  1  0.66954400  0.03751400  0.58391600  1
  Se  Se26  1  0.16954400  0.96248600  0.91608400  1
  Se  Se27  1  0.33045600  0.53751400  0.41608400  1
  Se  Se28  1  0.16954400  0.53751400  0.91608400  1
  Se  Se29  1  0.33045600  0.96248600  0.41608400  1
  Se  Se30  1  0.83045600  0.03751400  0.08391600  1
  Se  Se31  1  0.66954400  0.46248600  0.58391600  1
