# generated using pymatgen
data_YCoGe
_symmetry_space_group_name_H-M   'P 1'
_cell_length_a   4.21268400
_cell_length_b   6.89300600
_cell_length_c   7.27412600
_cell_angle_alpha   90.00000000
_cell_angle_beta   90.00000000
_cell_angle_gamma   90.00000000
_symmetry_Int_Tables_number   1
_chemical_formula_structural   YCoGe
_chemical_formula_sum   'Y4 Co4 Ge4'
_cell_volume   211.22647878
_cell_formula_units_Z   4
loop_
 _symmetry_equiv_pos_site_id
 _symmetry_equiv_pos_as_xyz
  1  'x, y, z'
loop_
 _atom_site_type_symbol
 _atom_site_label
 _atom_site_symmetry_multiplicity
 _atom_site_fract_x
 _atom_site_fract_y
 _atom_site_fract_z
 _atom_site_occupancy
  Y  Y0  1  0.25000000  0.00804200  0.80284000  1
  Y  Y1  1  0.25000000  0.50804200  0.69716000  1
  Y  Y2  1  0.75000000  0.99195800  0.19716000  1
  Y  Y3  1  0.75000000  0.49195800  0.30284000  1
  Co  Co4  1  0.25000000  0.84643700  0.43358100  1
  Co  Co5  1  0.25000000  0.34643700  0.06641900  1
  Co  Co6  1  0.75000000  0.15356300  0.56641900  1
  Co  Co7  1  0.75000000  0.65356300  0.93358100  1
  Ge  Ge8  1  0.25000000  0.20212200  0.39875000  1
  Ge  Ge9  1  0.25000000  0.70212200  0.10125000  1
  Ge  Ge10  1  0.75000000  0.79787800  0.60125000  1
  Ge  Ge11  1  0.75000000  0.29787800  0.89875000  1
