# generated using pymatgen
data_Cs2VH2(OF2)2
_symmetry_space_group_name_H-M   'P 1'
_cell_length_a   8.64266779
_cell_length_b   9.99247270
_cell_length_c   9.38261942
_cell_angle_alpha   94.65932952
_cell_angle_beta   104.34501187
_cell_angle_gamma   105.47676060
_symmetry_Int_Tables_number   1
_chemical_formula_structural   Cs2VH2(OF2)2
_chemical_formula_sum   'Cs8 V4 H8 O8 F16'
_cell_volume   747.08783461
_cell_formula_units_Z   4
loop_
 _symmetry_equiv_pos_site_id
 _symmetry_equiv_pos_as_xyz
  1  'x, y, z'
loop_
 _atom_site_type_symbol
 _atom_site_label
 _atom_site_symmetry_multiplicity
 _atom_site_fract_x
 _atom_site_fract_y
 _atom_site_fract_z
 _atom_site_occupancy
  Cs  Cs0  1  0.48948300  0.49717000  0.74739400  1
  Cs  Cs1  1  0.48943600  0.99748900  0.24738700  1
  Cs  Cs2  1  0.51059600  0.00269000  0.75249300  1
  Cs  Cs3  1  0.51053500  0.50263400  0.25269500  1
  Cs  Cs4  1  0.88666800  0.34659800  0.59657700  1
  Cs  Cs5  1  0.88658500  0.84653600  0.09653600  1
  Cs  Cs6  1  0.11321900  0.15340000  0.90338900  1
  Cs  Cs7  1  0.11335300  0.65344100  0.40342300  1
  V  V8  1  0.25431100  0.68860900  0.93872800  1
  V  V9  1  0.74596700  0.81136000  0.56133100  1
  V  V10  1  0.25375000  0.18857100  0.43856000  1
  V  V11  1  0.74571600  0.31134900  0.06125200  1
  H  H12  1  0.90102500  0.56938200  0.92788300  1
  H  H13  1  0.90065500  0.06932600  0.42771600  1
  H  H14  1  0.09932200  0.86897800  0.72763500  1
  H  H15  1  0.09911100  0.36895900  0.22757200  1
  H  H16  1  0.09923900  0.93066100  0.57225700  1
  H  H17  1  0.09919100  0.43070000  0.07226300  1
  H  H18  1  0.90102100  0.63108000  0.77254000  1
  H  H19  1  0.90061800  0.13102200  0.27230000  1
  O  O20  1  0.46243400  0.24062900  0.49105900  1
  O  O21  1  0.46311800  0.74073600  0.99120100  1
  O  O22  1  0.53697500  0.25934100  0.00888000  1
  O  O23  1  0.53716400  0.75923100  0.50883700  1
  O  O24  1  0.97245400  0.61815900  0.86808300  1
  O  O25  1  0.97203700  0.11813900  0.36788300  1
  O  O26  1  0.02784600  0.88189900  0.63208800  1
  O  O27  1  0.02770100  0.38187600  0.13199600  1
  F  F28  1  0.21298300  0.22754800  0.63128500  1
  F  F29  1  0.21341900  0.72767300  0.13138500  1
  F  F30  1  0.78612100  0.37046700  0.27429300  1
  F  F31  1  0.78628600  0.87052900  0.77429300  1
  F  F32  1  0.78667500  0.27252800  0.86860100  1
  F  F33  1  0.78702200  0.77234400  0.36874800  1
  F  F34  1  0.21367400  0.12946100  0.22559900  1
  F  F35  1  0.21400200  0.62944600  0.72575600  1
  F  F36  1  0.77757500  0.51104000  0.03251300  1
  F  F37  1  0.77756800  0.01093000  0.53244400  1
  F  F38  1  0.22250300  0.37245200  0.39389400  1
  F  F39  1  0.22283800  0.87246200  0.89390300  1
  F  F40  1  0.22236400  0.98895800  0.46750700  1
  F  F41  1  0.22259600  0.48906000  0.96768600  1
  F  F42  1  0.77732100  0.12759800  0.10596700  1
  F  F43  1  0.77752400  0.62754000  0.60616700  1
