# generated using pymatgen
data_DyRhO3
_symmetry_space_group_name_H-M   'P 1'
_cell_length_a   5.28419700
_cell_length_b   5.82443700
_cell_length_c   7.67218600
_cell_angle_alpha   90.00000000
_cell_angle_beta   90.00000000
_cell_angle_gamma   90.00000000
_symmetry_Int_Tables_number   1
_chemical_formula_structural   DyRhO3
_chemical_formula_sum   'Dy4 Rh4 O12'
_cell_volume   236.13049380
_cell_formula_units_Z   4
loop_
 _symmetry_equiv_pos_site_id
 _symmetry_equiv_pos_as_xyz
  1  'x, y, z'
loop_
 _atom_site_type_symbol
 _atom_site_label
 _atom_site_symmetry_multiplicity
 _atom_site_fract_x
 _atom_site_fract_y
 _atom_site_fract_z
 _atom_site_occupancy
  Dy  Dy0  1  0.03185400  0.41461600  0.25000000  1
  Dy  Dy1  1  0.96814600  0.58538400  0.75000000  1
  Dy  Dy2  1  0.53185400  0.08538400  0.75000000  1
  Dy  Dy3  1  0.46814600  0.91461600  0.25000000  1
  Rh  Rh4  1  0.00000000  0.00000000  0.00000000  1
  Rh  Rh5  1  0.50000000  0.50000000  0.00000000  1
  Rh  Rh6  1  0.00000000  0.00000000  0.50000000  1
  Rh  Rh7  1  0.50000000  0.50000000  0.50000000  1
  O  O8  1  0.32247000  0.19052300  0.06375200  1
  O  O9  1  0.67753000  0.80947700  0.93624800  1
  O  O10  1  0.82247000  0.30947700  0.93624800  1
  O  O11  1  0.67753000  0.80947700  0.56375200  1
  O  O12  1  0.17753000  0.69052300  0.06375200  1
  O  O13  1  0.32247000  0.19052300  0.43624800  1
  O  O14  1  0.17753000  0.69052300  0.43624800  1
  O  O15  1  0.82247000  0.30947700  0.56375200  1
  O  O16  1  0.63728000  0.55306700  0.25000000  1
  O  O17  1  0.36272000  0.44693300  0.75000000  1
  O  O18  1  0.13728000  0.94693300  0.75000000  1
  O  O19  1  0.86272000  0.05306700  0.25000000  1
