# generated using pymatgen
data_La3SiN4F
_symmetry_space_group_name_H-M   'P 1'
_cell_length_a   6.93997900
_cell_length_b   7.73826700
_cell_length_c   9.97053400
_cell_angle_alpha   90.00000000
_cell_angle_beta   90.00000000
_cell_angle_gamma   90.00000000
_symmetry_Int_Tables_number   1
_chemical_formula_structural   La3SiN4F
_chemical_formula_sum   'La12 Si4 N16 F4'
_cell_volume   535.45168007
_cell_formula_units_Z   4
loop_
 _symmetry_equiv_pos_site_id
 _symmetry_equiv_pos_as_xyz
  1  'x, y, z'
loop_
 _atom_site_type_symbol
 _atom_site_label
 _atom_site_symmetry_multiplicity
 _atom_site_fract_x
 _atom_site_fract_y
 _atom_site_fract_z
 _atom_site_occupancy
  La  La0  1  0.90210900  0.52531900  0.33712100  1
  La  La1  1  0.59789100  0.97468100  0.83712100  1
  La  La2  1  0.09789100  0.02531900  0.66287900  1
  La  La3  1  0.40210900  0.47468100  0.16287900  1
  La  La4  1  0.09789100  0.47468100  0.66287900  1
  La  La5  1  0.40210900  0.02531900  0.16287900  1
  La  La6  1  0.90210900  0.97468100  0.33712100  1
  La  La7  1  0.59789100  0.52531900  0.83712100  1
  La  La8  1  0.41582100  0.75000000  0.46627300  1
  La  La9  1  0.08417900  0.75000000  0.96627300  1
  La  La10  1  0.58417900  0.25000000  0.53372700  1
  La  La11  1  0.91582100  0.25000000  0.03372700  1
  Si  Si12  1  0.69118500  0.75000000  0.10474700  1
  Si  Si13  1  0.80881500  0.75000000  0.60474700  1
  Si  Si14  1  0.30881500  0.25000000  0.89525300  1
  Si  Si15  1  0.19118500  0.25000000  0.39525300  1
  N  N16  1  0.80974100  0.55575700  0.07540700  1
  N  N17  1  0.69025900  0.94424300  0.57540700  1
  N  N18  1  0.19025900  0.05575700  0.92459300  1
  N  N19  1  0.30974100  0.44424300  0.42459300  1
  N  N20  1  0.19025900  0.44424300  0.92459300  1
  N  N21  1  0.30974100  0.05575700  0.42459300  1
  N  N22  1  0.80974100  0.94424300  0.07540700  1
  N  N23  1  0.69025900  0.55575700  0.57540700  1
  N  N24  1  0.47896400  0.75000000  0.00666100  1
  N  N25  1  0.02103600  0.75000000  0.50666100  1
  N  N26  1  0.52103600  0.25000000  0.99333900  1
  N  N27  1  0.97896400  0.25000000  0.49333900  1
  N  N28  1  0.62684300  0.75000000  0.27562200  1
  N  N29  1  0.87315700  0.75000000  0.77562200  1
  N  N30  1  0.37315700  0.25000000  0.72437800  1
  N  N31  1  0.12684300  0.25000000  0.22437800  1
  F  F32  1  0.16119800  0.75000000  0.22507900  1
  F  F33  1  0.33880200  0.75000000  0.72507900  1
  F  F34  1  0.83880200  0.25000000  0.77492100  1
  F  F35  1  0.66119800  0.25000000  0.27492100  1
