# generated using pymatgen
data_KNi2H3(SeO5)2
_symmetry_space_group_name_H-M   'P 1'
_cell_length_a   5.59280592
_cell_length_b   10.74753648
_cell_length_c   7.82561827
_cell_angle_alpha   80.20517483
_cell_angle_beta   70.85028975
_cell_angle_gamma   100.39531311
_symmetry_Int_Tables_number   1
_chemical_formula_structural   KNi2H3(SeO5)2
_chemical_formula_sum   'K2 Ni4 H6 Se4 O20'
_cell_volume   423.54703984
_cell_formula_units_Z   2
loop_
 _symmetry_equiv_pos_site_id
 _symmetry_equiv_pos_as_xyz
  1  'x, y, z'
loop_
 _atom_site_type_symbol
 _atom_site_label
 _atom_site_symmetry_multiplicity
 _atom_site_fract_x
 _atom_site_fract_y
 _atom_site_fract_z
 _atom_site_occupancy
  K  K0  1  0.74826400  0.24969000  0.50148500  1
  K  K1  1  0.24833500  0.74970100  0.50154000  1
  Ni  Ni2  1  0.74297600  0.75003000  0.99864800  1
  Ni  Ni3  1  0.49607300  0.99639800  0.99858600  1
  Ni  Ni4  1  0.24334200  0.25039100  0.99837700  1
  Ni  Ni5  1  0.99660900  0.49630100  0.99869700  1
  H  H6  1  0.01978800  0.33977000  0.79024300  1
  H  H7  1  0.51986700  0.83979600  0.79030000  1
  H  H8  1  0.46888700  0.15621500  0.21629100  1
  H  H9  1  0.96898500  0.65624700  0.21630000  1
  H  H10  1  0.71767100  0.23896900  0.01404600  1
  H  H11  1  0.21781000  0.73903500  0.01396400  1
  Se  Se12  1  0.37857800  0.45979800  0.28037400  1
  Se  Se13  1  0.87854900  0.95982600  0.28030900  1
  Se  Se14  1  0.11655400  0.03880700  0.72087500  1
  Se  Se15  1  0.61664700  0.53884200  0.72082800  1
  O  O16  1  0.19826200  0.39941500  0.50287500  1
  O  O17  1  0.69831000  0.89942400  0.50284200  1
  O  O18  1  0.29770100  0.09935400  0.49810200  1
  O  O19  1  0.79772900  0.59930200  0.49800300  1
  O  O20  1  0.97058900  0.32322200  0.92571700  1
  O  O21  1  0.47059100  0.82319800  0.92580300  1
  O  O22  1  0.52028400  0.17321700  0.08005200  1
  O  O23  1  0.02032000  0.67316700  0.08005700  1
  O  O24  1  0.20838600  0.40292100  0.15013500  1
  O  O25  1  0.70848800  0.90299000  0.15000900  1
  O  O26  1  0.28795200  0.09608700  0.85056600  1
  O  O27  1  0.78797500  0.59605500  0.85058500  1
  O  O28  1  0.65511600  0.40943800  0.22689500  1
  O  O29  1  0.15510200  0.90945400  0.22689200  1
  O  O30  1  0.94185600  0.12335400  0.22740400  1
  O  O31  1  0.44176200  0.62330200  0.22747600  1
  O  O32  1  0.84026500  0.08923400  0.77440300  1
  O  O33  1  0.34027600  0.58921900  0.77441300  1
  O  O34  1  0.55460100  0.37544800  0.77439800  1
  O  O35  1  0.05450100  0.87538000  0.77450700  1
