# generated using pymatgen
data_Ba2GdBiO6
_symmetry_space_group_name_H-M   'P 1'
_cell_length_a   8.76645699
_cell_length_b   8.76645699
_cell_length_c   8.76645699
_cell_angle_alpha   90.00000000
_cell_angle_beta   90.00000000
_cell_angle_gamma   90.00000000
_symmetry_Int_Tables_number   1
_chemical_formula_structural   Ba2GdBiO6
_chemical_formula_sum   'Ba8 Gd4 Bi4 O24'
_cell_volume   673.70895370
_cell_formula_units_Z   4
loop_
 _symmetry_equiv_pos_site_id
 _symmetry_equiv_pos_as_xyz
  1  'x, y, z'
loop_
 _atom_site_type_symbol
 _atom_site_label
 _atom_site_symmetry_multiplicity
 _atom_site_fract_x
 _atom_site_fract_y
 _atom_site_fract_z
 _atom_site_occupancy
  Ba  Ba0  1  0.50000000  0.50000000  0.50000000  1
  Ba  Ba1  1  -0.00000000  -0.00000000  -0.00000000  1
  Ba  Ba2  1  -0.00000000  -0.00000000  0.50000000  1
  Ba  Ba3  1  -0.00000000  0.50000000  -0.00000000  1
  Ba  Ba4  1  0.50000000  -0.00000000  -0.00000000  1
  Ba  Ba5  1  0.50000000  0.50000000  -0.00000000  1
  Ba  Ba6  1  0.50000000  -0.00000000  0.50000000  1
  Ba  Ba7  1  -0.00000000  0.50000000  0.50000000  1
  Gd  Gd8  1  0.25000000  0.25000000  0.25000000  1
  Gd  Gd9  1  0.25000000  0.75000000  0.75000000  1
  Gd  Gd10  1  0.75000000  0.25000000  0.75000000  1
  Gd  Gd11  1  0.75000000  0.75000000  0.25000000  1
  Bi  Bi12  1  0.75000000  0.75000000  0.75000000  1
  Bi  Bi13  1  0.75000000  0.25000000  0.25000000  1
  Bi  Bi14  1  0.25000000  0.75000000  0.25000000  1
  Bi  Bi15  1  0.25000000  0.25000000  0.75000000  1
  O  O16  1  0.23031954  0.27161280  0.50731238  1
  O  O17  1  0.23031954  0.72838720  0.49268762  1
  O  O18  1  0.76968046  0.27161280  0.49268762  1
  O  O19  1  0.76968046  0.72838720  0.50731238  1
  O  O20  1  0.27161280  0.50731238  0.23031954  1
  O  O21  1  0.72838720  0.49268762  0.23031954  1
  O  O22  1  0.27161280  0.49268762  0.76968046  1
  O  O23  1  0.72838720  0.50731238  0.76968046  1
  O  O24  1  0.50731238  0.23031954  0.27161280  1
  O  O25  1  0.49268762  0.23031954  0.72838720  1
  O  O26  1  0.49268762  0.76968046  0.27161280  1
  O  O27  1  0.50731238  0.76968046  0.72838720  1
  O  O28  1  0.26968046  0.22838720  0.99268762  1
  O  O29  1  0.26968046  0.77161280  0.00731238  1
  O  O30  1  0.73031954  0.22838720  0.00731238  1
  O  O31  1  0.73031954  0.77161280  0.99268762  1
  O  O32  1  0.22838720  0.99268762  0.26968046  1
  O  O33  1  0.77161280  0.00731238  0.26968046  1
  O  O34  1  0.22838720  0.00731238  0.73031954  1
  O  O35  1  0.77161280  0.99268762  0.73031954  1
  O  O36  1  0.99268762  0.26968046  0.22838720  1
  O  O37  1  0.00731238  0.26968046  0.77161280  1
  O  O38  1  0.00731238  0.73031954  0.22838720  1
  O  O39  1  0.99268762  0.73031954  0.77161280  1
