# generated using pymatgen
data_K(Zr3Te4)4
_symmetry_space_group_name_H-M   'P 1'
_cell_length_a   7.93898100
_cell_length_b   11.20662040
_cell_length_c   11.85526129
_cell_angle_alpha   118.06223969
_cell_angle_beta   109.42292572
_cell_angle_gamma   90.09497305
_symmetry_Int_Tables_number   1
_chemical_formula_structural   K(Zr3Te4)4
_chemical_formula_sum   'K1 Zr12 Te16'
_cell_volume   861.79925334
_cell_formula_units_Z   1
loop_
 _symmetry_equiv_pos_site_id
 _symmetry_equiv_pos_as_xyz
  1  'x, y, z'
loop_
 _atom_site_type_symbol
 _atom_site_label
 _atom_site_symmetry_multiplicity
 _atom_site_fract_x
 _atom_site_fract_y
 _atom_site_fract_z
 _atom_site_occupancy
  K  K0  1  0.50000000  0.00000000  0.00000000  1
  Zr  Zr1  1  0.12214700  0.12663500  0.49260400  1
  Zr  Zr2  1  0.62003900  0.12581100  0.49269300  1
  Zr  Zr3  1  0.31080900  0.36694900  0.87369000  1
  Zr  Zr4  1  0.81167300  0.36581900  0.87264400  1
  Zr  Zr5  1  0.19076100  0.50734200  0.63305600  1
  Zr  Zr6  1  0.69331400  0.50746600  0.63391700  1
  Zr  Zr7  1  0.37996100  0.87418900  0.50730700  1
  Zr  Zr8  1  0.87785300  0.87336500  0.50739600  1
  Zr  Zr9  1  0.18832700  0.63418100  0.12735600  1
  Zr  Zr10  1  0.68919100  0.63305100  0.12631000  1
  Zr  Zr11  1  0.30668600  0.49253400  0.36608300  1
  Zr  Zr12  1  0.80923900  0.49265800  0.36694400  1
  Te  Te13  1  0.73015700  0.05490700  0.71000800  1
  Te  Te14  1  0.22813700  0.05526200  0.70929900  1
  Te  Te15  1  0.84780700  0.65471600  0.94471100  1
  Te  Te16  1  0.34628700  0.65456700  0.94469400  1
  Te  Te17  1  0.54685100  0.29017700  0.34565700  1
  Te  Te18  1  0.04801100  0.28938200  0.34462700  1
  Te  Te19  1  0.77186300  0.94473800  0.29070100  1
  Te  Te20  1  0.26984300  0.94509300  0.28999200  1
  Te  Te21  1  0.65371300  0.34543300  0.05530600  1
  Te  Te22  1  0.15219300  0.34528400  0.05528900  1
  Te  Te23  1  0.95198900  0.71061800  0.65537300  1
  Te  Te24  1  0.45314900  0.70982300  0.65434300  1
  Te  Te25  1  0.95802000  0.33288200  0.66624800  1
  Te  Te26  1  0.45811400  0.33359700  0.66673500  1
  Te  Te27  1  0.54188600  0.66640300  0.33326500  1
  Te  Te28  1  0.04198000  0.66711800  0.33375200  1
