# generated using pymatgen
data_KAlSe2
_symmetry_space_group_name_H-M   'P 1'
_cell_length_a   7.80513459
_cell_length_b   7.80513459
_cell_length_c   15.63509484
_cell_angle_alpha   82.82211427
_cell_angle_beta   82.82211427
_cell_angle_gamma   90.02166605
_symmetry_Int_Tables_number   1
_chemical_formula_structural   KAlSe2
_chemical_formula_sum   'K8 Al8 Se16'
_cell_volume   937.49737628
_cell_formula_units_Z   8
loop_
 _symmetry_equiv_pos_site_id
 _symmetry_equiv_pos_as_xyz
  1  'x, y, z'
loop_
 _atom_site_type_symbol
 _atom_site_label
 _atom_site_symmetry_multiplicity
 _atom_site_fract_x
 _atom_site_fract_y
 _atom_site_fract_z
 _atom_site_occupancy
  K  K0  1  0.65437300  0.77727000  0.88522600  1
  K  K1  1  0.34562700  0.22273000  0.11477400  1
  K  K2  1  0.22273000  0.34562700  0.61477400  1
  K  K3  1  0.77727000  0.65437300  0.38522600  1
  K  K4  1  0.22516200  0.84800900  0.60824700  1
  K  K5  1  0.77483800  0.15199100  0.39175300  1
  K  K6  1  0.15199100  0.77483800  0.89175300  1
  K  K7  1  0.84800900  0.22516200  0.10824700  1
  Al  Al8  1  0.70996400  0.08762800  0.66311600  1
  Al  Al9  1  0.29003600  0.91237200  0.33688400  1
  Al  Al10  1  0.91237200  0.29003600  0.83688400  1
  Al  Al11  1  0.08762800  0.70996400  0.16311600  1
  Al  Al12  1  0.41974900  0.28994600  0.83738200  1
  Al  Al13  1  0.58025100  0.71005400  0.16261800  1
  Al  Al14  1  0.71005400  0.58025100  0.66261800  1
  Al  Al15  1  0.28994600  0.41974900  0.33738200  1
  Se  Se16  1  0.43131000  0.05541100  0.75081900  1
  Se  Se17  1  0.56869000  0.94458900  0.24918100  1
  Se  Se18  1  0.94458900  0.56869000  0.74918100  1
  Se  Se19  1  0.05541100  0.43131000  0.25081900  1
  Se  Se20  1  0.64177800  0.26644700  0.93239600  1
  Se  Se21  1  0.35822200  0.73355300  0.06760400  1
  Se  Se22  1  0.73355300  0.35822200  0.56760400  1
  Se  Se23  1  0.26644700  0.64177800  0.43239600  1
  Se  Se24  1  0.43150700  0.56849300  0.75000000  1
  Se  Se25  1  0.56849300  0.43150700  0.25000000  1
  Se  Se26  1  0.73199300  0.85773300  0.57067100  1
  Se  Se27  1  0.26800700  0.14226700  0.42932900  1
  Se  Se28  1  0.14226700  0.26800700  0.92932900  1
  Se  Se29  1  0.85773300  0.73199300  0.07067100  1
  Se  Se30  1  0.94453600  0.05546400  0.75000000  1
  Se  Se31  1  0.05546400  0.94453600  0.25000000  1
