# generated using pymatgen
data_NdPIr
_symmetry_space_group_name_H-M   'P 1'
_cell_length_a   7.70717146
_cell_length_b   7.70717146
_cell_length_c   7.70717146
_cell_angle_alpha   149.04236656
_cell_angle_beta   149.04236656
_cell_angle_gamma   44.34894848
_symmetry_Int_Tables_number   1
_chemical_formula_structural   NdPIr
_chemical_formula_sum   'Nd2 P2 Ir2'
_cell_volume   120.78502602
_cell_formula_units_Z   2
loop_
 _symmetry_equiv_pos_site_id
 _symmetry_equiv_pos_as_xyz
  1  'x, y, z'
loop_
 _atom_site_type_symbol
 _atom_site_label
 _atom_site_symmetry_multiplicity
 _atom_site_fract_x
 _atom_site_fract_y
 _atom_site_fract_z
 _atom_site_occupancy
  Nd  Nd0  1  0.75117600  0.75117600  0.00000000  1
  Nd  Nd1  1  0.50117600  0.00117600  0.50000000  1
  P  P2  1  0.32926600  0.32926600  0.00000000  1
  P  P3  1  0.07926600  0.57926600  0.50000000  1
  Ir  Ir4  1  0.91225800  0.41225800  0.50000000  1
  Ir  Ir5  1  0.16225800  0.16225800  0.00000000  1
