# generated using pymatgen
data_HfTlF5
_symmetry_space_group_name_H-M   'P 1'
_cell_length_a   7.96730400
_cell_length_b   7.67198900
_cell_length_c   7.98842031
_cell_angle_alpha   63.03839004
_cell_angle_beta   90.00000000
_cell_angle_gamma   90.00000000
_symmetry_Int_Tables_number   1
_chemical_formula_structural   HfTlF5
_chemical_formula_sum   'Hf4 Tl4 F20'
_cell_volume   435.22045216
_cell_formula_units_Z   4
loop_
 _symmetry_equiv_pos_site_id
 _symmetry_equiv_pos_as_xyz
  1  'x, y, z'
loop_
 _atom_site_type_symbol
 _atom_site_label
 _atom_site_symmetry_multiplicity
 _atom_site_fract_x
 _atom_site_fract_y
 _atom_site_fract_z
 _atom_site_occupancy
  Hf  Hf0  1  0.83779600  0.99099500  0.34085400  1
  Hf  Hf1  1  0.16220400  0.00900500  0.65914600  1
  Hf  Hf2  1  0.33779600  0.00900500  0.15914600  1
  Hf  Hf3  1  0.66220400  0.99099500  0.84085400  1
  Tl  Tl4  1  0.52869200  0.43096500  0.29664900  1
  Tl  Tl5  1  0.47130800  0.56903500  0.70335100  1
  Tl  Tl6  1  0.02869200  0.56903500  0.20335100  1
  Tl  Tl7  1  0.97130800  0.43096500  0.79664900  1
  F  F8  1  0.79143600  0.27380100  0.16308500  1
  F  F9  1  0.20856400  0.72619900  0.83691500  1
  F  F10  1  0.29143600  0.72619900  0.33691500  1
  F  F11  1  0.70856400  0.27380100  0.66308500  1
  F  F12  1  0.56313700  0.99513300  0.28909400  1
  F  F13  1  0.43686300  0.00486700  0.71090600  1
  F  F14  1  0.06313700  0.00486700  0.21090600  1
  F  F15  1  0.93686300  0.99513300  0.78909400  1
  F  F16  1  0.79007300  0.98775100  0.06497700  1
  F  F17  1  0.20992700  0.01224900  0.93502300  1
  F  F18  1  0.29007300  0.01224900  0.43502300  1
  F  F19  1  0.70992700  0.98775100  0.56497700  1
  F  F20  1  0.49456500  0.82819300  0.07107300  1
  F  F21  1  0.50543500  0.17180700  0.92892700  1
  F  F22  1  0.99456500  0.17180700  0.42892700  1
  F  F23  1  0.00543500  0.82819300  0.57107300  1
  F  F24  1  0.79323100  0.70727500  0.41289700  1
  F  F25  1  0.20676900  0.29272500  0.58710300  1
  F  F26  1  0.29323100  0.29272500  0.08710300  1
  F  F27  1  0.70676900  0.70727500  0.91289700  1
