# generated using pymatgen
data_YGaPt
_symmetry_space_group_name_H-M   'P 1'
_cell_length_a   4.44809900
_cell_length_b   6.93080800
_cell_length_c   7.70363400
_cell_angle_alpha   90.00000000
_cell_angle_beta   90.00000000
_cell_angle_gamma   90.00000000
_symmetry_Int_Tables_number   1
_chemical_formula_structural   YGaPt
_chemical_formula_sum   'Y4 Ga4 Pt4'
_cell_volume   237.49471733
_cell_formula_units_Z   4
loop_
 _symmetry_equiv_pos_site_id
 _symmetry_equiv_pos_as_xyz
  1  'x, y, z'
loop_
 _atom_site_type_symbol
 _atom_site_label
 _atom_site_symmetry_multiplicity
 _atom_site_fract_x
 _atom_site_fract_y
 _atom_site_fract_z
 _atom_site_occupancy
  Y  Y0  1  0.25000000  0.98750400  0.30186500  1
  Y  Y1  1  0.25000000  0.48750400  0.19813500  1
  Y  Y2  1  0.75000000  0.01249600  0.69813500  1
  Y  Y3  1  0.75000000  0.51249600  0.80186500  1
  Ga  Ga4  1  0.25000000  0.32769400  0.57372000  1
  Ga  Ga5  1  0.25000000  0.82769400  0.92628000  1
  Ga  Ga6  1  0.75000000  0.67230600  0.42628000  1
  Ga  Ga7  1  0.75000000  0.17230600  0.07372000  1
  Pt  Pt8  1  0.25000000  0.22447800  0.90038600  1
  Pt  Pt9  1  0.25000000  0.72447800  0.59961400  1
  Pt  Pt10  1  0.75000000  0.77552200  0.09961400  1
  Pt  Pt11  1  0.75000000  0.27552200  0.40038600  1
