# generated using pymatgen
data_Ba2CoGe2O7
_symmetry_space_group_name_H-M   'P 1'
_cell_length_a   8.49288248
_cell_length_b   8.49569055
_cell_length_c   11.28445110
_cell_angle_alpha   90.01447050
_cell_angle_beta   89.99619637
_cell_angle_gamma   89.96145805
_symmetry_Int_Tables_number   1
_chemical_formula_structural   Ba2CoGe2O7
_chemical_formula_sum   'Ba8 Co4 Ge8 O28'
_cell_volume   814.20567598
_cell_formula_units_Z   4
loop_
 _symmetry_equiv_pos_site_id
 _symmetry_equiv_pos_as_xyz
  1  'x, y, z'
loop_
 _atom_site_type_symbol
 _atom_site_label
 _atom_site_symmetry_multiplicity
 _atom_site_fract_x
 _atom_site_fract_y
 _atom_site_fract_z
 _atom_site_occupancy
  Ba  Ba0  1  0.33413500  0.16560400  0.24560700  1
  Ba  Ba1  1  0.33444600  0.16563800  0.74574200  1
  Ba  Ba2  1  0.16588500  0.66545300  0.25430000  1
  Ba  Ba3  1  0.16591900  0.66550600  0.75409100  1
  Ba  Ba4  1  0.66558000  0.83430600  0.24594400  1
  Ba  Ba5  1  0.66586400  0.83439800  0.74584400  1
  Ba  Ba6  1  0.83411700  0.33443400  0.25405700  1
  Ba  Ba7  1  0.83422700  0.33434400  0.75426400  1
  Co  Co8  1  0.49991100  0.49996000  0.50010000  1
  Co  Co9  1  0.00055800  0.99970300  0.00000500  1
  Co  Co10  1  0.49986000  0.49961600  0.00009300  1
  Co  Co11  1  0.00014100  0.99978000  0.50000200  1
  Ge  Ge12  1  0.14059700  0.35960400  0.01912800  1
  Ge  Ge13  1  0.14058600  0.35905300  0.51931500  1
  Ge  Ge14  1  0.35951500  0.85916600  0.48057500  1
  Ge  Ge15  1  0.36002300  0.85875900  0.98077800  1
  Ge  Ge16  1  0.85859000  0.64088900  0.01916100  1
  Ge  Ge17  1  0.85904200  0.64088800  0.51939900  1
  Ge  Ge18  1  0.64083000  0.14076700  0.48068300  1
  Ge  Ge19  1  0.64085800  0.14076800  0.98093000  1
  O  O20  1  0.00006800  0.50084200  0.08086000  1
  O  O21  1  0.99969300  0.49990700  0.58094900  1
  O  O22  1  0.49992400  0.00022700  0.41897700  1
  O  O23  1  0.50027700  0.99995200  0.91912900  1
  O  O24  1  0.13773300  0.36196100  0.36478600  1
  O  O25  1  0.13818000  0.36268400  0.86448300  1
  O  O26  1  0.36256900  0.86182600  0.13542500  1
  O  O27  1  0.36223400  0.86207900  0.63512600  1
  O  O28  1  0.86211300  0.63779900  0.36486300  1
  O  O29  1  0.86186800  0.63737900  0.86451400  1
  O  O30  1  0.63706400  0.13827600  0.13556100  1
  O  O31  1  0.63773300  0.13790500  0.63522600  1
  O  O32  1  0.31598000  0.42047700  0.09325000  1
  O  O33  1  0.31617900  0.42027300  0.59304600  1
  O  O34  1  0.18370100  0.91985400  0.40675900  1
  O  O35  1  0.18406900  0.91921500  0.90721700  1
  O  O36  1  0.68351500  0.57931300  0.09336200  1
  O  O37  1  0.68338000  0.58026300  0.59332000  1
  O  O38  1  0.81660100  0.07990100  0.40685200  1
  O  O39  1  0.81682300  0.08037500  0.90719400  1
  O  O40  1  0.57991700  0.31648500  0.40695400  1
  O  O41  1  0.57957900  0.31604700  0.90677800  1
  O  O42  1  0.91855100  0.81689600  0.09275800  1
  O  O43  1  0.92041900  0.81641200  0.59327100  1
  O  O44  1  0.42093700  0.68366300  0.40658600  1
  O  O45  1  0.42140900  0.68347000  0.90656400  1
  O  O46  1  0.07924100  0.18427300  0.09290500  1
  O  O47  1  0.07955900  0.18361100  0.59326500  1
