# generated using pymatgen
data_Dy2(Al3Rh)3
_symmetry_space_group_name_H-M   'P 1'
_cell_length_a   7.54839349
_cell_length_b   7.54839349
_cell_length_c   9.48769200
_cell_angle_alpha   90.00000000
_cell_angle_beta   90.00000000
_cell_angle_gamma   119.53899617
_symmetry_Int_Tables_number   1
_chemical_formula_structural   Dy2(Al3Rh)3
_chemical_formula_sum   'Dy4 Al18 Rh6'
_cell_volume   470.32606644
_cell_formula_units_Z   2
loop_
 _symmetry_equiv_pos_site_id
 _symmetry_equiv_pos_as_xyz
  1  'x, y, z'
loop_
 _atom_site_type_symbol
 _atom_site_label
 _atom_site_symmetry_multiplicity
 _atom_site_fract_x
 _atom_site_fract_y
 _atom_site_fract_z
 _atom_site_occupancy
  Dy  Dy0  1  0.99561800  0.66854000  0.75000000  1
  Dy  Dy1  1  0.00438200  0.33146000  0.25000000  1
  Dy  Dy2  1  0.66854000  0.99561800  0.75000000  1
  Dy  Dy3  1  0.33146000  0.00438200  0.25000000  1
  Al  Al4  1  0.12491400  0.12491400  0.75000000  1
  Al  Al5  1  0.87508600  0.87508600  0.25000000  1
  Al  Al6  1  0.00138500  0.33425500  0.57324600  1
  Al  Al7  1  0.99861500  0.66574500  0.42675400  1
  Al  Al8  1  0.99861500  0.66574500  0.07324600  1
  Al  Al9  1  0.33425500  0.00138500  0.92675400  1
  Al  Al10  1  0.00138500  0.33425500  0.92675400  1
  Al  Al11  1  0.66574500  0.99861500  0.07324600  1
  Al  Al12  1  0.66574500  0.99861500  0.42675400  1
  Al  Al13  1  0.33425500  0.00138500  0.57324600  1
  Al  Al14  1  0.33389900  0.33389900  0.05456700  1
  Al  Al15  1  0.66610100  0.66610100  0.94543300  1
  Al  Al16  1  0.66610100  0.66610100  0.55456700  1
  Al  Al17  1  0.33389900  0.33389900  0.44543300  1
  Al  Al18  1  0.33699400  0.54725600  0.75000000  1
  Al  Al19  1  0.66300600  0.45274400  0.25000000  1
  Al  Al20  1  0.54725600  0.33699400  0.75000000  1
  Al  Al21  1  0.45274400  0.66300600  0.25000000  1
  Rh  Rh22  1  0.67196100  0.32803900  0.50000000  1
  Rh  Rh23  1  0.32803900  0.67196100  0.50000000  1
  Rh  Rh24  1  0.32803900  0.67196100  0.00000000  1
  Rh  Rh25  1  0.67196100  0.32803900  0.00000000  1
  Rh  Rh26  1  0.00000000  0.00000000  0.50000000  1
  Rh  Rh27  1  0.00000000  0.00000000  0.00000000  1
