# generated using pymatgen
data_Na2Nb4Se4O19
_symmetry_space_group_name_H-M   'P 1'
_cell_length_a   4.01449000
_cell_length_b   10.36853919
_cell_length_c   11.12372716
_cell_angle_alpha   106.08043585
_cell_angle_beta   90.05296024
_cell_angle_gamma   97.42126349
_symmetry_Int_Tables_number   1
_chemical_formula_structural   Na2Nb4Se4O19
_chemical_formula_sum   'Na2 Nb4 Se4 O19'
_cell_volume   440.84806891
_cell_formula_units_Z   1
loop_
 _symmetry_equiv_pos_site_id
 _symmetry_equiv_pos_as_xyz
  1  'x, y, z'
loop_
 _atom_site_type_symbol
 _atom_site_label
 _atom_site_symmetry_multiplicity
 _atom_site_fract_x
 _atom_site_fract_y
 _atom_site_fract_z
 _atom_site_occupancy
  Na  Na0  1  0.77648100  0.93714300  0.86068800  1
  Na  Na1  1  0.22351900  0.06285700  0.13931200  1
  Nb  Nb2  1  0.33906800  0.18745300  0.70405600  1
  Nb  Nb3  1  0.66093200  0.81254700  0.29594400  1
  Nb  Nb4  1  0.56823000  0.55374700  0.68118000  1
  Nb  Nb5  1  0.43177000  0.44625300  0.31882000  1
  Se  Se6  1  0.34435400  0.82547800  0.58458800  1
  Se  Se7  1  0.65564600  0.17452200  0.41541200  1
  Se  Se8  1  0.28568300  0.71722100  0.98661700  1
  Se  Se9  1  0.71431700  0.28277900  0.01338300  1
  O  O10  1  0.64645200  0.87727300  0.48838600  1
  O  O11  1  0.35354800  0.12272700  0.51161400  1
  O  O12  1  0.31771500  0.97613700  0.69757800  1
  O  O13  1  0.68228500  0.02386300  0.30242200  1
  O  O14  1  0.60281200  0.76204000  0.67237500  1
  O  O15  1  0.39718800  0.23796000  0.32762500  1
  O  O16  1  0.56381700  0.64725500  0.87399000  1
  O  O17  1  0.43618300  0.35274500  0.12601000  1
  O  O18  1  0.60371500  0.77407600  0.10978400  1
  O  O19  1  0.39628500  0.22592400  0.89021600  1
  O  O20  1  0.24486100  0.86619500  0.95889600  1
  O  O21  1  0.75513900  0.13380500  0.04110400  1
  O  O22  1  0.88025500  0.17655100  0.70543200  1
  O  O23  1  0.11974500  0.82344900  0.29456800  1
  O  O24  1  0.45746600  0.37198000  0.69923900  1
  O  O25  1  0.54253400  0.62802000  0.30076100  1
  O  O26  1  0.50000000  0.50000000  0.50000000  1
  O  O27  1  0.02885800  0.56992300  0.69087000  1
  O  O28  1  0.97114200  0.43007700  0.30913000  1
