# generated using pymatgen
data_Re2SbO6
_symmetry_space_group_name_H-M   'P 1'
_cell_length_a   8.50350221
_cell_length_b   8.50350221
_cell_length_c   5.56559842
_cell_angle_alpha   88.77287340
_cell_angle_beta   88.77287340
_cell_angle_gamma   34.08827367
_symmetry_Int_Tables_number   1
_chemical_formula_structural   Re2SbO6
_chemical_formula_sum   'Re4 Sb2 O12'
_cell_volume   225.50207196
_cell_formula_units_Z   2
loop_
 _symmetry_equiv_pos_site_id
 _symmetry_equiv_pos_as_xyz
  1  'x, y, z'
loop_
 _atom_site_type_symbol
 _atom_site_label
 _atom_site_symmetry_multiplicity
 _atom_site_fract_x
 _atom_site_fract_y
 _atom_site_fract_z
 _atom_site_occupancy
  Re  Re0  1  0.41393400  0.94870200  0.60926500  1
  Re  Re1  1  0.05129800  0.58606600  0.89073500  1
  Re  Re2  1  0.58606600  0.05129800  0.39073500  1
  Re  Re3  1  0.94870200  0.41393400  0.10926500  1
  Sb  Sb4  1  0.30448800  0.69551200  0.25000000  1
  Sb  Sb5  1  0.69551200  0.30448800  0.75000000  1
  O  O6  1  0.48038200  0.65817400  0.57400000  1
  O  O7  1  0.34182600  0.51961800  0.92600000  1
  O  O8  1  0.51961800  0.34182600  0.42600000  1
  O  O9  1  0.65817400  0.48038200  0.07400000  1
  O  O10  1  0.11557300  0.16414300  0.38099400  1
  O  O11  1  0.83585700  0.88442700  0.11900600  1
  O  O12  1  0.73528400  0.69668700  0.83120500  1
  O  O13  1  0.30331300  0.26471600  0.66879500  1
  O  O14  1  0.26471600  0.30331300  0.16879500  1
  O  O15  1  0.69668700  0.73528400  0.33120500  1
  O  O16  1  0.16414300  0.11557300  0.88099400  1
  O  O17  1  0.88442700  0.83585700  0.61900600  1
