# generated using pymatgen
data_BaNi2(AsO4)2
_symmetry_space_group_name_H-M   'P 1'
_cell_length_a   5.02479826
_cell_length_b   8.55675410
_cell_length_c   8.70320597
_cell_angle_alpha   109.81830349
_cell_angle_beta   89.99999698
_cell_angle_gamma   90.00000013
_symmetry_Int_Tables_number   1
_chemical_formula_structural   BaNi2(AsO4)2
_chemical_formula_sum   'Ba2 Ni4 As4 O16'
_cell_volume   352.03963451
_cell_formula_units_Z   2
loop_
 _symmetry_equiv_pos_site_id
 _symmetry_equiv_pos_as_xyz
  1  'x, y, z'
loop_
 _atom_site_type_symbol
 _atom_site_label
 _atom_site_symmetry_multiplicity
 _atom_site_fract_x
 _atom_site_fract_y
 _atom_site_fract_z
 _atom_site_occupancy
  Ba  Ba0  1  0.50000000  0.00000000  0.50000000  1
  Ba  Ba1  1  0.00000000  0.00000000  0.00000000  1
  Ni  Ni2  1  0.50000000  0.49352800  0.33117600  1
  Ni  Ni3  1  0.00000000  0.50647200  0.16882400  1
  Ni  Ni4  1  0.00000000  0.49352800  0.83117600  1
  Ni  Ni5  1  0.50000000  0.50647200  0.66882400  1
  As  As6  1  0.50000000  0.71689600  0.07229900  1
  As  As7  1  0.00000000  0.71689600  0.57229900  1
  As  As8  1  0.50000000  0.28310400  0.92770100  1
  As  As9  1  0.00000000  0.28310400  0.42770100  1
  O  O10  1  0.50000000  0.07266000  0.85755300  1
  O  O11  1  0.00000000  0.07266000  0.35755300  1
  O  O12  1  0.50000000  0.92734000  0.14244700  1
  O  O13  1  0.00000000  0.92734000  0.64244700  1
  O  O14  1  0.67215800  0.65142400  0.88745100  1
  O  O15  1  0.17215800  0.65142400  0.38745100  1
  O  O16  1  0.65845600  0.65142400  0.21806600  1
  O  O17  1  0.15845600  0.65142400  0.71806600  1
  O  O18  1  0.16938500  0.65142400  0.04590700  1
  O  O19  1  0.66938500  0.65142400  0.54590700  1
  O  O20  1  0.32784200  0.34857600  0.11254900  1
  O  O21  1  0.82784200  0.34857600  0.61254900  1
  O  O22  1  0.34154400  0.34857600  0.78193400  1
  O  O23  1  0.84154400  0.34857600  0.28193400  1
  O  O24  1  0.83061500  0.34857600  0.95409300  1
  O  O25  1  0.33061500  0.34857600  0.45409300  1
