# generated using pymatgen
data_Er2Au
_symmetry_space_group_name_H-M   'P 1'
_cell_length_a   4.89280200
_cell_length_b   7.08877700
_cell_length_c   8.89872100
_cell_angle_alpha   90.00000000
_cell_angle_beta   90.00000000
_cell_angle_gamma   90.00000000
_symmetry_Int_Tables_number   1
_chemical_formula_structural   Er2Au
_chemical_formula_sum   'Er8 Au4'
_cell_volume   308.64308151
_cell_formula_units_Z   4
loop_
 _symmetry_equiv_pos_site_id
 _symmetry_equiv_pos_as_xyz
  1  'x, y, z'
loop_
 _atom_site_type_symbol
 _atom_site_label
 _atom_site_symmetry_multiplicity
 _atom_site_fract_x
 _atom_site_fract_y
 _atom_site_fract_z
 _atom_site_occupancy
  Er  Er0  1  0.25000000  0.84832600  0.92487300  1
  Er  Er1  1  0.25000000  0.34832600  0.57512700  1
  Er  Er2  1  0.75000000  0.15167400  0.07512700  1
  Er  Er3  1  0.75000000  0.65167400  0.42487300  1
  Er  Er4  1  0.25000000  0.48232700  0.17930700  1
  Er  Er5  1  0.25000000  0.98232700  0.32069300  1
  Er  Er6  1  0.75000000  0.51767300  0.82069300  1
  Er  Er7  1  0.75000000  0.01767300  0.67930700  1
  Au  Au8  1  0.25000000  0.25486100  0.89579800  1
  Au  Au9  1  0.25000000  0.75486100  0.60420200  1
  Au  Au10  1  0.75000000  0.74513900  0.10420200  1
  Au  Au11  1  0.75000000  0.24513900  0.39579800  1
