# generated using pymatgen
data_Pr7C3Br10
_symmetry_space_group_name_H-M   'P 1'
_cell_length_a   9.22913500
_cell_length_b   11.17585700
_cell_length_c   13.57924684
_cell_angle_alpha   86.39215150
_cell_angle_beta   107.65571970
_cell_angle_gamma   113.28695012
_symmetry_Int_Tables_number   1
_chemical_formula_structural   Pr7C3Br10
_chemical_formula_sum   'Pr14 C6 Br20'
_cell_volume   1223.31235957
_cell_formula_units_Z   2
loop_
 _symmetry_equiv_pos_site_id
 _symmetry_equiv_pos_as_xyz
  1  'x, y, z'
loop_
 _atom_site_type_symbol
 _atom_site_label
 _atom_site_symmetry_multiplicity
 _atom_site_fract_x
 _atom_site_fract_y
 _atom_site_fract_z
 _atom_site_occupancy
  Pr  Pr0  1  0.59387500  0.21849500  0.57961300  1
  Pr  Pr1  1  0.40612500  0.78150500  0.42038700  1
  Pr  Pr2  1  0.94028200  0.38224800  0.82033500  1
  Pr  Pr3  1  0.05971800  0.61775200  0.17966500  1
  Pr  Pr4  1  0.68750700  0.45131600  0.92073800  1
  Pr  Pr5  1  0.31249300  0.54868400  0.07926200  1
  Pr  Pr6  1  0.07193000  0.75560400  0.90062900  1
  Pr  Pr7  1  0.92807000  0.24439600  0.09937100  1
  Pr  Pr8  1  0.30233100  0.41662700  0.36070900  1
  Pr  Pr9  1  0.69766900  0.58337300  0.63929100  1
  Pr  Pr10  1  0.67894100  0.70942400  0.31117700  1
  Pr  Pr11  1  0.32105900  0.29057600  0.68882300  1
  Pr  Pr12  1  0.46757800  0.93519800  0.16974100  1
  Pr  Pr13  1  0.53242200  0.06480200  0.83025900  1
  C  C14  1  0.60530700  0.26994100  0.76723700  1
  C  C15  1  0.39469300  0.73005900  0.23276300  1
  C  C16  1  0.98159600  0.43972400  0.02236500  1
  C  C17  1  0.01840400  0.56027600  0.97763500  1
  C  C18  1  0.64223500  0.38986800  0.72188400  1
  C  C19  1  0.35776500  0.61013200  0.27811600  1
  Br  Br20  1  0.66814000  0.45493000  0.43559400  1
  Br  Br21  1  0.33186000  0.54507000  0.56440600  1
  Br  Br22  1  0.05948800  0.63639300  0.70359400  1
  Br  Br23  1  0.94051200  0.36360700  0.29640600  1
  Br  Br24  1  0.94423300  0.25319200  0.62655200  1
  Br  Br25  1  0.05576700  0.74680800  0.37344800  1
  Br  Br26  1  0.71716600  0.72064800  0.82959500  1
  Br  Br27  1  0.28283400  0.27935200  0.17040500  1
  Br  Br28  1  0.31919800  0.42072700  0.87821400  1
  Br  Br29  1  0.68080200  0.57927300  0.12178600  1
  Br  Br30  1  0.55863800  0.18964300  0.03458800  1
  Br  Br31  1  0.44136200  0.81035700  0.96541200  1
  Br  Br32  1  0.52074300  0.06525000  0.36638200  1
  Br  Br33  1  0.47925700  0.93475000  0.63361800  1
  Br  Br34  1  0.89018000  0.10368300  0.90642900  1
  Br  Br35  1  0.10982000  0.89631700  0.09357100  1
  Br  Br36  1  0.18009000  0.02472900  0.77582600  1
  Br  Br37  1  0.81991000  0.97527100  0.22417400  1
  Br  Br38  1  0.23083800  0.15714400  0.48384800  1
  Br  Br39  1  0.76916200  0.84285600  0.51615200  1
