# generated using pymatgen
data_AgP(OF)2
_symmetry_space_group_name_H-M   'P 1'
_cell_length_a   13.77091134
_cell_length_b   13.77091134
_cell_length_c   6.34082811
_cell_angle_alpha   79.85925426
_cell_angle_beta   79.85925426
_cell_angle_gamma   130.77502204
_symmetry_Int_Tables_number   1
_chemical_formula_structural   AgP(OF)2
_chemical_formula_sum   'Ag8 P8 O16 F16'
_cell_volume   825.22777171
_cell_formula_units_Z   8
loop_
 _symmetry_equiv_pos_site_id
 _symmetry_equiv_pos_as_xyz
  1  'x, y, z'
loop_
 _atom_site_type_symbol
 _atom_site_label
 _atom_site_symmetry_multiplicity
 _atom_site_fract_x
 _atom_site_fract_y
 _atom_site_fract_z
 _atom_site_occupancy
  Ag  Ag0  1  0.97593600  0.85144900  0.56568000  1
  Ag  Ag1  1  0.14855100  0.02406400  0.93432000  1
  Ag  Ag2  1  0.02406400  0.14855100  0.43432000  1
  Ag  Ag3  1  0.85144900  0.97593600  0.06568000  1
  Ag  Ag4  1  0.02532400  0.64748800  0.37934800  1
  Ag  Ag5  1  0.35251200  0.97467600  0.12065200  1
  Ag  Ag6  1  0.97467600  0.35251200  0.62065200  1
  Ag  Ag7  1  0.64748800  0.02532400  0.87934800  1
  P  P8  1  0.82999300  0.69388400  0.20016800  1
  P  P9  1  0.30611600  0.17000700  0.29983200  1
  P  P10  1  0.17000700  0.30611600  0.79983200  1
  P  P11  1  0.69388400  0.82999300  0.70016800  1
  P  P12  1  0.31366500  0.68633500  0.25000000  1
  P  P13  1  0.68633500  0.31366500  0.75000000  1
  P  P14  1  0.81145200  0.18854800  0.25000000  1
  P  P15  1  0.18854800  0.81145200  0.75000000  1
  O  O16  1  0.14481600  0.82734700  0.55640700  1
  O  O17  1  0.17265300  0.85518400  0.94359300  1
  O  O18  1  0.85518400  0.17265300  0.44359300  1
  O  O19  1  0.82734700  0.14481600  0.05640700  1
  O  O20  1  0.16004100  0.59373400  0.37185600  1
  O  O21  1  0.40626600  0.83995900  0.12814400  1
  O  O22  1  0.83995900  0.40626600  0.62814400  1
  O  O23  1  0.59373400  0.16004100  0.87185600  1
  O  O24  1  0.90814300  0.83214100  0.01012500  1
  O  O25  1  0.16785900  0.09185700  0.48987500  1
  O  O26  1  0.09185700  0.16785900  0.98987500  1
  O  O27  1  0.83214100  0.90814300  0.51012500  1
  O  O28  1  0.87320000  0.68796800  0.39955600  1
  O  O29  1  0.31203200  0.12680000  0.10044400  1
  O  O30  1  0.12680000  0.31203200  0.60044400  1
  O  O31  1  0.68796800  0.87320000  0.89955600  1
  F  F32  1  0.33961900  0.63000400  0.07637900  1
  F  F33  1  0.36999600  0.66038100  0.42362100  1
  F  F34  1  0.66038100  0.36999600  0.92362100  1
  F  F35  1  0.63000400  0.33961900  0.57637900  1
  F  F36  1  0.82659500  0.60068200  0.08328300  1
  F  F37  1  0.39931800  0.17340500  0.41671700  1
  F  F38  1  0.17340500  0.39931800  0.91671700  1
  F  F39  1  0.60068200  0.82659500  0.58328300  1
  F  F40  1  0.67165600  0.60909000  0.29421500  1
  F  F41  1  0.39091000  0.32834400  0.20578500  1
  F  F42  1  0.32834400  0.39091000  0.70578500  1
  F  F43  1  0.60909000  0.67165600  0.79421500  1
  F  F44  1  0.88479900  0.34372600  0.13847100  1
  F  F45  1  0.65627400  0.11520100  0.36152900  1
  F  F46  1  0.11520100  0.65627400  0.86152900  1
  F  F47  1  0.34372600  0.88479900  0.63847100  1
