# generated using pymatgen
data_Rb2Pd3S4
_symmetry_space_group_name_H-M   'P 1'
_cell_length_a   14.74743506
_cell_length_b   14.04341968
_cell_length_c   6.30864523
_cell_angle_alpha   83.67202544
_cell_angle_beta   71.16637284
_cell_angle_gamma   25.16160171
_symmetry_Int_Tables_number   1
_chemical_formula_structural   Rb2Pd3S4
_chemical_formula_sum   'Rb4 Pd6 S8'
_cell_volume   468.93984176
_cell_formula_units_Z   2
loop_
 _symmetry_equiv_pos_site_id
 _symmetry_equiv_pos_as_xyz
  1  'x, y, z'
loop_
 _atom_site_type_symbol
 _atom_site_label
 _atom_site_symmetry_multiplicity
 _atom_site_fract_x
 _atom_site_fract_y
 _atom_site_fract_z
 _atom_site_occupancy
  Rb  Rb0  1  0.07831100  0.07831100  0.92168900  1
  Rb  Rb1  1  0.92168900  0.92168900  0.07831100  1
  Rb  Rb2  1  0.17168900  0.17168900  0.32831100  1
  Rb  Rb3  1  0.32831100  0.32831100  0.17168900  1
  Pd  Pd4  1  0.50000000  0.50000000  0.50000000  1
  Pd  Pd5  1  0.75000000  0.75000000  0.75000000  1
  Pd  Pd6  1  0.74933800  0.74933800  0.25066200  1
  Pd  Pd7  1  0.25066200  0.25066200  0.74933800  1
  Pd  Pd8  1  0.50066200  0.50066200  0.99933800  1
  Pd  Pd9  1  0.99933800  0.99933800  0.50066200  1
  S  S10  1  0.60593200  0.28214700  0.72615500  1
  S  S11  1  0.72615500  0.38576700  0.60593200  1
  S  S12  1  0.28214700  0.60593200  0.38576700  1
  S  S13  1  0.38576700  0.72615500  0.28214700  1
  S  S14  1  0.64406800  0.96785300  0.52384500  1
  S  S15  1  0.52384500  0.86423300  0.64406800  1
  S  S16  1  0.96785300  0.64406800  0.86423300  1
  S  S17  1  0.86423300  0.52384500  0.96785300  1
