# generated using pymatgen
data_Na5Ga7H12S13O6
_symmetry_space_group_name_H-M   'P 1'
_cell_length_a   12.57025281
_cell_length_b   12.57025281
_cell_length_c   12.57025281
_cell_angle_alpha   60.00000000
_cell_angle_beta   60.00000000
_cell_angle_gamma   60.00000000
_symmetry_Int_Tables_number   1
_chemical_formula_structural   Na5Ga7H12S13O6
_chemical_formula_sum   'Na10 Ga14 H24 S26 O12'
_cell_volume   1404.48478347
_cell_formula_units_Z   2
loop_
 _symmetry_equiv_pos_site_id
 _symmetry_equiv_pos_as_xyz
  1  'x, y, z'
loop_
 _atom_site_type_symbol
 _atom_site_label
 _atom_site_symmetry_multiplicity
 _atom_site_fract_x
 _atom_site_fract_y
 _atom_site_fract_z
 _atom_site_occupancy
  Na  Na0  1  0.60767900  0.17696400  0.60767900  1
  Na  Na1  1  0.17696400  0.60767900  0.60767900  1
  Na  Na2  1  0.60767900  0.60767900  0.17696400  1
  Na  Na3  1  0.60767900  0.60767900  0.60767900  1
  Na  Na4  1  0.10767900  0.10767900  0.67696400  1
  Na  Na5  1  0.67696400  0.10767900  0.10767900  1
  Na  Na6  1  0.10767900  0.67696400  0.10767900  1
  Na  Na7  1  0.10767900  0.10767900  0.10767900  1
  Na  Na8  1  0.50000000  0.50000000  0.50000000  1
  Na  Na9  1  0.00000000  0.00000000  0.00000000  1
  Ga  Ga10  1  0.00000000  0.00000000  0.50000000  1
  Ga  Ga11  1  0.50000000  0.00000000  0.50000000  1
  Ga  Ga12  1  0.50000000  0.00000000  0.00000000  1
  Ga  Ga13  1  0.00000000  0.50000000  0.00000000  1
  Ga  Ga14  1  0.00000000  0.50000000  0.50000000  1
  Ga  Ga15  1  0.50000000  0.50000000  0.00000000  1
  Ga  Ga16  1  0.82862500  0.82862500  0.51412600  1
  Ga  Ga17  1  0.51412600  0.82862500  0.82862500  1
  Ga  Ga18  1  0.82862500  0.82862500  0.82862500  1
  Ga  Ga19  1  0.82862500  0.51412600  0.82862500  1
  Ga  Ga20  1  0.32862500  0.01412600  0.32862500  1
  Ga  Ga21  1  0.01412600  0.32862500  0.32862500  1
  Ga  Ga22  1  0.32862500  0.32862500  0.32862500  1
  Ga  Ga23  1  0.32862500  0.32862500  0.01412600  1
  H  H24  1  0.72865000  0.33844800  0.32884500  1
  H  H25  1  0.32884500  0.33844800  0.60405600  1
  H  H26  1  0.60405600  0.33844800  0.72865000  1
  H  H27  1  0.33844800  0.72865000  0.60405600  1
  H  H28  1  0.33844800  0.32884500  0.72865000  1
  H  H29  1  0.33844800  0.60405600  0.32884500  1
  H  H30  1  0.60405600  0.32884500  0.33844800  1
  H  H31  1  0.72865000  0.60405600  0.33844800  1
  H  H32  1  0.32884500  0.72865000  0.33844800  1
  H  H33  1  0.32884500  0.60405600  0.72865000  1
  H  H34  1  0.60405600  0.72865000  0.32884500  1
  H  H35  1  0.72865000  0.32884500  0.60405600  1
  H  H36  1  0.22865000  0.82884500  0.83844800  1
  H  H37  1  0.82884500  0.10405600  0.83844800  1
  H  H38  1  0.10405600  0.22865000  0.83844800  1
  H  H39  1  0.83844800  0.10405600  0.22865000  1
  H  H40  1  0.83844800  0.22865000  0.82884500  1
  H  H41  1  0.83844800  0.82884500  0.10405600  1
  H  H42  1  0.10405600  0.83844800  0.82884500  1
  H  H43  1  0.22865000  0.83844800  0.10405600  1
  H  H44  1  0.82884500  0.83844800  0.22865000  1
  H  H45  1  0.82884500  0.22865000  0.10405600  1
  H  H46  1  0.10405600  0.82884500  0.22865000  1
  H  H47  1  0.22865000  0.10405600  0.82884500  1
  S  S48  1  0.83231600  0.03049400  0.44826500  1
  S  S49  1  0.44826500  0.03049400  0.68892500  1
  S  S50  1  0.68892500  0.03049400  0.83231600  1
  S  S51  1  0.03049400  0.83231600  0.68892500  1
  S  S52  1  0.03049400  0.44826500  0.83231600  1
  S  S53  1  0.03049400  0.68892500  0.44826500  1
  S  S54  1  0.68892500  0.44826500  0.03049400  1
  S  S55  1  0.83231600  0.68892500  0.03049400  1
  S  S56  1  0.44826500  0.83231600  0.03049400  1
  S  S57  1  0.44826500  0.68892500  0.83231600  1
  S  S58  1  0.68892500  0.83231600  0.44826500  1
  S  S59  1  0.83231600  0.44826500  0.68892500  1
  S  S60  1  0.33231600  0.94826500  0.53049400  1
  S  S61  1  0.94826500  0.18892500  0.53049400  1
  S  S62  1  0.18892500  0.33231600  0.53049400  1
  S  S63  1  0.53049400  0.18892500  0.33231600  1
  S  S64  1  0.53049400  0.33231600  0.94826500  1
  S  S65  1  0.53049400  0.94826500  0.18892500  1
  S  S66  1  0.18892500  0.53049400  0.94826500  1
  S  S67  1  0.33231600  0.53049400  0.18892500  1
  S  S68  1  0.94826500  0.53049400  0.33231600  1
  S  S69  1  0.94826500  0.33231600  0.18892500  1
  S  S70  1  0.18892500  0.94826500  0.33231600  1
  S  S71  1  0.33231600  0.18892500  0.94826500  1
  S  S72  1  0.75000000  0.75000000  0.75000000  1
  S  S73  1  0.25000000  0.25000000  0.25000000  1
  O  O74  1  0.63247100  0.36752900  0.36752900  1
  O  O75  1  0.36752900  0.36752900  0.63247100  1
  O  O76  1  0.63247100  0.36752900  0.63247100  1
  O  O77  1  0.36752900  0.63247100  0.63247100  1
  O  O78  1  0.36752900  0.63247100  0.36752900  1
  O  O79  1  0.63247100  0.63247100  0.36752900  1
  O  O80  1  0.13247100  0.86752900  0.86752900  1
  O  O81  1  0.86752900  0.13247100  0.86752900  1
  O  O82  1  0.13247100  0.13247100  0.86752900  1
  O  O83  1  0.86752900  0.13247100  0.13247100  1
  O  O84  1  0.86752900  0.86752900  0.13247100  1
  O  O85  1  0.13247100  0.86752900  0.13247100  1
