# generated using pymatgen
data_CsK2Fe3P4ClO14
_symmetry_space_group_name_H-M   'P 1'
_cell_length_a   9.42886255
_cell_length_b   9.83596147
_cell_length_c   9.45309418
_cell_angle_alpha   73.99588710
_cell_angle_beta   69.68444095
_cell_angle_gamma   89.62901022
_symmetry_Int_Tables_number   1
_chemical_formula_structural   CsK2Fe3P4ClO14
_chemical_formula_sum   'Cs2 K4 Fe6 P8 Cl2 O28'
_cell_volume   786.41466950
_cell_formula_units_Z   2
loop_
 _symmetry_equiv_pos_site_id
 _symmetry_equiv_pos_as_xyz
  1  'x, y, z'
loop_
 _atom_site_type_symbol
 _atom_site_label
 _atom_site_symmetry_multiplicity
 _atom_site_fract_x
 _atom_site_fract_y
 _atom_site_fract_z
 _atom_site_occupancy
  Cs  Cs0  1  0.25000600  0.99999700  0.25000100  1
  Cs  Cs1  1  0.74999300  0.00000300  0.74999900  1
  K  K2  1  0.97159200  0.67104800  0.11676600  1
  K  K3  1  0.47159700  0.67104200  0.61684100  1
  K  K4  1  0.02839400  0.32897900  0.88314000  1
  K  K5  1  0.52841200  0.32896300  0.38323000  1
  Fe  Fe6  1  0.74999500  0.99995000  0.24997400  1
  Fe  Fe7  1  0.28036000  0.41147500  0.11026300  1
  Fe  Fe8  1  0.21956000  0.58850100  0.38972300  1
  Fe  Fe9  1  0.24995100  0.99995900  0.75001600  1
  Fe  Fe10  1  0.78043300  0.41154100  0.61020300  1
  Fe  Fe11  1  0.71956700  0.58849900  0.88979500  1
  P  P12  1  0.07591100  0.70545500  0.70710300  1
  P  P13  1  0.57581100  0.70554000  0.20711800  1
  P  P14  1  0.92409200  0.29441700  0.29296300  1
  P  P15  1  0.42409800  0.29452000  0.79289100  1
  P  P16  1  0.90971100  0.74575900  0.49332100  1
  P  P17  1  0.40979500  0.74574300  0.99328900  1
  P  P18  1  0.09020100  0.25428900  0.50674500  1
  P  P19  1  0.59028700  0.25427100  0.00668900  1
  Cl  Cl20  1  0.99998800  0.00000900  0.99998000  1
  Cl  Cl21  1  0.50000900  0.99999600  0.50002000  1
  O  O22  1  0.99585900  0.80660600  0.59149300  1
  O  O23  1  0.49582800  0.80671500  0.09143400  1
  O  O24  1  0.00415700  0.19329300  0.40856000  1
  O  O25  1  0.50414900  0.19339500  0.90849300  1
  O  O26  1  0.94342300  0.61964600  0.85491200  1
  O  O27  1  0.44343000  0.61982700  0.35489400  1
  O  O28  1  0.05666200  0.38011100  0.14510200  1
  O  O29  1  0.55657100  0.38036100  0.64509500  1
  O  O30  1  0.16819000  0.80730900  0.74384900  1
  O  O31  1  0.66826800  0.80743100  0.24370700  1
  O  O32  1  0.83173500  0.19257400  0.25629800  1
  O  O33  1  0.33179400  0.19269200  0.75615400  1
  O  O34  1  0.17134400  0.60851500  0.61756000  1
  O  O35  1  0.67122900  0.60854300  0.11756700  1
  O  O36  1  0.82878400  0.39146500  0.38240200  1
  O  O37  1  0.32860100  0.39153700  0.88241000  1
  O  O38  1  0.79278300  0.62186600  0.61873300  1
  O  O39  1  0.29300500  0.62175300  0.11872700  1
  O  O40  1  0.20704500  0.37823700  0.38128700  1
  O  O41  1  0.70724800  0.37816500  0.88124200  1
  O  O42  1  0.03490400  0.69074000  0.37304600  1
  O  O43  1  0.53501600  0.69083400  0.87297500  1
  O  O44  1  0.96499400  0.30917200  0.62702000  1
  O  O45  1  0.46521900  0.30926700  0.12697700  1
  O  O46  1  0.84152000  0.87297600  0.42189600  1
  O  O47  1  0.34143900  0.87285400  0.92185200  1
  O  O48  1  0.15853700  0.12713900  0.57816100  1
  O  O49  1  0.65850100  0.12702100  0.07808400  1
