# generated using pymatgen
data_NaPrTe2
_symmetry_space_group_name_H-M   'P 1'
_cell_length_a   9.19288313
_cell_length_b   9.19288313
_cell_length_c   9.19288313
_cell_angle_alpha   60.00000000
_cell_angle_beta   60.00000000
_cell_angle_gamma   60.00000000
_symmetry_Int_Tables_number   1
_chemical_formula_structural   NaPrTe2
_chemical_formula_sum   'Na4 Pr4 Te8'
_cell_volume   549.33872978
_cell_formula_units_Z   4
loop_
 _symmetry_equiv_pos_site_id
 _symmetry_equiv_pos_as_xyz
  1  'x, y, z'
loop_
 _atom_site_type_symbol
 _atom_site_label
 _atom_site_symmetry_multiplicity
 _atom_site_fract_x
 _atom_site_fract_y
 _atom_site_fract_z
 _atom_site_occupancy
  Na  Na0  1  0.12500000  0.62500000  0.12500000  1
  Na  Na1  1  0.12500000  0.12500000  0.62500000  1
  Na  Na2  1  0.62500000  0.12500000  0.12500000  1
  Na  Na3  1  0.12500000  0.12500000  0.12500000  1
  Pr  Pr4  1  0.62500000  0.12500000  0.62500000  1
  Pr  Pr5  1  0.62500000  0.62500000  0.62500000  1
  Pr  Pr6  1  0.12500000  0.62500000  0.62500000  1
  Pr  Pr7  1  0.62500000  0.62500000  0.12500000  1
  Te  Te8  1  0.37783100  0.86650600  0.37783100  1
  Te  Te9  1  0.87216900  0.38349400  0.87216900  1
  Te  Te10  1  0.87216900  0.87216900  0.38349400  1
  Te  Te11  1  0.87216900  0.87216900  0.87216900  1
  Te  Te12  1  0.86650600  0.37783100  0.37783100  1
  Te  Te13  1  0.37783100  0.37783100  0.86650600  1
  Te  Te14  1  0.37783100  0.37783100  0.37783100  1
  Te  Te15  1  0.38349400  0.87216900  0.87216900  1
