# generated using pymatgen
data_Ba2CaMoN4
_symmetry_space_group_name_H-M   'P 1'
_cell_length_a   9.97644800
_cell_length_b   10.48523800
_cell_length_c   12.04876000
_cell_angle_alpha   90.00000000
_cell_angle_beta   90.00000000
_cell_angle_gamma   90.00000000
_symmetry_Int_Tables_number   1
_chemical_formula_structural   Ba2CaMoN4
_chemical_formula_sum   'Ba16 Ca8 Mo8 N32'
_cell_volume   1260.36574094
_cell_formula_units_Z   8
loop_
 _symmetry_equiv_pos_site_id
 _symmetry_equiv_pos_as_xyz
  1  'x, y, z'
loop_
 _atom_site_type_symbol
 _atom_site_label
 _atom_site_symmetry_multiplicity
 _atom_site_fract_x
 _atom_site_fract_y
 _atom_site_fract_z
 _atom_site_occupancy
  Ba  Ba0  1  0.62309200  0.96680900  0.85484300  1
  Ba  Ba1  1  0.37690800  0.03319100  0.14515700  1
  Ba  Ba2  1  0.87690800  0.46680900  0.14515700  1
  Ba  Ba3  1  0.37690800  0.53319100  0.35484300  1
  Ba  Ba4  1  0.12309200  0.53319100  0.85484300  1
  Ba  Ba5  1  0.62309200  0.46680900  0.64515700  1
  Ba  Ba6  1  0.12309200  0.03319100  0.64515700  1
  Ba  Ba7  1  0.87690800  0.96680900  0.35484300  1
  Ba  Ba8  1  0.80683400  0.76577000  0.61672100  1
  Ba  Ba9  1  0.19316600  0.23423000  0.38327900  1
  Ba  Ba10  1  0.69316600  0.26577000  0.38327900  1
  Ba  Ba11  1  0.19316600  0.73423000  0.11672100  1
  Ba  Ba12  1  0.30683400  0.73423000  0.61672100  1
  Ba  Ba13  1  0.80683400  0.26577000  0.88327900  1
  Ba  Ba14  1  0.30683400  0.23423000  0.88327900  1
  Ba  Ba15  1  0.69316600  0.76577000  0.11672100  1
  Ca  Ca16  1  0.96818200  0.88157900  0.89761200  1
  Ca  Ca17  1  0.03181800  0.11842100  0.10238800  1
  Ca  Ca18  1  0.53181800  0.38157900  0.10238800  1
  Ca  Ca19  1  0.03181800  0.61842100  0.39761200  1
  Ca  Ca20  1  0.46818100  0.61842100  0.89761200  1
  Ca  Ca21  1  0.96818200  0.38157900  0.60238800  1
  Ca  Ca22  1  0.46818100  0.11842100  0.60238800  1
  Ca  Ca23  1  0.53181800  0.88157900  0.39761200  1
  Mo  Mo24  1  0.78711100  0.59456800  0.88032200  1
  Mo  Mo25  1  0.21288900  0.40543200  0.11967800  1
  Mo  Mo26  1  0.71288900  0.09456800  0.11967800  1
  Mo  Mo27  1  0.21288900  0.90543200  0.38032200  1
  Mo  Mo28  1  0.28711100  0.90543200  0.88032200  1
  Mo  Mo29  1  0.78711100  0.09456800  0.61967800  1
  Mo  Mo30  1  0.28711100  0.40543200  0.61967800  1
  Mo  Mo31  1  0.71288900  0.59456800  0.38032200  1
  N  N32  1  0.91896000  0.67003000  0.97284400  1
  N  N33  1  0.08104000  0.32997000  0.02715600  1
  N  N34  1  0.58104000  0.17003000  0.02715600  1
  N  N35  1  0.08104000  0.82997000  0.47284400  1
  N  N36  1  0.41896000  0.82997000  0.97284400  1
  N  N37  1  0.91896000  0.17003000  0.52715600  1
  N  N38  1  0.41896000  0.32997000  0.52715600  1
  N  N39  1  0.58104000  0.67003000  0.47284400  1
  N  N40  1  0.67612600  0.71318200  0.80905700  1
  N  N41  1  0.32387400  0.28681800  0.19094300  1
  N  N42  1  0.82387400  0.21318100  0.19094300  1
  N  N43  1  0.32387400  0.78681800  0.30905700  1
  N  N44  1  0.17612600  0.78681800  0.80905700  1
  N  N45  1  0.67612600  0.21318100  0.69094300  1
  N  N46  1  0.17612600  0.28681800  0.69094300  1
  N  N47  1  0.82387400  0.71318200  0.30905700  1
  N  N48  1  0.67266400  0.99282200  0.53153500  1
  N  N49  1  0.32733600  0.00717800  0.46846500  1
  N  N50  1  0.82733600  0.49282200  0.46846500  1
  N  N51  1  0.32733600  0.50717800  0.03153500  1
  N  N52  1  0.17266400  0.50717800  0.53153500  1
  N  N53  1  0.67266400  0.49282200  0.96846500  1
  N  N54  1  0.17266400  0.00717800  0.96846500  1
  N  N55  1  0.82733600  0.99282200  0.03153500  1
  N  N56  1  0.87210400  0.98901800  0.72610500  1
  N  N57  1  0.12789600  0.01098200  0.27389500  1
  N  N58  1  0.62789600  0.48901800  0.27389500  1
  N  N59  1  0.12789600  0.51098200  0.22610500  1
  N  N60  1  0.37210400  0.51098200  0.72610500  1
  N  N61  1  0.87210400  0.48901800  0.77389500  1
  N  N62  1  0.37210400  0.01098200  0.77389500  1
  N  N63  1  0.62789600  0.98901800  0.22610500  1
