# generated using pymatgen
data_NdCrO4
_symmetry_space_group_name_H-M   'P 1'
_cell_length_a   6.16762899
_cell_length_b   6.16762899
_cell_length_c   6.16762899
_cell_angle_alpha   105.84779494
_cell_angle_beta   105.84779494
_cell_angle_gamma   116.98996068
_symmetry_Int_Tables_number   1
_chemical_formula_structural   NdCrO4
_chemical_formula_sum   'Nd2 Cr2 O8'
_cell_volume   178.24478817
_cell_formula_units_Z   2
loop_
 _symmetry_equiv_pos_site_id
 _symmetry_equiv_pos_as_xyz
  1  'x, y, z'
loop_
 _atom_site_type_symbol
 _atom_site_label
 _atom_site_symmetry_multiplicity
 _atom_site_fract_x
 _atom_site_fract_y
 _atom_site_fract_z
 _atom_site_occupancy
  Nd  Nd0  1  0.00000000  0.00000000  0.00000000  1
  Nd  Nd1  1  0.25000000  0.75000000  0.50000000  1
  Cr  Cr2  1  0.75000000  0.25000000  0.50000000  1
  Cr  Cr3  1  0.50000000  0.50000000  0.00000000  1
  O  O4  1  0.33125000  0.51152000  0.18027000  1
  O  O5  1  0.40098000  0.08125000  0.31973000  1
  O  O6  1  0.76152000  0.08125000  0.68027000  1
  O  O7  1  0.33125000  0.15098000  0.81973000  1
  O  O8  1  0.84902000  0.66875000  0.18027000  1
  O  O9  1  0.91875000  0.23848000  0.31973000  1
  O  O10  1  0.91875000  0.59902000  0.68027000  1
  O  O11  1  0.48848000  0.66875000  0.81973000  1
