# generated using pymatgen
data_Pr2Ge5Ir3
_symmetry_space_group_name_H-M   'P 1'
_cell_length_a   8.50435377
_cell_length_b   8.50435377
_cell_length_c   8.50435377
_cell_angle_alpha   137.73974161
_cell_angle_beta   105.08746934
_cell_angle_gamma   89.97759245
_symmetry_Int_Tables_number   1
_chemical_formula_structural   Pr2Ge5Ir3
_chemical_formula_sum   'Pr4 Ge10 Ir6'
_cell_volume   381.46847481
_cell_formula_units_Z   2
loop_
 _symmetry_equiv_pos_site_id
 _symmetry_equiv_pos_as_xyz
  1  'x, y, z'
loop_
 _atom_site_type_symbol
 _atom_site_label
 _atom_site_symmetry_multiplicity
 _atom_site_fract_x
 _atom_site_fract_y
 _atom_site_fract_z
 _atom_site_occupancy
  Pr  Pr0  1  0.86103000  0.63332500  0.22770500  1
  Pr  Pr1  1  0.13897000  0.36667500  0.77229500  1
  Pr  Pr2  1  0.40562000  0.13332500  0.27229500  1
  Pr  Pr3  1  0.59438000  0.86667500  0.72770500  1
  Ge  Ge4  1  0.50000000  0.75000000  0.25000000  1
  Ge  Ge5  1  0.50000000  0.25000000  0.75000000  1
  Ge  Ge6  1  0.22410400  0.97410400  0.75000000  1
  Ge  Ge7  1  0.77589600  0.52589600  0.75000000  1
  Ge  Ge8  1  0.77589600  0.02589600  0.25000000  1
  Ge  Ge9  1  0.22410400  0.47410400  0.25000000  1
  Ge  Ge10  1  0.06001000  0.90006400  0.15994600  1
  Ge  Ge11  1  0.93999000  0.09993600  0.84005400  1
  Ge  Ge12  1  0.74011800  0.40006400  0.34005400  1
  Ge  Ge13  1  0.25988200  0.59993600  0.65994600  1
  Ir  Ir14  1  0.00000000  0.75000000  0.75000000  1
  Ir  Ir15  1  0.00000000  0.25000000  0.25000000  1
  Ir  Ir16  1  0.24966100  0.85861700  0.39104400  1
  Ir  Ir17  1  0.75033900  0.14138300  0.60895600  1
  Ir  Ir18  1  0.46757300  0.35861700  0.10895600  1
  Ir  Ir19  1  0.53242700  0.64138300  0.89104400  1
