# generated using pymatgen
data_K3NbSe4
_symmetry_space_group_name_H-M   'P 1'
_cell_length_a   9.77072800
_cell_length_b   9.90930200
_cell_length_c   11.34190500
_cell_angle_alpha   90.00000000
_cell_angle_beta   90.00000000
_cell_angle_gamma   90.00000000
_symmetry_Int_Tables_number   1
_chemical_formula_structural   K3NbSe4
_chemical_formula_sum   'K12 Nb4 Se16'
_cell_volume   1098.13565595
_cell_formula_units_Z   4
loop_
 _symmetry_equiv_pos_site_id
 _symmetry_equiv_pos_as_xyz
  1  'x, y, z'
loop_
 _atom_site_type_symbol
 _atom_site_label
 _atom_site_symmetry_multiplicity
 _atom_site_fract_x
 _atom_site_fract_y
 _atom_site_fract_z
 _atom_site_occupancy
  K  K0  1  0.37212900  0.58320400  0.75000000  1
  K  K1  1  0.12787100  0.08320400  0.25000000  1
  K  K2  1  0.62787100  0.41679600  0.25000000  1
  K  K3  1  0.87212900  0.91679600  0.75000000  1
  K  K4  1  0.94080400  0.70830700  0.45187900  1
  K  K5  1  0.44080400  0.79169300  0.04812100  1
  K  K6  1  0.55919600  0.20830700  0.54812100  1
  K  K7  1  0.05919600  0.29169300  0.95187900  1
  K  K8  1  0.05919600  0.29169300  0.54812100  1
  K  K9  1  0.55919600  0.20830700  0.95187900  1
  K  K10  1  0.44080400  0.79169300  0.45187900  1
  K  K11  1  0.94080400  0.70830700  0.04812100  1
  Nb  Nb12  1  0.21313000  0.51362800  0.25000000  1
  Nb  Nb13  1  0.71313000  0.98637200  0.25000000  1
  Nb  Nb14  1  0.28687000  0.01362800  0.75000000  1
  Nb  Nb15  1  0.78687000  0.48637200  0.75000000  1
  Se  Se16  1  0.33527800  0.44761800  0.42629500  1
  Se  Se17  1  0.66472200  0.55238200  0.92629500  1
  Se  Se18  1  0.83527800  0.05238200  0.07370500  1
  Se  Se19  1  0.16472200  0.94761800  0.57370500  1
  Se  Se20  1  0.01324900  0.58719200  0.75000000  1
  Se  Se21  1  0.51324900  0.91280800  0.75000000  1
  Se  Se22  1  0.48675100  0.08719200  0.25000000  1
  Se  Se23  1  0.98675100  0.41280800  0.25000000  1
  Se  Se24  1  0.81081300  0.24289000  0.75000000  1
  Se  Se25  1  0.31081300  0.25711000  0.75000000  1
  Se  Se26  1  0.68918700  0.74289000  0.25000000  1
  Se  Se27  1  0.18918700  0.75711000  0.25000000  1
  Se  Se28  1  0.66472200  0.55238200  0.57370500  1
  Se  Se29  1  0.16472200  0.94761800  0.92629500  1
  Se  Se30  1  0.83527800  0.05238200  0.42629500  1
  Se  Se31  1  0.33527800  0.44761800  0.07370500  1
