# generated using pymatgen
data_CeZr2F11
_symmetry_space_group_name_H-M   'P 1'
_cell_length_a   8.54293031
_cell_length_b   8.54293031
_cell_length_c   8.54293031
_cell_angle_alpha   124.85003013
_cell_angle_beta   106.53535858
_cell_angle_gamma   98.27721198
_symmetry_Int_Tables_number   1
_chemical_formula_structural   CeZr2F11
_chemical_formula_sum   'Ce2 Zr4 F22'
_cell_volume   451.71549685
_cell_formula_units_Z   2
loop_
 _symmetry_equiv_pos_site_id
 _symmetry_equiv_pos_as_xyz
  1  'x, y, z'
loop_
 _atom_site_type_symbol
 _atom_site_label
 _atom_site_symmetry_multiplicity
 _atom_site_fract_x
 _atom_site_fract_y
 _atom_site_fract_z
 _atom_site_occupancy
  Ce  Ce0  1  0.75000000  0.25000000  0.50000000  1
  Ce  Ce1  1  0.25000000  0.75000000  0.50000000  1
  Zr  Zr2  1  0.68059500  0.63355500  0.31415000  1
  Zr  Zr3  1  0.31940500  0.36644500  0.68585000  1
  Zr  Zr4  1  0.18059500  0.86644500  0.04704000  1
  Zr  Zr5  1  0.81940500  0.13355500  0.95296000  1
  F  F6  1  0.70593100  0.89398400  0.34070100  1
  F  F7  1  0.29406900  0.10601600  0.65929900  1
  F  F8  1  0.55328200  0.36523000  0.65929900  1
  F  F9  1  0.94671800  0.60601600  0.81194700  1
  F  F10  1  0.44671800  0.63477000  0.34070100  1
  F  F11  1  0.05328200  0.39398400  0.18805300  1
  F  F12  1  0.79406900  0.13477000  0.18805300  1
  F  F13  1  0.20593100  0.86523000  0.81194700  1
  F  F14  1  0.50000000  0.50000000  0.00000000  1
  F  F15  1  0.00000000  0.00000000  0.00000000  1
  F  F16  1  0.77924600  0.87083000  0.65007600  1
  F  F17  1  0.22075400  0.12917000  0.34992400  1
  F  F18  1  0.27924600  0.62917000  0.90841600  1
  F  F19  1  0.72075400  0.37083000  0.09158400  1
  F  F20  1  0.95134900  0.73778000  0.41657100  1
  F  F21  1  0.04865100  0.26222000  0.58342900  1
  F  F22  1  0.32120900  0.53477800  0.58342900  1
  F  F23  1  0.17879100  0.76222000  0.21356900  1
  F  F24  1  0.67879100  0.46522200  0.41657100  1
  F  F25  1  0.82120900  0.23778000  0.78643100  1
  F  F26  1  0.54865100  0.96522200  0.78643100  1
  F  F27  1  0.45134900  0.03477800  0.21356900  1
