# generated using pymatgen
data_KH8W(NF3)2
_symmetry_space_group_name_H-M   'P 1'
_cell_length_a   6.44720900
_cell_length_b   6.48684900
_cell_length_c   11.46297191
_cell_angle_alpha   56.11185358
_cell_angle_beta   90.00000000
_cell_angle_gamma   90.00000000
_symmetry_Int_Tables_number   1
_chemical_formula_structural   KH8W(NF3)2
_chemical_formula_sum   'K2 H16 W2 N4 F12'
_cell_volume   397.96753810
_cell_formula_units_Z   2
loop_
 _symmetry_equiv_pos_site_id
 _symmetry_equiv_pos_as_xyz
  1  'x, y, z'
loop_
 _atom_site_type_symbol
 _atom_site_label
 _atom_site_symmetry_multiplicity
 _atom_site_fract_x
 _atom_site_fract_y
 _atom_site_fract_z
 _atom_site_occupancy
  K  K0  1  0.50000000  0.50000000  0.00000000  1
  K  K1  1  0.00000000  0.50000000  0.50000000  1
  H  H2  1  0.02910600  0.57770000  0.76901900  1
  H  H3  1  0.97089400  0.42230000  0.23098100  1
  H  H4  1  0.52910600  0.42230000  0.73098100  1
  H  H5  1  0.47089400  0.57770000  0.26901900  1
  H  H6  1  0.03903500  0.73617000  0.84703900  1
  H  H7  1  0.96096500  0.26383000  0.15296100  1
  H  H8  1  0.53903500  0.26383000  0.65296100  1
  H  H9  1  0.46096500  0.73617000  0.34703900  1
  H  H10  1  0.07095700  0.89080300  0.66903800  1
  H  H11  1  0.92904300  0.10919700  0.33096200  1
  H  H12  1  0.57095700  0.10919700  0.83096200  1
  H  H13  1  0.42904300  0.89080300  0.16903900  1
  H  H14  1  0.83333200  0.76632900  0.74313700  1
  H  H15  1  0.16666800  0.23367100  0.25686300  1
  H  H16  1  0.33333200  0.23367100  0.75686300  1
  H  H17  1  0.66666800  0.76632900  0.24313700  1
  W  W18  1  0.50000000  0.00000000  0.50000000  1
  W  W19  1  0.00000000  0.00000000  0.00000000  1
  N  N20  1  0.99235200  0.74396700  0.75704400  1
  N  N21  1  0.00764800  0.25603300  0.24295600  1
  N  N22  1  0.49235200  0.25603300  0.74295600  1
  N  N23  1  0.50764800  0.74396700  0.25704400  1
  F  F24  1  0.55827300  0.72678600  0.71734300  1
  F  F25  1  0.44172700  0.27321400  0.28265700  1
  F  F26  1  0.05827300  0.27321400  0.78265700  1
  F  F27  1  0.94172700  0.72678600  0.21734300  1
  F  F28  1  0.34783900  0.73246500  0.47934500  1
  F  F29  1  0.65216100  0.26753500  0.52065500  1
  F  F30  1  0.84783900  0.26753500  0.02065500  1
  F  F31  1  0.15216100  0.73246500  0.97934500  1
  F  F32  1  0.78361200  0.88777100  0.45736400  1
  F  F33  1  0.21638800  0.11222900  0.54263600  1
  F  F34  1  0.28361200  0.11222900  0.04263600  1
  F  F35  1  0.71638800  0.88777100  0.95736400  1
