# generated using pymatgen
data_CeSm3S4
_symmetry_space_group_name_H-M   'P 1'
_cell_length_a   6.96362040
_cell_length_b   6.96362040
_cell_length_c   6.96559282
_cell_angle_alpha   79.94758419
_cell_angle_beta   79.94758419
_cell_angle_gamma   33.32629337
_symmetry_Int_Tables_number   1
_chemical_formula_structural   CeSm3S4
_chemical_formula_sum   'Ce1 Sm3 S4'
_cell_volume   182.46977212
_cell_formula_units_Z   1
loop_
 _symmetry_equiv_pos_site_id
 _symmetry_equiv_pos_as_xyz
  1  'x, y, z'
loop_
 _atom_site_type_symbol
 _atom_site_label
 _atom_site_symmetry_multiplicity
 _atom_site_fract_x
 _atom_site_fract_y
 _atom_site_fract_z
 _atom_site_occupancy
  Ce  Ce0  1  0.00000000  0.00000000  0.00000000  1
  Sm  Sm1  1  0.75154700  0.75154700  0.74910800  1
  Sm  Sm2  1  0.50000000  0.50000000  0.50000000  1
  Sm  Sm3  1  0.24845300  0.24845300  0.25089200  1
  S  S4  1  0.37444600  0.37444600  0.87461900  1
  S  S5  1  0.12495700  0.12495700  0.62514700  1
  S  S6  1  0.87504300  0.87504300  0.37485300  1
  S  S7  1  0.62555400  0.62555400  0.12538100  1
