# generated using pymatgen
data_Gd2US5
_symmetry_space_group_name_H-M   'P 1'
_cell_length_a   7.40790200
_cell_length_b   8.00944200
_cell_length_c   11.72835400
_cell_angle_alpha   90.00000000
_cell_angle_beta   90.00000000
_cell_angle_gamma   90.00000000
_symmetry_Int_Tables_number   1
_chemical_formula_structural   Gd2US5
_chemical_formula_sum   'Gd8 U4 S20'
_cell_volume   695.88032096
_cell_formula_units_Z   4
loop_
 _symmetry_equiv_pos_site_id
 _symmetry_equiv_pos_as_xyz
  1  'x, y, z'
loop_
 _atom_site_type_symbol
 _atom_site_label
 _atom_site_symmetry_multiplicity
 _atom_site_fract_x
 _atom_site_fract_y
 _atom_site_fract_z
 _atom_site_occupancy
  Gd  Gd0  1  0.52329400  0.99976900  0.82252100  1
  Gd  Gd1  1  0.97670600  0.50023100  0.32252100  1
  Gd  Gd2  1  0.47670600  0.49976900  0.17747900  1
  Gd  Gd3  1  0.02329400  0.00023100  0.67747900  1
  Gd  Gd4  1  0.47670600  0.00023100  0.17747900  1
  Gd  Gd5  1  0.02329400  0.49976900  0.67747900  1
  Gd  Gd6  1  0.52329400  0.50023100  0.82252100  1
  Gd  Gd7  1  0.97670600  0.99976900  0.32252100  1
  U  U8  1  0.07474500  0.25000000  0.98957500  1
  U  U9  1  0.42525500  0.25000000  0.48957500  1
  U  U10  1  0.92525500  0.75000000  0.01042500  1
  U  U11  1  0.57474500  0.75000000  0.51042500  1
  S  S12  1  0.83552600  0.45497100  0.09735300  1
  S  S13  1  0.66447400  0.04502900  0.59735300  1
  S  S14  1  0.16447400  0.95497100  0.90264700  1
  S  S15  1  0.33552600  0.54502900  0.40264700  1
  S  S16  1  0.16447400  0.54502900  0.90264700  1
  S  S17  1  0.33552600  0.95497100  0.40264700  1
  S  S18  1  0.83552600  0.04502900  0.09735300  1
  S  S19  1  0.66447400  0.45497100  0.59735300  1
  S  S20  1  0.82622700  0.25000000  0.81311300  1
  S  S21  1  0.67377300  0.25000000  0.31311300  1
  S  S22  1  0.17377300  0.75000000  0.18688700  1
  S  S23  1  0.32622700  0.75000000  0.68688700  1
  S  S24  1  0.46100700  0.25000000  0.99955400  1
  S  S25  1  0.03899300  0.25000000  0.49955400  1
  S  S26  1  0.53899300  0.75000000  0.00044600  1
  S  S27  1  0.96100700  0.75000000  0.50044600  1
  S  S28  1  0.19890200  0.25000000  0.21706400  1
  S  S29  1  0.30109800  0.25000000  0.71706400  1
  S  S30  1  0.80109800  0.75000000  0.78293600  1
  S  S31  1  0.69890200  0.75000000  0.28293600  1
