# generated using pymatgen
data_SmCoSi
_symmetry_space_group_name_H-M   'P 1'
_cell_length_a   3.98836100
_cell_length_b   3.98836100
_cell_length_c   6.80079100
_cell_angle_alpha   90.00000000
_cell_angle_beta   90.00000000
_cell_angle_gamma   90.00000000
_symmetry_Int_Tables_number   1
_chemical_formula_structural   SmCoSi
_chemical_formula_sum   'Sm2 Co2 Si2'
_cell_volume   108.18034203
_cell_formula_units_Z   2
loop_
 _symmetry_equiv_pos_site_id
 _symmetry_equiv_pos_as_xyz
  1  'x, y, z'
loop_
 _atom_site_type_symbol
 _atom_site_label
 _atom_site_symmetry_multiplicity
 _atom_site_fract_x
 _atom_site_fract_y
 _atom_site_fract_z
 _atom_site_occupancy
  Sm  Sm0  1  0.00000000  0.50000000  0.31899500  1
  Sm  Sm1  1  0.50000000  0.00000000  0.68100500  1
  Co  Co2  1  0.00000000  0.00000000  0.00000000  1
  Co  Co3  1  0.50000000  0.50000000  0.00000000  1
  Si  Si4  1  0.00000000  0.50000000  0.82347500  1
  Si  Si5  1  0.50000000  0.00000000  0.17652500  1
