# generated using pymatgen
data_NaSm(CO3)2
_symmetry_space_group_name_H-M   'P 1'
_cell_length_a   5.14467700
_cell_length_b   6.36894500
_cell_length_c   7.08160900
_cell_angle_alpha   90.00000000
_cell_angle_beta   90.00000000
_cell_angle_gamma   90.00000000
_symmetry_Int_Tables_number   1
_chemical_formula_structural   NaSm(CO3)2
_chemical_formula_sum   'Na2 Sm2 C4 O12'
_cell_volume   232.03716794
_cell_formula_units_Z   2
loop_
 _symmetry_equiv_pos_site_id
 _symmetry_equiv_pos_as_xyz
  1  'x, y, z'
loop_
 _atom_site_type_symbol
 _atom_site_label
 _atom_site_symmetry_multiplicity
 _atom_site_fract_x
 _atom_site_fract_y
 _atom_site_fract_z
 _atom_site_occupancy
  Na  Na0  1  0.00000000  0.48234100  0.02784100  1
  Na  Na1  1  0.00000000  0.51765900  0.52784100  1
  Sm  Sm2  1  0.50000000  0.13063000  0.32838300  1
  Sm  Sm3  1  0.50000000  0.86937000  0.82838300  1
  C  C4  1  0.50000000  0.58020200  0.24295000  1
  C  C5  1  0.50000000  0.41979800  0.74295000  1
  C  C6  1  0.00000000  0.03576800  0.99885700  1
  C  C7  1  0.00000000  0.96423200  0.49885700  1
  O  O8  1  0.00000000  0.14274100  0.41308100  1
  O  O9  1  0.00000000  0.85725900  0.91308100  1
  O  O10  1  0.28709700  0.48246800  0.28029200  1
  O  O11  1  0.71290300  0.51753200  0.78029200  1
  O  O12  1  0.28709700  0.51753200  0.78029200  1
  O  O13  1  0.71290300  0.48246800  0.28029200  1
  O  O14  1  0.22237500  0.12457100  0.03509900  1
  O  O15  1  0.77762500  0.87542900  0.53509900  1
  O  O16  1  0.22237500  0.87542900  0.53509900  1
  O  O17  1  0.77762500  0.12457100  0.03509900  1
  O  O18  1  0.50000000  0.23322600  0.66410500  1
  O  O19  1  0.50000000  0.76677400  0.16410500  1
