# generated using pymatgen
data_CsSm2Ag3Te5
_symmetry_space_group_name_H-M   'P 1'
_cell_length_a   8.54537092
_cell_length_b   8.54537092
_cell_length_c   18.84223600
_cell_angle_alpha   90.00000000
_cell_angle_beta   90.00000000
_cell_angle_gamma   148.00575365
_symmetry_Int_Tables_number   1
_chemical_formula_structural   CsSm2Ag3Te5
_chemical_formula_sum   'Cs2 Sm4 Ag6 Te10'
_cell_volume   729.01116957
_cell_formula_units_Z   2
loop_
 _symmetry_equiv_pos_site_id
 _symmetry_equiv_pos_as_xyz
  1  'x, y, z'
loop_
 _atom_site_type_symbol
 _atom_site_label
 _atom_site_symmetry_multiplicity
 _atom_site_fract_x
 _atom_site_fract_y
 _atom_site_fract_z
 _atom_site_occupancy
  Cs  Cs0  1  0.55936800  0.44063200  0.25000000  1
  Cs  Cs1  1  0.44063200  0.55936800  0.75000000  1
  Sm  Sm2  1  0.69142700  0.30857300  0.90660700  1
  Sm  Sm3  1  0.30857300  0.69142700  0.09339300  1
  Sm  Sm4  1  0.69142700  0.30857300  0.59339300  1
  Sm  Sm5  1  0.30857300  0.69142700  0.40660700  1
  Ag  Ag6  1  0.84169700  0.15830300  0.25000000  1
  Ag  Ag7  1  0.15830300  0.84169700  0.75000000  1
  Ag  Ag8  1  0.08450000  0.91550000  0.46709900  1
  Ag  Ag9  1  0.91550000  0.08450000  0.53290100  1
  Ag  Ag10  1  0.08450000  0.91550000  0.03290100  1
  Ag  Ag11  1  0.91550000  0.08450000  0.96709900  1
  Te  Te12  1  0.06350100  0.93649900  0.88142100  1
  Te  Te13  1  0.93649900  0.06350100  0.11857900  1
  Te  Te14  1  0.06350100  0.93649900  0.61857900  1
  Te  Te15  1  0.93649900  0.06350100  0.38142100  1
  Te  Te16  1  0.67822500  0.32177500  0.42777600  1
  Te  Te17  1  0.32177500  0.67822500  0.57222400  1
  Te  Te18  1  0.67822500  0.32177500  0.07222400  1
  Te  Te19  1  0.32177500  0.67822500  0.92777600  1
  Te  Te20  1  0.24597000  0.75403000  0.25000000  1
  Te  Te21  1  0.75403000  0.24597000  0.75000000  1
