# generated using pymatgen
data_TiNi4GeO8
_symmetry_space_group_name_H-M   'P 1'
_cell_length_a   5.91560018
_cell_length_b   5.91560018
_cell_length_c   5.91560018
_cell_angle_alpha   60.00000000
_cell_angle_beta   60.00000000
_cell_angle_gamma   60.00000000
_symmetry_Int_Tables_number   1
_chemical_formula_structural   TiNi4GeO8
_chemical_formula_sum   'Ti1 Ni4 Ge1 O8'
_cell_volume   146.37989860
_cell_formula_units_Z   1
loop_
 _symmetry_equiv_pos_site_id
 _symmetry_equiv_pos_as_xyz
  1  'x, y, z'
loop_
 _atom_site_type_symbol
 _atom_site_label
 _atom_site_symmetry_multiplicity
 _atom_site_fract_x
 _atom_site_fract_y
 _atom_site_fract_z
 _atom_site_occupancy
  Ti  Ti0  1  0.00000000  0.00000000  0.00000000  1
  Ni  Ni1  1  0.62576800  0.62576800  0.12269700  1
  Ni  Ni2  1  0.62576800  0.12269700  0.62576800  1
  Ni  Ni3  1  0.12269700  0.62576800  0.62576800  1
  Ni  Ni4  1  0.62576800  0.62576800  0.62576800  1
  Ge  Ge5  1  0.25000000  0.25000000  0.25000000  1
  O  O6  1  0.87261500  0.87261500  0.38215400  1
  O  O7  1  0.87261500  0.38215400  0.87261500  1
  O  O8  1  0.38215400  0.87261500  0.87261500  1
  O  O9  1  0.87261500  0.87261500  0.87261500  1
  O  O10  1  0.37485700  0.37485700  0.87542800  1
  O  O11  1  0.37485700  0.87542800  0.37485700  1
  O  O12  1  0.87542800  0.37485700  0.37485700  1
  O  O13  1  0.37485700  0.37485700  0.37485700  1
