# generated using pymatgen
data_Tc3Se4I
_symmetry_space_group_name_H-M   'P 1'
_cell_length_a   12.24931200
_cell_length_b   6.68510800
_cell_length_c   11.46473761
_cell_angle_alpha   64.93672740
_cell_angle_beta   90.00000000
_cell_angle_gamma   90.00000000
_symmetry_Int_Tables_number   1
_chemical_formula_structural   Tc3Se4I
_chemical_formula_sum   'Tc12 Se16 I4'
_cell_volume   850.42494922
_cell_formula_units_Z   4
loop_
 _symmetry_equiv_pos_site_id
 _symmetry_equiv_pos_as_xyz
  1  'x, y, z'
loop_
 _atom_site_type_symbol
 _atom_site_label
 _atom_site_symmetry_multiplicity
 _atom_site_fract_x
 _atom_site_fract_y
 _atom_site_fract_z
 _atom_site_occupancy
  Tc  Tc0  1  0.55520000  0.04111200  0.33885900  1
  Tc  Tc1  1  0.94480000  0.04111200  0.83885900  1
  Tc  Tc2  1  0.44480000  0.95888800  0.66114100  1
  Tc  Tc3  1  0.05520000  0.95888800  0.16114100  1
  Tc  Tc4  1  0.35791500  0.96440700  0.44994500  1
  Tc  Tc5  1  0.14208500  0.96440700  0.94994500  1
  Tc  Tc6  1  0.64208500  0.03559300  0.55005500  1
  Tc  Tc7  1  0.85791500  0.03559300  0.05005500  1
  Tc  Tc8  1  0.52260800  0.69812000  0.55991800  1
  Tc  Tc9  1  0.97739200  0.69812000  0.05991800  1
  Tc  Tc10  1  0.47739200  0.30188000  0.44008200  1
  Tc  Tc11  1  0.02260800  0.30188000  0.94008200  1
  Se  Se12  1  0.43401200  0.73183200  0.34318600  1
  Se  Se13  1  0.06598800  0.73183200  0.84318600  1
  Se  Se14  1  0.56598800  0.26816800  0.65681400  1
  Se  Se15  1  0.93401200  0.26816800  0.15681400  1
  Se  Se16  1  0.33822600  0.63760800  0.66549000  1
  Se  Se17  1  0.16177400  0.63760800  0.16549000  1
  Se  Se18  1  0.66177400  0.36239200  0.33451000  1
  Se  Se19  1  0.83822600  0.36239200  0.83451000  1
  Se  Se20  1  0.39622100  0.29610100  0.24045100  1
  Se  Se21  1  0.10377900  0.29610100  0.74045100  1
  Se  Se22  1  0.60377900  0.70389900  0.75954900  1
  Se  Se23  1  0.89622100  0.70389900  0.25954900  1
  Se  Se24  1  0.70710200  0.78240700  0.45553900  1
  Se  Se25  1  0.79289800  0.78240700  0.95553900  1
  Se  Se26  1  0.29289800  0.21759300  0.54446100  1
  Se  Se27  1  0.20710200  0.21759300  0.04446100  1
  I  I28  1  0.13402100  0.88944000  0.40806600  1
  I  I29  1  0.36597900  0.88944000  0.90806600  1
  I  I30  1  0.86597900  0.11056000  0.59193400  1
  I  I31  1  0.63402100  0.11056000  0.09193400  1
