# generated using pymatgen
data_SmTa6Br13O3
_symmetry_space_group_name_H-M   'P 1'
_cell_length_a   9.70287106
_cell_length_b   9.70287106
_cell_length_c   29.04353948
_cell_angle_alpha   99.61576816
_cell_angle_beta   99.61576816
_cell_angle_gamma   90.00000000
_symmetry_Int_Tables_number   1
_chemical_formula_structural   SmTa6Br13O3
_chemical_formula_sum   'Sm4 Ta24 Br52 O12'
_cell_volume   2656.93518293
_cell_formula_units_Z   4
loop_
 _symmetry_equiv_pos_site_id
 _symmetry_equiv_pos_as_xyz
  1  'x, y, z'
loop_
 _atom_site_type_symbol
 _atom_site_label
 _atom_site_symmetry_multiplicity
 _atom_site_fract_x
 _atom_site_fract_y
 _atom_site_fract_z
 _atom_site_occupancy
  Sm  Sm0  1  0.09614894  0.09614894  0.19229787  1
  Sm  Sm1  1  0.34614894  0.84614894  0.69229787  1
  Sm  Sm2  1  0.15385106  0.65385106  0.30770213  1
  Sm  Sm3  1  0.90385106  0.90385106  0.80770213  1
  Ta  Ta4  1  0.34778124  0.29237627  0.42861472  1
  Ta  Ta5  1  0.08083349  0.13623845  0.42861472  1
  Ta  Ta6  1  0.38623845  0.09778124  0.92861472  1
  Ta  Ta7  1  0.90221876  0.61376155  0.07138528  1
  Ta  Ta8  1  0.54237627  0.83083349  0.92861472  1
  Ta  Ta9  1  0.16916651  0.45762373  0.07138528  1
  Ta  Ta10  1  0.86376155  0.91916651  0.57138528  1
  Ta  Ta11  1  0.70762373  0.65221876  0.57138528  1
  Ta  Ta12  1  0.17389118  0.74592544  0.12642101  1
  Ta  Ta13  1  0.95252983  0.38049557  0.12642101  1
  Ta  Ta14  1  0.63049557  0.92389118  0.62642101  1
  Ta  Ta15  1  0.07610882  0.36950443  0.37357899  1
  Ta  Ta16  1  0.99592544  0.70252983  0.62642101  1
  Ta  Ta17  1  0.29747017  0.00407456  0.37357899  1
  Ta  Ta18  1  0.61950443  0.04747017  0.87357899  1
  Ta  Ta19  1  0.25407456  0.82610882  0.87357899  1
  Ta  Ta20  1  0.27788157  0.25032528  0.32247133  1
  Ta  Ta21  1  0.04458976  0.07214606  0.32247133  1
  Ta  Ta22  1  0.32214606  0.02788157  0.82247133  1
  Ta  Ta23  1  0.97211843  0.67785394  0.17752867  1
  Ta  Ta24  1  0.50032528  0.79458976  0.82247133  1
  Ta  Ta25  1  0.20541024  0.49967472  0.17752867  1
  Ta  Ta26  1  0.92785394  0.95541024  0.67752867  1
  Ta  Ta27  1  0.74967472  0.72211843  0.67752867  1
  Br  Br28  1  0.37592486  0.37500000  0.25000000  1
  Br  Br29  1  0.87407514  0.87500000  0.25000000  1
  Br  Br30  1  0.12500000  0.12592486  0.75000000  1
  Br  Br31  1  0.62500000  0.62407514  0.75000000  1
  Br  Br32  1  0.50448395  0.38045985  0.37423877  1
  Br  Br33  1  0.86975482  0.99377892  0.37423877  1
  Br  Br34  1  0.24377892  0.25448395  0.87423877  1
  Br  Br35  1  0.74551605  0.75622108  0.12576123  1
  Br  Br36  1  0.63045985  0.61975482  0.87423877  1
  Br  Br37  1  0.38024518  0.36954015  0.12576123  1
  Br  Br38  1  0.00622108  0.13024518  0.62576123  1
  Br  Br39  1  0.61954015  0.49551605  0.62576123  1
  Br  Br40  1  0.38890161  0.71337624  0.19337661  1
  Br  Br41  1  0.80447500  0.48000037  0.19337661  1
  Br  Br42  1  0.73000037  0.13890161  0.69337661  1
  Br  Br43  1  0.86109839  0.26999963  0.30662339  1
  Br  Br44  1  0.96337624  0.55447500  0.69337661  1
  Br  Br45  1  0.44552500  0.03662376  0.30662339  1
  Br  Br46  1  0.51999963  0.19552500  0.80662339  1
  Br  Br47  1  0.28662376  0.61109839  0.80662339  1
  Br  Br48  1  0.05216013  0.21200963  0.06016341  1
  Br  Br49  1  0.00800328  0.84815378  0.06016341  1
  Br  Br50  1  0.09815378  0.80216013  0.56016341  1
  Br  Br51  1  0.19783987  0.90184622  0.43983659  1
  Br  Br52  1  0.46200963  0.75800328  0.56016341  1
  Br  Br53  1  0.24199672  0.53799037  0.43983659  1
  Br  Br54  1  0.15184622  0.99199672  0.93983659  1
  Br  Br55  1  0.78799037  0.94783987  0.93983659  1
  Br  Br56  1  0.33247383  0.66336366  0.06325316  1
  Br  Br57  1  0.73077933  0.39988950  0.06325316  1
  Br  Br58  1  0.64988950  0.08247383  0.56325316  1
  Br  Br59  1  0.91752617  0.35011050  0.43674684  1
  Br  Br60  1  0.91336366  0.48077933  0.56325316  1
  Br  Br61  1  0.51922067  0.08663634  0.43674684  1
  Br  Br62  1  0.60011050  0.26922067  0.93674684  1
  Br  Br63  1  0.33663634  0.66752617  0.93674684  1
  Br  Br64  1  0.32517315  0.32517315  0.00000000  1
  Br  Br65  1  0.67482685  0.67482685  0.00000000  1
  Br  Br66  1  0.92482685  0.07517315  0.50000000  1
  Br  Br67  1  0.57517315  0.42482685  0.50000000  1
  Br  Br68  1  0.25179171  0.25179171  0.50358341  1
  Br  Br69  1  0.50179171  0.00179171  0.00358341  1
  Br  Br70  1  0.99820829  0.49820829  0.99641659  1
  Br  Br71  1  0.74820829  0.74820829  0.49641659  1
  Br  Br72  1  0.42349080  0.74404119  0.36086928  1
  Br  Br73  1  0.93737848  0.61682809  0.36086928  1
  Br  Br74  1  0.86682809  0.17349080  0.86086928  1
  Br  Br75  1  0.82650920  0.13317191  0.13913072  1
  Br  Br76  1  0.99404119  0.68737848  0.86086928  1
  Br  Br77  1  0.31262152  0.00595881  0.13913072  1
  Br  Br78  1  0.38317191  0.06262152  0.63913072  1
  Br  Br79  1  0.25595881  0.57650920  0.63913072  1
  O  O80  1  0.09914934  0.32210330  0.17556472  1
  O  O81  1  0.07641538  0.85346142  0.17556472  1
  O  O82  1  0.10346142  0.84914934  0.67556472  1
  O  O83  1  0.15085066  0.89653858  0.32443528  1
  O  O84  1  0.57210330  0.82641538  0.67556472  1
  O  O85  1  0.17358462  0.42789670  0.32443528  1
  O  O86  1  0.14653858  0.92358462  0.82443528  1
  O  O87  1  0.67789670  0.90085066  0.82443528  1
  O  O88  1  0.13560280  0.13560280  0.27120561  1
  O  O89  1  0.38560280  0.88560280  0.77120561  1
  O  O90  1  0.11439720  0.61439720  0.22879439  1
  O  O91  1  0.86439720  0.86439720  0.72879439  1
