# generated using pymatgen
data_Al4Ni3
_symmetry_space_group_name_H-M   'P 1'
_cell_length_a   9.87275369
_cell_length_b   9.87275369
_cell_length_c   9.87275369
_cell_angle_alpha   109.47122063
_cell_angle_beta   109.47122063
_cell_angle_gamma   109.47122063
_symmetry_Int_Tables_number   1
_chemical_formula_structural   Al4Ni3
_chemical_formula_sum   'Al32 Ni24'
_cell_volume   740.78642565
_cell_formula_units_Z   8
loop_
 _symmetry_equiv_pos_site_id
 _symmetry_equiv_pos_as_xyz
  1  'x, y, z'
loop_
 _atom_site_type_symbol
 _atom_site_label
 _atom_site_symmetry_multiplicity
 _atom_site_fract_x
 _atom_site_fract_y
 _atom_site_fract_z
 _atom_site_occupancy
  Al  Al0  1  0.50000000  0.00000000  0.00000000  1
  Al  Al1  1  0.50000000  0.50000000  0.00000000  1
  Al  Al2  1  0.00000000  0.50000000  0.50000000  1
  Al  Al3  1  0.00000000  0.00000000  0.00000000  1
  Al  Al4  1  0.00000000  0.00000000  0.50000000  1
  Al  Al5  1  0.50000000  0.50000000  0.50000000  1
  Al  Al6  1  0.00000000  0.50000000  0.00000000  1
  Al  Al7  1  0.50000000  0.00000000  0.50000000  1
  Al  Al8  1  0.25892100  0.75000000  0.00892100  1
  Al  Al9  1  0.25000000  0.25892100  0.00892100  1
  Al  Al10  1  0.75000000  0.24107900  0.49107900  1
  Al  Al11  1  0.25892100  0.00892100  0.25000000  1
  Al  Al12  1  0.24107900  0.49107900  0.75000000  1
  Al  Al13  1  0.00892100  0.25000000  0.25892100  1
  Al  Al14  1  0.00892100  0.25892100  0.75000000  1
  Al  Al15  1  0.25000000  0.49107900  0.24107900  1
  Al  Al16  1  0.49107900  0.24107900  0.25000000  1
  Al  Al17  1  0.75000000  0.00892100  0.25892100  1
  Al  Al18  1  0.24107900  0.25000000  0.49107900  1
  Al  Al19  1  0.49107900  0.75000000  0.24107900  1
  Al  Al20  1  0.74107900  0.25000000  0.99107900  1
  Al  Al21  1  0.75000000  0.74107900  0.99107900  1
  Al  Al22  1  0.25000000  0.75892100  0.50892100  1
  Al  Al23  1  0.74107900  0.99107900  0.75000000  1
  Al  Al24  1  0.75892100  0.50892100  0.25000000  1
  Al  Al25  1  0.99107900  0.75000000  0.74107900  1
  Al  Al26  1  0.99107900  0.74107900  0.25000000  1
  Al  Al27  1  0.75000000  0.50892100  0.75892100  1
  Al  Al28  1  0.50892100  0.75892100  0.75000000  1
  Al  Al29  1  0.25000000  0.99107900  0.74107900  1
  Al  Al30  1  0.75892100  0.75000000  0.50892100  1
  Al  Al31  1  0.50892100  0.25000000  0.75892100  1
  Ni  Ni32  1  0.00630700  0.01261500  0.75630700  1
  Ni  Ni33  1  0.25000000  0.00630700  0.49369300  1
  Ni  Ni34  1  0.01261500  0.75630700  0.00630700  1
  Ni  Ni35  1  0.74369300  0.75630700  0.25000000  1
  Ni  Ni36  1  0.75630700  0.00630700  0.01261500  1
  Ni  Ni37  1  0.49369300  0.25000000  0.00630700  1
  Ni  Ni38  1  0.75630700  0.25000000  0.74369300  1
  Ni  Ni39  1  0.49369300  0.74369300  0.48738500  1
  Ni  Ni40  1  0.25000000  0.74369300  0.75630700  1
  Ni  Ni41  1  0.48738500  0.49369300  0.74369300  1
  Ni  Ni42  1  0.00630700  0.49369300  0.25000000  1
  Ni  Ni43  1  0.74369300  0.48738500  0.49369300  1
  Ni  Ni44  1  0.99369300  0.98738500  0.24369300  1
  Ni  Ni45  1  0.75000000  0.99369300  0.50630700  1
  Ni  Ni46  1  0.98738500  0.24369300  0.99369300  1
  Ni  Ni47  1  0.25630700  0.24369300  0.75000000  1
  Ni  Ni48  1  0.24369300  0.99369300  0.98738500  1
  Ni  Ni49  1  0.50630700  0.75000000  0.99369300  1
  Ni  Ni50  1  0.24369300  0.75000000  0.25630700  1
  Ni  Ni51  1  0.50630700  0.25630700  0.51261500  1
  Ni  Ni52  1  0.75000000  0.25630700  0.24369300  1
  Ni  Ni53  1  0.51261500  0.50630700  0.25630700  1
  Ni  Ni54  1  0.99369300  0.50630700  0.75000000  1
  Ni  Ni55  1  0.25630700  0.51261500  0.50630700  1
