# generated using pymatgen
data_Na2TeH6SO10
_symmetry_space_group_name_H-M   'P 1'
_cell_length_a   5.89479501
_cell_length_b   5.89479501
_cell_length_c   15.44562004
_cell_angle_alpha   87.69732740
_cell_angle_beta   87.69732740
_cell_angle_gamma   124.16817658
_symmetry_Int_Tables_number   1
_chemical_formula_structural   Na2TeH6SO10
_chemical_formula_sum   'Na4 Te2 H12 S2 O20'
_cell_volume   442.43474330
_cell_formula_units_Z   2
loop_
 _symmetry_equiv_pos_site_id
 _symmetry_equiv_pos_as_xyz
  1  'x, y, z'
loop_
 _atom_site_type_symbol
 _atom_site_label
 _atom_site_symmetry_multiplicity
 _atom_site_fract_x
 _atom_site_fract_y
 _atom_site_fract_z
 _atom_site_occupancy
  Na  Na0  1  0.87657100  0.38236300  0.57373300  1
  Na  Na1  1  0.38236300  0.87657100  0.07373300  1
  Na  Na2  1  0.17052500  0.32908400  0.38215900  1
  Na  Na3  1  0.32908400  0.17052500  0.88215900  1
  Te  Te4  1  0.77464700  0.80368700  0.69396900  1
  Te  Te5  1  0.80368700  0.77464700  0.19396900  1
  H  H6  1  0.38259300  0.85986900  0.69024100  1
  H  H7  1  0.85986900  0.38259300  0.19024100  1
  H  H8  1  0.33586300  0.35538000  0.70638500  1
  H  H9  1  0.35538000  0.33586300  0.20638500  1
  H  H10  1  0.16051700  0.09788800  0.57896400  1
  H  H11  1  0.09788800  0.16051700  0.07896400  1
  H  H12  1  0.55192100  0.67137800  0.55333200  1
  H  H13  1  0.67137800  0.55192100  0.05333200  1
  H  H14  1  0.84606500  0.08637100  0.81985200  1
  H  H15  1  0.08637100  0.84606500  0.31985200  1
  H  H16  1  0.94645800  0.54582400  0.76265500  1
  H  H17  1  0.54582400  0.94645800  0.26265500  1
  S  S18  1  0.94253300  0.42316100  0.94656200  1
  S  S19  1  0.42316100  0.94253300  0.44656200  1
  O  O20  1  0.07578200  0.28206300  0.97299700  1
  O  O21  1  0.28206300  0.07578200  0.47299700  1
  O  O22  1  0.44905200  0.47470600  0.75284200  1
  O  O23  1  0.47470600  0.44905200  0.25284200  1
  O  O24  1  0.99924300  0.65381600  0.70450000  1
  O  O25  1  0.65381600  0.99924300  0.20450000  1
  O  O26  1  0.13330200  0.72393600  0.94841200  1
  O  O27  1  0.72393600  0.13330200  0.44841200  1
  O  O28  1  0.58562500  0.98859800  0.67918200  1
  O  O29  1  0.98859800  0.58562500  0.17918200  1
  O  O30  1  0.09468900  0.14099200  0.63276900  1
  O  O31  1  0.14099200  0.09468900  0.13276900  1
  O  O32  1  0.89873200  0.95646700  0.80386100  1
  O  O33  1  0.95646600  0.89873200  0.30386100  1
  O  O34  1  0.67893500  0.63537700  0.58419000  1
  O  O35  1  0.63537700  0.67893500  0.08419000  1
  O  O36  1  0.68931200  0.32020900  0.00587300  1
  O  O37  1  0.32020900  0.68931200  0.50587300  1
  O  O38  1  0.84428400  0.34718500  0.85635400  1
  O  O39  1  0.34718500  0.84428400  0.35635400  1
