# generated using pymatgen
data_Nd3PO7
_symmetry_space_group_name_H-M   'P 1'
_cell_length_a   9.36099483
_cell_length_b   9.36099483
_cell_length_c   12.37499065
_cell_angle_alpha   102.77890482
_cell_angle_beta   102.77890482
_cell_angle_gamma   91.18287150
_symmetry_Int_Tables_number   1
_chemical_formula_structural   Nd3PO7
_chemical_formula_sum   'Nd18 P6 O42'
_cell_volume   1028.58171016
_cell_formula_units_Z   6
loop_
 _symmetry_equiv_pos_site_id
 _symmetry_equiv_pos_as_xyz
  1  'x, y, z'
loop_
 _atom_site_type_symbol
 _atom_site_label
 _atom_site_symmetry_multiplicity
 _atom_site_fract_x
 _atom_site_fract_y
 _atom_site_fract_z
 _atom_site_occupancy
  Nd  Nd0  1  0.16502200  0.85481200  0.83597400  1
  Nd  Nd1  1  0.85481200  0.16502200  0.83597400  1
  Nd  Nd2  1  0.15296400  0.49883300  0.29601100  1
  Nd  Nd3  1  0.49883300  0.15296400  0.29601100  1
  Nd  Nd4  1  0.15577100  0.81003800  0.16160700  1
  Nd  Nd5  1  0.81003800  0.15577100  0.16160700  1
  Nd  Nd6  1  0.50806400  0.85416400  0.05375800  1
  Nd  Nd7  1  0.85416400  0.50806400  0.05375800  1
  Nd  Nd8  1  0.49479100  0.80849600  0.71979800  1
  Nd  Nd9  1  0.80849600  0.49479100  0.71979800  1
  Nd  Nd10  1  0.16977800  0.85584400  0.49648500  1
  Nd  Nd11  1  0.85584400  0.16977800  0.49648500  1
  Nd  Nd12  1  0.14192100  0.52171600  0.60792700  1
  Nd  Nd13  1  0.52171600  0.14192100  0.60792700  1
  Nd  Nd14  1  0.16540000  0.51028100  0.91946000  1
  Nd  Nd15  1  0.51028100  0.16540000  0.91946000  1
  Nd  Nd16  1  0.80895300  0.49930000  0.37938800  1
  Nd  Nd17  1  0.49930000  0.80895300  0.37938800  1
  P  P18  1  0.83655900  0.83655900  0.92570500  1
  P  P19  1  0.16355500  0.16355500  0.34143000  1
  P  P20  1  0.82767900  0.82767900  0.28748500  1
  P  P21  1  0.49834400  0.49834400  0.87315700  1
  P  P22  1  0.49471300  0.49471300  0.49566400  1
  P  P23  1  0.16614500  0.16614500  0.72056300  1
  O  O24  1  0.22885200  0.77292200  0.66357000  1
  O  O25  1  0.77292200  0.22885200  0.66357000  1
  O  O26  1  0.41414000  0.92599800  0.88539600  1
  O  O27  1  0.92599800  0.41414000  0.88539600  1
  O  O28  1  0.25333100  0.75766900  0.99616500  1
  O  O29  1  0.75766900  0.25333100  0.99616500  1
  O  O30  1  0.94497000  0.94497000  0.89621100  1
  O  O31  1  0.13524100  0.13524100  0.83318100  1
  O  O32  1  0.25999800  0.25999800  0.29029100  1
  O  O33  1  0.24965700  0.73761100  0.33017400  1
  O  O34  1  0.73761100  0.24965700  0.33017400  1
  O  O35  1  0.11792000  0.54618500  0.10777000  1
  O  O36  1  0.54618500  0.11792000  0.10777000  1
  O  O37  1  0.05878100  0.05878100  0.23494800  1
  O  O38  1  0.93043000  0.73876600  0.99472100  1
  O  O39  1  0.73876600  0.93043000  0.99472100  1
  O  O40  1  0.92460700  0.73321800  0.21816800  1
  O  O41  1  0.73321800  0.92460700  0.21816800  1
  O  O42  1  0.60537500  0.60537500  0.97676400  1
  O  O43  1  0.41067700  0.90572200  0.21952700  1
  O  O44  1  0.90572200  0.41067700  0.21952700  1
  O  O45  1  0.43601000  0.88936400  0.55213100  1
  O  O46  1  0.88936400  0.43601000  0.55213100  1
  O  O47  1  0.59655500  0.59655500  0.60319100  1
  O  O48  1  0.74067000  0.74067000  0.81343200  1
  O  O49  1  0.61822500  0.04894500  0.77134100  1
  O  O50  1  0.04894500  0.61822500  0.77134100  1
  O  O51  1  0.92513400  0.92513400  0.39877100  1
  O  O52  1  0.04507900  0.61590800  0.44455300  1
  O  O53  1  0.61590800  0.04507900  0.44455300  1
  O  O54  1  0.26606400  0.07418200  0.41388100  1
  O  O55  1  0.07418200  0.26606400  0.41388100  1
  O  O56  1  0.32689800  0.13591800  0.71633000  1
  O  O57  1  0.13591800  0.32689800  0.71633000  1
  O  O58  1  0.05977600  0.05977600  0.61762600  1
  O  O59  1  0.33248900  0.52291900  0.49544500  1
  O  O60  1  0.52291900  0.33248900  0.49544500  1
  O  O61  1  0.39319200  0.58575600  0.80071300  1
  O  O62  1  0.58575600  0.39319200  0.80071300  1
  O  O63  1  0.40379200  0.40379200  0.92710400  1
  O  O64  1  0.71984200  0.71984200  0.31793700  1
  O  O65  1  0.53306800  0.53306800  0.38755600  1
