# generated using pymatgen
data_RbSm2Cl7
_symmetry_space_group_name_H-M   'P 1'
_cell_length_a   7.13494300
_cell_length_b   12.97064900
_cell_length_c   13.44512100
_cell_angle_alpha   90.00000000
_cell_angle_beta   90.00000000
_cell_angle_gamma   90.00000000
_symmetry_Int_Tables_number   1
_chemical_formula_structural   RbSm2Cl7
_chemical_formula_sum   'Rb4 Sm8 Cl28'
_cell_volume   1244.27658904
_cell_formula_units_Z   4
loop_
 _symmetry_equiv_pos_site_id
 _symmetry_equiv_pos_as_xyz
  1  'x, y, z'
loop_
 _atom_site_type_symbol
 _atom_site_label
 _atom_site_symmetry_multiplicity
 _atom_site_fract_x
 _atom_site_fract_y
 _atom_site_fract_z
 _atom_site_occupancy
  Rb  Rb0  1  0.25000000  0.80467100  0.04136700  1
  Rb  Rb1  1  0.75000000  0.19532900  0.95863300  1
  Rb  Rb2  1  0.75000000  0.30467100  0.45863300  1
  Rb  Rb3  1  0.25000000  0.69532900  0.54136700  1
  Sm  Sm4  1  0.25000000  0.46027500  0.23615000  1
  Sm  Sm5  1  0.75000000  0.53972500  0.76385000  1
  Sm  Sm6  1  0.75000000  0.96027500  0.26385000  1
  Sm  Sm7  1  0.25000000  0.03972500  0.73615000  1
  Sm  Sm8  1  0.25000000  0.15648000  0.24911700  1
  Sm  Sm9  1  0.75000000  0.84352000  0.75088300  1
  Sm  Sm10  1  0.75000000  0.65648000  0.25088300  1
  Sm  Sm11  1  0.25000000  0.34352000  0.74911700  1
  Cl  Cl12  1  0.00943800  0.30626500  0.17430400  1
  Cl  Cl13  1  0.99056200  0.69373500  0.82569600  1
  Cl  Cl14  1  0.99056200  0.80626500  0.32569600  1
  Cl  Cl15  1  0.50943800  0.69373500  0.82569600  1
  Cl  Cl16  1  0.00943800  0.19373500  0.67430400  1
  Cl  Cl17  1  0.49056200  0.30626500  0.17430400  1
  Cl  Cl18  1  0.49056200  0.19373500  0.67430400  1
  Cl  Cl19  1  0.50943800  0.80626500  0.32569600  1
  Cl  Cl20  1  0.01073900  0.57843900  0.12013400  1
  Cl  Cl21  1  0.98926100  0.42156100  0.87986600  1
  Cl  Cl22  1  0.98926100  0.07843900  0.37986600  1
  Cl  Cl23  1  0.51073900  0.42156100  0.87986600  1
  Cl  Cl24  1  0.01073900  0.92156100  0.62013400  1
  Cl  Cl25  1  0.48926100  0.57843900  0.12013400  1
  Cl  Cl26  1  0.48926100  0.92156100  0.62013400  1
  Cl  Cl27  1  0.51073900  0.07843900  0.37986600  1
  Cl  Cl28  1  0.00984900  0.03933900  0.13115400  1
  Cl  Cl29  1  0.99015100  0.96066100  0.86884600  1
  Cl  Cl30  1  0.99015100  0.53933900  0.36884600  1
  Cl  Cl31  1  0.50984900  0.96066100  0.86884600  1
  Cl  Cl32  1  0.00984900  0.46066100  0.63115400  1
  Cl  Cl33  1  0.49015100  0.03933900  0.13115400  1
  Cl  Cl34  1  0.49015100  0.46066100  0.63115400  1
  Cl  Cl35  1  0.50984900  0.53933900  0.36884600  1
  Cl  Cl36  1  0.25000000  0.31224300  0.39239500  1
  Cl  Cl37  1  0.75000000  0.68775700  0.60760500  1
  Cl  Cl38  1  0.75000000  0.81224300  0.10760500  1
  Cl  Cl39  1  0.25000000  0.18775700  0.89239500  1
