# generated using pymatgen
data_NaUP3O11
_symmetry_space_group_name_H-M   'P 1'
_cell_length_a   13.68943800
_cell_length_b   7.13807500
_cell_length_c   9.95839363
_cell_angle_alpha   74.59862352
_cell_angle_beta   90.00000000
_cell_angle_gamma   90.00000000
_symmetry_Int_Tables_number   1
_chemical_formula_structural   NaUP3O11
_chemical_formula_sum   'Na4 U4 P12 O44'
_cell_volume   938.15188069
_cell_formula_units_Z   4
loop_
 _symmetry_equiv_pos_site_id
 _symmetry_equiv_pos_as_xyz
  1  'x, y, z'
loop_
 _atom_site_type_symbol
 _atom_site_label
 _atom_site_symmetry_multiplicity
 _atom_site_fract_x
 _atom_site_fract_y
 _atom_site_fract_z
 _atom_site_occupancy
  Na  Na0  1  0.47661000  0.75220600  0.07115400  1
  Na  Na1  1  0.97661000  0.24779400  0.42884600  1
  Na  Na2  1  0.52339000  0.24779400  0.92884600  1
  Na  Na3  1  0.02339000  0.75220600  0.57115400  1
  U  U4  1  0.15463200  0.62562700  0.25169100  1
  U  U5  1  0.65463200  0.37437300  0.24830900  1
  U  U6  1  0.84536800  0.37437300  0.74830900  1
  U  U7  1  0.34536800  0.62562700  0.75169100  1
  P  P8  1  0.38689100  0.31257400  0.34323400  1
  P  P9  1  0.88689100  0.68742600  0.15676600  1
  P  P10  1  0.61310900  0.68742600  0.65676600  1
  P  P11  1  0.11310900  0.31257400  0.84323400  1
  P  P12  1  0.33206500  0.02968800  0.18897800  1
  P  P13  1  0.83206500  0.97031200  0.31102200  1
  P  P14  1  0.66793500  0.97031200  0.81102200  1
  P  P15  1  0.16793500  0.02968800  0.68897800  1
  P  P16  1  0.12995800  0.16361100  0.15546700  1
  P  P17  1  0.62995800  0.83638900  0.34453300  1
  P  P18  1  0.87004200  0.83638900  0.84453300  1
  P  P19  1  0.37004200  0.16361100  0.65546700  1
  O  O20  1  0.47728900  0.39615700  0.26361300  1
  O  O21  1  0.97728900  0.60384300  0.23638700  1
  O  O22  1  0.52271100  0.60384300  0.73638700  1
  O  O23  1  0.02271100  0.39615700  0.76361300  1
  O  O24  1  0.29553800  0.43221100  0.31477100  1
  O  O25  1  0.79553800  0.56778900  0.18522900  1
  O  O26  1  0.70446200  0.56778900  0.68522900  1
  O  O27  1  0.20446200  0.43221100  0.81477100  1
  O  O28  1  0.41614300  0.25839100  0.50478200  1
  O  O29  1  0.91614300  0.74160900  0.99521800  1
  O  O30  1  0.58385700  0.74160900  0.49521800  1
  O  O31  1  0.08385700  0.25839100  0.00478200  1
  O  O32  1  0.36266000  0.10048200  0.32453300  1
  O  O33  1  0.86266000  0.89951800  0.17546700  1
  O  O34  1  0.63734000  0.89951800  0.67546700  1
  O  O35  1  0.13734000  0.10048200  0.82453300  1
  O  O36  1  0.41291900  0.05494000  0.08576700  1
  O  O37  1  0.91291900  0.94506000  0.41423300  1
  O  O38  1  0.58708100  0.94506000  0.91423300  1
  O  O39  1  0.08708100  0.05494000  0.58576700  1
  O  O40  1  0.29012200  0.82976500  0.24756800  1
  O  O41  1  0.79012200  0.17023500  0.25243200  1
  O  O42  1  0.70987800  0.17023500  0.75243200  1
  O  O43  1  0.20987800  0.82976500  0.74756800  1
  O  O44  1  0.24494000  0.17853600  0.12056200  1
  O  O45  1  0.74494000  0.82146400  0.37943800  1
  O  O46  1  0.75506000  0.82146400  0.87943800  1
  O  O47  1  0.25506000  0.17853600  0.62056200  1
  O  O48  1  0.10452600  0.29321900  0.24794800  1
  O  O49  1  0.60452600  0.70678100  0.25205200  1
  O  O50  1  0.89547400  0.70678100  0.75205200  1
  O  O51  1  0.39547400  0.29321900  0.74794800  1
  O  O52  1  0.09829400  0.95472800  0.20577300  1
  O  O53  1  0.59829400  0.04527200  0.29422700  1
  O  O54  1  0.90170600  0.04527200  0.79422700  1
  O  O55  1  0.40170600  0.95472800  0.70577300  1
  O  O56  1  0.12658500  0.58679400  0.43602700  1
  O  O57  1  0.62658500  0.41320600  0.06397300  1
  O  O58  1  0.87341500  0.41320600  0.56397300  1
  O  O59  1  0.37341500  0.58679400  0.93602700  1
  O  O60  1  0.17169100  0.66155000  0.06840300  1
  O  O61  1  0.67169100  0.33845000  0.43159700  1
  O  O62  1  0.82830900  0.33845000  0.93159700  1
  O  O63  1  0.32830900  0.66155000  0.56840300  1
