# generated using pymatgen
data_Yb2GaNi2
_symmetry_space_group_name_H-M   'P 1'
_cell_length_a   4.09530800
_cell_length_b   5.25661000
_cell_length_c   5.41597247
_cell_angle_alpha   119.03132557
_cell_angle_beta   112.21461124
_cell_angle_gamma   90.00000000
_symmetry_Int_Tables_number   1
_chemical_formula_structural   Yb2GaNi2
_chemical_formula_sum   'Yb2 Ga1 Ni2'
_cell_volume   91.91959416
_cell_formula_units_Z   1
loop_
 _symmetry_equiv_pos_site_id
 _symmetry_equiv_pos_as_xyz
  1  'x, y, z'
loop_
 _atom_site_type_symbol
 _atom_site_label
 _atom_site_symmetry_multiplicity
 _atom_site_fract_x
 _atom_site_fract_y
 _atom_site_fract_z
 _atom_site_occupancy
  Yb  Yb0  1  0.80071800  0.30071800  0.60143600  1
  Yb  Yb1  1  0.19928200  0.69928200  0.39856400  1
  Ga  Ga2  1  0.00000000  0.00000000  0.00000000  1
  Ni  Ni3  1  0.50000000  0.26180300  0.00000000  1
  Ni  Ni4  1  0.50000000  0.73819700  0.00000000  1
