# generated using pymatgen
data_HoAsO4
_symmetry_space_group_name_H-M   'P 1'
_cell_length_a   5.95236505
_cell_length_b   5.95236505
_cell_length_c   5.95236505
_cell_angle_alpha   106.48982294
_cell_angle_beta   106.48982294
_cell_angle_gamma   115.61424409
_symmetry_Int_Tables_number   1
_chemical_formula_structural   HoAsO4
_chemical_formula_sum   'Ho2 As2 O8'
_cell_volume   160.93345203
_cell_formula_units_Z   2
loop_
 _symmetry_equiv_pos_site_id
 _symmetry_equiv_pos_as_xyz
  1  'x, y, z'
loop_
 _atom_site_type_symbol
 _atom_site_label
 _atom_site_symmetry_multiplicity
 _atom_site_fract_x
 _atom_site_fract_y
 _atom_site_fract_z
 _atom_site_occupancy
  Ho  Ho0  1  0.00000000  0.00000000  0.00000000  1
  Ho  Ho1  1  0.25000000  0.75000000  0.50000000  1
  As  As2  1  0.75000000  0.25000000  0.50000000  1
  As  As3  1  0.50000000  0.50000000  0.00000000  1
  O  O4  1  0.32176500  0.50362700  0.18186300  1
  O  O5  1  0.38990200  0.07176500  0.31813700  1
  O  O6  1  0.75362700  0.07176500  0.68186300  1
  O  O7  1  0.32176500  0.13990200  0.81813700  1
  O  O8  1  0.86009800  0.67823500  0.18186300  1
  O  O9  1  0.92823500  0.24637300  0.31813700  1
  O  O10  1  0.92823500  0.61009800  0.68186300  1
  O  O11  1  0.49637300  0.67823500  0.81813700  1
