# generated using pymatgen
data_Rb7SmFe6(P4O17)2
_symmetry_space_group_name_H-M   'P 1'
_cell_length_a   9.43739300
_cell_length_b   10.03820394
_cell_length_c   10.15917057
_cell_angle_alpha   92.09282558
_cell_angle_beta   93.74803571
_cell_angle_gamma   116.32234989
_symmetry_Int_Tables_number   1
_chemical_formula_structural   Rb7SmFe6(P4O17)2
_chemical_formula_sum   'Rb7 Sm1 Fe6 P8 O34'
_cell_volume   858.47664455
_cell_formula_units_Z   1
loop_
 _symmetry_equiv_pos_site_id
 _symmetry_equiv_pos_as_xyz
  1  'x, y, z'
loop_
 _atom_site_type_symbol
 _atom_site_label
 _atom_site_symmetry_multiplicity
 _atom_site_fract_x
 _atom_site_fract_y
 _atom_site_fract_z
 _atom_site_occupancy
  Rb  Rb0  1  0.07141200  0.20905800  0.34209800  1
  Rb  Rb1  1  0.92858800  0.79094200  0.65790200  1
  Rb  Rb2  1  0.62472600  0.97646000  0.37338500  1
  Rb  Rb3  1  0.37527400  0.02354000  0.62661500  1
  Rb  Rb4  1  0.67607600  0.43840300  0.90392600  1
  Rb  Rb5  1  0.32392400  0.56159700  0.09607400  1
  Rb  Rb6  1  0.50000000  0.00000000  0.00000000  1
  Sm  Sm7  1  0.50000000  0.50000000  0.50000000  1
  Fe  Fe8  1  0.15592000  0.10774500  0.96540700  1
  Fe  Fe9  1  0.84408000  0.89225500  0.03459300  1
  Fe  Fe10  1  0.83463000  0.09426900  0.75490700  1
  Fe  Fe11  1  0.16537000  0.90573100  0.24509300  1
  Fe  Fe12  1  0.84290700  0.42357000  0.27695400  1
  Fe  Fe13  1  0.15709300  0.57643000  0.72304600  1
  P  P14  1  0.78693500  0.33215500  0.57260400  1
  P  P15  1  0.21306500  0.66784500  0.42739600  1
  P  P16  1  0.19427100  0.26357700  0.68972700  1
  P  P17  1  0.80572900  0.73642300  0.31027300  1
  P  P18  1  0.91133400  0.23210600  0.03862300  1
  P  P19  1  0.08866600  0.76789400  0.96137700  1
  P  P20  1  0.55795800  0.75574200  0.78507900  1
  P  P21  1  0.44204200  0.24425800  0.21492100  1
  O  O22  1  0.37476200  0.22119800  0.06708600  1
  O  O23  1  0.62523800  0.77880200  0.93291400  1
  O  O24  1  0.83277800  0.30863000  0.43101900  1
  O  O25  1  0.16722200  0.69137000  0.56898100  1
  O  O26  1  0.01596800  0.15742100  0.64276200  1
  O  O27  1  0.98403200  0.84257900  0.35723800  1
  O  O28  1  0.17958600  0.91426300  0.89211900  1
  O  O29  1  0.82041400  0.08573700  0.10788100  1
  O  O30  1  0.25887900  0.19698400  0.79987800  1
  O  O31  1  0.74112100  0.80301600  0.20012200  1
  O  O32  1  0.93254900  0.00539800  0.87618800  1
  O  O33  1  0.06745100  0.99460200  0.12381200  1
  O  O34  1  0.21272800  0.41705800  0.74471800  1
  O  O35  1  0.78727200  0.58294200  0.25528200  1
  O  O36  1  0.08755100  0.26805300  0.02730000  1
  O  O37  1  0.91244900  0.73194700  0.97270000  1
  O  O38  1  0.61788500  0.27439600  0.21399900  1
  O  O39  1  0.38211500  0.72560400  0.78600100  1
  O  O40  1  0.29190200  0.28337400  0.56940400  1
  O  O41  1  0.70809800  0.71662600  0.43059600  1
  O  O42  1  0.71634100  0.17570900  0.62963600  1
  O  O43  1  0.28365900  0.82429100  0.37036400  1
  O  O44  1  0.65972100  0.38934600  0.56203300  1
  O  O45  1  0.34027900  0.61065400  0.43796700  1
  O  O46  1  0.81871400  0.22033000  0.90099600  1
  O  O47  1  0.18128600  0.77967000  0.09900400  1
  O  O48  1  0.91337500  0.36687600  0.12006300  1
  O  O49  1  0.08662500  0.63312400  0.87993700  1
  O  O50  1  0.57918800  0.62942100  0.71114500  1
  O  O51  1  0.42081200  0.37057900  0.28885500  1
  O  O52  1  0.64400500  0.90352000  0.71343600  1
  O  O53  1  0.35599500  0.09648000  0.28656400  1
  O  O54  1  0.93130700  0.44376600  0.66289700  1
  O  O55  1  0.06869300  0.55623400  0.33710300  1
