# generated using pymatgen
data_KSe3
_symmetry_space_group_name_H-M   'P 1'
_cell_length_a   6.51877385
_cell_length_b   6.51877385
_cell_length_c   8.12006694
_cell_angle_alpha   81.19971892
_cell_angle_beta   81.19971892
_cell_angle_gamma   59.70986882
_symmetry_Int_Tables_number   1
_chemical_formula_structural   KSe3
_chemical_formula_sum   'K2 Se6'
_cell_volume   293.27870870
_cell_formula_units_Z   2
loop_
 _symmetry_equiv_pos_site_id
 _symmetry_equiv_pos_as_xyz
  1  'x, y, z'
loop_
 _atom_site_type_symbol
 _atom_site_label
 _atom_site_symmetry_multiplicity
 _atom_site_fract_x
 _atom_site_fract_y
 _atom_site_fract_z
 _atom_site_occupancy
  K  K0  1  0.91041800  0.87574500  0.73231800  1
  K  K1  1  0.12425500  0.08958200  0.26768200  1
  Se  Se2  1  0.98141700  0.64397600  0.36220800  1
  Se  Se3  1  0.35602400  0.01858300  0.63779200  1
  Se  Se4  1  0.71306000  0.85567000  0.15641200  1
  Se  Se5  1  0.14433000  0.28694000  0.84358800  1
  Se  Se6  1  0.72250900  0.41401300  0.86594200  1
  Se  Se7  1  0.58598700  0.27749100  0.13405800  1
