# generated using pymatgen
data_K(ThTe3)2
_symmetry_space_group_name_H-M   'P 1'
_cell_length_a   12.21832136
_cell_length_b   12.21832136
_cell_length_c   6.17021400
_cell_angle_alpha   90.00000000
_cell_angle_beta   90.00000000
_cell_angle_gamma   159.03175452
_symmetry_Int_Tables_number   1
_chemical_formula_structural   K(ThTe3)2
_chemical_formula_sum   'K1 Th2 Te6'
_cell_volume   329.62862888
_cell_formula_units_Z   1
loop_
 _symmetry_equiv_pos_site_id
 _symmetry_equiv_pos_as_xyz
  1  'x, y, z'
loop_
 _atom_site_type_symbol
 _atom_site_label
 _atom_site_symmetry_multiplicity
 _atom_site_fract_x
 _atom_site_fract_y
 _atom_site_fract_z
 _atom_site_occupancy
  K  K0  1  0.50373100  0.49626900  0.50000000  1
  Th  Th1  1  0.32139400  0.67860600  0.50000000  1
  Th  Th2  1  0.67878300  0.32121700  0.00000000  1
  Te  Te3  1  0.72523600  0.27476400  0.50000000  1
  Te  Te4  1  0.27463800  0.72536200  0.00000000  1
  Te  Te5  1  0.89646500  0.10353500  0.25078400  1
  Te  Te6  1  0.10379400  0.89620600  0.24657100  1
  Te  Te7  1  0.89646500  0.10353500  0.74921600  1
  Te  Te8  1  0.10379400  0.89620600  0.75342900  1
