# generated using pymatgen
data_Be(PN2)2
_symmetry_space_group_name_H-M   'P 1'
_cell_length_a   7.88950628
_cell_length_b   7.88950628
_cell_length_c   7.88950663
_cell_angle_alpha   108.14863286
_cell_angle_beta   108.14863286
_cell_angle_gamma   108.14862743
_symmetry_Int_Tables_number   1
_chemical_formula_structural   Be(PN2)2
_chemical_formula_sum   'Be6 P12 N24'
_cell_volume   395.45980567
_cell_formula_units_Z   6
loop_
 _symmetry_equiv_pos_site_id
 _symmetry_equiv_pos_as_xyz
  1  'x, y, z'
loop_
 _atom_site_type_symbol
 _atom_site_label
 _atom_site_symmetry_multiplicity
 _atom_site_fract_x
 _atom_site_fract_y
 _atom_site_fract_z
 _atom_site_occupancy
  Be  Be0  1  0.96172500  0.73237700  0.55628300  1
  Be  Be1  1  0.55628300  0.96172500  0.73237700  1
  Be  Be2  1  0.73237700  0.55628300  0.96172500  1
  Be  Be3  1  0.03827500  0.26762300  0.44371700  1
  Be  Be4  1  0.44371700  0.03827500  0.26762300  1
  Be  Be5  1  0.26762300  0.44371700  0.03827500  1
  P  P6  1  0.60137700  0.77722700  0.37023600  1
  P  P7  1  0.37023600  0.60137700  0.77722700  1
  P  P8  1  0.77722700  0.37023600  0.60137700  1
  P  P9  1  0.39862300  0.22277300  0.62976400  1
  P  P10  1  0.62976400  0.39862300  0.22277300  1
  P  P11  1  0.22277300  0.62976400  0.39862300  1
  P  P12  1  0.93022300  0.11336900  0.70794500  1
  P  P13  1  0.70794500  0.93022300  0.11336900  1
  P  P14  1  0.11336900  0.70794500  0.93022300  1
  P  P15  1  0.06977700  0.88663100  0.29205500  1
  P  P16  1  0.29205500  0.06977700  0.88663100  1
  P  P17  1  0.88663100  0.29205500  0.06977700  1
  N  N18  1  0.83186100  0.87533700  0.54764600  1
  N  N19  1  0.54764600  0.83186100  0.87533700  1
  N  N20  1  0.87533700  0.54764600  0.83186100  1
  N  N21  1  0.16813900  0.12466300  0.45235400  1
  N  N22  1  0.45235400  0.16813900  0.12466300  1
  N  N23  1  0.12466300  0.45235400  0.16813900  1
  N  N24  1  0.08748500  0.75146300  0.41289000  1
  N  N25  1  0.41289000  0.08748500  0.75146300  1
  N  N26  1  0.75146300  0.41289000  0.08748500  1
  N  N27  1  0.91251500  0.24853700  0.58711000  1
  N  N28  1  0.58711000  0.91251500  0.24853700  1
  N  N29  1  0.24853700  0.58711000  0.91251500  1
  N  N30  1  0.13603600  0.83604200  0.80268900  1
  N  N31  1  0.80268900  0.13603600  0.83604200  1
  N  N32  1  0.83604200  0.80268900  0.13603600  1
  N  N33  1  0.86396400  0.16395800  0.19731100  1
  N  N34  1  0.19731100  0.86396400  0.16395800  1
  N  N35  1  0.16395800  0.19731100  0.86396400  1
  N  N36  1  0.78702500  0.48064300  0.45677600  1
  N  N37  1  0.45677600  0.78702500  0.48064300  1
  N  N38  1  0.48064300  0.45677600  0.78702500  1
  N  N39  1  0.21297500  0.51935700  0.54322400  1
  N  N40  1  0.54322400  0.21297500  0.51935700  1
  N  N41  1  0.51935700  0.54322400  0.21297500  1
