# generated using pymatgen
data_SmSi2Ni
_symmetry_space_group_name_H-M   'P 1'
_cell_length_a   8.44376020
_cell_length_b   8.44376020
_cell_length_c   4.04615500
_cell_angle_alpha   90.00000000
_cell_angle_beta   90.00000000
_cell_angle_gamma   151.88688294
_symmetry_Int_Tables_number   1
_chemical_formula_structural   SmSi2Ni
_chemical_formula_sum   'Sm2 Si4 Ni2'
_cell_volume   135.93532081
_cell_formula_units_Z   2
loop_
 _symmetry_equiv_pos_site_id
 _symmetry_equiv_pos_as_xyz
  1  'x, y, z'
loop_
 _atom_site_type_symbol
 _atom_site_label
 _atom_site_symmetry_multiplicity
 _atom_site_fract_x
 _atom_site_fract_y
 _atom_site_fract_z
 _atom_site_occupancy
  Sm  Sm0  1  0.60621500  0.39378500  0.25000000  1
  Sm  Sm1  1  0.39378500  0.60621500  0.75000000  1
  Si  Si2  1  0.95955600  0.04044400  0.25000000  1
  Si  Si3  1  0.04044400  0.95955600  0.75000000  1
  Si  Si4  1  0.25016300  0.74983700  0.25000000  1
  Si  Si5  1  0.74983700  0.25016300  0.75000000  1
  Ni  Ni6  1  0.81941800  0.18058200  0.25000000  1
  Ni  Ni7  1  0.18058200  0.81941800  0.75000000  1
