# generated using pymatgen
data_Sm2Se3
_symmetry_space_group_name_H-M   'P 1'
_cell_length_a   4.12959800
_cell_length_b   11.13257400
_cell_length_c   11.40329100
_cell_angle_alpha   90.00000000
_cell_angle_beta   90.00000000
_cell_angle_gamma   90.00000000
_symmetry_Int_Tables_number   1
_chemical_formula_structural   Sm2Se3
_chemical_formula_sum   'Sm8 Se12'
_cell_volume   524.24412803
_cell_formula_units_Z   4
loop_
 _symmetry_equiv_pos_site_id
 _symmetry_equiv_pos_as_xyz
  1  'x, y, z'
loop_
 _atom_site_type_symbol
 _atom_site_label
 _atom_site_symmetry_multiplicity
 _atom_site_fract_x
 _atom_site_fract_y
 _atom_site_fract_z
 _atom_site_occupancy
  Sm  Sm0  1  0.25000000  0.99779200  0.69364200  1
  Sm  Sm1  1  0.75000000  0.00220800  0.30635800  1
  Sm  Sm2  1  0.75000000  0.49779200  0.80635800  1
  Sm  Sm3  1  0.25000000  0.50220800  0.19364200  1
  Sm  Sm4  1  0.25000000  0.31292100  0.51168500  1
  Sm  Sm5  1  0.75000000  0.68707900  0.48831500  1
  Sm  Sm6  1  0.75000000  0.81292100  0.98831500  1
  Sm  Sm7  1  0.25000000  0.18707900  0.01168500  1
  Se  Se8  1  0.75000000  0.05568200  0.88005300  1
  Se  Se9  1  0.25000000  0.94431800  0.11994700  1
  Se  Se10  1  0.25000000  0.55568200  0.61994700  1
  Se  Se11  1  0.75000000  0.44431800  0.38005300  1
  Se  Se12  1  0.25000000  0.87467200  0.45521200  1
  Se  Se13  1  0.75000000  0.12532800  0.54478800  1
  Se  Se14  1  0.75000000  0.37467200  0.04478800  1
  Se  Se15  1  0.25000000  0.62532800  0.95521200  1
  Se  Se16  1  0.25000000  0.30212500  0.77221100  1
  Se  Se17  1  0.75000000  0.69787500  0.22778900  1
  Se  Se18  1  0.75000000  0.80212500  0.72778900  1
  Se  Se19  1  0.25000000  0.19787500  0.27221100  1
