# generated using pymatgen
data_LiVAsO5
_symmetry_space_group_name_H-M   'P 1'
_cell_length_a   6.58791900
_cell_length_b   7.63337000
_cell_length_c   7.58674100
_cell_angle_alpha   90.00000000
_cell_angle_beta   90.00000000
_cell_angle_gamma   90.00000000
_symmetry_Int_Tables_number   1
_chemical_formula_structural   LiVAsO5
_chemical_formula_sum   'Li4 V4 As4 O20'
_cell_volume   381.52220785
_cell_formula_units_Z   4
loop_
 _symmetry_equiv_pos_site_id
 _symmetry_equiv_pos_as_xyz
  1  'x, y, z'
loop_
 _atom_site_type_symbol
 _atom_site_label
 _atom_site_symmetry_multiplicity
 _atom_site_fract_x
 _atom_site_fract_y
 _atom_site_fract_z
 _atom_site_occupancy
  Li  Li0  1  0.00000000  0.00000000  0.00000000  1
  Li  Li1  1  0.50000000  0.00000000  0.00000000  1
  Li  Li2  1  0.00000000  0.50000000  0.50000000  1
  Li  Li3  1  0.50000000  0.50000000  0.50000000  1
  V  V4  1  0.75000000  0.22621200  0.33137000  1
  V  V5  1  0.25000000  0.72621100  0.16862900  1
  V  V6  1  0.75000000  0.27378800  0.83137000  1
  V  V7  1  0.25000000  0.77378800  0.66862900  1
  As  As8  1  0.75000000  0.87549000  0.62500900  1
  As  As9  1  0.75000000  0.62450900  0.12500900  1
  As  As10  1  0.25000000  0.37549000  0.87499200  1
  As  As11  1  0.25000000  0.12451000  0.37499200  1
  O  O12  1  0.75000000  0.00272500  0.81396700  1
  O  O13  1  0.95437000  0.73575000  0.62796200  1
  O  O14  1  0.45437000  0.26425000  0.37203900  1
  O  O15  1  0.04563000  0.23575000  0.87203900  1
  O  O16  1  0.54563000  0.76425000  0.12796200  1
  O  O17  1  0.04563000  0.26425000  0.37203900  1
  O  O18  1  0.54563000  0.73575000  0.62796200  1
  O  O19  1  0.95437000  0.76425000  0.12796200  1
  O  O20  1  0.75000000  0.17202700  0.11417500  1
  O  O21  1  0.25000000  0.82797400  0.88582500  1
  O  O22  1  0.25000000  0.67202600  0.38582500  1
  O  O23  1  0.75000000  0.32797300  0.61417500  1
  O  O24  1  0.45437000  0.23575000  0.87203900  1
  O  O25  1  0.25000000  0.99727600  0.18603300  1
  O  O26  1  0.25000000  0.00609700  0.56479000  1
  O  O27  1  0.75000000  0.49727600  0.31396700  1
  O  O28  1  0.25000000  0.49390200  0.06479000  1
  O  O29  1  0.75000000  0.50609700  0.93520900  1
  O  O30  1  0.75000000  0.99390200  0.43520900  1
  O  O31  1  0.25000000  0.50272500  0.68603400  1
