# generated using pymatgen
data_YbSi3Ni5
_symmetry_space_group_name_H-M   'P 1'
_cell_length_a   18.69304300
_cell_length_b   3.77178900
_cell_length_c   6.68085000
_cell_angle_alpha   90.00000000
_cell_angle_beta   90.00000000
_cell_angle_gamma   90.00000000
_symmetry_Int_Tables_number   1
_chemical_formula_structural   YbSi3Ni5
_chemical_formula_sum   'Yb4 Si12 Ni20'
_cell_volume   471.04143956
_cell_formula_units_Z   4
loop_
 _symmetry_equiv_pos_site_id
 _symmetry_equiv_pos_as_xyz
  1  'x, y, z'
loop_
 _atom_site_type_symbol
 _atom_site_label
 _atom_site_symmetry_multiplicity
 _atom_site_fract_x
 _atom_site_fract_y
 _atom_site_fract_z
 _atom_site_occupancy
  Yb  Yb0  1  0.64322100  0.25000000  0.62237500  1
  Yb  Yb1  1  0.14322100  0.25000000  0.87762500  1
  Yb  Yb2  1  0.35677900  0.75000000  0.37762500  1
  Yb  Yb3  1  0.85677900  0.75000000  0.12237500  1
  Si  Si4  1  0.91496900  0.25000000  0.41639400  1
  Si  Si5  1  0.41496900  0.25000000  0.08360600  1
  Si  Si6  1  0.08503100  0.75000000  0.58360600  1
  Si  Si7  1  0.58503100  0.75000000  0.91639400  1
  Si  Si8  1  0.73728000  0.25000000  0.12125000  1
  Si  Si9  1  0.23728000  0.25000000  0.37875000  1
  Si  Si10  1  0.26272000  0.75000000  0.87875000  1
  Si  Si11  1  0.76272000  0.75000000  0.62125000  1
  Si  Si12  1  0.92475400  0.25000000  0.84553100  1
  Si  Si13  1  0.42475400  0.25000000  0.65446900  1
  Si  Si14  1  0.07524600  0.75000000  0.15446900  1
  Si  Si15  1  0.57524600  0.75000000  0.34553100  1
  Ni  Ni16  1  0.79876500  0.25000000  0.81383500  1
  Ni  Ni17  1  0.29876500  0.25000000  0.68616500  1
  Ni  Ni18  1  0.20123500  0.75000000  0.18616500  1
  Ni  Ni19  1  0.70123500  0.75000000  0.31383500  1
  Ni  Ni20  1  0.99456600  0.25000000  0.13163500  1
  Ni  Ni21  1  0.49456600  0.25000000  0.36836500  1
  Ni  Ni22  1  0.00543400  0.75000000  0.86836500  1
  Ni  Ni23  1  0.50543400  0.75000000  0.63163500  1
  Ni  Ni24  1  0.51471000  0.25000000  0.88173600  1
  Ni  Ni25  1  0.01471000  0.25000000  0.61826400  1
  Ni  Ni26  1  0.48529000  0.75000000  0.11826400  1
  Ni  Ni27  1  0.98529000  0.75000000  0.38173600  1
  Ni  Ni28  1  0.61475100  0.25000000  0.14481700  1
  Ni  Ni29  1  0.11475100  0.25000000  0.35518300  1
  Ni  Ni30  1  0.38524900  0.75000000  0.85518300  1
  Ni  Ni31  1  0.88524900  0.75000000  0.64481700  1
  Ni  Ni32  1  0.79403300  0.25000000  0.42930600  1
  Ni  Ni33  1  0.29403300  0.25000000  0.07069400  1
  Ni  Ni34  1  0.20596700  0.75000000  0.57069400  1
  Ni  Ni35  1  0.70596700  0.75000000  0.92930600  1
