# generated using pymatgen
data_Y2Pt
_symmetry_space_group_name_H-M   'P 1'
_cell_length_a   4.78838700
_cell_length_b   7.19731800
_cell_length_c   8.81486000
_cell_angle_alpha   90.00000000
_cell_angle_beta   90.00000000
_cell_angle_gamma   90.00000000
_symmetry_Int_Tables_number   1
_chemical_formula_structural   Y2Pt
_chemical_formula_sum   'Y8 Pt4'
_cell_volume   303.79131499
_cell_formula_units_Z   4
loop_
 _symmetry_equiv_pos_site_id
 _symmetry_equiv_pos_as_xyz
  1  'x, y, z'
loop_
 _atom_site_type_symbol
 _atom_site_label
 _atom_site_symmetry_multiplicity
 _atom_site_fract_x
 _atom_site_fract_y
 _atom_site_fract_z
 _atom_site_occupancy
  Y  Y0  1  0.25000000  0.85509400  0.91971400  1
  Y  Y1  1  0.25000000  0.35509400  0.58028600  1
  Y  Y2  1  0.75000000  0.14490600  0.08028600  1
  Y  Y3  1  0.75000000  0.64490600  0.41971400  1
  Y  Y4  1  0.25000000  0.98826600  0.33153300  1
  Y  Y5  1  0.25000000  0.48826600  0.16846700  1
  Y  Y6  1  0.75000000  0.01173400  0.66846700  1
  Y  Y7  1  0.75000000  0.51173400  0.83153300  1
  Pt  Pt8  1  0.25000000  0.25839200  0.90598500  1
  Pt  Pt9  1  0.25000000  0.75839200  0.59401500  1
  Pt  Pt10  1  0.75000000  0.74160800  0.09401500  1
  Pt  Pt11  1  0.75000000  0.24160800  0.40598500  1
