# generated using pymatgen
data_PuUC3
_symmetry_space_group_name_H-M   'P 1'
_cell_length_a   6.99119272
_cell_length_b   6.99119272
_cell_length_c   6.99119272
_cell_angle_alpha   109.47122063
_cell_angle_beta   109.47122063
_cell_angle_gamma   109.47122063
_symmetry_Int_Tables_number   1
_chemical_formula_structural   PuUC3
_chemical_formula_sum   'Pu4 U4 C12'
_cell_volume   263.04613921
_cell_formula_units_Z   4
loop_
 _symmetry_equiv_pos_site_id
 _symmetry_equiv_pos_as_xyz
  1  'x, y, z'
loop_
 _atom_site_type_symbol
 _atom_site_label
 _atom_site_symmetry_multiplicity
 _atom_site_fract_x
 _atom_site_fract_y
 _atom_site_fract_z
 _atom_site_occupancy
  Pu  Pu0  1  0.90090700  0.90090700  0.90090700  1
  Pu  Pu1  1  0.59909300  0.50000000  0.00000000  1
  Pu  Pu2  1  0.00000000  0.59909300  0.50000000  1
  Pu  Pu3  1  0.50000000  0.00000000  0.59909300  1
  U  U4  1  0.09825000  0.50000000  0.00000000  1
  U  U5  1  0.40175000  0.40175000  0.40175000  1
  U  U6  1  0.00000000  0.09825000  0.50000000  1
  U  U7  1  0.50000000  0.00000000  0.09825000  1
  C  C8  1  0.75000000  0.46163000  0.71163000  1
  C  C9  1  0.25000000  0.03837000  0.78837000  1
  C  C10  1  0.25000000  0.21345700  0.96345700  1
  C  C11  1  0.75000000  0.28654300  0.53654300  1
  C  C12  1  0.03837000  0.78837000  0.25000000  1
  C  C13  1  0.46163000  0.71163000  0.75000000  1
  C  C14  1  0.28654300  0.53654300  0.75000000  1
  C  C15  1  0.21345700  0.96345700  0.25000000  1
  C  C16  1  0.71163000  0.75000000  0.46163000  1
  C  C17  1  0.78837000  0.25000000  0.03837000  1
  C  C18  1  0.96345700  0.25000000  0.21345700  1
  C  C19  1  0.53654300  0.75000000  0.28654300  1
