# generated using pymatgen
data_NaHo9(Si3O13)2
_symmetry_space_group_name_H-M   'P 1'
_cell_length_a   9.41753564
_cell_length_b   9.41753564
_cell_length_c   6.77180200
_cell_angle_alpha   90.00000000
_cell_angle_beta   90.00000000
_cell_angle_gamma   119.99999746
_symmetry_Int_Tables_number   1
_chemical_formula_structural   NaHo9(Si3O13)2
_chemical_formula_sum   'Na1 Ho9 Si6 O26'
_cell_volume   520.12704807
_cell_formula_units_Z   1
loop_
 _symmetry_equiv_pos_site_id
 _symmetry_equiv_pos_as_xyz
  1  'x, y, z'
loop_
 _atom_site_type_symbol
 _atom_site_label
 _atom_site_symmetry_multiplicity
 _atom_site_fract_x
 _atom_site_fract_y
 _atom_site_fract_z
 _atom_site_occupancy
  Na  Na0  1  0.00000000  0.00000000  0.50366000  1
  Ho  Ho1  1  0.10098400  0.66942200  0.25104300  1
  Ho  Ho2  1  0.56843900  0.89901600  0.25104300  1
  Ho  Ho3  1  0.33057800  0.43156100  0.25104300  1
  Ho  Ho4  1  0.56974500  0.66903900  0.74933900  1
  Ho  Ho5  1  0.09929400  0.43025500  0.74933900  1
  Ho  Ho6  1  0.33096100  0.90070600  0.74933900  1
  Ho  Ho7  1  0.66666700  0.33333300  0.00242200  1
  Ho  Ho8  1  0.66666700  0.33333300  0.49858900  1
  Ho  Ho9  1  0.00000000  0.00000000  0.99718000  1
  Si  Si10  1  0.96030000  0.26503600  0.25052100  1
  Si  Si11  1  0.30473600  0.03970000  0.25052100  1
  Si  Si12  1  0.73496400  0.69526400  0.25052100  1
  Si  Si13  1  0.70471000  0.06411400  0.75264500  1
  Si  Si14  1  0.35940400  0.29529000  0.75264500  1
  Si  Si15  1  0.93588600  0.64059600  0.75264500  1
  O  O16  1  0.33333300  0.66666700  0.24653100  1
  O  O17  1  0.33333300  0.66666700  0.74941200  1
  O  O18  1  0.83857700  0.34367900  0.25122900  1
  O  O19  1  0.50510200  0.16142300  0.25122900  1
  O  O20  1  0.65632100  0.49489800  0.25122900  1
  O  O21  1  0.81751000  0.98116000  0.76179400  1
  O  O22  1  0.16365000  0.18249000  0.76179400  1
  O  O23  1  0.01884000  0.83635000  0.76179400  1
  O  O24  1  0.80310300  0.26786600  0.75003400  1
  O  O25  1  0.46476300  0.19689700  0.75003400  1
  O  O26  1  0.73213400  0.53523700  0.75003400  1
  O  O27  1  0.85542700  0.06569600  0.23660300  1
  O  O28  1  0.21026900  0.14457300  0.23660300  1
  O  O29  1  0.93430400  0.78973100  0.23660300  1
  O  O30  1  0.08522300  0.33074400  0.05879000  1
  O  O31  1  0.24552100  0.91477700  0.05879000  1
  O  O32  1  0.66925600  0.75447900  0.05879000  1
  O  O33  1  0.58254200  0.00807800  0.55838300  1
  O  O34  1  0.42553600  0.41745800  0.55838300  1
  O  O35  1  0.99192200  0.57446400  0.55838300  1
  O  O36  1  0.57759700  0.00893700  0.94260400  1
  O  O37  1  0.43134000  0.42240300  0.94260400  1
  O  O38  1  0.99106300  0.56866000  0.94260400  1
  O  O39  1  0.08765200  0.33959800  0.43774300  1
  O  O40  1  0.25194600  0.91234800  0.43774300  1
  O  O41  1  0.66040200  0.74805400  0.43774300  1
