# generated using pymatgen
data_Lu4(Al8Pt3)3
_symmetry_space_group_name_H-M   'P 1'
_cell_length_a   7.47040819
_cell_length_b   7.52840737
_cell_length_c   13.17400869
_cell_angle_alpha   84.62036438
_cell_angle_beta   79.24021223
_cell_angle_gamma   59.96431728
_symmetry_Int_Tables_number   1
_chemical_formula_structural   Lu4(Al8Pt3)3
_chemical_formula_sum   'Lu4 Al24 Pt9'
_cell_volume   630.13886328
_cell_formula_units_Z   1
loop_
 _symmetry_equiv_pos_site_id
 _symmetry_equiv_pos_as_xyz
  1  'x, y, z'
loop_
 _atom_site_type_symbol
 _atom_site_label
 _atom_site_symmetry_multiplicity
 _atom_site_fract_x
 _atom_site_fract_y
 _atom_site_fract_z
 _atom_site_occupancy
  Lu  Lu0  1  0.39358700  0.16906300  0.80718100  1
  Lu  Lu1  1  0.60641300  0.83093700  0.19281900  1
  Lu  Lu2  1  0.73468400  0.49865800  0.80685300  1
  Lu  Lu3  1  0.26531600  0.50134200  0.19314700  1
  Al  Al4  1  0.68445600  0.83401700  0.94391500  1
  Al  Al5  1  0.31554400  0.16598300  0.05608500  1
  Al  Al6  1  0.14618200  0.83261000  0.56082000  1
  Al  Al7  1  0.85381800  0.16739000  0.43918000  1
  Al  Al8  1  0.47900700  0.16645800  0.55831400  1
  Al  Al9  1  0.52099300  0.83354200  0.44168600  1
  Al  Al10  1  0.21760000  0.16531400  0.32805900  1
  Al  Al11  1  0.78240000  0.83468600  0.67194100  1
  Al  Al12  1  0.43764500  0.50570600  0.67201300  1
  Al  Al13  1  0.56235500  0.49429400  0.32798700  1
  Al  Al14  1  0.10911100  0.16063600  0.67079100  1
  Al  Al15  1  0.89088900  0.83936400  0.32920900  1
  Al  Al16  1  0.35414900  0.49910700  0.94406400  1
  Al  Al17  1  0.64585100  0.50089300  0.05593600  1
  Al  Al18  1  0.01650900  0.16810500  0.95148700  1
  Al  Al19  1  0.98349100  0.83189500  0.04851300  1
  Al  Al20  1  0.18675700  0.49970600  0.44135400  1
  Al  Al21  1  0.81324300  0.50029400  0.55864600  1
  Al  Al22  1  0.73316400  0.16373100  0.18308400  1
  Al  Al23  1  0.26683600  0.83626900  0.81691600  1
  Al  Al24  1  0.06165800  0.63079600  0.81571000  1
  Al  Al25  1  0.93834200  0.36920400  0.18429000  1
  Al  Al26  1  0.85473100  0.04202200  0.81618100  1
  Al  Al27  1  0.14526900  0.95797800  0.18381900  1
  Pt  Pt28  1  0.12001000  0.49153200  0.63941200  1
  Pt  Pt29  1  0.87999000  0.50846800  0.36058800  1
  Pt  Pt30  1  0.65715500  0.17129300  0.99970600  1
  Pt  Pt31  1  0.34284500  0.82870700  0.00029400  1
  Pt  Pt32  1  0.53815300  0.16677900  0.36063100  1
  Pt  Pt33  1  0.46184700  0.83322100  0.63936900  1
  Pt  Pt34  1  0.77845300  0.17497500  0.63752200  1
  Pt  Pt35  1  0.22154700  0.82502500  0.36247800  1
  Pt  Pt36  1  0.00000000  0.50000000  0.00000000  1
