# generated using pymatgen
data_Na4CaZr2TiSi4(O8F)2
_symmetry_space_group_name_H-M   'P 1'
_cell_length_a   7.19700900
_cell_length_b   5.72326700
_cell_length_c   18.73731402
_cell_angle_alpha   76.97631600
_cell_angle_beta   90.00000000
_cell_angle_gamma   90.00000000
_symmetry_Int_Tables_number   1
_chemical_formula_structural   Na4CaZr2TiSi4(O8F)2
_chemical_formula_sum   'Na8 Ca2 Zr4 Ti2 Si8 O32 F4'
_cell_volume   751.94458459
_cell_formula_units_Z   2
loop_
 _symmetry_equiv_pos_site_id
 _symmetry_equiv_pos_as_xyz
  1  'x, y, z'
loop_
 _atom_site_type_symbol
 _atom_site_label
 _atom_site_symmetry_multiplicity
 _atom_site_fract_x
 _atom_site_fract_y
 _atom_site_fract_z
 _atom_site_occupancy
  Na  Na0  1  0.65405600  0.00000000  0.75000000  1
  Na  Na1  1  0.34594400  0.00000000  0.25000000  1
  Na  Na2  1  0.88745100  0.70404700  0.93048500  1
  Na  Na3  1  0.11254900  0.29595300  0.06951500  1
  Na  Na4  1  0.88745100  0.29595300  0.56951500  1
  Na  Na5  1  0.11254900  0.70404700  0.43048500  1
  Na  Na6  1  0.88882800  0.50000000  0.75000000  1
  Na  Na7  1  0.11117200  0.50000000  0.25000000  1
  Ca  Ca8  1  0.14953800  0.00000000  0.75000000  1
  Ca  Ca9  1  0.85046200  0.00000000  0.25000000  1
  Zr  Zr10  1  0.38286400  0.69922900  0.92528800  1
  Zr  Zr11  1  0.61713600  0.30077100  0.07471200  1
  Zr  Zr12  1  0.38286400  0.30077100  0.57471200  1
  Zr  Zr13  1  0.61713600  0.69922900  0.42528800  1
  Ti  Ti14  1  0.39636800  0.50000000  0.75000000  1
  Ti  Ti15  1  0.60363200  0.50000000  0.25000000  1
  Si  Si16  1  0.88284900  0.77139100  0.10394300  1
  Si  Si17  1  0.11715100  0.22860900  0.89605700  1
  Si  Si18  1  0.88284900  0.22860900  0.39605700  1
  Si  Si19  1  0.11715100  0.77139100  0.60394300  1
  Si  Si20  1  0.66088800  0.77905500  0.60491100  1
  Si  Si21  1  0.33911200  0.22094500  0.39508900  1
  Si  Si22  1  0.66088800  0.22094500  0.89508900  1
  Si  Si23  1  0.33911200  0.77905500  0.10491100  1
  O  O24  1  0.82228700  0.57731200  0.05658400  1
  O  O25  1  0.17771300  0.42268800  0.94341600  1
  O  O26  1  0.82228700  0.42268800  0.44341600  1
  O  O27  1  0.17771300  0.57731200  0.55658400  1
  O  O28  1  0.38189600  0.72623700  0.81546100  1
  O  O29  1  0.61810400  0.27376300  0.18453900  1
  O  O30  1  0.38189600  0.27376300  0.68453900  1
  O  O31  1  0.61810400  0.72623700  0.31546100  1
  O  O32  1  0.88834400  0.76409000  0.60925000  1
  O  O33  1  0.11165600  0.23591000  0.39075000  1
  O  O34  1  0.88834400  0.23591000  0.89075000  1
  O  O35  1  0.11165600  0.76409000  0.10925000  1
  O  O36  1  0.59836900  0.94212900  0.92279000  1
  O  O37  1  0.40163100  0.05787100  0.07721000  1
  O  O38  1  0.59836900  0.05787100  0.57721000  1
  O  O39  1  0.40163100  0.94212900  0.42279000  1
  O  O40  1  0.17827700  0.94906800  0.93043600  1
  O  O41  1  0.82172300  0.05093200  0.06956400  1
  O  O42  1  0.17827700  0.05093200  0.56956400  1
  O  O43  1  0.82172300  0.94906800  0.43043600  1
  O  O44  1  0.58950700  0.68076300  0.68926300  1
  O  O45  1  0.41049300  0.31923700  0.31073700  1
  O  O46  1  0.58950700  0.31923700  0.81073700  1
  O  O47  1  0.41049300  0.68076300  0.18926300  1
  O  O48  1  0.59284300  0.59976200  0.55159800  1
  O  O49  1  0.40715700  0.40023800  0.44840200  1
  O  O50  1  0.59284300  0.40023800  0.94840200  1
  O  O51  1  0.40715700  0.59976200  0.05159800  1
  O  O52  1  0.80691000  0.69512900  0.18863700  1
  O  O53  1  0.19309000  0.30487100  0.81136300  1
  O  O54  1  0.80691000  0.30487100  0.31136300  1
  O  O55  1  0.19309000  0.69512900  0.68863700  1
  F  F56  1  0.90988300  0.79419300  0.80934200  1
  F  F57  1  0.09011700  0.20580700  0.19065800  1
  F  F58  1  0.90988300  0.20580700  0.69065800  1
  F  F59  1  0.09011700  0.79419300  0.30934200  1
