# generated using pymatgen
data_CsNdCdTe3
_symmetry_space_group_name_H-M   'P 1'
_cell_length_a   4.62976200
_cell_length_b   8.98071379
_cell_length_c   12.13927400
_cell_angle_alpha   90.00000000
_cell_angle_beta   90.00000000
_cell_angle_gamma   104.93727053
_symmetry_Int_Tables_number   1
_chemical_formula_structural   CsNdCdTe3
_chemical_formula_sum   'Cs2 Nd2 Cd2 Te6'
_cell_volume   487.67797265
_cell_formula_units_Z   2
loop_
 _symmetry_equiv_pos_site_id
 _symmetry_equiv_pos_as_xyz
  1  'x, y, z'
loop_
 _atom_site_type_symbol
 _atom_site_label
 _atom_site_symmetry_multiplicity
 _atom_site_fract_x
 _atom_site_fract_y
 _atom_site_fract_z
 _atom_site_occupancy
  Cs  Cs0  1  0.74744000  0.49488000  0.75000000  1
  Cs  Cs1  1  0.25256000  0.50512000  0.25000000  1
  Nd  Nd2  1  0.00000000  0.00000000  0.00000000  1
  Nd  Nd3  1  0.00000000  0.00000000  0.50000000  1
  Cd  Cd4  1  0.46139100  0.92278200  0.75000000  1
  Cd  Cd5  1  0.53860900  0.07721800  0.25000000  1
  Te  Te6  1  0.37688800  0.75377600  0.94852200  1
  Te  Te7  1  0.62311200  0.24622400  0.05147800  1
  Te  Te8  1  0.37688800  0.75377600  0.55147800  1
  Te  Te9  1  0.62311200  0.24622400  0.44852200  1
  Te  Te10  1  0.06433700  0.12867400  0.75000000  1
  Te  Te11  1  0.93566300  0.87132600  0.25000000  1
