# generated using pymatgen
data_Ho3CuSiS7
_symmetry_space_group_name_H-M   'P 1'
_cell_length_a   9.84938868
_cell_length_b   9.84938868
_cell_length_c   5.70385300
_cell_angle_alpha   90.00000000
_cell_angle_beta   90.00000000
_cell_angle_gamma   120.00000454
_symmetry_Int_Tables_number   1
_chemical_formula_structural   Ho3CuSiS7
_chemical_formula_sum   'Ho6 Cu2 Si2 S14'
_cell_volume   479.20074870
_cell_formula_units_Z   2
loop_
 _symmetry_equiv_pos_site_id
 _symmetry_equiv_pos_as_xyz
  1  'x, y, z'
loop_
 _atom_site_type_symbol
 _atom_site_label
 _atom_site_symmetry_multiplicity
 _atom_site_fract_x
 _atom_site_fract_y
 _atom_site_fract_z
 _atom_site_occupancy
  Ho  Ho0  1  0.86963700  0.64266200  0.24242300  1
  Ho  Ho1  1  0.22697600  0.86963700  0.74242300  1
  Ho  Ho2  1  0.64266200  0.77302400  0.74242300  1
  Ho  Ho3  1  0.35733800  0.22697600  0.24242300  1
  Ho  Ho4  1  0.77302400  0.13036300  0.24242300  1
  Ho  Ho5  1  0.13036300  0.35733800  0.74242300  1
  Cu  Cu6  1  0.00000000  0.00000000  0.19227700  1
  Cu  Cu7  1  0.00000000  0.00000000  0.69227700  1
  Si  Si8  1  0.33333300  0.66666700  0.33113700  1
  Si  Si9  1  0.66666700  0.33333300  0.83113700  1
  S  S10  1  0.10544500  0.58251600  0.48175100  1
  S  S11  1  0.89455500  0.41748400  0.98175100  1
  S  S12  1  0.58251600  0.47707100  0.98175100  1
  S  S13  1  0.47707100  0.89455500  0.48175100  1
  S  S14  1  0.16278100  0.90362300  0.21145100  1
  S  S15  1  0.25915800  0.16278100  0.71145100  1
  S  S16  1  0.52292900  0.10544500  0.98175100  1
  S  S17  1  0.41748400  0.52292900  0.48175100  1
  S  S18  1  0.33333300  0.66666700  0.96041300  1
  S  S19  1  0.66666700  0.33333300  0.46041300  1
  S  S20  1  0.83721900  0.09637700  0.71145100  1
  S  S21  1  0.74084200  0.83721900  0.21145100  1
  S  S22  1  0.09637700  0.25915800  0.21145100  1
  S  S23  1  0.90362300  0.74084200  0.71145100  1
