# generated using pymatgen
data_Li2Ce2Si3
_symmetry_space_group_name_H-M   'P 1'
_cell_length_a   9.42614926
_cell_length_b   9.42614926
_cell_length_c   6.73918000
_cell_angle_alpha   90.00000000
_cell_angle_beta   90.00000000
_cell_angle_gamma   152.98344483
_symmetry_Int_Tables_number   1
_chemical_formula_structural   Li2Ce2Si3
_chemical_formula_sum   'Li4 Ce4 Si6'
_cell_volume   271.99983339
_cell_formula_units_Z   2
loop_
 _symmetry_equiv_pos_site_id
 _symmetry_equiv_pos_as_xyz
  1  'x, y, z'
loop_
 _atom_site_type_symbol
 _atom_site_label
 _atom_site_symmetry_multiplicity
 _atom_site_fract_x
 _atom_site_fract_y
 _atom_site_fract_z
 _atom_site_occupancy
  Li  Li0  1  0.81067500  0.18932500  0.56039300  1
  Li  Li1  1  0.18932500  0.81067500  0.43960700  1
  Li  Li2  1  0.18932500  0.81067500  0.06039300  1
  Li  Li3  1  0.81067500  0.18932500  0.93960700  1
  Ce  Ce4  1  0.55059000  0.44941000  0.25000000  1
  Ce  Ce5  1  0.44941000  0.55059000  0.75000000  1
  Ce  Ce6  1  0.34401200  0.65598800  0.25000000  1
  Ce  Ce7  1  0.65598800  0.34401200  0.75000000  1
  Si  Si8  1  0.94105700  0.05894300  0.07347200  1
  Si  Si9  1  0.05894300  0.94105700  0.92652800  1
  Si  Si10  1  0.05894300  0.94105700  0.57347200  1
  Si  Si11  1  0.94105700  0.05894300  0.42652800  1
  Si  Si12  1  0.71993100  0.28006900  0.25000000  1
  Si  Si13  1  0.28006900  0.71993100  0.75000000  1
