# generated using pymatgen
data_SmFe2SiC
_symmetry_space_group_name_H-M   'P 1'
_cell_length_a   5.58062117
_cell_length_b   5.58062117
_cell_length_c   6.76024800
_cell_angle_alpha   90.00000000
_cell_angle_beta   90.00000000
_cell_angle_gamma   139.66671333
_symmetry_Int_Tables_number   1
_chemical_formula_structural   SmFe2SiC
_chemical_formula_sum   'Sm2 Fe4 Si2 C2'
_cell_volume   136.26621681
_cell_formula_units_Z   2
loop_
 _symmetry_equiv_pos_site_id
 _symmetry_equiv_pos_as_xyz
  1  'x, y, z'
loop_
 _atom_site_type_symbol
 _atom_site_label
 _atom_site_symmetry_multiplicity
 _atom_site_fract_x
 _atom_site_fract_y
 _atom_site_fract_z
 _atom_site_occupancy
  Sm  Sm0  1  0.55275300  0.44724700  0.25000000  1
  Sm  Sm1  1  0.44724700  0.55275300  0.75000000  1
  Fe  Fe2  1  0.83451300  0.16548700  0.06359900  1
  Fe  Fe3  1  0.16548700  0.83451300  0.93640100  1
  Fe  Fe4  1  0.16548700  0.83451300  0.56359900  1
  Fe  Fe5  1  0.83451300  0.16548700  0.43640100  1
  Si  Si6  1  0.27150500  0.72849500  0.25000000  1
  Si  Si7  1  0.72849500  0.27150500  0.75000000  1
  C  C8  1  0.00000000  0.00000000  0.00000000  1
  C  C9  1  0.00000000  0.00000000  0.50000000  1
