# generated using pymatgen
data_ErGaNi
_symmetry_space_group_name_H-M   'P 1'
_cell_length_a   4.24108500
_cell_length_b   6.75292700
_cell_length_c   7.34605900
_cell_angle_alpha   90.00000000
_cell_angle_beta   90.00000000
_cell_angle_gamma   90.00000000
_symmetry_Int_Tables_number   1
_chemical_formula_structural   ErGaNi
_chemical_formula_sum   'Er4 Ga4 Ni4'
_cell_volume   210.38920073
_cell_formula_units_Z   4
loop_
 _symmetry_equiv_pos_site_id
 _symmetry_equiv_pos_as_xyz
  1  'x, y, z'
loop_
 _atom_site_type_symbol
 _atom_site_label
 _atom_site_symmetry_multiplicity
 _atom_site_fract_x
 _atom_site_fract_y
 _atom_site_fract_z
 _atom_site_occupancy
  Er  Er0  1  0.25000000  0.98373700  0.30532100  1
  Er  Er1  1  0.25000000  0.48373700  0.19467900  1
  Er  Er2  1  0.75000000  0.01626300  0.69467900  1
  Er  Er3  1  0.75000000  0.51626300  0.80532100  1
  Ga  Ga4  1  0.25000000  0.32447000  0.57266700  1
  Ga  Ga5  1  0.25000000  0.82447000  0.92733300  1
  Ga  Ga6  1  0.75000000  0.67553000  0.42733300  1
  Ga  Ga7  1  0.75000000  0.17553000  0.07266700  1
  Ni  Ni8  1  0.25000000  0.21205100  0.89821000  1
  Ni  Ni9  1  0.25000000  0.71205100  0.60179000  1
  Ni  Ni10  1  0.75000000  0.78794900  0.10179000  1
  Ni  Ni11  1  0.75000000  0.28794900  0.39821000  1
