# generated using pymatgen
data_Y(PdO2)2
_symmetry_space_group_name_H-M   'P 1'
_cell_length_a   6.52105254
_cell_length_b   6.52105254
_cell_length_c   6.52105254
_cell_angle_alpha   126.94079858
_cell_angle_beta   126.94079858
_cell_angle_gamma   78.34729004
_symmetry_Int_Tables_number   1
_chemical_formula_structural   Y(PdO2)2
_chemical_formula_sum   'Y2 Pd4 O8'
_cell_volume   171.55400311
_cell_formula_units_Z   2
loop_
 _symmetry_equiv_pos_site_id
 _symmetry_equiv_pos_as_xyz
  1  'x, y, z'
loop_
 _atom_site_type_symbol
 _atom_site_label
 _atom_site_symmetry_multiplicity
 _atom_site_fract_x
 _atom_site_fract_y
 _atom_site_fract_z
 _atom_site_occupancy
  Y  Y0  1  0.75000000  0.25000000  0.50000000  1
  Y  Y1  1  0.00000000  0.00000000  0.00000000  1
  Pd  Pd2  1  0.37500000  0.62500000  0.25000000  1
  Pd  Pd3  1  0.87500000  0.62500000  0.25000000  1
  Pd  Pd4  1  0.37500000  0.12500000  0.75000000  1
  Pd  Pd5  1  0.37500000  0.62500000  0.75000000  1
  O  O6  1  0.99194400  0.95981000  0.34683700  1
  O  O7  1  0.70981000  0.86297300  0.46786700  1
  O  O8  1  0.39510700  0.24194400  0.53213300  1
  O  O9  1  0.61297300  0.64510700  0.65316300  1
  O  O10  1  0.75805600  0.29019000  0.15316300  1
  O  O11  1  0.04019000  0.38702700  0.03213300  1
  O  O12  1  0.13702700  0.60489300  0.84683700  1
  O  O13  1  0.35489300  0.00805600  0.96786700  1
