# generated using pymatgen
data_Tm2B6Os
_symmetry_space_group_name_H-M   'P 1'
_cell_length_a   3.62378600
_cell_length_b   9.08143200
_cell_length_c   11.45855000
_cell_angle_alpha   90.00000000
_cell_angle_beta   90.00000000
_cell_angle_gamma   90.00000000
_symmetry_Int_Tables_number   1
_chemical_formula_structural   Tm2B6Os
_chemical_formula_sum   'Tm8 B24 Os4'
_cell_volume   377.09132569
_cell_formula_units_Z   4
loop_
 _symmetry_equiv_pos_site_id
 _symmetry_equiv_pos_as_xyz
  1  'x, y, z'
loop_
 _atom_site_type_symbol
 _atom_site_label
 _atom_site_symmetry_multiplicity
 _atom_site_fract_x
 _atom_site_fract_y
 _atom_site_fract_z
 _atom_site_occupancy
  Tm  Tm0  1  0.00000000  0.32115800  0.41373300  1
  Tm  Tm1  1  0.00000000  0.67884200  0.58626700  1
  Tm  Tm2  1  0.00000000  0.82115800  0.08626700  1
  Tm  Tm3  1  0.00000000  0.17884200  0.91373300  1
  Tm  Tm4  1  0.00000000  0.94497100  0.37368800  1
  Tm  Tm5  1  0.00000000  0.05502900  0.62631300  1
  Tm  Tm6  1  0.00000000  0.44497100  0.12631200  1
  Tm  Tm7  1  0.00000000  0.55502900  0.87368700  1
  B  B8  1  0.50000000  0.55388700  0.43353400  1
  B  B9  1  0.50000000  0.44611300  0.56646600  1
  B  B10  1  0.50000000  0.05388700  0.06646600  1
  B  B11  1  0.50000000  0.94611300  0.93353400  1
  B  B12  1  0.50000000  0.74916600  0.42086300  1
  B  B13  1  0.50000000  0.25083400  0.57913700  1
  B  B14  1  0.50000000  0.24916600  0.07913700  1
  B  B15  1  0.50000000  0.75083400  0.92086300  1
  B  B16  1  0.50000000  0.79230000  0.26704300  1
  B  B17  1  0.50000000  0.20770000  0.73295700  1
  B  B18  1  0.50000000  0.29229900  0.23295700  1
  B  B19  1  0.50000000  0.70770000  0.76704300  1
  B  B20  1  0.50000000  0.63221500  0.18490700  1
  B  B21  1  0.50000000  0.36778500  0.81509300  1
  B  B22  1  0.50000000  0.13221500  0.31509300  1
  B  B23  1  0.50000000  0.86778500  0.68490700  1
  B  B24  1  0.50000000  0.98289700  0.21332400  1
  B  B25  1  0.50000000  0.01710300  0.78667600  1
  B  B26  1  0.50000000  0.48289700  0.28667600  1
  B  B27  1  0.50000000  0.51710300  0.71332400  1
  B  B28  1  0.50000000  0.60901000  0.03019500  1
  B  B29  1  0.50000000  0.39099000  0.96980500  1
  B  B30  1  0.50000000  0.10901000  0.46980500  1
  B  B31  1  0.50000000  0.89099000  0.53019500  1
  Os  Os32  1  0.00000000  0.63816900  0.32133200  1
  Os  Os33  1  0.00000000  0.36183100  0.67866800  1
  Os  Os34  1  0.00000000  0.13816900  0.17866800  1
  Os  Os35  1  0.00000000  0.86183100  0.82133200  1
