# generated using pymatgen
data_LiMnP
_symmetry_space_group_name_H-M   'P 1'
_cell_length_a   3.63324800
_cell_length_b   3.63324800
_cell_length_c   6.15289700
_cell_angle_alpha   90.00000000
_cell_angle_beta   90.00000000
_cell_angle_gamma   90.00000000
_symmetry_Int_Tables_number   1
_chemical_formula_structural   LiMnP
_chemical_formula_sum   'Li2 Mn2 P2'
_cell_volume   81.22126165
_cell_formula_units_Z   2
loop_
 _symmetry_equiv_pos_site_id
 _symmetry_equiv_pos_as_xyz
  1  'x, y, z'
loop_
 _atom_site_type_symbol
 _atom_site_label
 _atom_site_symmetry_multiplicity
 _atom_site_fract_x
 _atom_site_fract_y
 _atom_site_fract_z
 _atom_site_occupancy
  Li  Li0  1  0.00000000  0.50000000  0.35091700  1
  Li  Li1  1  0.50000000  0.00000000  0.64908300  1
  Mn  Mn2  1  0.00000000  0.00000000  0.00000000  1
  Mn  Mn3  1  0.50000000  0.50000000  0.00000000  1
  P  P4  1  0.00000000  0.50000000  0.77151300  1
  P  P5  1  0.50000000  0.00000000  0.22848700  1
