# generated using pymatgen
data_K2CoP4(HO2)8
_symmetry_space_group_name_H-M   'P 1'
_cell_length_a   6.99622173
_cell_length_b   22.27009966
_cell_length_c   9.83025185
_cell_angle_alpha   91.24417797
_cell_angle_beta   81.62083940
_cell_angle_gamma   93.15011958
_symmetry_Int_Tables_number   1
_chemical_formula_structural   K2CoP4(HO2)8
_chemical_formula_sum   'K8 Co4 P16 H32 O64'
_cell_volume   1512.83304578
_cell_formula_units_Z   4
loop_
 _symmetry_equiv_pos_site_id
 _symmetry_equiv_pos_as_xyz
  1  'x, y, z'
loop_
 _atom_site_type_symbol
 _atom_site_label
 _atom_site_symmetry_multiplicity
 _atom_site_fract_x
 _atom_site_fract_y
 _atom_site_fract_z
 _atom_site_occupancy
  K  K0  1  0.37748800  0.25871000  0.77886900  1
  K  K1  1  0.62562600  0.50898000  0.27998900  1
  K  K2  1  0.87794000  0.75872400  0.77875800  1
  K  K3  1  0.12549700  0.00905100  0.28015200  1
  K  K4  1  0.12250400  0.24127700  0.22115800  1
  K  K5  1  0.37460500  0.49093600  0.71976600  1
  K  K6  1  0.62205100  0.74128700  0.22123100  1
  K  K7  1  0.87426400  0.99103200  0.72005300  1
  Co  Co8  1  0.24998800  0.74999900  0.99999700  1
  Co  Co9  1  0.49999000  0.00000700  0.49999700  1
  Co  Co10  1  0.75001100  0.25000000  0.00000000  1
  Co  Co11  1  0.00000200  0.49999400  0.50000700  1
  P  P12  1  0.04853500  0.37208900  0.01205100  1
  P  P13  1  0.29847300  0.62206000  0.51169200  1
  P  P14  1  0.54839900  0.87207800  0.01217200  1
  P  P15  1  0.79849500  0.12208300  0.51166000  1
  P  P16  1  0.45147400  0.12791900  0.98795000  1
  P  P17  1  0.70154300  0.37790500  0.48833400  1
  P  P18  1  0.95159700  0.62791500  0.98782500  1
  P  P19  1  0.20148800  0.87794900  0.48832000  1
  P  P20  1  0.64729400  0.39187500  0.97375400  1
  P  P21  1  0.89728000  0.64209700  0.47292000  1
  P  P22  1  0.14706600  0.89185500  0.97389300  1
  P  P23  1  0.39725800  0.14212600  0.47295800  1
  P  P24  1  0.85271300  0.10812300  0.02624200  1
  P  P25  1  0.10279300  0.35787100  0.52703000  1
  P  P26  1  0.35293000  0.60814200  0.02611300  1
  P  P27  1  0.60267000  0.85791100  0.52709400  1
  H  H28  1  0.11744600  0.36934300  0.78490500  1
  H  H29  1  0.36779100  0.61941500  0.28440600  1
  H  H30  1  0.61738300  0.86937000  0.78500700  1
  H  H31  1  0.86786500  0.11941300  0.28441900  1
  H  H32  1  0.38255700  0.13066600  0.21509400  1
  H  H33  1  0.63217900  0.38057200  0.71558000  1
  H  H34  1  0.88262100  0.63062400  0.21499700  1
  H  H35  1  0.13216100  0.88059400  0.71559800  1
  H  H36  1  0.36347100  0.41396000  0.09437000  1
  H  H37  1  0.61449700  0.66429400  0.59387000  1
  H  H38  1  0.86334300  0.91399400  0.09445000  1
  H  H39  1  0.11453500  0.16432700  0.59391200  1
  H  H40  1  0.13649900  0.08604100  0.90561600  1
  H  H41  1  0.38549800  0.33568200  0.40607300  1
  H  H42  1  0.63668200  0.58600100  0.90556000  1
  H  H43  1  0.88546800  0.83570100  0.40614200  1
  H  H44  1  0.66859300  0.29401900  0.26855900  1
  H  H45  1  0.91619600  0.54339200  0.76772300  1
  H  H46  1  0.16848900  0.79397900  0.26873700  1
  H  H47  1  0.41617200  0.04343000  0.76782200  1
  H  H48  1  0.83142400  0.20597400  0.73142800  1
  H  H49  1  0.08383500  0.45657600  0.23221300  1
  H  H50  1  0.33150800  0.70602700  0.73127200  1
  H  H51  1  0.58379800  0.95660700  0.23225100  1
  H  H52  1  0.61068700  0.22427100  0.26352900  1
  H  H53  1  0.85929700  0.47342100  0.76323500  1
  H  H54  1  0.11029000  0.72427900  0.26353200  1
  H  H55  1  0.35941900  0.97345500  0.76333200  1
  H  H56  1  0.88930400  0.27572500  0.73646800  1
  H  H57  1  0.14061400  0.52654900  0.23670500  1
  H  H58  1  0.38972900  0.77572600  0.73647600  1
  H  H59  1  0.64067400  0.02658000  0.23673600  1
  O  O60  1  0.84560600  0.40556300  0.03926400  1
  O  O61  1  0.09596900  0.65575600  0.53824200  1
  O  O62  1  0.34545700  0.90550700  0.03941800  1
  O  O63  1  0.59602500  0.15578800  0.53819500  1
  O  O64  1  0.65440100  0.09444000  0.96073700  1
  O  O65  1  0.90402200  0.34420500  0.46176800  1
  O  O66  1  0.15453600  0.59448900  0.96058100  1
  O  O67  1  0.40398700  0.84425400  0.46178800  1
  O  O68  1  0.00800100  0.30456800  0.00766300  1
  O  O69  1  0.25709400  0.55455900  0.50749100  1
  O  O70  1  0.50802800  0.80457000  0.00778000  1
  O  O71  1  0.75711800  0.05457900  0.50741900  1
  O  O72  1  0.49202000  0.19544100  0.99234500  1
  O  O73  1  0.74289900  0.44540800  0.49258100  1
  O  O74  1  0.99195600  0.69542300  0.99219500  1
  O  O75  1  0.24287200  0.94545400  0.49252600  1
  O  O76  1  0.15832800  0.39673500  0.12484600  1
  O  O77  1  0.40843100  0.64655300  0.62448800  1
  O  O78  1  0.65823100  0.89679800  0.12495500  1
  O  O79  1  0.90839800  0.14656700  0.62448100  1
  O  O80  1  0.34166800  0.10327200  0.87514700  1
  O  O81  1  0.59160300  0.35341400  0.37550700  1
  O  O82  1  0.84177600  0.60319000  0.87505700  1
  O  O83  1  0.09156100  0.85346800  0.37552100  1
  O  O84  1  0.15716600  0.39478600  0.86872500  1
  O  O85  1  0.40804500  0.64454600  0.36843100  1
  O  O86  1  0.65703900  0.89481000  0.86881900  1
  O  O87  1  0.90808800  0.14456200  0.36838000  1
  O  O88  1  0.34283700  0.10522300  0.13130200  1
  O  O89  1  0.59196400  0.35541400  0.63163500  1
  O  O90  1  0.84295500  0.60518400  0.13115600  1
  O  O91  1  0.09190300  0.85547200  0.63155000  1
  O  O92  1  0.59020900  0.32530400  0.97612600  1
  O  O93  1  0.83919800  0.57559700  0.47615300  1
  O  O94  1  0.08998300  0.82525900  0.97631500  1
  O  O95  1  0.33920900  0.07563200  0.47619500  1
  O  O96  1  0.90980000  0.17468800  0.02388600  1
  O  O97  1  0.16084000  0.42436700  0.52376500  1
  O  O98  1  0.41000400  0.67474600  0.02368200  1
  O  O99  1  0.66074900  0.92440900  0.52389000  1
  O  O100  1  0.50892400  0.42979600  0.07784700  1
  O  O101  1  0.75943600  0.68029400  0.57708400  1
  O  O102  1  0.00880900  0.92979000  0.07793100  1
  O  O103  1  0.25945100  0.18030700  0.57715300  1
  O  O104  1  0.99105700  0.07020600  0.92214800  1
  O  O105  1  0.24057700  0.31969100  0.42283600  1
  O  O106  1  0.49120500  0.57020400  0.92206700  1
  O  O107  1  0.74053000  0.81971200  0.42292000  1
  O  O108  1  0.42712800  0.16962500  0.32957300  1
  O  O109  1  0.67716500  0.41939400  0.83037400  1
  O  O110  1  0.92719400  0.66958300  0.32950500  1
  O  O111  1  0.17709900  0.91933000  0.83052100  1
  O  O112  1  0.07287400  0.33037800  0.67041100  1
  O  O113  1  0.32290900  0.58067200  0.16948900  1
  O  O114  1  0.57281200  0.83041500  0.67051300  1
  O  O115  1  0.82283100  0.08059800  0.16961000  1
  O  O116  1  0.70404400  0.25574300  0.21941700  1
  O  O117  1  0.95076000  0.50518200  0.71810800  1
  O  O118  1  0.20411700  0.75570900  0.21968900  1
  O  O119  1  0.45074400  0.00523700  0.71819100  1
  O  O120  1  0.79599000  0.24424700  0.78058400  1
  O  O121  1  0.04923000  0.49477200  0.28182400  1
  O  O122  1  0.29587100  0.74430200  0.78031400  1
  O  O123  1  0.54926200  0.99481500  0.28188500  1
