# generated using pymatgen
data_Ce2Te5
_symmetry_space_group_name_H-M   'P 1'
_cell_length_a   21.81827759
_cell_length_b   21.81827759
_cell_length_c   4.41749300
_cell_angle_alpha   90.00000000
_cell_angle_beta   90.00000000
_cell_angle_gamma   168.37998324
_symmetry_Int_Tables_number   1
_chemical_formula_structural   Ce2Te5
_chemical_formula_sum   'Ce4 Te10'
_cell_volume   423.56461507
_cell_formula_units_Z   2
loop_
 _symmetry_equiv_pos_site_id
 _symmetry_equiv_pos_as_xyz
  1  'x, y, z'
loop_
 _atom_site_type_symbol
 _atom_site_label
 _atom_site_symmetry_multiplicity
 _atom_site_fract_x
 _atom_site_fract_y
 _atom_site_fract_z
 _atom_site_occupancy
  Ce  Ce0  1  0.90330400  0.09669600  0.75000000  1
  Ce  Ce1  1  0.09669600  0.90330400  0.25000000  1
  Ce  Ce2  1  0.69282400  0.30717600  0.75000000  1
  Ce  Ce3  1  0.30717600  0.69282400  0.25000000  1
  Te  Te4  1  0.04189300  0.95810700  0.75000000  1
  Te  Te5  1  0.95810700  0.04189300  0.25000000  1
  Te  Te6  1  0.45781600  0.54218400  0.75000000  1
  Te  Te7  1  0.54218400  0.45781600  0.25000000  1
  Te  Te8  1  0.24999000  0.75001000  0.75000000  1
  Te  Te9  1  0.75001000  0.24999000  0.25000000  1
  Te  Te10  1  0.82660800  0.17339200  0.75000000  1
  Te  Te11  1  0.17339200  0.82660800  0.25000000  1
  Te  Te12  1  0.61827400  0.38172600  0.75000000  1
  Te  Te13  1  0.38172600  0.61827400  0.25000000  1
