# generated using pymatgen
data_KCo2(PO4)2
_symmetry_space_group_name_H-M   'P 1'
_cell_length_a   9.62724904
_cell_length_b   9.62724904
_cell_length_c   8.93432789
_cell_angle_alpha   83.14139793
_cell_angle_beta   83.14139793
_cell_angle_gamma   89.25574225
_symmetry_Int_Tables_number   1
_chemical_formula_structural   KCo2(PO4)2
_chemical_formula_sum   'K4 Co8 P8 O32'
_cell_volume   816.25878679
_cell_formula_units_Z   4
loop_
 _symmetry_equiv_pos_site_id
 _symmetry_equiv_pos_as_xyz
  1  'x, y, z'
loop_
 _atom_site_type_symbol
 _atom_site_label
 _atom_site_symmetry_multiplicity
 _atom_site_fract_x
 _atom_site_fract_y
 _atom_site_fract_z
 _atom_site_occupancy
  K  K0  1  0.43445100  0.93094300  0.77990000  1
  K  K1  1  0.56554900  0.06905700  0.22010000  1
  K  K2  1  0.06905700  0.56554900  0.72010000  1
  K  K3  1  0.93094300  0.43445100  0.27990000  1
  Co  Co4  1  0.54576500  0.29972300  0.54933900  1
  Co  Co5  1  0.45423500  0.70027700  0.45066100  1
  Co  Co6  1  0.70027700  0.45423500  0.95066100  1
  Co  Co7  1  0.29972300  0.54576500  0.04933900  1
  Co  Co8  1  0.80846000  0.93324100  0.88578500  1
  Co  Co9  1  0.19154000  0.06675900  0.11421500  1
  Co  Co10  1  0.06675900  0.19154000  0.61421500  1
  Co  Co11  1  0.93324100  0.80846000  0.38578500  1
  P  P12  1  0.78521500  0.06396700  0.52693700  1
  P  P13  1  0.21478500  0.93603300  0.47306300  1
  P  P14  1  0.93603300  0.21478500  0.97306300  1
  P  P15  1  0.06396700  0.78521500  0.02693700  1
  P  P16  1  0.42044600  0.28502000  0.91237900  1
  P  P17  1  0.57955400  0.71498000  0.08762100  1
  P  P18  1  0.71498000  0.57955400  0.58762100  1
  P  P19  1  0.28502000  0.42044600  0.41237900  1
  O  O20  1  0.63805200  0.85063100  0.99308800  1
  O  O21  1  0.36194800  0.14936900  0.00691200  1
  O  O22  1  0.14936900  0.36194800  0.50691200  1
  O  O23  1  0.85063100  0.63805200  0.49308800  1
  O  O24  1  0.59266200  0.68624600  0.59045100  1
  O  O25  1  0.40733800  0.31375500  0.40954900  1
  O  O26  1  0.31375400  0.40733800  0.90954900  1
  O  O27  1  0.68624500  0.59266200  0.09045100  1
  O  O28  1  0.76472200  0.97639700  0.68355500  1
  O  O29  1  0.23527800  0.02360300  0.31644500  1
  O  O30  1  0.02360300  0.23527800  0.81644500  1
  O  O31  1  0.97639700  0.76472200  0.18355500  1
  O  O32  1  0.82451400  0.09832900  0.98394400  1
  O  O33  1  0.17548600  0.90167100  0.01605600  1
  O  O34  1  0.90167100  0.17548600  0.51605600  1
  O  O35  1  0.09832900  0.82451400  0.48394500  1
  O  O36  1  0.18152000  0.03155200  0.60116900  1
  O  O37  1  0.81848000  0.96844800  0.39883100  1
  O  O38  1  0.96844800  0.81848000  0.89883100  1
  O  O39  1  0.03155200  0.18152000  0.10116900  1
  O  O40  1  0.35433200  0.86264300  0.50747100  1
  O  O41  1  0.64566800  0.13735700  0.49252900  1
  O  O42  1  0.13735700  0.64566800  0.99252900  1
  O  O43  1  0.86264300  0.35433200  0.00747100  1
  O  O44  1  0.46244600  0.24819900  0.74926900  1
  O  O45  1  0.53755400  0.75180100  0.25073100  1
  O  O46  1  0.75180100  0.53755400  0.75073100  1
  O  O47  1  0.24819900  0.46244600  0.24926900  1
  O  O48  1  0.54950500  0.32657000  0.98758500  1
  O  O49  1  0.45049500  0.67343000  0.01241500  1
  O  O50  1  0.67343000  0.45049500  0.51241500  1
  O  O51  1  0.32657000  0.54950500  0.48758500  1
