# generated using pymatgen
data_LiEuSb
_symmetry_space_group_name_H-M   'P 1'
_cell_length_a   4.80148900
_cell_length_b   7.89574900
_cell_length_c   8.38609500
_cell_angle_alpha   90.00000000
_cell_angle_beta   90.00000000
_cell_angle_gamma   90.00000000
_symmetry_Int_Tables_number   1
_chemical_formula_structural   LiEuSb
_chemical_formula_sum   'Li4 Eu4 Sb4'
_cell_volume   317.92819920
_cell_formula_units_Z   4
loop_
 _symmetry_equiv_pos_site_id
 _symmetry_equiv_pos_as_xyz
  1  'x, y, z'
loop_
 _atom_site_type_symbol
 _atom_site_label
 _atom_site_symmetry_multiplicity
 _atom_site_fract_x
 _atom_site_fract_y
 _atom_site_fract_z
 _atom_site_occupancy
  Li  Li0  1  0.25000000  0.16328100  0.92265800  1
  Li  Li1  1  0.25000000  0.66328100  0.57734200  1
  Li  Li2  1  0.75000000  0.83671900  0.07734200  1
  Li  Li3  1  0.75000000  0.33671900  0.42265800  1
  Eu  Eu4  1  0.25000000  0.00361500  0.29014000  1
  Eu  Eu5  1  0.25000000  0.50361500  0.20986000  1
  Eu  Eu6  1  0.75000000  0.99638500  0.70986000  1
  Eu  Eu7  1  0.75000000  0.49638500  0.79014000  1
  Sb  Sb8  1  0.25000000  0.27491900  0.59282600  1
  Sb  Sb9  1  0.25000000  0.77491900  0.90717400  1
  Sb  Sb10  1  0.75000000  0.72508100  0.40717400  1
  Sb  Sb11  1  0.75000000  0.22508100  0.09282600  1
