# generated using pymatgen
data_TaTi(PO4)3
_symmetry_space_group_name_H-M   'P 1'
_cell_length_a   8.88316544
_cell_length_b   8.88316541
_cell_length_c   8.88316581
_cell_angle_alpha   58.75043929
_cell_angle_beta   58.75044412
_cell_angle_gamma   58.75045219
_symmetry_Int_Tables_number   1
_chemical_formula_structural   TaTi(PO4)3
_chemical_formula_sum   'Ta2 Ti2 P6 O24'
_cell_volume   481.51671407
_cell_formula_units_Z   2
loop_
 _symmetry_equiv_pos_site_id
 _symmetry_equiv_pos_as_xyz
  1  'x, y, z'
loop_
 _atom_site_type_symbol
 _atom_site_label
 _atom_site_symmetry_multiplicity
 _atom_site_fract_x
 _atom_site_fract_y
 _atom_site_fract_z
 _atom_site_occupancy
  Ta  Ta0  1  0.36073200  0.36073200  0.36073200  1
  Ta  Ta1  1  0.86073200  0.86073200  0.86073200  1
  Ti  Ti2  1  0.13981000  0.13981000  0.13981000  1
  Ti  Ti3  1  0.63981000  0.63981000  0.63981000  1
  P  P4  1  0.02953800  0.46522700  0.75327400  1
  P  P5  1  0.46522700  0.75327400  0.02953800  1
  P  P6  1  0.75327400  0.02953800  0.46522700  1
  P  P7  1  0.25327400  0.96522700  0.52953800  1
  P  P8  1  0.52953800  0.25327400  0.96522700  1
  P  P9  1  0.96522700  0.52953800  0.25327400  1
  O  O10  1  0.13688600  0.50212700  0.28217100  1
  O  O11  1  0.28217100  0.13688600  0.50212700  1
  O  O12  1  0.06153400  0.28757300  0.92233100  1
  O  O13  1  0.50212700  0.28217100  0.13688600  1
  O  O14  1  0.00212700  0.63688700  0.78217100  1
  O  O15  1  0.21127800  0.44186400  0.57910600  1
  O  O16  1  0.28757300  0.92233100  0.06153400  1
  O  O17  1  0.44186400  0.57910600  0.21127800  1
  O  O18  1  0.21505800  0.99907000  0.36416200  1
  O  O19  1  0.57910600  0.21127800  0.44186400  1
  O  O20  1  0.07910600  0.94186400  0.71127800  1
  O  O21  1  0.36416200  0.21505800  0.99907000  1
  O  O22  1  0.63688700  0.78217100  0.00212700  1
  O  O23  1  0.92233100  0.06153400  0.28757300  1
  O  O24  1  0.42233100  0.78757300  0.56153400  1
  O  O25  1  0.78217100  0.00212700  0.63688700  1
  O  O26  1  0.56153400  0.42233100  0.78757300  1
  O  O27  1  0.71127800  0.07910600  0.94186400  1
  O  O28  1  0.78757300  0.56153400  0.42233100  1
  O  O29  1  0.99907000  0.36416200  0.21505800  1
  O  O30  1  0.49907000  0.71505800  0.86416200  1
  O  O31  1  0.94186400  0.71127800  0.07910600  1
  O  O32  1  0.71505800  0.86416200  0.49907000  1
  O  O33  1  0.86416200  0.49907000  0.71505800  1
