# generated using pymatgen
data_Tb4Ni13C4
_symmetry_space_group_name_H-M   'P 1'
_cell_length_a   8.40490611
_cell_length_b   8.40490681
_cell_length_c   3.88171100
_cell_angle_alpha   90.00000000
_cell_angle_beta   90.00000000
_cell_angle_gamma   91.28746857
_symmetry_Int_Tables_number   1
_chemical_formula_structural   Tb4Ni13C4
_chemical_formula_sum   'Tb4 Ni13 C4'
_cell_volume   274.14435947
_cell_formula_units_Z   1
loop_
 _symmetry_equiv_pos_site_id
 _symmetry_equiv_pos_as_xyz
  1  'x, y, z'
loop_
 _atom_site_type_symbol
 _atom_site_label
 _atom_site_symmetry_multiplicity
 _atom_site_fract_x
 _atom_site_fract_y
 _atom_site_fract_z
 _atom_site_occupancy
  Tb  Tb0  1  0.81336100  0.18663900  0.50000000  1
  Tb  Tb1  1  0.18663900  0.81336100  0.50000000  1
  Tb  Tb2  1  0.65138300  0.65138300  0.50000000  1
  Tb  Tb3  1  0.34861700  0.34861700  0.50000000  1
  Ni  Ni4  1  0.50000000  0.00000000  0.50000000  1
  Ni  Ni5  1  0.00000000  0.50000000  0.50000000  1
  Ni  Ni6  1  0.00000000  0.00000000  0.00000000  1
  Ni  Ni7  1  0.43081600  0.78420500  0.00000000  1
  Ni  Ni8  1  0.56918400  0.21579500  0.00000000  1
  Ni  Ni9  1  0.21579500  0.56918400  0.00000000  1
  Ni  Ni10  1  0.78420500  0.43081600  0.00000000  1
  Ni  Ni11  1  0.70796900  0.92541600  0.00000000  1
  Ni  Ni12  1  0.29203100  0.07458400  0.00000000  1
  Ni  Ni13  1  0.07458400  0.29203100  0.00000000  1
  Ni  Ni14  1  0.92541600  0.70796900  0.00000000  1
  Ni  Ni15  1  0.87590300  0.87590300  0.50000000  1
  Ni  Ni16  1  0.12409700  0.12409700  0.50000000  1
  C  C17  1  0.44332000  0.55668000  0.00000000  1
  C  C18  1  0.55668000  0.44332000  0.00000000  1
  C  C19  1  0.50000000  0.00000000  0.00000000  1
  C  C20  1  0.00000000  0.50000000  0.00000000  1
