# generated using pymatgen
data_Tm2Si9B36C
_symmetry_space_group_name_H-M   'P 1'
_cell_length_a   8.02956471
_cell_length_b   8.02956471
_cell_length_c   7.99483830
_cell_angle_alpha   78.04090195
_cell_angle_beta   78.04090195
_cell_angle_gamma   78.01307905
_symmetry_Int_Tables_number   1
_chemical_formula_structural   Tm2Si9B36C
_chemical_formula_sum   'Tm2 Si9 B36 C1'
_cell_volume   485.96171467
_cell_formula_units_Z   1
loop_
 _symmetry_equiv_pos_site_id
 _symmetry_equiv_pos_as_xyz
  1  'x, y, z'
loop_
 _atom_site_type_symbol
 _atom_site_label
 _atom_site_symmetry_multiplicity
 _atom_site_fract_x
 _atom_site_fract_y
 _atom_site_fract_z
 _atom_site_occupancy
  Tm  Tm0  1  0.49974800  0.99982900  0.49966900  1
  Tm  Tm1  1  0.99982900  0.49974800  0.49966900  1
  Si  Si2  1  0.34430100  0.73379800  0.74531700  1
  Si  Si3  1  0.73741600  0.73741600  0.33856400  1
  Si  Si4  1  0.73379800  0.34430100  0.74531700  1
  Si  Si5  1  0.65442500  0.26614400  0.25485700  1
  Si  Si6  1  0.26286500  0.26286500  0.65974400  1
  Si  Si7  1  0.26614400  0.65442500  0.25485700  1
  Si  Si8  1  0.57168400  0.57168400  0.57300000  1
  Si  Si9  1  0.42973700  0.42973700  0.42807000  1
  Si  Si10  1  0.95536300  0.95536300  0.95725500  1
  B  B11  1  0.79864300  0.62591300  0.98087000  1
  B  B12  1  0.62536500  0.98122300  0.80285700  1
  B  B13  1  0.98220200  0.80195000  0.62592000  1
  B  B14  1  0.80195000  0.98220200  0.62592000  1
  B  B15  1  0.98122300  0.62536500  0.80285700  1
  B  B16  1  0.62591300  0.79864300  0.98087000  1
  B  B17  1  0.20419600  0.37181500  0.02232500  1
  B  B18  1  0.37201100  0.02176700  0.20055100  1
  B  B19  1  0.02080100  0.20132100  0.37171700  1
  B  B20  1  0.20132100  0.02080100  0.37171700  1
  B  B21  1  0.02176700  0.37201100  0.20055100  1
  B  B22  1  0.37181500  0.20419600  0.02232500  1
  B  B23  1  0.99397400  0.70347300  0.99416800  1
  B  B24  1  0.70347300  0.99397400  0.99416800  1
  B  B25  1  0.99438900  0.99438900  0.70491900  1
  B  B26  1  0.01799000  0.27685100  0.01766200  1
  B  B27  1  0.27685100  0.01799000  0.01766200  1
  B  B28  1  0.01773600  0.01773600  0.27491000  1
  B  B29  1  0.89281800  0.57907900  0.17653800  1
  B  B30  1  0.58011100  0.17988800  0.89342700  1
  B  B31  1  0.18070500  0.89097700  0.58117800  1
  B  B32  1  0.89097700  0.18070500  0.58117800  1
  B  B33  1  0.17988800  0.58011100  0.89342700  1
  B  B34  1  0.57907900  0.89281800  0.17653800  1
  B  B35  1  0.10823700  0.41251900  0.82799600  1
  B  B36  1  0.41157900  0.82470500  0.10757700  1
  B  B37  1  0.82353100  0.11010200  0.41068800  1
  B  B38  1  0.11010200  0.82353100  0.41068800  1
  B  B39  1  0.82470500  0.41157900  0.10757700  1
  B  B40  1  0.41251900  0.10823700  0.82799600  1
  B  B41  1  0.12600300  0.55430500  0.12583100  1
  B  B42  1  0.55430500  0.12600300  0.12583100  1
  B  B43  1  0.12569800  0.12569800  0.55517500  1
  B  B44  1  0.87772100  0.43733500  0.87780400  1
  B  B45  1  0.43733500  0.87772100  0.87780400  1
  B  B46  1  0.87814000  0.87814000  0.43625800  1
  C  C47  1  0.06778000  0.06778000  0.06646300  1
