# generated using pymatgen
data_Sm3Ru
_symmetry_space_group_name_H-M   'P 1'
_cell_length_a   6.45712800
_cell_length_b   7.39387200
_cell_length_c   9.48380200
_cell_angle_alpha   90.00000000
_cell_angle_beta   90.00000000
_cell_angle_gamma   90.00000000
_symmetry_Int_Tables_number   1
_chemical_formula_structural   Sm3Ru
_chemical_formula_sum   'Sm12 Ru4'
_cell_volume   452.78684624
_cell_formula_units_Z   4
loop_
 _symmetry_equiv_pos_site_id
 _symmetry_equiv_pos_as_xyz
  1  'x, y, z'
loop_
 _atom_site_type_symbol
 _atom_site_label
 _atom_site_symmetry_multiplicity
 _atom_site_fract_x
 _atom_site_fract_y
 _atom_site_fract_z
 _atom_site_occupancy
  Sm  Sm0  1  0.32817900  0.67688200  0.06706100  1
  Sm  Sm1  1  0.17182100  0.17688200  0.43293900  1
  Sm  Sm2  1  0.67182100  0.32311800  0.56706100  1
  Sm  Sm3  1  0.82817900  0.82311800  0.93293900  1
  Sm  Sm4  1  0.67182100  0.32311800  0.93293900  1
  Sm  Sm5  1  0.82817900  0.82311800  0.56706100  1
  Sm  Sm6  1  0.32817900  0.67688200  0.43293900  1
  Sm  Sm7  1  0.17182100  0.17688200  0.06706100  1
  Sm  Sm8  1  0.86093100  0.54107700  0.25000000  1
  Sm  Sm9  1  0.63906900  0.04107700  0.25000000  1
  Sm  Sm10  1  0.13906900  0.45892300  0.75000000  1
  Sm  Sm11  1  0.36093100  0.95892300  0.75000000  1
  Ru  Ru12  1  0.04603000  0.88545700  0.25000000  1
  Ru  Ru13  1  0.45397000  0.38545700  0.25000000  1
  Ru  Ru14  1  0.95397000  0.11454300  0.75000000  1
  Ru  Ru15  1  0.54603000  0.61454300  0.75000000  1
