# generated using pymatgen
data_Li2Th(AsO4)2
_symmetry_space_group_name_H-M   'P 1'
_cell_length_a   14.04225900
_cell_length_b   5.69576200
_cell_length_c   9.23358028
_cell_angle_alpha   73.78410853
_cell_angle_beta   90.00000000
_cell_angle_gamma   90.00000000
_symmetry_Int_Tables_number   1
_chemical_formula_structural   Li2Th(AsO4)2
_chemical_formula_sum   'Li8 Th4 As8 O32'
_cell_volume   709.13349956
_cell_formula_units_Z   4
loop_
 _symmetry_equiv_pos_site_id
 _symmetry_equiv_pos_as_xyz
  1  'x, y, z'
loop_
 _atom_site_type_symbol
 _atom_site_label
 _atom_site_symmetry_multiplicity
 _atom_site_fract_x
 _atom_site_fract_y
 _atom_site_fract_z
 _atom_site_occupancy
  Li  Li0  1  0.25062600  0.08550600  0.10382500  1
  Li  Li1  1  0.75062600  0.41449400  0.89617500  1
  Li  Li2  1  0.74937400  0.91449400  0.89617500  1
  Li  Li3  1  0.24937400  0.58550600  0.10382500  1
  Li  Li4  1  0.43567800  0.78993500  0.22764200  1
  Li  Li5  1  0.93567800  0.71006500  0.77235800  1
  Li  Li6  1  0.56432200  0.21006500  0.77235800  1
  Li  Li7  1  0.06432200  0.28993500  0.22764200  1
  Th  Th8  1  0.36429700  0.56618100  0.61907100  1
  Th  Th9  1  0.86429700  0.93381900  0.38092900  1
  Th  Th10  1  0.63570300  0.43381900  0.38092900  1
  Th  Th11  1  0.13570300  0.06618100  0.61907100  1
  As  As12  1  0.37387000  0.90583000  0.85381900  1
  As  As13  1  0.87387000  0.59417000  0.14618100  1
  As  As14  1  0.62613000  0.09417000  0.14618100  1
  As  As15  1  0.12613000  0.40583000  0.85381900  1
  As  As16  1  0.36723000  0.22786300  0.36983200  1
  As  As17  1  0.86723000  0.27213700  0.63016800  1
  As  As18  1  0.63277000  0.77213700  0.63016800  1
  As  As19  1  0.13277000  0.72786300  0.36983200  1
  O  O20  1  0.28452300  0.27604200  0.50072900  1
  O  O21  1  0.78452300  0.22395800  0.49927100  1
  O  O22  1  0.71547700  0.72395800  0.49927100  1
  O  O23  1  0.21547700  0.77604200  0.50072900  1
  O  O24  1  0.42434300  0.18883000  0.77651600  1
  O  O25  1  0.92434300  0.31117000  0.22348400  1
  O  O26  1  0.57565700  0.81117000  0.22348400  1
  O  O27  1  0.07565700  0.68883000  0.77651600  1
  O  O28  1  0.27290200  0.85410400  0.75653100  1
  O  O29  1  0.77290200  0.64589600  0.24346900  1
  O  O30  1  0.72709800  0.14589600  0.24346900  1
  O  O31  1  0.22709800  0.35410400  0.75653100  1
  O  O32  1  0.31968100  0.29562800  0.19584300  1
  O  O33  1  0.81968100  0.20437200  0.80415700  1
  O  O34  1  0.68031900  0.70437200  0.80415700  1
  O  O35  1  0.18031900  0.79562800  0.19584300  1
  O  O36  1  0.44475000  0.68976400  0.81078400  1
  O  O37  1  0.94475000  0.81023600  0.18921600  1
  O  O38  1  0.55525000  0.31023600  0.18921600  1
  O  O39  1  0.05525000  0.18976400  0.81078400  1
  O  O40  1  0.44571000  0.45264500  0.39354000  1
  O  O41  1  0.94571000  0.04735500  0.60646000  1
  O  O42  1  0.55429000  0.54735500  0.60646000  1
  O  O43  1  0.05429000  0.95264500  0.39354000  1
  O  O44  1  0.40791000  0.93170200  0.42139600  1
  O  O45  1  0.90791000  0.56829800  0.57860400  1
  O  O46  1  0.59209000  0.06829800  0.57860400  1
  O  O47  1  0.09209000  0.43170200  0.42139600  1
  O  O48  1  0.34768300  0.86090500  0.03980700  1
  O  O49  1  0.84768300  0.63909500  0.96019300  1
  O  O50  1  0.65231700  0.13909500  0.96019300  1
  O  O51  1  0.15231700  0.36090500  0.03980700  1
