# generated using pymatgen
data_CaZnPd
_symmetry_space_group_name_H-M   'P 1'
_cell_length_a   4.49067500
_cell_length_b   7.16368800
_cell_length_c   7.69619800
_cell_angle_alpha   90.00000000
_cell_angle_beta   90.00000000
_cell_angle_gamma   90.00000000
_symmetry_Int_Tables_number   1
_chemical_formula_structural   CaZnPd
_chemical_formula_sum   'Ca4 Zn4 Pd4'
_cell_volume   247.58510893
_cell_formula_units_Z   4
loop_
 _symmetry_equiv_pos_site_id
 _symmetry_equiv_pos_as_xyz
  1  'x, y, z'
loop_
 _atom_site_type_symbol
 _atom_site_label
 _atom_site_symmetry_multiplicity
 _atom_site_fract_x
 _atom_site_fract_y
 _atom_site_fract_z
 _atom_site_occupancy
  Ca  Ca0  1  0.25000000  0.51149300  0.19264800  1
  Ca  Ca1  1  0.75000000  0.48850700  0.80735200  1
  Ca  Ca2  1  0.75000000  0.98850700  0.69264800  1
  Ca  Ca3  1  0.25000000  0.01149300  0.30735200  1
  Zn  Zn4  1  0.25000000  0.66581200  0.57602100  1
  Zn  Zn5  1  0.75000000  0.33418800  0.42397900  1
  Zn  Zn6  1  0.75000000  0.83418800  0.07602100  1
  Zn  Zn7  1  0.25000000  0.16581200  0.92397900  1
  Pd  Pd8  1  0.25000000  0.79259500  0.89785500  1
  Pd  Pd9  1  0.75000000  0.20740500  0.10214500  1
  Pd  Pd10  1  0.75000000  0.70740500  0.39785500  1
  Pd  Pd11  1  0.25000000  0.29259500  0.60214500  1
