# generated using pymatgen
data_U2RhC2
_symmetry_space_group_name_H-M   'P 1'
_cell_length_a   6.75012866
_cell_length_b   6.75012866
_cell_length_c   6.75012866
_cell_angle_alpha   150.34192462
_cell_angle_beta   150.34192462
_cell_angle_gamma   42.43972562
_symmetry_Int_Tables_number   1
_chemical_formula_structural   U2RhC2
_chemical_formula_sum   'U2 Rh1 C2'
_cell_volume   75.12184986
_cell_formula_units_Z   1
loop_
 _symmetry_equiv_pos_site_id
 _symmetry_equiv_pos_as_xyz
  1  'x, y, z'
loop_
 _atom_site_type_symbol
 _atom_site_label
 _atom_site_symmetry_multiplicity
 _atom_site_fract_x
 _atom_site_fract_y
 _atom_site_fract_z
 _atom_site_occupancy
  U  U0  1  0.64616100  0.64616100  0.00000000  1
  U  U1  1  0.35383900  0.35383900  0.00000000  1
  Rh  Rh2  1  0.00000000  0.00000000  0.00000000  1
  C  C3  1  0.82906300  0.82906300  0.00000000  1
  C  C4  1  0.17093700  0.17093700  0.00000000  1
