# generated using pymatgen
data_SbXeF7
_symmetry_space_group_name_H-M   'P 1'
_cell_length_a   11.23319700
_cell_length_b   5.60594300
_cell_length_c   11.45041465
_cell_angle_alpha   85.56126880
_cell_angle_beta   90.00000000
_cell_angle_gamma   90.00000000
_symmetry_Int_Tables_number   1
_chemical_formula_structural   SbXeF7
_chemical_formula_sum   'Sb4 Xe4 F28'
_cell_volume   718.90038148
_cell_formula_units_Z   4
loop_
 _symmetry_equiv_pos_site_id
 _symmetry_equiv_pos_as_xyz
  1  'x, y, z'
loop_
 _atom_site_type_symbol
 _atom_site_label
 _atom_site_symmetry_multiplicity
 _atom_site_fract_x
 _atom_site_fract_y
 _atom_site_fract_z
 _atom_site_occupancy
  Sb  Sb0  1  0.48872300  0.90305300  0.77107100  1
  Sb  Sb1  1  0.98872300  0.09694700  0.72892900  1
  Sb  Sb2  1  0.51127700  0.09694700  0.22892900  1
  Sb  Sb3  1  0.01127700  0.90305300  0.27107100  1
  Xe  Xe4  1  0.73179100  0.53477400  0.97292600  1
  Xe  Xe5  1  0.23179100  0.46522600  0.52707400  1
  Xe  Xe6  1  0.26820900  0.46522600  0.02707400  1
  Xe  Xe7  1  0.76820900  0.53477400  0.47292600  1
  F  F8  1  0.88075800  0.36778000  0.02635000  1
  F  F9  1  0.38075800  0.63222000  0.47365000  1
  F  F10  1  0.11924200  0.63222000  0.97365000  1
  F  F11  1  0.61924200  0.36778000  0.52635000  1
  F  F12  1  0.42220800  0.07531400  0.63734100  1
  F  F13  1  0.92220800  0.92468600  0.86265900  1
  F  F14  1  0.57779200  0.92468600  0.36265900  1
  F  F15  1  0.07779200  0.07531400  0.13734100  1
  F  F16  1  0.36962600  0.00184200  0.87599500  1
  F  F17  1  0.86962600  0.99815800  0.62400500  1
  F  F18  1  0.63037400  0.99815800  0.12400500  1
  F  F19  1  0.13037400  0.00184200  0.37599500  1
  F  F20  1  0.55606000  0.71098400  0.91776700  1
  F  F21  1  0.05606000  0.28901600  0.58223300  1
  F  F22  1  0.44394000  0.28901600  0.08223300  1
  F  F23  1  0.94394000  0.71098400  0.41776700  1
  F  F24  1  0.61779300  0.77321400  0.68878200  1
  F  F25  1  0.11779300  0.22678600  0.81121800  1
  F  F26  1  0.38220700  0.22678600  0.31121800  1
  F  F27  1  0.88220700  0.77321400  0.18878200  1
  F  F28  1  0.39543000  0.62445700  0.75027300  1
  F  F29  1  0.89543000  0.37554300  0.74972700  1
  F  F30  1  0.60457000  0.37554300  0.24972700  1
  F  F31  1  0.10457000  0.62445700  0.25027300  1
  F  F32  1  0.58733100  0.15963100  0.81255700  1
  F  F33  1  0.08733100  0.84036900  0.68744300  1
  F  F34  1  0.41266900  0.84036900  0.18744300  1
  F  F35  1  0.91266900  0.15963100  0.31255700  1
