# generated using pymatgen
data_Ti4Mn(PO4)6
_symmetry_space_group_name_H-M   'P 1'
_cell_length_a   8.68685012
_cell_length_b   8.68685012
_cell_length_c   8.68685075
_cell_angle_alpha   59.71699504
_cell_angle_beta   59.71699504
_cell_angle_gamma   59.71699021
_symmetry_Int_Tables_number   1
_chemical_formula_structural   Ti4Mn(PO4)6
_chemical_formula_sum   'Ti4 Mn1 P6 O24'
_cell_volume   460.54434498
_cell_formula_units_Z   1
loop_
 _symmetry_equiv_pos_site_id
 _symmetry_equiv_pos_as_xyz
  1  'x, y, z'
loop_
 _atom_site_type_symbol
 _atom_site_label
 _atom_site_symmetry_multiplicity
 _atom_site_fract_x
 _atom_site_fract_y
 _atom_site_fract_z
 _atom_site_occupancy
  Ti  Ti0  1  0.85238600  0.85238600  0.85238600  1
  Ti  Ti1  1  0.14761400  0.14761400  0.14761400  1
  Ti  Ti2  1  0.63437700  0.63437700  0.63437700  1
  Ti  Ti3  1  0.36562300  0.36562300  0.36562300  1
  Mn  Mn4  1  0.00000000  0.00000000  0.00000000  1
  P  P5  1  0.02880200  0.75440800  0.45601400  1
  P  P6  1  0.45601400  0.02880200  0.75440800  1
  P  P7  1  0.75440800  0.45601400  0.02880200  1
  P  P8  1  0.97119800  0.24559200  0.54398600  1
  P  P9  1  0.54398600  0.97119800  0.24559200  1
  P  P10  1  0.24559200  0.54398600  0.97119800  1
  O  O11  1  0.49217700  0.86022100  0.71369900  1
  O  O12  1  0.71369900  0.49217700  0.86022100  1
  O  O13  1  0.86022100  0.71369900  0.49217700  1
  O  O14  1  0.50782300  0.13977900  0.28630100  1
  O  O15  1  0.28630100  0.50782300  0.13977900  1
  O  O16  1  0.13977900  0.28630100  0.50782300  1
  O  O17  1  0.99065100  0.81194100  0.61872500  1
  O  O18  1  0.61872500  0.99065100  0.81194100  1
  O  O19  1  0.81194100  0.61872500  0.99065100  1
  O  O20  1  0.00934900  0.18805900  0.38127500  1
  O  O21  1  0.38127500  0.00934900  0.18805900  1
  O  O22  1  0.18805900  0.38127500  0.00934900  1
  O  O23  1  0.55455500  0.78738700  0.41598600  1
  O  O24  1  0.41598600  0.55455500  0.78738700  1
  O  O25  1  0.78738700  0.41598600  0.55455500  1
  O  O26  1  0.44544500  0.21261300  0.58401400  1
  O  O27  1  0.58401400  0.44544500  0.21261300  1
  O  O28  1  0.21261300  0.58401400  0.44544500  1
  O  O29  1  0.94344500  0.07978500  0.73552900  1
  O  O30  1  0.73552900  0.94344500  0.07978500  1
  O  O31  1  0.07978500  0.73552900  0.94344500  1
  O  O32  1  0.05655500  0.92021500  0.26447100  1
  O  O33  1  0.26447100  0.05655500  0.92021500  1
  O  O34  1  0.92021500  0.26447100  0.05655500  1
