# generated using pymatgen
data_LiLa2FeO6
_symmetry_space_group_name_H-M   'P 1'
_cell_length_a   5.43626149
_cell_length_b   7.75802389
_cell_length_c   5.53919967
_cell_angle_alpha   89.98263447
_cell_angle_beta   89.98942869
_cell_angle_gamma   91.58201302
_symmetry_Int_Tables_number   1
_chemical_formula_structural   LiLa2FeO6
_chemical_formula_sum   'Li2 La4 Fe2 O12'
_cell_volume   233.52472688
_cell_formula_units_Z   2
loop_
 _symmetry_equiv_pos_site_id
 _symmetry_equiv_pos_as_xyz
  1  'x, y, z'
loop_
 _atom_site_type_symbol
 _atom_site_label
 _atom_site_symmetry_multiplicity
 _atom_site_fract_x
 _atom_site_fract_y
 _atom_site_fract_z
 _atom_site_occupancy
  Li  Li0  1  0.00000000  0.50000000  0.00000000  1
  Li  Li1  1  0.50000000  0.00000000  0.50000000  1
  La  La2  1  0.49910100  0.74967700  0.00000700  1
  La  La3  1  0.99910100  0.24967700  0.50000600  1
  La  La4  1  0.50089700  0.25032300  0.99999300  1
  La  La5  1  0.00089900  0.75032300  0.49999400  1
  Fe  Fe6  1  0.50000100  0.50000100  0.50000000  1
  Fe  Fe7  1  0.00000100  0.00000200  0.00000000  1
  O  O8  1  0.77120400  0.47223600  0.70619900  1
  O  O9  1  0.27121800  0.97223300  0.20619700  1
  O  O10  1  0.00440000  0.23886900  0.05999500  1
  O  O11  1  0.50439600  0.73886600  0.55999200  1
  O  O12  1  0.71062600  0.53211800  0.23320500  1
  O  O13  1  0.21062700  0.03211900  0.73319600  1
  O  O14  1  0.22879500  0.52776600  0.29380200  1
  O  O15  1  0.72878200  0.02776600  0.79380200  1
  O  O16  1  0.99560100  0.76112800  0.94000400  1
  O  O17  1  0.49560400  0.26113400  0.44000800  1
  O  O18  1  0.28937400  0.46788400  0.76679400  1
  O  O19  1  0.78937200  0.96788000  0.26680400  1
