# generated using pymatgen
data_Sm3VGeO9
_symmetry_space_group_name_H-M   'P 1'
_cell_length_a   7.04894650
_cell_length_b   9.33381300
_cell_length_c   12.45844700
_cell_angle_alpha   90.00000000
_cell_angle_beta   90.00000000
_cell_angle_gamma   107.79571606
_symmetry_Int_Tables_number   1
_chemical_formula_structural   Sm3VGeO9
_chemical_formula_sum   'Sm12 V4 Ge4 O36'
_cell_volume   780.46532937
_cell_formula_units_Z   4
loop_
 _symmetry_equiv_pos_site_id
 _symmetry_equiv_pos_as_xyz
  1  'x, y, z'
loop_
 _atom_site_type_symbol
 _atom_site_label
 _atom_site_symmetry_multiplicity
 _atom_site_fract_x
 _atom_site_fract_y
 _atom_site_fract_z
 _atom_site_occupancy
  Sm  Sm0  1  0.67129200  0.62008300  0.36834200  1
  Sm  Sm1  1  0.32870800  0.37991700  0.63165800  1
  Sm  Sm2  1  0.82870800  0.87991700  0.86834200  1
  Sm  Sm3  1  0.17129200  0.12008300  0.13165800  1
  Sm  Sm4  1  0.24077300  0.84175000  0.36373400  1
  Sm  Sm5  1  0.75922700  0.15825000  0.63626600  1
  Sm  Sm6  1  0.25922700  0.65825000  0.86373400  1
  Sm  Sm7  1  0.74077300  0.34175000  0.13626600  1
  Sm  Sm8  1  0.50399400  0.87300500  0.10607800  1
  Sm  Sm9  1  0.49600600  0.12699500  0.89392200  1
  Sm  Sm10  1  0.99600600  0.62699500  0.60607800  1
  Sm  Sm11  1  0.00399400  0.37300500  0.39392200  1
  V  V12  1  0.19779000  0.98018500  0.66240400  1
  V  V13  1  0.80221000  0.01981500  0.33759600  1
  V  V14  1  0.30221000  0.51981500  0.16240400  1
  V  V15  1  0.69779000  0.48018500  0.83759600  1
  Ge  Ge16  1  0.94695800  0.75604100  0.10035000  1
  Ge  Ge17  1  0.05304200  0.24395900  0.89965000  1
  Ge  Ge18  1  0.55304200  0.74395900  0.60035000  1
  Ge  Ge19  1  0.44695800  0.25604100  0.39965000  1
  O  O20  1  0.89654100  0.86776300  0.34097000  1
  O  O21  1  0.10345900  0.13223700  0.65903000  1
  O  O22  1  0.60345900  0.63223700  0.84097000  1
  O  O23  1  0.39654100  0.36776300  0.15903000  1
  O  O24  1  0.65882100  0.59195900  0.57504200  1
  O  O25  1  0.34117900  0.40804100  0.42495800  1
  O  O26  1  0.84117900  0.90804100  0.07504200  1
  O  O27  1  0.15882100  0.09195900  0.92495800  1
  O  O28  1  0.17026600  0.88049800  0.54217600  1
  O  O29  1  0.82973400  0.11950200  0.45782400  1
  O  O30  1  0.32973400  0.61950200  0.04217600  1
  O  O31  1  0.67026600  0.38049800  0.95782400  1
  O  O32  1  0.78304000  0.60855400  0.17248900  1
  O  O33  1  0.21696000  0.39144600  0.82751100  1
  O  O34  1  0.71696000  0.89144600  0.67248900  1
  O  O35  1  0.28304000  0.10855400  0.32751100  1
  O  O36  1  0.07458900  0.83438100  0.75072100  1
  O  O37  1  0.92541100  0.16561900  0.24927900  1
  O  O38  1  0.42541100  0.66561900  0.25072100  1
  O  O39  1  0.57458900  0.33438100  0.74927900  1
  O  O40  1  0.99705700  0.61517000  0.41975200  1
  O  O41  1  0.00294300  0.38483000  0.58024800  1
  O  O42  1  0.50294300  0.88483000  0.91975200  1
  O  O43  1  0.49705700  0.11517000  0.08024800  1
  O  O44  1  0.17351300  0.85913100  0.16904800  1
  O  O45  1  0.82648700  0.14086900  0.83095200  1
  O  O46  1  0.32648700  0.64086900  0.66904800  1
  O  O47  1  0.67351300  0.35913100  0.33095200  1
  O  O48  1  0.56408300  0.96378100  0.28761000  1
  O  O49  1  0.43591700  0.03621900  0.71239000  1
  O  O50  1  0.93591700  0.53621900  0.78761000  1
  O  O51  1  0.06408300  0.46378100  0.21239000  1
  O  O52  1  0.49941100  0.77732900  0.46544400  1
  O  O53  1  0.50058900  0.22267100  0.53455600  1
  O  O54  1  0.00058900  0.72267100  0.96544400  1
  O  O55  1  0.99941100  0.27732900  0.03455600  1
