# generated using pymatgen
data_NaNd2Se3
_symmetry_space_group_name_H-M   'P 1'
_cell_length_a   7.37708686
_cell_length_b   7.37708686
_cell_length_c   7.37708686
_cell_angle_alpha   146.69392830
_cell_angle_beta   132.05619959
_cell_angle_gamma   59.62825320
_symmetry_Int_Tables_number   1
_chemical_formula_structural   NaNd2Se3
_chemical_formula_sum   'Na1 Nd2 Se3'
_cell_volume   162.22921689
_cell_formula_units_Z   1
loop_
 _symmetry_equiv_pos_site_id
 _symmetry_equiv_pos_as_xyz
  1  'x, y, z'
loop_
 _atom_site_type_symbol
 _atom_site_label
 _atom_site_symmetry_multiplicity
 _atom_site_fract_x
 _atom_site_fract_y
 _atom_site_fract_z
 _atom_site_occupancy
  Na  Na0  1  0.00000000  0.00000000  0.00000000  1
  Nd  Nd1  1  0.66404900  0.66404900  0.00000000  1
  Nd  Nd2  1  0.33595100  0.33595100  0.00000000  1
  Se  Se3  1  0.83301800  0.33301800  0.50000000  1
  Se  Se4  1  0.50000000  0.00000000  0.50000000  1
  Se  Se5  1  0.16698200  0.66698200  0.50000000  1
