# generated using pymatgen
data_Cs3ScF6
_symmetry_space_group_name_H-M   'P 1'
_cell_length_a   6.80811100
_cell_length_b   6.80811100
_cell_length_c   9.92629100
_cell_angle_alpha   90.00000000
_cell_angle_beta   90.00000000
_cell_angle_gamma   90.00000000
_symmetry_Int_Tables_number   1
_chemical_formula_structural   Cs3ScF6
_chemical_formula_sum   'Cs6 Sc2 F12'
_cell_volume   460.08731406
_cell_formula_units_Z   2
loop_
 _symmetry_equiv_pos_site_id
 _symmetry_equiv_pos_as_xyz
  1  'x, y, z'
loop_
 _atom_site_type_symbol
 _atom_site_label
 _atom_site_symmetry_multiplicity
 _atom_site_fract_x
 _atom_site_fract_y
 _atom_site_fract_z
 _atom_site_occupancy
  Cs  Cs0  1  0.00000000  0.50000000  0.25000000  1
  Cs  Cs1  1  0.00000000  0.50000000  0.75000000  1
  Cs  Cs2  1  0.50000000  0.00000000  0.25000000  1
  Cs  Cs3  1  0.50000000  0.00000000  0.75000000  1
  Cs  Cs4  1  0.00000000  0.00000000  0.50000000  1
  Cs  Cs5  1  0.50000000  0.50000000  0.00000000  1
  Sc  Sc6  1  0.00000000  0.00000000  0.00000000  1
  Sc  Sc7  1  0.50000000  0.50000000  0.50000000  1
  F  F8  1  0.13770900  0.26702700  0.00000000  1
  F  F9  1  0.86229100  0.73297300  0.00000000  1
  F  F10  1  0.73297300  0.13770900  0.00000000  1
  F  F11  1  0.36229100  0.76702700  0.50000000  1
  F  F12  1  0.26702700  0.86229100  0.00000000  1
  F  F13  1  0.63770900  0.23297300  0.50000000  1
  F  F14  1  0.76702700  0.63770900  0.50000000  1
  F  F15  1  0.23297300  0.36229100  0.50000000  1
  F  F16  1  0.00000000  0.00000000  0.20644800  1
  F  F17  1  0.00000000  0.00000000  0.79355200  1
  F  F18  1  0.50000000  0.50000000  0.29355200  1
  F  F19  1  0.50000000  0.50000000  0.70644800  1
