# generated using pymatgen
data_HoNi
_symmetry_space_group_name_H-M   'P 1'
_cell_length_a   4.14759100
_cell_length_b   5.40294100
_cell_length_c   7.00546000
_cell_angle_alpha   90.00000000
_cell_angle_beta   90.00000000
_cell_angle_gamma   90.00000000
_symmetry_Int_Tables_number   1
_chemical_formula_structural   HoNi
_chemical_formula_sum   'Ho4 Ni4'
_cell_volume   156.98668043
_cell_formula_units_Z   4
loop_
 _symmetry_equiv_pos_site_id
 _symmetry_equiv_pos_as_xyz
  1  'x, y, z'
loop_
 _atom_site_type_symbol
 _atom_site_label
 _atom_site_symmetry_multiplicity
 _atom_site_fract_x
 _atom_site_fract_y
 _atom_site_fract_z
 _atom_site_occupancy
  Ho  Ho0  1  0.25000000  0.36655000  0.68014900  1
  Ho  Ho1  1  0.75000000  0.63345000  0.31985100  1
  Ho  Ho2  1  0.75000000  0.86655000  0.81985100  1
  Ho  Ho3  1  0.25000000  0.13345000  0.18014900  1
  Ni  Ni4  1  0.25000000  0.87281800  0.53726100  1
  Ni  Ni5  1  0.75000000  0.12718200  0.46273900  1
  Ni  Ni6  1  0.75000000  0.37281800  0.96273900  1
  Ni  Ni7  1  0.25000000  0.62718200  0.03726100  1
