# generated using pymatgen
data_TiTl5F9
_symmetry_space_group_name_H-M   'P 1'
_cell_length_a   6.87575033
_cell_length_b   8.00148000
_cell_length_c   11.14580336
_cell_angle_alpha   89.99930582
_cell_angle_beta   90.00327030
_cell_angle_gamma   90.00034815
_symmetry_Int_Tables_number   1
_chemical_formula_structural   TiTl5F9
_chemical_formula_sum   'Ti2 Tl10 F18'
_cell_volume   613.19950872
_cell_formula_units_Z   2
loop_
 _symmetry_equiv_pos_site_id
 _symmetry_equiv_pos_as_xyz
  1  'x, y, z'
loop_
 _atom_site_type_symbol
 _atom_site_label
 _atom_site_symmetry_multiplicity
 _atom_site_fract_x
 _atom_site_fract_y
 _atom_site_fract_z
 _atom_site_occupancy
  Ti  Ti0  1  0.49601800  0.99999600  0.00399700  1
  Ti  Ti1  1  0.99694400  0.00000500  0.49573800  1
  Tl  Tl2  1  0.04608400  0.73228200  0.82852600  1
  Tl  Tl3  1  0.04608900  0.26771600  0.82852700  1
  Tl  Tl4  1  0.46762700  0.49999800  0.99885000  1
  Tl  Tl5  1  0.45136000  0.27048300  0.33336700  1
  Tl  Tl6  1  0.45135900  0.72950500  0.33336900  1
  Tl  Tl7  1  0.54617300  0.26754600  0.67180500  1
  Tl  Tl8  1  0.54616500  0.73244500  0.67180500  1
  Tl  Tl9  1  0.96646300  0.50000200  0.50091400  1
  Tl  Tl10  1  0.95139800  0.27035100  0.16675800  1
  Tl  Tl11  1  0.95139400  0.72965900  0.16675600  1
  F  F12  1  0.10780900  0.00001900  0.34041000  1
  F  F13  1  0.17324200  0.17058300  0.54441300  1
  F  F14  1  0.17324400  0.82942900  0.54441400  1
  F  F15  1  0.16277700  0.50000700  0.28632800  1
  F  F16  1  0.31073900  0.49999800  0.75792300  1
  F  F17  1  0.31704700  0.83032900  0.05308300  1
  F  F18  1  0.31705900  0.16965100  0.05310800  1
  F  F19  1  0.38386700  0.00001200  0.84980600  1
  F  F20  1  0.55537600  0.49999700  0.49914800  1
  F  F21  1  0.60597200  0.99997000  0.15943500  1
  F  F22  1  0.67246900  0.82959800  0.95543000  1
  F  F23  1  0.67246500  0.17041700  0.95544000  1
  F  F24  1  0.66362300  0.49999900  0.21410400  1
  F  F25  1  0.80977400  0.49999700  0.74304500  1
  F  F26  1  0.81804800  0.16963500  0.44623900  1
  F  F27  1  0.81805300  0.83037000  0.44623700  1
  F  F28  1  0.88451800  0.00000000  0.64985400  1
  F  F29  1  0.05584200  0.50000300  0.00117300  1
