# generated using pymatgen
data_RbTb2Ag3Te5
_symmetry_space_group_name_H-M   'P 1'
_cell_length_a   4.58961700
_cell_length_b   8.47271457
_cell_length_c   18.54327500
_cell_angle_alpha   90.00000000
_cell_angle_beta   90.00000000
_cell_angle_gamma   105.71467223
_symmetry_Int_Tables_number   1
_chemical_formula_structural   RbTb2Ag3Te5
_chemical_formula_sum   'Rb2 Tb4 Ag6 Te10'
_cell_volume   694.13098778
_cell_formula_units_Z   2
loop_
 _symmetry_equiv_pos_site_id
 _symmetry_equiv_pos_as_xyz
  1  'x, y, z'
loop_
 _atom_site_type_symbol
 _atom_site_label
 _atom_site_symmetry_multiplicity
 _atom_site_fract_x
 _atom_site_fract_y
 _atom_site_fract_z
 _atom_site_occupancy
  Rb  Rb0  1  0.44230200  0.88460400  0.25000000  1
  Rb  Rb1  1  0.55769800  0.11539600  0.75000000  1
  Tb  Tb2  1  0.30919100  0.61838100  0.90555100  1
  Tb  Tb3  1  0.69080900  0.38161900  0.09444900  1
  Tb  Tb4  1  0.30919100  0.61838100  0.59444900  1
  Tb  Tb5  1  0.69080900  0.38161900  0.40555100  1
  Ag  Ag6  1  0.16377400  0.32754700  0.25000000  1
  Ag  Ag7  1  0.83622600  0.67245300  0.75000000  1
  Ag  Ag8  1  0.91520600  0.83041200  0.46901500  1
  Ag  Ag9  1  0.08479400  0.16958800  0.53098500  1
  Ag  Ag10  1  0.91520600  0.83041200  0.03098500  1
  Ag  Ag11  1  0.08479400  0.16958800  0.96901500  1
  Te  Te12  1  0.93781100  0.87562100  0.87837900  1
  Te  Te13  1  0.06218900  0.12437900  0.12162100  1
  Te  Te14  1  0.93781100  0.87562100  0.62162100  1
  Te  Te15  1  0.06218900  0.12437900  0.37837900  1
  Te  Te16  1  0.67611800  0.35223700  0.92755500  1
  Te  Te17  1  0.32388200  0.64776300  0.07244500  1
  Te  Te18  1  0.67611800  0.35223700  0.57244500  1
  Te  Te19  1  0.32388200  0.64776300  0.42755500  1
  Te  Te20  1  0.76055300  0.52110700  0.25000000  1
  Te  Te21  1  0.23944700  0.47889300  0.75000000  1
