# generated using pymatgen
data_SmSb2Pd
_symmetry_space_group_name_H-M   'P 1'
_cell_length_a   4.50480000
_cell_length_b   4.50480000
_cell_length_c   9.66684600
_cell_angle_alpha   90.00000000
_cell_angle_beta   90.00000000
_cell_angle_gamma   90.00000000
_symmetry_Int_Tables_number   1
_chemical_formula_structural   SmSb2Pd
_chemical_formula_sum   'Sm2 Sb4 Pd2'
_cell_volume   196.17146197
_cell_formula_units_Z   2
loop_
 _symmetry_equiv_pos_site_id
 _symmetry_equiv_pos_as_xyz
  1  'x, y, z'
loop_
 _atom_site_type_symbol
 _atom_site_label
 _atom_site_symmetry_multiplicity
 _atom_site_fract_x
 _atom_site_fract_y
 _atom_site_fract_z
 _atom_site_occupancy
  Sm  Sm0  1  0.00000000  0.50000000  0.74575600  1
  Sm  Sm1  1  0.50000000  0.00000000  0.25424400  1
  Sb  Sb2  1  0.50000000  0.50000000  0.00000000  1
  Sb  Sb3  1  0.00000000  0.00000000  0.00000000  1
  Sb  Sb4  1  0.00000000  0.50000000  0.34286700  1
  Sb  Sb5  1  0.50000000  0.00000000  0.65713300  1
  Pd  Pd6  1  0.50000000  0.50000000  0.50000000  1
  Pd  Pd7  1  0.00000000  0.00000000  0.50000000  1
