# generated using pymatgen
data_YbCrO3
_symmetry_space_group_name_H-M   'P 1'
_cell_length_a   5.24246200
_cell_length_b   5.45625700
_cell_length_c   7.45927200
_cell_angle_alpha   90.00000000
_cell_angle_beta   90.00000000
_cell_angle_gamma   90.00000000
_symmetry_Int_Tables_number   1
_chemical_formula_structural   YbCrO3
_chemical_formula_sum   'Yb4 Cr4 O12'
_cell_volume   213.36665721
_cell_formula_units_Z   4
loop_
 _symmetry_equiv_pos_site_id
 _symmetry_equiv_pos_as_xyz
  1  'x, y, z'
loop_
 _atom_site_type_symbol
 _atom_site_label
 _atom_site_symmetry_multiplicity
 _atom_site_fract_x
 _atom_site_fract_y
 _atom_site_fract_z
 _atom_site_occupancy
  Yb  Yb0  1  0.01257800  0.44350100  0.25000000  1
  Yb  Yb1  1  0.98742200  0.55649900  0.75000000  1
  Yb  Yb2  1  0.51257800  0.05649900  0.75000000  1
  Yb  Yb3  1  0.48742200  0.94350100  0.25000000  1
  Cr  Cr4  1  0.00000000  0.00000000  0.00000000  1
  Cr  Cr5  1  0.50000000  0.50000000  0.00000000  1
  Cr  Cr6  1  0.00000000  0.00000000  0.50000000  1
  Cr  Cr7  1  0.50000000  0.50000000  0.50000000  1
  O  O8  1  0.29309100  0.20001700  0.04318700  1
  O  O9  1  0.70690900  0.79998300  0.95681300  1
  O  O10  1  0.79309100  0.29998300  0.95681300  1
  O  O11  1  0.70690900  0.79998300  0.54318700  1
  O  O12  1  0.20690900  0.70001700  0.04318700  1
  O  O13  1  0.29309100  0.20001700  0.45681300  1
  O  O14  1  0.20690900  0.70001700  0.45681300  1
  O  O15  1  0.79309100  0.29998300  0.54318700  1
  O  O16  1  0.58363200  0.52383500  0.25000000  1
  O  O17  1  0.41636800  0.47616500  0.75000000  1
  O  O18  1  0.08363200  0.97616500  0.75000000  1
  O  O19  1  0.91636800  0.02383500  0.25000000  1
