# generated using pymatgen
data_Ba3(AlN2)2
_symmetry_space_group_name_H-M   'P 1'
_cell_length_a   6.27119200
_cell_length_b   10.18969300
_cell_length_c   10.31969000
_cell_angle_alpha   90.00000000
_cell_angle_beta   90.00000000
_cell_angle_gamma   90.00000000
_symmetry_Int_Tables_number   1
_chemical_formula_structural   Ba3(AlN2)2
_chemical_formula_sum   'Ba12 Al8 N16'
_cell_volume   659.44388956
_cell_formula_units_Z   4
loop_
 _symmetry_equiv_pos_site_id
 _symmetry_equiv_pos_as_xyz
  1  'x, y, z'
loop_
 _atom_site_type_symbol
 _atom_site_label
 _atom_site_symmetry_multiplicity
 _atom_site_fract_x
 _atom_site_fract_y
 _atom_site_fract_z
 _atom_site_occupancy
  Ba  Ba0  1  0.25000000  0.90871500  0.50000000  1
  Ba  Ba1  1  0.25000000  0.59128500  0.00000000  1
  Ba  Ba2  1  0.75000000  0.09128500  0.50000000  1
  Ba  Ba3  1  0.75000000  0.40871500  0.00000000  1
  Ba  Ba4  1  0.11462900  0.91328100  0.15483000  1
  Ba  Ba5  1  0.11462900  0.58671900  0.34517000  1
  Ba  Ba6  1  0.38537100  0.58671900  0.65483000  1
  Ba  Ba7  1  0.38537100  0.91328100  0.84517000  1
  Ba  Ba8  1  0.88537100  0.08671900  0.84517000  1
  Ba  Ba9  1  0.88537100  0.41328100  0.65483000  1
  Ba  Ba10  1  0.61462900  0.41328100  0.34517000  1
  Ba  Ba11  1  0.61462900  0.08671900  0.15483000  1
  Al  Al12  1  0.25000000  0.26772600  0.00000000  1
  Al  Al13  1  0.25000000  0.23227400  0.50000000  1
  Al  Al14  1  0.75000000  0.73227400  0.00000000  1
  Al  Al15  1  0.75000000  0.76772600  0.50000000  1
  Al  Al16  1  0.82634000  0.75000000  0.75000000  1
  Al  Al17  1  0.32634000  0.25000000  0.75000000  1
  Al  Al18  1  0.17366000  0.25000000  0.25000000  1
  Al  Al19  1  0.67366000  0.75000000  0.25000000  1
  N  N20  1  0.85741800  0.63433900  0.14466300  1
  N  N21  1  0.85741800  0.86566100  0.35533700  1
  N  N22  1  0.64258200  0.86566100  0.64466300  1
  N  N23  1  0.64258200  0.63433900  0.85533700  1
  N  N24  1  0.14258200  0.36566100  0.85533700  1
  N  N25  1  0.14258200  0.13433900  0.64466300  1
  N  N26  1  0.35741800  0.13433900  0.35533700  1
  N  N27  1  0.35741800  0.36566100  0.14466300  1
  N  N28  1  0.53536100  0.82777300  0.09948500  1
  N  N29  1  0.53536100  0.67222700  0.40051500  1
  N  N30  1  0.96463900  0.67222700  0.59948500  1
  N  N31  1  0.96463900  0.82777300  0.90051500  1
  N  N32  1  0.46463900  0.32777300  0.59948500  1
  N  N33  1  0.03536100  0.32777300  0.40051500  1
  N  N34  1  0.03536100  0.17222700  0.09948500  1
  N  N35  1  0.46463900  0.17222700  0.90051500  1
