# generated using pymatgen
data_Y16Mg3AlNi4
_symmetry_space_group_name_H-M   'P 1'
_cell_length_a   9.61630935
_cell_length_b   9.61630935
_cell_length_c   9.61630918
_cell_angle_alpha   60.50848084
_cell_angle_beta   60.50848084
_cell_angle_gamma   60.50847831
_symmetry_Int_Tables_number   1
_chemical_formula_structural   Y16Mg3AlNi4
_chemical_formula_sum   'Y16 Mg3 Al1 Ni4'
_cell_volume   636.02220272
_cell_formula_units_Z   1
loop_
 _symmetry_equiv_pos_site_id
 _symmetry_equiv_pos_as_xyz
  1  'x, y, z'
loop_
 _atom_site_type_symbol
 _atom_site_label
 _atom_site_symmetry_multiplicity
 _atom_site_fract_x
 _atom_site_fract_y
 _atom_site_fract_z
 _atom_site_occupancy
  Y  Y0  1  0.43517900  0.06930100  0.43517900  1
  Y  Y1  1  0.06930100  0.43517900  0.43517900  1
  Y  Y2  1  0.43517900  0.43517900  0.06930100  1
  Y  Y3  1  0.06480100  0.43520600  0.06480100  1
  Y  Y4  1  0.43520600  0.06480100  0.06480100  1
  Y  Y5  1  0.06480100  0.06480100  0.43520600  1
  Y  Y6  1  0.81363400  0.18709900  0.81363400  1
  Y  Y7  1  0.18709900  0.81363400  0.81363400  1
  Y  Y8  1  0.81363400  0.81363400  0.18709900  1
  Y  Y9  1  0.18990100  0.80994500  0.18990100  1
  Y  Y10  1  0.80994500  0.18990100  0.18990100  1
  Y  Y11  1  0.18990100  0.18990100  0.80994500  1
  Y  Y12  1  0.65299900  0.65299900  0.65299900  1
  Y  Y13  1  0.65074500  0.65074500  0.04486900  1
  Y  Y14  1  0.04486900  0.65074500  0.65074500  1
  Y  Y15  1  0.65074500  0.04486900  0.65074500  1
  Mg  Mg16  1  0.42000000  0.42000000  0.73456200  1
  Mg  Mg17  1  0.73456200  0.42000000  0.42000000  1
  Mg  Mg18  1  0.42000000  0.73456200  0.42000000  1
  Al  Al19  1  0.41834400  0.41834400  0.41834400  1
  Ni  Ni20  1  0.85737000  0.85737000  0.85737000  1
  Ni  Ni21  1  0.85782000  0.85782000  0.42614600  1
  Ni  Ni22  1  0.42614600  0.85782000  0.85782000  1
  Ni  Ni23  1  0.85782000  0.42614600  0.85782000  1
