# generated using pymatgen
data_BaLa2PdO5
_symmetry_space_group_name_H-M   'P 1'
_cell_length_a   5.99747600
_cell_length_b   6.92370300
_cell_length_c   6.92370300
_cell_angle_alpha   90.00000000
_cell_angle_beta   90.00000000
_cell_angle_gamma   90.00000000
_symmetry_Int_Tables_number   1
_chemical_formula_structural   BaLa2PdO5
_chemical_formula_sum   'Ba2 La4 Pd2 O10'
_cell_volume   287.50498473
_cell_formula_units_Z   2
loop_
 _symmetry_equiv_pos_site_id
 _symmetry_equiv_pos_as_xyz
  1  'x, y, z'
loop_
 _atom_site_type_symbol
 _atom_site_label
 _atom_site_symmetry_multiplicity
 _atom_site_fract_x
 _atom_site_fract_y
 _atom_site_fract_z
 _atom_site_occupancy
  Ba  Ba0  1  0.00000000  0.50000000  0.50000000  1
  Ba  Ba1  1  0.00000000  0.00000000  0.00000000  1
  La  La2  1  0.50000000  0.17647000  0.67647000  1
  La  La3  1  0.50000000  0.82353000  0.32353000  1
  La  La4  1  0.50000000  0.32353000  0.17647000  1
  La  La5  1  0.50000000  0.67647000  0.82353000  1
  Pd  Pd6  1  0.00000000  0.00000000  0.50000000  1
  Pd  Pd7  1  0.00000000  0.50000000  0.00000000  1
  O  O8  1  0.24654200  0.35819100  0.85819100  1
  O  O9  1  0.24654200  0.64180900  0.14180900  1
  O  O10  1  0.24654200  0.14180900  0.35819100  1
  O  O11  1  0.24654200  0.85819100  0.64180900  1
  O  O12  1  0.75345800  0.64180900  0.14180900  1
  O  O13  1  0.75345800  0.35819100  0.85819100  1
  O  O14  1  0.75345800  0.85819100  0.64180900  1
  O  O15  1  0.75345800  0.14180900  0.35819100  1
  O  O16  1  0.50000000  0.50000000  0.50000000  1
  O  O17  1  0.50000000  0.00000000  0.00000000  1
