# generated using pymatgen
data_Pr4As2S9
_symmetry_space_group_name_H-M   'P 1'
_cell_length_a   7.07638700
_cell_length_b   7.14005500
_cell_length_c   29.49246200
_cell_angle_alpha   90.00000000
_cell_angle_beta   90.00000000
_cell_angle_gamma   90.00000000
_symmetry_Int_Tables_number   1
_chemical_formula_structural   Pr4As2S9
_chemical_formula_sum   'Pr16 As8 S36'
_cell_volume   1490.13001182
_cell_formula_units_Z   4
loop_
 _symmetry_equiv_pos_site_id
 _symmetry_equiv_pos_as_xyz
  1  'x, y, z'
loop_
 _atom_site_type_symbol
 _atom_site_label
 _atom_site_symmetry_multiplicity
 _atom_site_fract_x
 _atom_site_fract_y
 _atom_site_fract_z
 _atom_site_occupancy
  Pr  Pr0  1  0.70440100  0.54426300  0.44328800  1
  Pr  Pr1  1  0.79559900  0.04426300  0.05671200  1
  Pr  Pr2  1  0.79559900  0.45573700  0.94328800  1
  Pr  Pr3  1  0.70440100  0.95573700  0.55671200  1
  Pr  Pr4  1  0.29559900  0.45573700  0.55671200  1
  Pr  Pr5  1  0.20440100  0.95573700  0.94328800  1
  Pr  Pr6  1  0.20440100  0.54426300  0.05671200  1
  Pr  Pr7  1  0.29559900  0.04426300  0.44328800  1
  Pr  Pr8  1  0.79652000  0.82184000  0.29278800  1
  Pr  Pr9  1  0.70348000  0.32184000  0.20721200  1
  Pr  Pr10  1  0.70348000  0.17816000  0.79278800  1
  Pr  Pr11  1  0.79652000  0.67816000  0.70721200  1
  Pr  Pr12  1  0.20348000  0.17816000  0.70721200  1
  Pr  Pr13  1  0.29652000  0.67816000  0.79278800  1
  Pr  Pr14  1  0.29652000  0.82184000  0.20721200  1
  Pr  Pr15  1  0.20348000  0.32184000  0.29278800  1
  As  As16  1  0.69499100  0.57503900  0.09562400  1
  As  As17  1  0.80500900  0.07503900  0.40437600  1
  As  As18  1  0.80500900  0.42496100  0.59562400  1
  As  As19  1  0.69499100  0.92496100  0.90437600  1
  As  As20  1  0.30500900  0.42496100  0.90437600  1
  As  As21  1  0.19499100  0.92496100  0.59562400  1
  As  As22  1  0.19499100  0.57503900  0.40437600  1
  As  As23  1  0.30500900  0.07503900  0.09562400  1
  S  S24  1  0.93792800  0.75000000  0.00000000  1
  S  S25  1  0.56207200  0.25000000  0.50000000  1
  S  S26  1  0.06207200  0.25000000  0.00000000  1
  S  S27  1  0.43792800  0.75000000  0.50000000  1
  S  S28  1  0.99954600  0.07294100  0.23557300  1
  S  S29  1  0.50045400  0.57294100  0.26442700  1
  S  S30  1  0.50045400  0.92705900  0.73557300  1
  S  S31  1  0.99954600  0.42705900  0.76442700  1
  S  S32  1  0.00045400  0.92705900  0.76442700  1
  S  S33  1  0.49954600  0.42705900  0.73557300  1
  S  S34  1  0.49954600  0.07294100  0.26442700  1
  S  S35  1  0.00045400  0.57294100  0.23557300  1
  S  S36  1  0.91818800  0.88378300  0.45933100  1
  S  S37  1  0.58181200  0.38378300  0.04066900  1
  S  S38  1  0.58181200  0.11621700  0.95933100  1
  S  S39  1  0.91818800  0.61621700  0.54066900  1
  S  S40  1  0.08181200  0.11621700  0.54066900  1
  S  S41  1  0.41818800  0.61621700  0.95933100  1
  S  S42  1  0.41818800  0.88378300  0.04066900  1
  S  S43  1  0.08181200  0.38378300  0.45933100  1
  S  S44  1  0.94484900  0.52148600  0.35620200  1
  S  S45  1  0.55515100  0.02148600  0.14379800  1
  S  S46  1  0.55515100  0.47851400  0.85620200  1
  S  S47  1  0.94484900  0.97851400  0.64379800  1
  S  S48  1  0.05515100  0.47851400  0.64379800  1
  S  S49  1  0.44484900  0.97851400  0.85620200  1
  S  S50  1  0.44484900  0.52148600  0.14379800  1
  S  S51  1  0.05515100  0.02148600  0.35620200  1
  S  S52  1  0.57460400  0.87050200  0.38025300  1
  S  S53  1  0.92539600  0.37050200  0.11974700  1
  S  S54  1  0.92539600  0.12949800  0.88025300  1
  S  S55  1  0.57460400  0.62949800  0.61974700  1
  S  S56  1  0.42539600  0.12949800  0.61974700  1
  S  S57  1  0.07460400  0.62949800  0.88025300  1
  S  S58  1  0.07460400  0.87050200  0.11974700  1
  S  S59  1  0.42539600  0.37050200  0.38025300  1
