# generated using pymatgen
data_Y4CdIr
_symmetry_space_group_name_H-M   'P 1'
_cell_length_a   9.67365352
_cell_length_b   9.67365352
_cell_length_c   9.67365352
_cell_angle_alpha   60.00000000
_cell_angle_beta   60.00000000
_cell_angle_gamma   60.00000000
_symmetry_Int_Tables_number   1
_chemical_formula_structural   Y4CdIr
_chemical_formula_sum   'Y16 Cd4 Ir4'
_cell_volume   640.11291020
_cell_formula_units_Z   4
loop_
 _symmetry_equiv_pos_site_id
 _symmetry_equiv_pos_as_xyz
  1  'x, y, z'
loop_
 _atom_site_type_symbol
 _atom_site_label
 _atom_site_symmetry_multiplicity
 _atom_site_fract_x
 _atom_site_fract_y
 _atom_site_fract_z
 _atom_site_occupancy
  Y  Y0  1  0.34953000  0.34953000  0.34953000  1
  Y  Y1  1  0.34953000  0.34953000  0.95141000  1
  Y  Y2  1  0.34953000  0.95141000  0.34953000  1
  Y  Y3  1  0.95141000  0.34953000  0.34953000  1
  Y  Y4  1  0.81095900  0.18904100  0.18904100  1
  Y  Y5  1  0.18904100  0.81095900  0.81095900  1
  Y  Y6  1  0.18904100  0.81095900  0.18904100  1
  Y  Y7  1  0.81095900  0.18904100  0.81095900  1
  Y  Y8  1  0.18904100  0.18904100  0.81095900  1
  Y  Y9  1  0.81095900  0.81095900  0.18904100  1
  Y  Y10  1  0.93707700  0.56292300  0.56292300  1
  Y  Y11  1  0.56292300  0.93707700  0.93707700  1
  Y  Y12  1  0.56292300  0.93707700  0.56292300  1
  Y  Y13  1  0.93707700  0.56292300  0.93707700  1
  Y  Y14  1  0.56292300  0.56292300  0.93707700  1
  Y  Y15  1  0.93707700  0.93707700  0.56292300  1
  Cd  Cd16  1  0.58033800  0.58033800  0.58033800  1
  Cd  Cd17  1  0.58033800  0.58033800  0.25898700  1
  Cd  Cd18  1  0.58033800  0.25898700  0.58033800  1
  Cd  Cd19  1  0.25898700  0.58033800  0.58033800  1
  Ir  Ir20  1  0.14165000  0.14165000  0.14165000  1
  Ir  Ir21  1  0.14165000  0.14165000  0.57505000  1
  Ir  Ir22  1  0.14165000  0.57505000  0.14165000  1
  Ir  Ir23  1  0.57505000  0.14165000  0.14165000  1
