# generated using pymatgen
data_LaCrSb3
_symmetry_space_group_name_H-M   'P 1'
_cell_length_a   6.16366100
_cell_length_b   6.27226500
_cell_length_c   13.42495600
_cell_angle_alpha   90.00000000
_cell_angle_beta   90.00000000
_cell_angle_gamma   90.00000000
_symmetry_Int_Tables_number   1
_chemical_formula_structural   LaCrSb3
_chemical_formula_sum   'La4 Cr4 Sb12'
_cell_volume   519.01034501
_cell_formula_units_Z   4
loop_
 _symmetry_equiv_pos_site_id
 _symmetry_equiv_pos_as_xyz
  1  'x, y, z'
loop_
 _atom_site_type_symbol
 _atom_site_label
 _atom_site_symmetry_multiplicity
 _atom_site_fract_x
 _atom_site_fract_y
 _atom_site_fract_z
 _atom_site_occupancy
  La  La0  1  0.75000000  0.99421500  0.30730200  1
  La  La1  1  0.25000000  0.00578500  0.69269800  1
  La  La2  1  0.25000000  0.50578500  0.30730200  1
  La  La3  1  0.75000000  0.49421500  0.69269800  1
  Cr  Cr4  1  0.50000000  0.75000000  0.91119700  1
  Cr  Cr5  1  0.00000000  0.25000000  0.08880300  1
  Cr  Cr6  1  0.50000000  0.25000000  0.08880300  1
  Cr  Cr7  1  0.00000000  0.75000000  0.91119700  1
  Sb  Sb8  1  0.75000000  0.90028800  0.06242700  1
  Sb  Sb9  1  0.25000000  0.09971200  0.93757300  1
  Sb  Sb10  1  0.25000000  0.59971200  0.06242700  1
  Sb  Sb11  1  0.75000000  0.40028800  0.93757300  1
  Sb  Sb12  1  0.75000000  0.49475600  0.21462600  1
  Sb  Sb13  1  0.25000000  0.50524400  0.78537400  1
  Sb  Sb14  1  0.25000000  0.00524400  0.21462600  1
  Sb  Sb15  1  0.75000000  0.99475600  0.78537400  1
  Sb  Sb16  1  0.50000000  0.75000000  0.50124900  1
  Sb  Sb17  1  0.00000000  0.25000000  0.49875100  1
  Sb  Sb18  1  0.50000000  0.25000000  0.49875100  1
  Sb  Sb19  1  0.00000000  0.75000000  0.50124900  1
