# generated using pymatgen
data_SmAl3Ni2
_symmetry_space_group_name_H-M   'P 1'
_cell_length_a   9.14573625
_cell_length_b   9.14573625
_cell_length_c   4.08261800
_cell_angle_alpha   90.00000000
_cell_angle_beta   90.00000000
_cell_angle_gamma   120.00000180
_symmetry_Int_Tables_number   1
_chemical_formula_structural   SmAl3Ni2
_chemical_formula_sum   'Sm3 Al9 Ni6'
_cell_volume   295.73771658
_cell_formula_units_Z   3
loop_
 _symmetry_equiv_pos_site_id
 _symmetry_equiv_pos_as_xyz
  1  'x, y, z'
loop_
 _atom_site_type_symbol
 _atom_site_label
 _atom_site_symmetry_multiplicity
 _atom_site_fract_x
 _atom_site_fract_y
 _atom_site_fract_z
 _atom_site_occupancy
  Sm  Sm0  1  0.33333300  0.66666700  0.50000000  1
  Sm  Sm1  1  0.66666700  0.33333300  0.50000000  1
  Sm  Sm2  1  0.00000000  0.00000000  0.00000000  1
  Al  Al3  1  0.50000000  0.00000000  0.00000000  1
  Al  Al4  1  0.00000000  0.50000000  0.00000000  1
  Al  Al5  1  0.50000000  0.50000000  0.00000000  1
  Al  Al6  1  0.29661100  0.00000000  0.50000000  1
  Al  Al7  1  0.70338900  0.00000000  0.50000000  1
  Al  Al8  1  0.00000000  0.29661100  0.50000000  1
  Al  Al9  1  0.00000000  0.70338900  0.50000000  1
  Al  Al10  1  0.70338900  0.70338900  0.50000000  1
  Al  Al11  1  0.29661100  0.29661100  0.50000000  1
  Ni  Ni12  1  0.18140400  0.36280900  0.00000000  1
  Ni  Ni13  1  0.81859600  0.63719100  0.00000000  1
  Ni  Ni14  1  0.63719100  0.81859600  0.00000000  1
  Ni  Ni15  1  0.36280900  0.18140400  0.00000000  1
  Ni  Ni16  1  0.18140400  0.81859600  0.00000000  1
  Ni  Ni17  1  0.81859600  0.18140400  0.00000000  1
