# generated using pymatgen
data_Er5(In2Pt)2
_symmetry_space_group_name_H-M   'P 1'
_cell_length_a   3.59898700
_cell_length_b   8.15507800
_cell_length_c   18.21551600
_cell_angle_alpha   90.00000000
_cell_angle_beta   90.00000000
_cell_angle_gamma   90.00000000
_symmetry_Int_Tables_number   1
_chemical_formula_structural   Er5(In2Pt)2
_chemical_formula_sum   'Er10 In8 Pt4'
_cell_volume   534.62575355
_cell_formula_units_Z   2
loop_
 _symmetry_equiv_pos_site_id
 _symmetry_equiv_pos_as_xyz
  1  'x, y, z'
loop_
 _atom_site_type_symbol
 _atom_site_label
 _atom_site_symmetry_multiplicity
 _atom_site_fract_x
 _atom_site_fract_y
 _atom_site_fract_z
 _atom_site_occupancy
  Er  Er0  1  0.00000000  0.11673200  0.41406200  1
  Er  Er1  1  0.00000000  0.88326800  0.58593800  1
  Er  Er2  1  0.00000000  0.38326800  0.91406200  1
  Er  Er3  1  0.00000000  0.61673200  0.08593800  1
  Er  Er4  1  0.00000000  0.24388400  0.22008700  1
  Er  Er5  1  0.00000000  0.75611600  0.77991300  1
  Er  Er6  1  0.00000000  0.25611600  0.72008700  1
  Er  Er7  1  0.00000000  0.74388400  0.27991300  1
  Er  Er8  1  0.00000000  0.00000000  0.00000000  1
  Er  Er9  1  0.00000000  0.50000000  0.50000000  1
  In  In10  1  0.50000000  0.42394800  0.35042100  1
  In  In11  1  0.50000000  0.57605200  0.64957900  1
  In  In12  1  0.50000000  0.07605200  0.85042100  1
  In  In13  1  0.50000000  0.92394800  0.14957900  1
  In  In14  1  0.50000000  0.29225300  0.06660400  1
  In  In15  1  0.50000000  0.70774700  0.93339600  1
  In  In16  1  0.50000000  0.20774700  0.56660400  1
  In  In17  1  0.50000000  0.79225300  0.43339600  1
  Pt  Pt18  1  0.50000000  0.02424500  0.30301600  1
  Pt  Pt19  1  0.50000000  0.97575500  0.69698400  1
  Pt  Pt20  1  0.50000000  0.47575500  0.80301600  1
  Pt  Pt21  1  0.50000000  0.52424500  0.19698400  1
