# generated using pymatgen
data_HfIr
_symmetry_space_group_name_H-M   'P 1'
_cell_length_a   4.48286700
_cell_length_b   3.16910300
_cell_length_c   5.35466825
_cell_angle_alpha   71.78588461
_cell_angle_beta   90.00000000
_cell_angle_gamma   90.00000000
_symmetry_Int_Tables_number   1
_chemical_formula_structural   HfIr
_chemical_formula_sum   'Hf2 Ir2'
_cell_volume   72.26040876
_cell_formula_units_Z   2
loop_
 _symmetry_equiv_pos_site_id
 _symmetry_equiv_pos_as_xyz
  1  'x, y, z'
loop_
 _atom_site_type_symbol
 _atom_site_label
 _atom_site_symmetry_multiplicity
 _atom_site_fract_x
 _atom_site_fract_y
 _atom_site_fract_z
 _atom_site_occupancy
  Hf  Hf0  1  0.75000000  0.64911300  0.21332800  1
  Hf  Hf1  1  0.25000000  0.35088700  0.78667200  1
  Ir  Ir2  1  0.75000000  0.90295700  0.68406200  1
  Ir  Ir3  1  0.25000000  0.09704300  0.31593800  1
