# generated using pymatgen
data_Yb2(Ga3Ir)3
_symmetry_space_group_name_H-M   'P 1'
_cell_length_a   7.53873308
_cell_length_b   7.53873308
_cell_length_c   9.66136500
_cell_angle_alpha   90.00000000
_cell_angle_beta   90.00000000
_cell_angle_gamma   119.67120064
_symmetry_Int_Tables_number   1
_chemical_formula_structural   Yb2(Ga3Ir)3
_chemical_formula_sum   'Yb4 Ga18 Ir6'
_cell_volume   477.08443333
_cell_formula_units_Z   2
loop_
 _symmetry_equiv_pos_site_id
 _symmetry_equiv_pos_as_xyz
  1  'x, y, z'
loop_
 _atom_site_type_symbol
 _atom_site_label
 _atom_site_symmetry_multiplicity
 _atom_site_fract_x
 _atom_site_fract_y
 _atom_site_fract_z
 _atom_site_occupancy
  Yb  Yb0  1  0.99703900  0.66848600  0.25000000  1
  Yb  Yb1  1  0.00296100  0.33151400  0.75000000  1
  Yb  Yb2  1  0.66848600  0.99703900  0.25000000  1
  Yb  Yb3  1  0.33151400  0.00296100  0.75000000  1
  Ga  Ga4  1  0.12529700  0.12529700  0.25000000  1
  Ga  Ga5  1  0.87470300  0.87470300  0.75000000  1
  Ga  Ga6  1  0.00116000  0.33437700  0.07414400  1
  Ga  Ga7  1  0.99884000  0.66562300  0.92585600  1
  Ga  Ga8  1  0.99884000  0.66562300  0.57414400  1
  Ga  Ga9  1  0.33437700  0.00116000  0.42585600  1
  Ga  Ga10  1  0.00116000  0.33437700  0.42585600  1
  Ga  Ga11  1  0.66562300  0.99884000  0.57414400  1
  Ga  Ga12  1  0.66562300  0.99884000  0.92585600  1
  Ga  Ga13  1  0.33437700  0.00116000  0.07414400  1
  Ga  Ga14  1  0.33415000  0.33415000  0.55936800  1
  Ga  Ga15  1  0.66585000  0.66585000  0.44063200  1
  Ga  Ga16  1  0.66585000  0.66585000  0.05936800  1
  Ga  Ga17  1  0.33415000  0.33415000  0.94063200  1
  Ga  Ga18  1  0.33573400  0.54614500  0.25000000  1
  Ga  Ga19  1  0.66426600  0.45385500  0.75000000  1
  Ga  Ga20  1  0.54614500  0.33573400  0.25000000  1
  Ga  Ga21  1  0.45385500  0.66426600  0.75000000  1
  Ir  Ir22  1  0.67203800  0.32796200  0.00000000  1
  Ir  Ir23  1  0.32796200  0.67203800  0.00000000  1
  Ir  Ir24  1  0.32796200  0.67203800  0.50000000  1
  Ir  Ir25  1  0.67203800  0.32796200  0.50000000  1
  Ir  Ir26  1  0.00000000  0.00000000  0.00000000  1
  Ir  Ir27  1  0.00000000  0.00000000  0.50000000  1
