# generated using pymatgen
data_Eu2ZnGe3
_symmetry_space_group_name_H-M   'P 1'
_cell_length_a   4.28840553
_cell_length_b   4.28840553
_cell_length_c   17.72033200
_cell_angle_alpha   90.00000000
_cell_angle_beta   90.00000000
_cell_angle_gamma   119.99999282
_symmetry_Int_Tables_number   1
_chemical_formula_structural   Eu2ZnGe3
_chemical_formula_sum   'Eu4 Zn2 Ge6'
_cell_volume   282.22417561
_cell_formula_units_Z   2
loop_
 _symmetry_equiv_pos_site_id
 _symmetry_equiv_pos_as_xyz
  1  'x, y, z'
loop_
 _atom_site_type_symbol
 _atom_site_label
 _atom_site_symmetry_multiplicity
 _atom_site_fract_x
 _atom_site_fract_y
 _atom_site_fract_z
 _atom_site_occupancy
  Eu  Eu0  1  0.00000000  0.00000000  0.37136500  1
  Eu  Eu1  1  0.00000000  0.00000000  0.62863500  1
  Eu  Eu2  1  0.00000000  0.00000000  0.87136500  1
  Eu  Eu3  1  0.00000000  0.00000000  0.12863500  1
  Zn  Zn4  1  0.33333300  0.66666700  0.25000000  1
  Zn  Zn5  1  0.66666700  0.33333300  0.75000000  1
  Ge  Ge6  1  0.33333300  0.66666700  0.75000000  1
  Ge  Ge7  1  0.66666700  0.33333300  0.25000000  1
  Ge  Ge8  1  0.33333300  0.66666700  0.47507100  1
  Ge  Ge9  1  0.66666700  0.33333300  0.52492900  1
  Ge  Ge10  1  0.66666700  0.33333300  0.97507100  1
  Ge  Ge11  1  0.33333300  0.66666700  0.02492900  1
