# generated using pymatgen
data_Ba2Re6S11
_symmetry_space_group_name_H-M   'P 1'
_cell_length_a   12.04235014
_cell_length_b   12.04235014
_cell_length_c   12.04234999
_cell_angle_alpha   45.53475855
_cell_angle_beta   45.53475855
_cell_angle_gamma   45.53475688
_symmetry_Int_Tables_number   1
_chemical_formula_structural   Ba2Re6S11
_chemical_formula_sum   'Ba4 Re12 S22'
_cell_volume   810.50657673
_cell_formula_units_Z   2
loop_
 _symmetry_equiv_pos_site_id
 _symmetry_equiv_pos_as_xyz
  1  'x, y, z'
loop_
 _atom_site_type_symbol
 _atom_site_label
 _atom_site_symmetry_multiplicity
 _atom_site_fract_x
 _atom_site_fract_y
 _atom_site_fract_z
 _atom_site_occupancy
  Ba  Ba0  1  0.31137800  0.31137800  0.31137800  1
  Ba  Ba1  1  0.18862200  0.18862200  0.18862200  1
  Ba  Ba2  1  0.68862200  0.68862200  0.68862200  1
  Ba  Ba3  1  0.81137800  0.81137800  0.81137800  1
  Re  Re4  1  0.61689000  0.29277800  0.48881400  1
  Re  Re5  1  0.48881400  0.61689000  0.29277800  1
  Re  Re6  1  0.79277800  0.11689000  0.98881400  1
  Re  Re7  1  0.98881400  0.79277800  0.11689000  1
  Re  Re8  1  0.11689000  0.98881400  0.79277800  1
  Re  Re9  1  0.70722200  0.51118600  0.38311000  1
  Re  Re10  1  0.38311000  0.70722200  0.51118600  1
  Re  Re11  1  0.51118600  0.38311000  0.70722200  1
  Re  Re12  1  0.29277800  0.48881400  0.61689000  1
  Re  Re13  1  0.88311000  0.01118600  0.20722200  1
  Re  Re14  1  0.01118600  0.20722200  0.88311000  1
  Re  Re15  1  0.20722200  0.88311000  0.01118600  1
  S  S16  1  0.09084000  0.09084000  0.09084000  1
  S  S17  1  0.40916000  0.40916000  0.40916000  1
  S  S18  1  0.90916000  0.90916000  0.90916000  1
  S  S19  1  0.59084000  0.59084000  0.59084000  1
  S  S20  1  0.25000000  0.98218300  0.51781700  1
  S  S21  1  0.51781700  0.25000000  0.98218300  1
  S  S22  1  0.98218300  0.51781700  0.25000000  1
  S  S23  1  0.75000000  0.01781700  0.48218300  1
  S  S24  1  0.48218300  0.75000000  0.01781700  1
  S  S25  1  0.01781700  0.48218300  0.75000000  1
  S  S26  1  0.07277700  0.71050100  0.30738700  1
  S  S27  1  0.30738700  0.07277700  0.71050100  1
  S  S28  1  0.71050100  0.30738700  0.07277700  1
  S  S29  1  0.42722300  0.19261300  0.78949900  1
  S  S30  1  0.78949900  0.42722300  0.19261300  1
  S  S31  1  0.19261300  0.78949900  0.42722300  1
  S  S32  1  0.80738700  0.21050100  0.57277700  1
  S  S33  1  0.21050100  0.57277700  0.80738700  1
  S  S34  1  0.57277700  0.80738700  0.21050100  1
  S  S35  1  0.28949900  0.69261300  0.92722300  1
  S  S36  1  0.69261300  0.92722300  0.28949900  1
  S  S37  1  0.92722300  0.28949900  0.69261300  1
