# generated using pymatgen
data_K2Na4ZnSn2
_symmetry_space_group_name_H-M   'P 1'
_cell_length_a   10.04492900
_cell_length_b   11.48417000
_cell_length_c   11.69116807
_cell_angle_alpha   60.59683458
_cell_angle_beta   90.00000000
_cell_angle_gamma   90.00000000
_symmetry_Int_Tables_number   1
_chemical_formula_structural   K2Na4ZnSn2
_chemical_formula_sum   'K8 Na16 Zn4 Sn8'
_cell_volume   1174.93981007
_cell_formula_units_Z   4
loop_
 _symmetry_equiv_pos_site_id
 _symmetry_equiv_pos_as_xyz
  1  'x, y, z'
loop_
 _atom_site_type_symbol
 _atom_site_label
 _atom_site_symmetry_multiplicity
 _atom_site_fract_x
 _atom_site_fract_y
 _atom_site_fract_z
 _atom_site_occupancy
  K  K0  1  0.60789800  0.70328800  0.17668500  1
  K  K1  1  0.39210200  0.29671200  0.82331500  1
  K  K2  1  0.10789800  0.79671200  0.82331500  1
  K  K3  1  0.89210200  0.20328800  0.17668500  1
  K  K4  1  0.96713600  0.81666800  0.14486700  1
  K  K5  1  0.03286400  0.18333200  0.85513300  1
  K  K6  1  0.46713600  0.68333200  0.85513300  1
  K  K7  1  0.53286400  0.31666800  0.14486700  1
  Na  Na8  1  0.84033800  0.57612600  0.48981600  1
  Na  Na9  1  0.15966200  0.42387400  0.51018400  1
  Na  Na10  1  0.34033800  0.92387400  0.51018400  1
  Na  Na11  1  0.65966200  0.07612600  0.48981600  1
  Na  Na12  1  0.82248900  0.57284000  0.00718600  1
  Na  Na13  1  0.17751100  0.42716000  0.99281400  1
  Na  Na14  1  0.32248900  0.92716000  0.99281400  1
  Na  Na15  1  0.67751100  0.07284000  0.00718600  1
  Na  Na16  1  0.52458000  0.62204400  0.57595200  1
  Na  Na17  1  0.47542000  0.37795600  0.42404800  1
  Na  Na18  1  0.02458000  0.87795600  0.42404800  1
  Na  Na19  1  0.97542000  0.12204400  0.57595200  1
  Na  Na20  1  0.77780300  0.76150200  0.66802300  1
  Na  Na21  1  0.22219700  0.23849800  0.33197700  1
  Na  Na22  1  0.27780300  0.73849800  0.33197700  1
  Na  Na23  1  0.72219700  0.26150200  0.66802300  1
  Zn  Zn24  1  0.46467800  0.98795300  0.24346500  1
  Zn  Zn25  1  0.53532200  0.01204700  0.75653500  1
  Zn  Zn26  1  0.96467800  0.51204700  0.75653500  1
  Zn  Zn27  1  0.03532200  0.48795300  0.24346500  1
  Sn  Sn28  1  0.27561900  0.57693200  0.16150000  1
  Sn  Sn29  1  0.72438100  0.42306800  0.83850000  1
  Sn  Sn30  1  0.77561900  0.92306800  0.83850000  1
  Sn  Sn31  1  0.22438100  0.07693200  0.16150000  1
  Sn  Sn32  1  0.69168200  0.88533300  0.35212900  1
  Sn  Sn33  1  0.30831800  0.11466700  0.64787100  1
  Sn  Sn34  1  0.19168200  0.61466700  0.64787100  1
  Sn  Sn35  1  0.80831800  0.38533300  0.35212900  1
