# generated using pymatgen
data_RbTmP2O7
_symmetry_space_group_name_H-M   'P 1'
_cell_length_a   10.92114600
_cell_length_b   7.83598000
_cell_length_c   8.75849729
_cell_angle_alpha   74.51244722
_cell_angle_beta   90.00000000
_cell_angle_gamma   90.00000000
_symmetry_Int_Tables_number   1
_chemical_formula_structural   RbTmP2O7
_chemical_formula_sum   'Rb4 Tm4 P8 O28'
_cell_volume   722.31694354
_cell_formula_units_Z   4
loop_
 _symmetry_equiv_pos_site_id
 _symmetry_equiv_pos_as_xyz
  1  'x, y, z'
loop_
 _atom_site_type_symbol
 _atom_site_label
 _atom_site_symmetry_multiplicity
 _atom_site_fract_x
 _atom_site_fract_y
 _atom_site_fract_z
 _atom_site_occupancy
  Rb  Rb0  1  0.81773600  0.81846600  0.55590800  1
  Rb  Rb1  1  0.18226400  0.18153400  0.44409200  1
  Rb  Rb2  1  0.31773600  0.18153400  0.94409200  1
  Rb  Rb3  1  0.68226400  0.81846600  0.05590800  1
  Tm  Tm4  1  0.40071100  0.76099100  0.75867500  1
  Tm  Tm5  1  0.59928900  0.23900900  0.24132500  1
  Tm  Tm6  1  0.90071100  0.23900900  0.74132500  1
  Tm  Tm7  1  0.09928900  0.76099100  0.25867500  1
  P  P8  1  0.13265400  0.56659400  0.69159700  1
  P  P9  1  0.86734600  0.43340600  0.30840300  1
  P  P10  1  0.63265400  0.43340600  0.80840300  1
  P  P11  1  0.36734600  0.56659400  0.19159700  1
  P  P12  1  0.09770700  0.86778000  0.82578600  1
  P  P13  1  0.90229300  0.13222000  0.17421400  1
  P  P14  1  0.59770700  0.13222000  0.67421400  1
  P  P15  1  0.40229300  0.86778000  0.32578600  1
  O  O16  1  0.07445900  0.38249200  0.73439200  1
  O  O17  1  0.92554100  0.61750800  0.26560800  1
  O  O18  1  0.57445900  0.61750800  0.76560800  1
  O  O19  1  0.42554100  0.38249200  0.23439200  1
  O  O20  1  0.22751100  0.91586200  0.75971500  1
  O  O21  1  0.77248900  0.08413800  0.24028500  1
  O  O22  1  0.72751100  0.08413800  0.74028500  1
  O  O23  1  0.27248900  0.91586200  0.25971500  1
  O  O24  1  0.26796800  0.55350500  0.73995100  1
  O  O25  1  0.73203200  0.44649500  0.26004900  1
  O  O26  1  0.76796800  0.44649500  0.76004900  1
  O  O27  1  0.23203200  0.55350500  0.23995100  1
  O  O28  1  0.10748100  0.67126100  0.52049200  1
  O  O29  1  0.89251900  0.32873900  0.47950800  1
  O  O30  1  0.60748100  0.32873900  0.97950800  1
  O  O31  1  0.39251900  0.67126100  0.02049200  1
  O  O32  1  0.40988000  0.84926000  0.50211300  1
  O  O33  1  0.59012000  0.15074000  0.49788700  1
  O  O34  1  0.90988000  0.15074000  0.99788700  1
  O  O35  1  0.09012000  0.84926000  0.00211300  1
  O  O36  1  0.06136100  0.67404900  0.80183700  1
  O  O37  1  0.93863900  0.32595100  0.19816300  1
  O  O38  1  0.56136100  0.32595100  0.69816300  1
  O  O39  1  0.43863900  0.67404900  0.30183700  1
  O  O40  1  0.50261600  0.00336700  0.77145300  1
  O  O41  1  0.49738400  0.99663300  0.22854700  1
  O  O42  1  0.00261600  0.99663300  0.72854700  1
  O  O43  1  0.99738400  0.00336700  0.27145300  1
