# generated using pymatgen
data_Ca6MnN5
_symmetry_space_group_name_H-M   'P 1'
_cell_length_a   6.23311171
_cell_length_b   6.23311171
_cell_length_c   12.35204400
_cell_angle_alpha   90.00000000
_cell_angle_beta   90.00000000
_cell_angle_gamma   119.99999691
_symmetry_Int_Tables_number   1
_chemical_formula_structural   Ca6MnN5
_chemical_formula_sum   'Ca12 Mn2 N10'
_cell_volume   415.60359525
_cell_formula_units_Z   2
loop_
 _symmetry_equiv_pos_site_id
 _symmetry_equiv_pos_as_xyz
  1  'x, y, z'
loop_
 _atom_site_type_symbol
 _atom_site_label
 _atom_site_symmetry_multiplicity
 _atom_site_fract_x
 _atom_site_fract_y
 _atom_site_fract_z
 _atom_site_occupancy
  Ca  Ca0  1  0.00000000  0.39444900  0.88168700  1
  Ca  Ca1  1  0.60555100  0.60555100  0.88168700  1
  Ca  Ca2  1  0.60555100  0.00000000  0.11831300  1
  Ca  Ca3  1  0.39444900  0.00000000  0.61831300  1
  Ca  Ca4  1  0.39444900  0.39444900  0.38168700  1
  Ca  Ca5  1  0.60555100  0.00000000  0.38168700  1
  Ca  Ca6  1  0.39444900  0.39444900  0.11831300  1
  Ca  Ca7  1  0.00000000  0.60555100  0.11831300  1
  Ca  Ca8  1  0.00000000  0.39444900  0.61831300  1
  Ca  Ca9  1  0.60555100  0.60555100  0.61831300  1
  Ca  Ca10  1  0.39444900  0.00000000  0.88168700  1
  Ca  Ca11  1  0.00000000  0.60555100  0.38168700  1
  Mn  Mn12  1  0.00000000  0.00000000  0.75000000  1
  Mn  Mn13  1  0.00000000  0.00000000  0.25000000  1
  N  N14  1  0.71378100  0.00000000  0.75000000  1
  N  N15  1  0.28621900  0.28621900  0.75000000  1
  N  N16  1  0.28621900  0.00000000  0.25000000  1
  N  N17  1  0.66666700  0.33333300  0.50000000  1
  N  N18  1  0.33333300  0.66666700  0.00000000  1
  N  N19  1  0.33333300  0.66666700  0.50000000  1
  N  N20  1  0.66666700  0.33333300  0.00000000  1
  N  N21  1  0.71378100  0.71378100  0.25000000  1
  N  N22  1  0.00000000  0.28621900  0.25000000  1
  N  N23  1  0.00000000  0.71378100  0.75000000  1
