# generated using pymatgen
data_CsSnSe3
_symmetry_space_group_name_H-M   'P 1'
_cell_length_a   7.21448184
_cell_length_b   8.11715914
_cell_length_c   8.11377792
_cell_angle_alpha   102.65006054
_cell_angle_beta   113.74030089
_cell_angle_gamma   106.49861583
_symmetry_Int_Tables_number   1
_chemical_formula_structural   CsSnSe3
_chemical_formula_sum   'Cs2 Sn2 Se6'
_cell_volume   385.79052633
_cell_formula_units_Z   2
loop_
 _symmetry_equiv_pos_site_id
 _symmetry_equiv_pos_as_xyz
  1  'x, y, z'
loop_
 _atom_site_type_symbol
 _atom_site_label
 _atom_site_symmetry_multiplicity
 _atom_site_fract_x
 _atom_site_fract_y
 _atom_site_fract_z
 _atom_site_occupancy
  Cs  Cs0  1  0.22233900  0.18724600  0.84960800  1
  Cs  Cs1  1  0.77766100  0.81275400  0.15039200  1
  Sn  Sn2  1  0.21905300  0.50667800  0.42727000  1
  Sn  Sn3  1  0.78094800  0.49332200  0.57273000  1
  Se  Se4  1  0.66113600  0.76230500  0.56854500  1
  Se  Se5  1  0.18973900  0.60154600  0.13073200  1
  Se  Se6  1  0.33886400  0.23769500  0.43145500  1
  Se  Se7  1  0.22450000  0.70376400  0.72785900  1
  Se  Se8  1  0.77550000  0.29623600  0.27214100  1
  Se  Se9  1  0.81026100  0.39845400  0.86926800  1
