# generated using pymatgen
data_Ba3AlAs3
_symmetry_space_group_name_H-M   'P 1'
_cell_length_a   10.64863512
_cell_length_b   10.64863512
_cell_length_c   13.50932700
_cell_angle_alpha   90.00000000
_cell_angle_beta   90.00000000
_cell_angle_gamma   142.01060125
_symmetry_Int_Tables_number   1
_chemical_formula_structural   Ba3AlAs3
_chemical_formula_sum   'Ba12 Al4 As12'
_cell_volume   942.88931501
_cell_formula_units_Z   4
loop_
 _symmetry_equiv_pos_site_id
 _symmetry_equiv_pos_as_xyz
  1  'x, y, z'
loop_
 _atom_site_type_symbol
 _atom_site_label
 _atom_site_symmetry_multiplicity
 _atom_site_fract_x
 _atom_site_fract_y
 _atom_site_fract_z
 _atom_site_occupancy
  Ba  Ba0  1  0.83053700  0.83053700  0.34689100  1
  Ba  Ba1  1  0.16946300  0.16946300  0.65310900  1
  Ba  Ba2  1  0.66946300  0.66946300  0.84689100  1
  Ba  Ba3  1  0.33053700  0.33053700  0.15310900  1
  Ba  Ba4  1  0.86425900  0.51174700  0.13003400  1
  Ba  Ba5  1  0.48825300  0.13574100  0.86996600  1
  Ba  Ba6  1  0.98825300  0.63574100  0.63003400  1
  Ba  Ba7  1  0.36425900  0.01174700  0.36996600  1
  Ba  Ba8  1  0.13574100  0.48825300  0.86996600  1
  Ba  Ba9  1  0.51174700  0.86425900  0.13003400  1
  Ba  Ba10  1  0.01174700  0.36425900  0.36996600  1
  Ba  Ba11  1  0.63574100  0.98825300  0.63003400  1
  Al  Al12  1  0.08265600  0.91734400  0.00000000  1
  Al  Al13  1  0.58265600  0.41734400  0.50000000  1
  Al  Al14  1  0.91734400  0.08265600  0.00000000  1
  Al  Al15  1  0.41734400  0.58265600  0.50000000  1
  As  As16  1  0.79707900  0.79707900  0.09609200  1
  As  As17  1  0.20292100  0.20292100  0.90390800  1
  As  As18  1  0.70292100  0.70292100  0.59609200  1
  As  As19  1  0.29707900  0.29707900  0.40390800  1
  As  As20  1  0.03510200  0.34695300  0.11780200  1
  As  As21  1  0.65304700  0.96489800  0.88219800  1
  As  As22  1  0.15304700  0.46489800  0.61780200  1
  As  As23  1  0.53510200  0.84695300  0.38219800  1
  As  As24  1  0.96489800  0.65304700  0.88219800  1
  As  As25  1  0.34695300  0.03510200  0.11780200  1
  As  As26  1  0.84695300  0.53510200  0.38219800  1
  As  As27  1  0.46489800  0.15304700  0.61780200  1
