# generated using pymatgen
data_Cs4ZnO3
_symmetry_space_group_name_H-M   'P 1'
_cell_length_a   19.21464300
_cell_length_b   7.15247500
_cell_length_c   7.27659703
_cell_angle_alpha   63.82529007
_cell_angle_beta   90.00000000
_cell_angle_gamma   90.00000000
_symmetry_Int_Tables_number   1
_chemical_formula_structural   Cs4ZnO3
_chemical_formula_sum   'Cs16 Zn4 O12'
_cell_volume   897.48827667
_cell_formula_units_Z   4
loop_
 _symmetry_equiv_pos_site_id
 _symmetry_equiv_pos_as_xyz
  1  'x, y, z'
loop_
 _atom_site_type_symbol
 _atom_site_label
 _atom_site_symmetry_multiplicity
 _atom_site_fract_x
 _atom_site_fract_y
 _atom_site_fract_z
 _atom_site_occupancy
  Cs  Cs0  1  0.07593300  0.34982800  0.14972200  1
  Cs  Cs1  1  0.57593300  0.15017200  0.85027800  1
  Cs  Cs2  1  0.92406700  0.65017200  0.85027800  1
  Cs  Cs3  1  0.42406700  0.84982800  0.14972200  1
  Cs  Cs4  1  0.69344700  0.32541000  0.21667900  1
  Cs  Cs5  1  0.19344700  0.17459000  0.78332100  1
  Cs  Cs6  1  0.30655300  0.67459000  0.78332100  1
  Cs  Cs7  1  0.80655300  0.82541000  0.21667900  1
  Cs  Cs8  1  0.50058600  0.29121800  0.29009300  1
  Cs  Cs9  1  0.00058600  0.20878200  0.70990700  1
  Cs  Cs10  1  0.49941400  0.70878200  0.70990700  1
  Cs  Cs11  1  0.99941400  0.79121800  0.29009300  1
  Cs  Cs12  1  0.80639600  0.28293400  0.66671400  1
  Cs  Cs13  1  0.30639600  0.21706600  0.33328600  1
  Cs  Cs14  1  0.19360400  0.71706600  0.33328600  1
  Cs  Cs15  1  0.69360400  0.78293400  0.66671400  1
  Zn  Zn16  1  0.88302600  0.21219500  0.28635500  1
  Zn  Zn17  1  0.38302600  0.28780500  0.71364500  1
  Zn  Zn18  1  0.11697400  0.78780500  0.71364500  1
  Zn  Zn19  1  0.61697400  0.71219500  0.28635500  1
  O  O20  1  0.90740800  0.18896300  0.03951200  1
  O  O21  1  0.40740800  0.31103700  0.96048800  1
  O  O22  1  0.09259200  0.81103700  0.96048800  1
  O  O23  1  0.59259200  0.68896300  0.03951200  1
  O  O24  1  0.90197700  0.46672700  0.30970300  1
  O  O25  1  0.40197700  0.03327300  0.69029700  1
  O  O26  1  0.09802300  0.53327300  0.69029700  1
  O  O27  1  0.59802300  0.96672700  0.30970300  1
  O  O28  1  0.66532800  0.48450000  0.50584100  1
  O  O29  1  0.16532800  0.01550000  0.49415900  1
  O  O30  1  0.33467200  0.51550000  0.49415900  1
  O  O31  1  0.83467200  0.98450000  0.50584100  1
