# generated using pymatgen
data_Rb2TeMo2(PO7)2
_symmetry_space_group_name_H-M   'P 1'
_cell_length_a   9.24481500
_cell_length_b   11.52427400
_cell_length_c   12.68304400
_cell_angle_alpha   90.00000000
_cell_angle_beta   90.00000000
_cell_angle_gamma   90.00000000
_symmetry_Int_Tables_number   1
_chemical_formula_structural   Rb2TeMo2(PO7)2
_chemical_formula_sum   'Rb8 Te4 Mo8 P8 O56'
_cell_volume   1351.24873194
_cell_formula_units_Z   4
loop_
 _symmetry_equiv_pos_site_id
 _symmetry_equiv_pos_as_xyz
  1  'x, y, z'
loop_
 _atom_site_type_symbol
 _atom_site_label
 _atom_site_symmetry_multiplicity
 _atom_site_fract_x
 _atom_site_fract_y
 _atom_site_fract_z
 _atom_site_occupancy
  Rb  Rb0  1  0.03134700  0.21748400  0.68317500  1
  Rb  Rb1  1  0.46865300  0.78251600  0.18317500  1
  Rb  Rb2  1  0.46865300  0.71748400  0.81682500  1
  Rb  Rb3  1  0.96865300  0.71748400  0.68317500  1
  Rb  Rb4  1  0.96865300  0.78251600  0.31682500  1
  Rb  Rb5  1  0.53134700  0.21748400  0.81682500  1
  Rb  Rb6  1  0.53134700  0.28251600  0.18317500  1
  Rb  Rb7  1  0.03134700  0.28251600  0.31682500  1
  Te  Te8  1  0.12797300  0.25000000  0.00000000  1
  Te  Te9  1  0.37202700  0.75000000  0.50000000  1
  Te  Te10  1  0.87202700  0.75000000  0.00000000  1
  Te  Te11  1  0.62797300  0.25000000  0.50000000  1
  Mo  Mo12  1  0.25208100  0.98156100  0.87902600  1
  Mo  Mo13  1  0.75208100  0.51843900  0.37902600  1
  Mo  Mo14  1  0.75208100  0.98156100  0.62097400  1
  Mo  Mo15  1  0.74791900  0.01843900  0.12097400  1
  Mo  Mo16  1  0.25208100  0.51843900  0.12097400  1
  Mo  Mo17  1  0.24791900  0.01843900  0.37902600  1
  Mo  Mo18  1  0.74791900  0.48156100  0.87902600  1
  Mo  Mo19  1  0.24791900  0.48156100  0.62097400  1
  P  P20  1  0.63495200  0.99763900  0.36769100  1
  P  P21  1  0.63495200  0.50236100  0.63230900  1
  P  P22  1  0.86504800  0.49763900  0.13230900  1
  P  P23  1  0.86504800  0.00236100  0.86769100  1
  P  P24  1  0.36504800  0.00236100  0.63230900  1
  P  P25  1  0.36504800  0.49763900  0.36769100  1
  P  P26  1  0.13495200  0.50236100  0.86769100  1
  P  P27  1  0.13495200  0.99763900  0.13230900  1
  O  O28  1  0.64253700  0.13236600  0.36821700  1
  O  O29  1  0.64253700  0.36763400  0.63178300  1
  O  O30  1  0.85746300  0.63236600  0.13178300  1
  O  O31  1  0.85746300  0.86763400  0.86821700  1
  O  O32  1  0.35746300  0.86763400  0.63178300  1
  O  O33  1  0.35746300  0.63236600  0.36821700  1
  O  O34  1  0.14253700  0.36763400  0.86821700  1
  O  O35  1  0.14253700  0.13236600  0.13178300  1
  O  O36  1  0.52085200  0.45153300  0.36236200  1
  O  O37  1  0.52085200  0.04846700  0.63763800  1
  O  O38  1  0.97914800  0.95153300  0.13763800  1
  O  O39  1  0.97914800  0.54846700  0.86236200  1
  O  O40  1  0.47914800  0.54846700  0.63763800  1
  O  O41  1  0.47914800  0.95153300  0.36236200  1
  O  O42  1  0.02085200  0.04846700  0.86236200  1
  O  O43  1  0.02085200  0.45153300  0.13763800  1
  O  O44  1  0.70906000  0.55331900  0.53258400  1
  O  O45  1  0.70906000  0.94668100  0.46741600  1
  O  O46  1  0.79094000  0.05331900  0.96741600  1
  O  O47  1  0.79094000  0.44668100  0.03258400  1
  O  O48  1  0.31224700  0.34660000  0.66174900  1
  O  O49  1  0.29094000  0.44668100  0.46741600  1
  O  O50  1  0.20906000  0.94668100  0.03258400  1
  O  O51  1  0.20906000  0.55331900  0.96741600  1
  O  O52  1  0.68775300  0.65340000  0.33825100  1
  O  O53  1  0.68775300  0.84660000  0.66174900  1
  O  O54  1  0.81224700  0.15340000  0.16174900  1
  O  O55  1  0.81224700  0.34660000  0.83825100  1
  O  O56  1  0.26383100  0.34290100  0.07254300  1
  O  O57  1  0.26383100  0.15709900  0.92745700  1
  O  O58  1  0.23616900  0.84290100  0.42745700  1
  O  O59  1  0.23616900  0.65709900  0.57254300  1
  O  O60  1  0.73616900  0.65709900  0.92745700  1
  O  O61  1  0.73616900  0.84290100  0.07254300  1
  O  O62  1  0.76383100  0.15709900  0.57254300  1
  O  O63  1  0.76383100  0.34290100  0.42745700  1
  O  O64  1  0.27586700  0.45191000  0.27127200  1
  O  O65  1  0.27586700  0.04809000  0.72872800  1
  O  O66  1  0.22413300  0.95191000  0.22872800  1
  O  O67  1  0.22413300  0.54809000  0.77127200  1
  O  O68  1  0.72413300  0.54809000  0.72872800  1
  O  O69  1  0.72413300  0.95191000  0.27127200  1
  O  O70  1  0.77586700  0.04809000  0.77127200  1
  O  O71  1  0.77586700  0.45191000  0.22872800  1
  O  O72  1  0.43687000  0.54280300  0.11060600  1
  O  O73  1  0.43687000  0.95719700  0.88939400  1
  O  O74  1  0.06313000  0.04280300  0.38939400  1
  O  O75  1  0.06313000  0.45719700  0.61060600  1
  O  O76  1  0.56313000  0.45719700  0.88939400  1
  O  O77  1  0.56313000  0.04280300  0.11060600  1
  O  O78  1  0.93687000  0.95719700  0.61060600  1
  O  O79  1  0.93687000  0.54280300  0.38939400  1
  O  O80  1  0.18775300  0.65340000  0.16174900  1
  O  O81  1  0.18775300  0.84660000  0.83825100  1
  O  O82  1  0.31224700  0.15340000  0.33825100  1
  O  O83  1  0.29094000  0.05331900  0.53258400  1
