# generated using pymatgen
data_Rb6HgS4
_symmetry_space_group_name_H-M   'P 1'
_cell_length_a   10.49592192
_cell_length_b   10.49592192
_cell_length_c   8.09502900
_cell_angle_alpha   90.00000000
_cell_angle_beta   90.00000000
_cell_angle_gamma   119.99999952
_symmetry_Int_Tables_number   1
_chemical_formula_structural   Rb6HgS4
_chemical_formula_sum   'Rb12 Hg2 S8'
_cell_volume   772.30745244
_cell_formula_units_Z   2
loop_
 _symmetry_equiv_pos_site_id
 _symmetry_equiv_pos_as_xyz
  1  'x, y, z'
loop_
 _atom_site_type_symbol
 _atom_site_label
 _atom_site_symmetry_multiplicity
 _atom_site_fract_x
 _atom_site_fract_y
 _atom_site_fract_z
 _atom_site_occupancy
  Rb  Rb0  1  0.14843900  0.29687800  0.20679300  1
  Rb  Rb1  1  0.14843900  0.85156100  0.20679300  1
  Rb  Rb2  1  0.70312200  0.85156100  0.20679300  1
  Rb  Rb3  1  0.85156100  0.70312200  0.70679300  1
  Rb  Rb4  1  0.85156100  0.14843900  0.70679300  1
  Rb  Rb5  1  0.29687800  0.14843900  0.70679300  1
  Rb  Rb6  1  0.52909300  0.05818700  0.37829400  1
  Rb  Rb7  1  0.52909300  0.47090700  0.37829400  1
  Rb  Rb8  1  0.94181300  0.47090700  0.37829400  1
  Rb  Rb9  1  0.47090700  0.94181300  0.87829400  1
  Rb  Rb10  1  0.47090700  0.52909300  0.87829400  1
  Rb  Rb11  1  0.05818700  0.52909300  0.87829400  1
  Hg  Hg12  1  0.33333300  0.66666700  0.50013900  1
  Hg  Hg13  1  0.66666700  0.33333300  0.00013900  1
  S  S14  1  0.33333300  0.66666700  0.16794400  1
  S  S15  1  0.66666700  0.33333300  0.66794400  1
  S  S16  1  0.80634100  0.61268200  0.09987900  1
  S  S17  1  0.80634100  0.19365900  0.09987900  1
  S  S18  1  0.38731800  0.19365900  0.09987900  1
  S  S19  1  0.19365900  0.38731800  0.59987900  1
  S  S20  1  0.19365900  0.80634100  0.59987900  1
  S  S21  1  0.61268200  0.80634100  0.59987900  1
