# generated using pymatgen
data_Cs2GaP4H3O14
_symmetry_space_group_name_H-M   'P 1'
_cell_length_a   5.14979600
_cell_length_b   8.12510000
_cell_length_c   17.24640321
_cell_angle_alpha   90.00000000
_cell_angle_beta   99.49110233
_cell_angle_gamma   90.00000000
_symmetry_Int_Tables_number   1
_chemical_formula_structural   Cs2GaP4H3O14
_chemical_formula_sum   'Cs4 Ga2 P8 H6 O28'
_cell_volume   711.75618470
_cell_formula_units_Z   2
loop_
 _symmetry_equiv_pos_site_id
 _symmetry_equiv_pos_as_xyz
  1  'x, y, z'
loop_
 _atom_site_type_symbol
 _atom_site_label
 _atom_site_symmetry_multiplicity
 _atom_site_fract_x
 _atom_site_fract_y
 _atom_site_fract_z
 _atom_site_occupancy
  Cs  Cs0  1  0.04212900  0.41583100  0.63521300  1
  Cs  Cs1  1  0.04212900  0.08416900  0.13521300  1
  Cs  Cs2  1  0.95787100  0.58416900  0.36478700  1
  Cs  Cs3  1  0.95787100  0.91583100  0.86478700  1
  Ga  Ga4  1  0.00000000  0.50000000  0.00000000  1
  Ga  Ga5  1  0.00000000  0.00000000  0.50000000  1
  P  P6  1  0.47450900  0.27446700  0.95814300  1
  P  P7  1  0.47450900  0.22553300  0.45814300  1
  P  P8  1  0.52549100  0.72553300  0.04185700  1
  P  P9  1  0.52549100  0.77446700  0.54185700  1
  P  P10  1  0.66589800  0.44300300  0.82579100  1
  P  P11  1  0.66589800  0.05699700  0.32579100  1
  P  P12  1  0.33410200  0.55699700  0.17420900  1
  P  P13  1  0.33410200  0.94300300  0.67420900  1
  H  H14  1  0.50000000  0.50000000  0.50000000  1
  H  H15  1  0.50000000  0.00000000  0.00000000  1
  H  H16  1  0.66738900  0.20995600  0.75860100  1
  H  H17  1  0.66738900  0.29004400  0.25860100  1
  H  H18  1  0.33261100  0.79004400  0.24139900  1
  H  H19  1  0.33261100  0.70995600  0.74139900  1
  O  O20  1  0.45433300  0.35428200  0.87167300  1
  O  O21  1  0.45433300  0.14571800  0.37167300  1
  O  O22  1  0.54566700  0.64571800  0.12832700  1
  O  O23  1  0.54566700  0.85428200  0.62832700  1
  O  O24  1  0.52162900  0.08905200  0.94558700  1
  O  O25  1  0.52162900  0.41094800  0.44558700  1
  O  O26  1  0.47837100  0.91094800  0.05441300  1
  O  O27  1  0.47837100  0.58905200  0.55441300  1
  O  O28  1  0.20689200  0.29767100  0.98378200  1
  O  O29  1  0.20689200  0.20232900  0.48378200  1
  O  O30  1  0.79310800  0.70232900  0.01621800  1
  O  O31  1  0.79310800  0.79767100  0.51621800  1
  O  O32  1  0.70346300  0.14640900  0.51357200  1
  O  O33  1  0.70346300  0.35359100  0.01357200  1
  O  O34  1  0.29653700  0.85359100  0.48642800  1
  O  O35  1  0.29653700  0.64640900  0.98642800  1
  O  O36  1  0.11995900  0.02391600  0.61543500  1
  O  O37  1  0.11995900  0.47608400  0.11543500  1
  O  O38  1  0.88004100  0.97608400  0.38456500  1
  O  O39  1  0.88004100  0.52391600  0.88456500  1
  O  O40  1  0.79706700  0.29575200  0.78514500  1
  O  O41  1  0.79706700  0.20424800  0.28514500  1
  O  O42  1  0.20293300  0.70424800  0.21485500  1
  O  O43  1  0.20293300  0.79575200  0.71485500  1
  O  O44  1  0.48444400  0.05477100  0.73528100  1
  O  O45  1  0.48444400  0.44522900  0.23528100  1
  O  O46  1  0.51555600  0.94522900  0.26471900  1
  O  O47  1  0.51555600  0.55477100  0.76471900  1
