# generated using pymatgen
data_Tb3Os
_symmetry_space_group_name_H-M   'P 1'
_cell_length_a   6.36212400
_cell_length_b   7.39538000
_cell_length_c   9.14061200
_cell_angle_alpha   90.00000000
_cell_angle_beta   90.00000000
_cell_angle_gamma   90.00000000
_symmetry_Int_Tables_number   1
_chemical_formula_structural   Tb3Os
_chemical_formula_sum   'Tb12 Os4'
_cell_volume   430.06876152
_cell_formula_units_Z   4
loop_
 _symmetry_equiv_pos_site_id
 _symmetry_equiv_pos_as_xyz
  1  'x, y, z'
loop_
 _atom_site_type_symbol
 _atom_site_label
 _atom_site_symmetry_multiplicity
 _atom_site_fract_x
 _atom_site_fract_y
 _atom_site_fract_z
 _atom_site_occupancy
  Tb  Tb0  1  0.33100100  0.67601400  0.06384700  1
  Tb  Tb1  1  0.16899900  0.17601400  0.43615300  1
  Tb  Tb2  1  0.66899900  0.32398600  0.56384700  1
  Tb  Tb3  1  0.83100100  0.82398600  0.93615300  1
  Tb  Tb4  1  0.66899900  0.32398600  0.93615300  1
  Tb  Tb5  1  0.83100100  0.82398600  0.56384700  1
  Tb  Tb6  1  0.33100100  0.67601400  0.43615300  1
  Tb  Tb7  1  0.16899900  0.17601400  0.06384700  1
  Tb  Tb8  1  0.86754200  0.53848700  0.25000000  1
  Tb  Tb9  1  0.63245800  0.03848700  0.25000000  1
  Tb  Tb10  1  0.13245800  0.46151300  0.75000000  1
  Tb  Tb11  1  0.36754200  0.96151300  0.75000000  1
  Os  Os12  1  0.04236100  0.88434800  0.25000000  1
  Os  Os13  1  0.45763900  0.38434800  0.25000000  1
  Os  Os14  1  0.95763900  0.11565200  0.75000000  1
  Os  Os15  1  0.54236100  0.61565200  0.75000000  1
