# generated using pymatgen
data_BaMn3(PO4)3
_symmetry_space_group_name_H-M   'P 1'
_cell_length_a   9.46721710
_cell_length_b   9.46721710
_cell_length_c   9.46721710
_cell_angle_alpha   137.83616822
_cell_angle_beta   112.46759234
_cell_angle_gamma   82.91225168
_symmetry_Int_Tables_number   1
_chemical_formula_structural   BaMn3(PO4)3
_chemical_formula_sum   'Ba2 Mn6 P6 O24'
_cell_volume   508.56107374
_cell_formula_units_Z   2
loop_
 _symmetry_equiv_pos_site_id
 _symmetry_equiv_pos_as_xyz
  1  'x, y, z'
loop_
 _atom_site_type_symbol
 _atom_site_label
 _atom_site_symmetry_multiplicity
 _atom_site_fract_x
 _atom_site_fract_y
 _atom_site_fract_z
 _atom_site_occupancy
  Ba  Ba0  1  0.75000000  0.86554200  0.11554200  1
  Ba  Ba1  1  0.25000000  0.13445800  0.88445800  1
  Mn  Mn2  1  0.61821200  0.61821200  0.50000000  1
  Mn  Mn3  1  0.88178800  0.38178800  0.00000000  1
  Mn  Mn4  1  0.11821200  0.61821200  0.00000000  1
  Mn  Mn5  1  0.38178800  0.38178800  0.50000000  1
  Mn  Mn6  1  0.00000000  0.50000000  0.50000000  1
  Mn  Mn7  1  0.50000000  0.00000000  0.50000000  1
  P  P8  1  0.75000000  0.35294300  0.60294300  1
  P  P9  1  0.25000000  0.64705700  0.39705700  1
  P  P10  1  0.82105900  0.82105900  0.50000000  1
  P  P11  1  0.67894100  0.17894100  0.00000000  1
  P  P12  1  0.32105900  0.82105900  0.00000000  1
  P  P13  1  0.17894100  0.17894100  0.50000000  1
  O  O14  1  0.66033800  0.13719900  0.47686100  1
  O  O15  1  0.33966200  0.86280100  0.52313900  1
  O  O16  1  0.16033800  0.68347700  0.52313900  1
  O  O17  1  0.83966200  0.31652300  0.47686100  1
  O  O18  1  0.63163400  0.49392200  0.62555600  1
  O  O19  1  0.13163400  0.50607800  0.13771300  1
  O  O20  1  0.36836600  0.50607800  0.37444400  1
  O  O21  1  0.86836600  0.49392200  0.86228700  1
  O  O22  1  0.91958400  0.05801200  0.71700600  1
  O  O23  1  0.65899500  0.94198800  0.86157300  1
  O  O24  1  0.41958400  0.70257800  0.86157300  1
  O  O25  1  0.15899500  0.29742200  0.71700600  1
  O  O26  1  0.08041600  0.94198800  0.28299400  1
  O  O27  1  0.34100500  0.05801200  0.13842700  1
  O  O28  1  0.58041600  0.29742200  0.13842700  1
  O  O29  1  0.84100500  0.70257800  0.28299400  1
  O  O30  1  0.63727100  0.79794400  0.43789700  1
  O  O31  1  0.63995300  0.20205600  0.83932700  1
  O  O32  1  0.13727100  0.69937400  0.83932700  1
  O  O33  1  0.13995300  0.30062600  0.43789700  1
  O  O34  1  0.36272900  0.20205600  0.56210300  1
  O  O35  1  0.36004700  0.79794400  0.16067300  1
  O  O36  1  0.86272900  0.30062600  0.16067300  1
  O  O37  1  0.86004700  0.69937400  0.56210300  1
