# generated using pymatgen
data_Zr3Sc
_symmetry_space_group_name_H-M   'P 1'
_cell_length_a   6.49590050
_cell_length_b   6.49590050
_cell_length_c   5.16633700
_cell_angle_alpha   90.00000000
_cell_angle_beta   90.00000000
_cell_angle_gamma   120.00000511
_symmetry_Int_Tables_number   1
_chemical_formula_structural   Zr3Sc
_chemical_formula_sum   'Zr6 Sc2'
_cell_volume   188.79568732
_cell_formula_units_Z   2
loop_
 _symmetry_equiv_pos_site_id
 _symmetry_equiv_pos_as_xyz
  1  'x, y, z'
loop_
 _atom_site_type_symbol
 _atom_site_label
 _atom_site_symmetry_multiplicity
 _atom_site_fract_x
 _atom_site_fract_y
 _atom_site_fract_z
 _atom_site_occupancy
  Zr  Zr0  1  0.16739100  0.83260900  0.25000000  1
  Zr  Zr1  1  0.83260900  0.66521800  0.75000000  1
  Zr  Zr2  1  0.33478200  0.16739100  0.75000000  1
  Zr  Zr3  1  0.83260900  0.16739100  0.75000000  1
  Zr  Zr4  1  0.16739100  0.33478200  0.25000000  1
  Zr  Zr5  1  0.66521800  0.83260900  0.25000000  1
  Sc  Sc6  1  0.33333300  0.66666700  0.75000000  1
  Sc  Sc7  1  0.66666700  0.33333300  0.25000000  1
