# generated using pymatgen
data_U11Se20
_symmetry_space_group_name_H-M   'P 1'
_cell_length_a   10.72251500
_cell_length_b   10.72251500
_cell_length_c   6.69360400
_cell_angle_alpha   90.00000000
_cell_angle_beta   90.00000000
_cell_angle_gamma   90.00000000
_symmetry_Int_Tables_number   1
_chemical_formula_structural   U11Se20
_chemical_formula_sum   'U11 Se20'
_cell_volume   769.57923409
_cell_formula_units_Z   1
loop_
 _symmetry_equiv_pos_site_id
 _symmetry_equiv_pos_as_xyz
  1  'x, y, z'
loop_
 _atom_site_type_symbol
 _atom_site_label
 _atom_site_symmetry_multiplicity
 _atom_site_fract_x
 _atom_site_fract_y
 _atom_site_fract_z
 _atom_site_occupancy
  U  U0  1  0.83913200  0.64989100  0.25051500  1
  U  U1  1  0.84166100  0.34834000  0.75049600  1
  U  U2  1  0.15833900  0.65166000  0.75049600  1
  U  U3  1  0.16086800  0.35010900  0.25051500  1
  U  U4  1  0.65166000  0.84166100  0.75049600  1
  U  U5  1  0.64989100  0.16086800  0.25051500  1
  U  U6  1  0.35010900  0.83913200  0.25051500  1
  U  U7  1  0.34834000  0.15833900  0.75049600  1
  U  U8  1  0.50000000  0.50000000  0.63652400  1
  U  U9  1  0.00000000  0.00000000  0.86061600  1
  U  U10  1  0.00000000  0.00000000  0.36104300  1
  Se  Se11  1  0.29039800  0.58880000  0.38470700  1
  Se  Se12  1  0.29042600  0.41188500  0.87737600  1
  Se  Se13  1  0.70957400  0.58811500  0.87737600  1
  Se  Se14  1  0.70960200  0.41120000  0.38470700  1
  Se  Se15  1  0.58811500  0.29042600  0.87737600  1
  Se  Se16  1  0.58880000  0.70960200  0.38470700  1
  Se  Se17  1  0.41120000  0.29039800  0.38470700  1
  Se  Se18  1  0.41188500  0.70957400  0.87737600  1
  Se  Se19  1  0.20908600  0.91265500  0.61811600  1
  Se  Se20  1  0.20940300  0.08755300  0.11941000  1
  Se  Se21  1  0.79059700  0.91244700  0.11941000  1
  Se  Se22  1  0.79091400  0.08734500  0.61811600  1
  Se  Se23  1  0.91244700  0.20940300  0.11941000  1
  Se  Se24  1  0.91265500  0.79091400  0.61811600  1
  Se  Se25  1  0.08734500  0.20908600  0.61811600  1
  Se  Se26  1  0.08755300  0.79059700  0.11941000  1
  Se  Se27  1  0.00000000  0.50000000  0.50003900  1
  Se  Se28  1  0.00000000  0.50000000  0.00163100  1
  Se  Se29  1  0.50000000  0.00000000  0.00163100  1
  Se  Se30  1  0.50000000  0.00000000  0.50003900  1
