# generated using pymatgen
data_Zr3Te
_symmetry_space_group_name_H-M   'P 1'
_cell_length_a   8.55333261
_cell_length_b   8.55333261
_cell_length_c   8.55333261
_cell_angle_alpha   96.33791000
_cell_angle_beta   96.33791000
_cell_angle_gamma   141.18885899
_symmetry_Int_Tables_number   1
_chemical_formula_structural   Zr3Te
_chemical_formula_sum   'Zr12 Te4'
_cell_volume   369.91630832
_cell_formula_units_Z   4
loop_
 _symmetry_equiv_pos_site_id
 _symmetry_equiv_pos_as_xyz
  1  'x, y, z'
loop_
 _atom_site_type_symbol
 _atom_site_label
 _atom_site_symmetry_multiplicity
 _atom_site_fract_x
 _atom_site_fract_y
 _atom_site_fract_z
 _atom_site_occupancy
  Zr  Zr0  1  0.87143900  0.68610000  0.97896600  1
  Zr  Zr1  1  0.31390000  0.29286600  0.18533900  1
  Zr  Zr2  1  0.10752700  0.12856100  0.81466100  1
  Zr  Zr3  1  0.70713400  0.89247300  0.02103400  1
  Zr  Zr4  1  0.38148400  0.00478700  0.33932700  1
  Zr  Zr5  1  0.99521300  0.33454000  0.37669700  1
  Zr  Zr6  1  0.95784300  0.61851600  0.62330300  1
  Zr  Zr7  1  0.66546000  0.04215700  0.66067300  1
  Zr  Zr8  1  0.42196000  0.01820200  0.96950100  1
  Zr  Zr9  1  0.98179800  0.95129900  0.40375800  1
  Zr  Zr10  1  0.54754100  0.57804000  0.59624200  1
  Zr  Zr11  1  0.04870100  0.45245900  0.03049900  1
  Te  Te12  1  0.81204300  0.49193900  0.25650900  1
  Te  Te13  1  0.50806100  0.76457000  0.32010400  1
  Te  Te14  1  0.44446500  0.18795700  0.67989600  1
  Te  Te15  1  0.23543000  0.55553500  0.74349100  1
