# generated using pymatgen
data_Tl2GeSe3
_symmetry_space_group_name_H-M   'P 1'
_cell_length_a   7.09331000
_cell_length_b   7.23949245
_cell_length_c   8.95971342
_cell_angle_alpha   89.58572140
_cell_angle_beta   111.77099072
_cell_angle_gamma   113.55201644
_symmetry_Int_Tables_number   1
_chemical_formula_structural   Tl2GeSe3
_chemical_formula_sum   'Tl4 Ge2 Se6'
_cell_volume   386.28046725
_cell_formula_units_Z   2
loop_
 _symmetry_equiv_pos_site_id
 _symmetry_equiv_pos_as_xyz
  1  'x, y, z'
loop_
 _atom_site_type_symbol
 _atom_site_label
 _atom_site_symmetry_multiplicity
 _atom_site_fract_x
 _atom_site_fract_y
 _atom_site_fract_z
 _atom_site_occupancy
  Tl  Tl0  1  0.72964300  0.31901500  0.10196600  1
  Tl  Tl1  1  0.27035700  0.68098500  0.89803400  1
  Tl  Tl2  1  0.86851100  0.04282500  0.66746000  1
  Tl  Tl3  1  0.13148900  0.95717500  0.33254000  1
  Ge  Ge4  1  0.42917100  0.54954100  0.31535700  1
  Ge  Ge5  1  0.57082900  0.45045900  0.68464300  1
  Se  Se6  1  0.76290400  0.70778900  0.91417200  1
  Se  Se7  1  0.23709600  0.29221100  0.08582800  1
  Se  Se8  1  0.51320300  0.88677900  0.26498500  1
  Se  Se9  1  0.48679700  0.11322100  0.73501500  1
  Se  Se10  1  0.22650500  0.46281100  0.49346200  1
  Se  Se11  1  0.77349500  0.53718900  0.50653800  1
