# generated using pymatgen
data_LuGaNi
_symmetry_space_group_name_H-M   'P 1'
_cell_length_a   4.25063900
_cell_length_b   6.68706200
_cell_length_c   7.16482400
_cell_angle_alpha   90.00000000
_cell_angle_beta   90.00000000
_cell_angle_gamma   90.00000000
_symmetry_Int_Tables_number   1
_chemical_formula_structural   LuGaNi
_chemical_formula_sum   'Lu4 Ga4 Ni4'
_cell_volume   203.65501033
_cell_formula_units_Z   4
loop_
 _symmetry_equiv_pos_site_id
 _symmetry_equiv_pos_as_xyz
  1  'x, y, z'
loop_
 _atom_site_type_symbol
 _atom_site_label
 _atom_site_symmetry_multiplicity
 _atom_site_fract_x
 _atom_site_fract_y
 _atom_site_fract_z
 _atom_site_occupancy
  Lu  Lu0  1  0.25000000  0.01810000  0.80242500  1
  Lu  Lu1  1  0.25000000  0.51810000  0.69757500  1
  Lu  Lu2  1  0.75000000  0.98190000  0.19757500  1
  Lu  Lu3  1  0.75000000  0.48190000  0.30242500  1
  Ga  Ga4  1  0.25000000  0.18340400  0.41975400  1
  Ga  Ga5  1  0.25000000  0.68340400  0.08024600  1
  Ga  Ga6  1  0.75000000  0.81659600  0.58024600  1
  Ga  Ga7  1  0.75000000  0.31659600  0.91975400  1
  Ni  Ni8  1  0.25000000  0.79323200  0.40914000  1
  Ni  Ni9  1  0.25000000  0.29323200  0.09086000  1
  Ni  Ni10  1  0.75000000  0.20676800  0.59086000  1
  Ni  Ni11  1  0.75000000  0.70676800  0.90914000  1
