# generated using pymatgen
data_LuSnIr
_symmetry_space_group_name_H-M   'P 1'
_cell_length_a   7.53470617
_cell_length_b   7.53470617
_cell_length_c   3.78625000
_cell_angle_alpha   90.00000000
_cell_angle_beta   90.00000000
_cell_angle_gamma   120.00000147
_symmetry_Int_Tables_number   1
_chemical_formula_structural   LuSnIr
_chemical_formula_sum   'Lu3 Sn3 Ir3'
_cell_volume   186.15407735
_cell_formula_units_Z   3
loop_
 _symmetry_equiv_pos_site_id
 _symmetry_equiv_pos_as_xyz
  1  'x, y, z'
loop_
 _atom_site_type_symbol
 _atom_site_label
 _atom_site_symmetry_multiplicity
 _atom_site_fract_x
 _atom_site_fract_y
 _atom_site_fract_z
 _atom_site_occupancy
  Lu  Lu0  1  0.00000000  0.40173900  0.50000000  1
  Lu  Lu1  1  0.59826100  0.59826100  0.50000000  1
  Lu  Lu2  1  0.40173900  0.00000000  0.50000000  1
  Sn  Sn3  1  0.00000000  0.73502800  0.00000000  1
  Sn  Sn4  1  0.26497200  0.26497200  0.00000000  1
  Sn  Sn5  1  0.73502800  0.00000000  0.00000000  1
  Ir  Ir6  1  0.33333300  0.66666700  0.00000000  1
  Ir  Ir7  1  0.66666700  0.33333300  0.00000000  1
  Ir  Ir8  1  0.00000000  0.00000000  0.50000000  1
