# generated using pymatgen
data_Dy4Zn5Ge6
_symmetry_space_group_name_H-M   'P 1'
_cell_length_a   9.50215911
_cell_length_b   9.50215911
_cell_length_c   15.19275400
_cell_angle_alpha   90.00000000
_cell_angle_beta   90.00000000
_cell_angle_gamma   153.68136586
_symmetry_Int_Tables_number   1
_chemical_formula_structural   Dy4Zn5Ge6
_chemical_formula_sum   'Dy8 Zn10 Ge12'
_cell_volume   608.19141323
_cell_formula_units_Z   2
loop_
 _symmetry_equiv_pos_site_id
 _symmetry_equiv_pos_as_xyz
  1  'x, y, z'
loop_
 _atom_site_type_symbol
 _atom_site_label
 _atom_site_symmetry_multiplicity
 _atom_site_fract_x
 _atom_site_fract_y
 _atom_site_fract_z
 _atom_site_occupancy
  Dy  Dy0  1  0.01941200  0.98058800  0.76299300  1
  Dy  Dy1  1  0.98058800  0.01941200  0.26299300  1
  Dy  Dy2  1  0.17559000  0.82441000  0.31874300  1
  Dy  Dy3  1  0.82441000  0.17559000  0.81874300  1
  Dy  Dy4  1  0.16747500  0.83252500  0.95945400  1
  Dy  Dy5  1  0.83252500  0.16747500  0.45945400  1
  Dy  Dy6  1  0.03273300  0.96726700  0.50047600  1
  Dy  Dy7  1  0.96726700  0.03273300  0.00047600  1
  Zn  Zn8  1  0.34610100  0.65389900  0.98930300  1
  Zn  Zn9  1  0.65389900  0.34610100  0.48930300  1
  Zn  Zn10  1  0.30020000  0.69980000  0.63876800  1
  Zn  Zn11  1  0.69980000  0.30020000  0.13876800  1
  Zn  Zn12  1  0.64861700  0.35138300  0.78273400  1
  Zn  Zn13  1  0.35138300  0.64861700  0.28273400  1
  Zn  Zn14  1  0.15075600  0.84924400  0.63602300  1
  Zn  Zn15  1  0.84924400  0.15075600  0.13602300  1
  Zn  Zn16  1  0.43477400  0.56522600  0.57735900  1
  Zn  Zn17  1  0.56522600  0.43477400  0.07735900  1
  Ge  Ge18  1  0.22945300  0.77054700  0.49723900  1
  Ge  Ge19  1  0.77054700  0.22945300  0.99723900  1
  Ge  Ge20  1  0.43075500  0.56924500  0.85609000  1
  Ge  Ge21  1  0.56924500  0.43075500  0.35609000  1
  Ge  Ge22  1  0.22445400  0.77554600  0.77807300  1
  Ge  Ge23  1  0.77554600  0.22445400  0.27807300  1
  Ge  Ge24  1  0.55944000  0.44056000  0.90886700  1
  Ge  Ge25  1  0.44056000  0.55944000  0.40886700  1
  Ge  Ge26  1  0.56701700  0.43298300  0.63419600  1
  Ge  Ge27  1  0.43298300  0.56701700  0.13419600  1
  Ge  Ge28  1  0.11104900  0.88895100  0.14585600  1
  Ge  Ge29  1  0.88895100  0.11104900  0.64585600  1
