# generated using pymatgen
data_Th(As4O9)2
_symmetry_space_group_name_H-M   'P 1'
_cell_length_a   9.65746810
_cell_length_b   9.65746810
_cell_length_c   17.75829536
_cell_angle_alpha   81.02429555
_cell_angle_beta   81.02429555
_cell_angle_gamma   31.88646614
_symmetry_Int_Tables_number   1
_chemical_formula_structural   Th(As4O9)2
_chemical_formula_sum   'Th2 As16 O36'
_cell_volume   863.30408188
_cell_formula_units_Z   2
loop_
 _symmetry_equiv_pos_site_id
 _symmetry_equiv_pos_as_xyz
  1  'x, y, z'
loop_
 _atom_site_type_symbol
 _atom_site_label
 _atom_site_symmetry_multiplicity
 _atom_site_fract_x
 _atom_site_fract_y
 _atom_site_fract_z
 _atom_site_occupancy
  Th  Th0  1  0.28083500  0.71916500  0.25000000  1
  Th  Th1  1  0.71916500  0.28083500  0.75000000  1
  As  As2  1  0.69901000  0.05530000  0.98183400  1
  As  As3  1  0.94470000  0.30099000  0.51816600  1
  As  As4  1  0.30099000  0.94470000  0.01816600  1
  As  As5  1  0.05530000  0.69901000  0.48183400  1
  As  As6  1  0.95087200  0.67129600  0.13806400  1
  As  As7  1  0.32870400  0.04912800  0.36193600  1
  As  As8  1  0.04912800  0.32870400  0.86193600  1
  As  As9  1  0.67129600  0.95087200  0.63806400  1
  As  As10  1  0.93440400  0.36574500  0.22378500  1
  As  As11  1  0.63425500  0.06559600  0.27621500  1
  As  As12  1  0.06559600  0.63425500  0.77621500  1
  As  As13  1  0.36574500  0.93440400  0.72378500  1
  As  As14  1  0.77291400  0.22438200  0.09315500  1
  As  As15  1  0.77561800  0.22708600  0.40684500  1
  As  As16  1  0.22708600  0.77561800  0.90684500  1
  As  As17  1  0.22438200  0.77291400  0.59315500  1
  O  O18  1  0.91381600  0.51059300  0.14189800  1
  O  O19  1  0.48940700  0.08618400  0.35810200  1
  O  O20  1  0.08618400  0.48940700  0.85810200  1
  O  O21  1  0.51059300  0.91381600  0.64189800  1
  O  O22  1  0.10942200  0.30772500  0.28459800  1
  O  O23  1  0.69227500  0.89057800  0.21540200  1
  O  O24  1  0.89057800  0.69227500  0.71540200  1
  O  O25  1  0.30772500  0.10942200  0.78459800  1
  O  O26  1  0.95037200  0.19078700  0.02290200  1
  O  O27  1  0.80921300  0.04962800  0.47709800  1
  O  O28  1  0.04962800  0.80921300  0.97709800  1
  O  O29  1  0.19078700  0.95037200  0.52290200  1
  O  O30  1  0.63400700  0.57822400  0.26477700  1
  O  O31  1  0.42177600  0.36599300  0.23522300  1
  O  O32  1  0.36599300  0.42177600  0.73522300  1
  O  O33  1  0.57822400  0.63400700  0.76477700  1
  O  O34  1  0.55627800  0.50689100  0.13589300  1
  O  O35  1  0.49310900  0.44372200  0.36410700  1
  O  O36  1  0.44372200  0.49310900  0.86410700  1
  O  O37  1  0.50689100  0.55627800  0.63589300  1
  O  O38  1  0.58532100  0.28573700  0.03927600  1
  O  O39  1  0.71426300  0.41467900  0.46072400  1
  O  O40  1  0.41467900  0.71426300  0.96072400  1
  O  O41  1  0.28573700  0.58532100  0.53927600  1
  O  O42  1  0.73357000  0.88167400  0.05841400  1
  O  O43  1  0.11832600  0.26643000  0.44158600  1
  O  O44  1  0.26643000  0.11832600  0.94158600  1
  O  O45  1  0.88167400  0.73357000  0.55841400  1
  O  O46  1  0.11091300  0.08465900  0.19348200  1
  O  O47  1  0.91534100  0.88908700  0.30651800  1
  O  O48  1  0.88908700  0.91534100  0.80651800  1
  O  O49  1  0.08465900  0.11091300  0.69348200  1
  O  O50  1  0.97181400  0.94546900  0.14882600  1
  O  O51  1  0.05453100  0.02818600  0.35117400  1
  O  O52  1  0.02818600  0.05453100  0.85117400  1
  O  O53  1  0.94546900  0.97181400  0.64882600  1
