# generated using pymatgen
data_RbMoP2O7
_symmetry_space_group_name_H-M   'P 1'
_cell_length_a   10.61996200
_cell_length_b   7.69720000
_cell_length_c   8.59978405
_cell_angle_alpha   73.83618685
_cell_angle_beta   90.00000000
_cell_angle_gamma   90.00000000
_symmetry_Int_Tables_number   1
_chemical_formula_structural   RbMoP2O7
_chemical_formula_sum   'Rb4 Mo4 P8 O28'
_cell_volume   675.19147166
_cell_formula_units_Z   4
loop_
 _symmetry_equiv_pos_site_id
 _symmetry_equiv_pos_as_xyz
  1  'x, y, z'
loop_
 _atom_site_type_symbol
 _atom_site_label
 _atom_site_symmetry_multiplicity
 _atom_site_fract_x
 _atom_site_fract_y
 _atom_site_fract_z
 _atom_site_occupancy
  Rb  Rb0  1  0.81981300  0.18575300  0.44118400  1
  Rb  Rb1  1  0.31981300  0.81424700  0.05881600  1
  Rb  Rb2  1  0.18018700  0.81424700  0.55881600  1
  Rb  Rb3  1  0.68018700  0.18575300  0.94118400  1
  Mo  Mo4  1  0.10106200  0.23661200  0.74209000  1
  Mo  Mo5  1  0.60106200  0.76338800  0.75791000  1
  Mo  Mo6  1  0.89893800  0.76338800  0.25791000  1
  Mo  Mo7  1  0.39893800  0.23661200  0.24209000  1
  P  P8  1  0.39998600  0.12805700  0.67490000  1
  P  P9  1  0.89998600  0.87194300  0.82510000  1
  P  P10  1  0.60001400  0.87194300  0.32510000  1
  P  P11  1  0.10001400  0.12805700  0.17490000  1
  P  P12  1  0.13402300  0.43483100  0.30889300  1
  P  P13  1  0.63402300  0.56516900  0.19110700  1
  P  P14  1  0.86597700  0.56516900  0.69110700  1
  P  P15  1  0.36597700  0.43483100  0.80889300  1
  O  O16  1  0.27467900  0.45038600  0.26408500  1
  O  O17  1  0.77467900  0.54961400  0.23591500  1
  O  O18  1  0.72532100  0.54961400  0.73591500  1
  O  O19  1  0.22532100  0.45038600  0.76408500  1
  O  O20  1  0.00263700  0.99906200  0.27858600  1
  O  O21  1  0.50263700  0.00093800  0.22141400  1
  O  O22  1  0.99736300  0.00093800  0.72141400  1
  O  O23  1  0.49736300  0.99906200  0.77858600  1
  O  O24  1  0.10419000  0.32369400  0.48095000  1
  O  O25  1  0.60419000  0.67630600  0.01905000  1
  O  O26  1  0.89581000  0.67630600  0.51905000  1
  O  O27  1  0.39581000  0.32369400  0.98095000  1
  O  O28  1  0.09394600  0.13799100  0.99769700  1
  O  O29  1  0.59394600  0.86200900  0.50230300  1
  O  O30  1  0.90605400  0.86200900  0.00230300  1
  O  O31  1  0.40605400  0.13799100  0.49769700  1
  O  O32  1  0.43492000  0.32801400  0.69185100  1
  O  O33  1  0.93492000  0.67198600  0.80814900  1
  O  O34  1  0.56508000  0.67198600  0.30814900  1
  O  O35  1  0.06508000  0.32801400  0.19185100  1
  O  O36  1  0.26805200  0.07700000  0.74837900  1
  O  O37  1  0.76805200  0.92300000  0.75162100  1
  O  O38  1  0.73194800  0.92300000  0.25162100  1
  O  O39  1  0.23194800  0.07700000  0.24837900  1
  O  O40  1  0.42325200  0.62441400  0.76106700  1
  O  O41  1  0.92325200  0.37558600  0.73893300  1
  O  O42  1  0.57674800  0.37558600  0.23893300  1
  O  O43  1  0.07674800  0.62441400  0.26106700  1
