# generated using pymatgen
data_ThCoH4
_symmetry_space_group_name_H-M   'P 1'
_cell_length_a   6.20753289
_cell_length_b   6.20753289
_cell_length_c   4.73093400
_cell_angle_alpha   90.00000000
_cell_angle_beta   90.00000000
_cell_angle_gamma   143.58488684
_symmetry_Int_Tables_number   1
_chemical_formula_structural   ThCoH4
_chemical_formula_sum   'Th2 Co2 H8'
_cell_volume   108.21853480
_cell_formula_units_Z   2
loop_
 _symmetry_equiv_pos_site_id
 _symmetry_equiv_pos_as_xyz
  1  'x, y, z'
loop_
 _atom_site_type_symbol
 _atom_site_label
 _atom_site_symmetry_multiplicity
 _atom_site_fract_x
 _atom_site_fract_y
 _atom_site_fract_z
 _atom_site_occupancy
  Th  Th0  1  0.86880300  0.13119700  0.75000000  1
  Th  Th1  1  0.13119700  0.86880300  0.25000000  1
  Co  Co2  1  0.59726800  0.40273200  0.75000000  1
  Co  Co3  1  0.40273200  0.59726800  0.25000000  1
  H  H4  1  0.08698900  0.91301100  0.75000000  1
  H  H5  1  0.91301100  0.08698900  0.25000000  1
  H  H6  1  0.69397500  0.30602500  0.49726900  1
  H  H7  1  0.30602500  0.69397500  0.50273100  1
  H  H8  1  0.69397500  0.30602500  0.00273100  1
  H  H9  1  0.30602500  0.69397500  0.99726900  1
  H  H10  1  0.50000000  0.50000000  0.00000000  1
  H  H11  1  0.50000000  0.50000000  0.50000000  1
