# generated using pymatgen
data_Y(NO3)3
_symmetry_space_group_name_H-M   'P 1'
_cell_length_a   6.22912600
_cell_length_b   9.88417800
_cell_length_c   11.26770308
_cell_angle_alpha   87.00290757
_cell_angle_beta   90.00000000
_cell_angle_gamma   90.00000000
_symmetry_Int_Tables_number   1
_chemical_formula_structural   Y(NO3)3
_chemical_formula_sum   'Y4 N12 O36'
_cell_volume   692.80119578
_cell_formula_units_Z   4
loop_
 _symmetry_equiv_pos_site_id
 _symmetry_equiv_pos_as_xyz
  1  'x, y, z'
loop_
 _atom_site_type_symbol
 _atom_site_label
 _atom_site_symmetry_multiplicity
 _atom_site_fract_x
 _atom_site_fract_y
 _atom_site_fract_z
 _atom_site_occupancy
  Y  Y0  1  0.68128400  0.28664000  0.73346900  1
  Y  Y1  1  0.18128400  0.21336000  0.26653100  1
  Y  Y2  1  0.31871600  0.71336000  0.26653100  1
  Y  Y3  1  0.81871600  0.78664000  0.73346900  1
  N  N4  1  0.38793500  0.17591700  0.49242600  1
  N  N5  1  0.88793500  0.32408300  0.50757400  1
  N  N6  1  0.61206500  0.82408300  0.50757400  1
  N  N7  1  0.11206500  0.67591700  0.49242600  1
  N  N8  1  0.73278300  0.19742200  0.21562000  1
  N  N9  1  0.23278300  0.30257800  0.78438000  1
  N  N10  1  0.26721700  0.80257800  0.78438000  1
  N  N11  1  0.76721700  0.69742200  0.21562000  1
  N  N12  1  0.71774600  0.52697800  0.87717200  1
  N  N13  1  0.21774600  0.97302200  0.12282800  1
  N  N14  1  0.28225400  0.47302200  0.12282800  1
  N  N15  1  0.78225400  0.02697800  0.87717200  1
  O  O16  1  0.42441000  0.28183300  0.42591700  1
  O  O17  1  0.92441000  0.21816700  0.57408300  1
  O  O18  1  0.57559000  0.71816700  0.57408300  1
  O  O19  1  0.07559000  0.78183300  0.42591700  1
  O  O20  1  0.26797100  0.08574300  0.45107900  1
  O  O21  1  0.76797100  0.41425700  0.54892100  1
  O  O22  1  0.73202900  0.91425700  0.54892100  1
  O  O23  1  0.23202900  0.58574300  0.45107900  1
  O  O24  1  0.46524400  0.16013500  0.59485700  1
  O  O25  1  0.96524400  0.33986500  0.40514300  1
  O  O26  1  0.53475600  0.83986500  0.40514300  1
  O  O27  1  0.03475600  0.66013500  0.59485700  1
  O  O28  1  0.82272300  0.10640100  0.28254000  1
  O  O29  1  0.32272300  0.39359900  0.71746000  1
  O  O30  1  0.17727700  0.89359900  0.71746000  1
  O  O31  1  0.67727700  0.60640100  0.28254000  1
  O  O32  1  0.53541100  0.19352600  0.19351700  1
  O  O33  1  0.03541100  0.30647400  0.80648300  1
  O  O34  1  0.46458900  0.80647400  0.80648300  1
  O  O35  1  0.96458900  0.69352600  0.19351700  1
  O  O36  1  0.84880400  0.29193000  0.17021900  1
  O  O37  1  0.34880400  0.20807000  0.82978100  1
  O  O38  1  0.15119600  0.70807000  0.82978100  1
  O  O39  1  0.65119600  0.79193000  0.17021900  1
  O  O40  1  0.73411900  0.54241700  0.76132500  1
  O  O41  1  0.23411900  0.95758300  0.23867500  1
  O  O42  1  0.26588100  0.45758300  0.23867500  1
  O  O43  1  0.76588100  0.04241700  0.76132500  1
  O  O44  1  0.66327000  0.41121900  0.91839300  1
  O  O45  1  0.16327000  0.08878100  0.08160700  1
  O  O46  1  0.33673000  0.58878100  0.08160700  1
  O  O47  1  0.83673000  0.91121900  0.91839300  1
  O  O48  1  0.75715500  0.62502700  0.93748900  1
  O  O49  1  0.25715500  0.87497300  0.06251100  1
  O  O50  1  0.24284500  0.37497300  0.06251100  1
  O  O51  1  0.74284500  0.12502700  0.93748900  1
