# generated using pymatgen
data_MoH8(S2N)2
_symmetry_space_group_name_H-M   'P 1'
_cell_length_a   7.08715800
_cell_length_b   9.77310300
_cell_length_c   12.38445300
_cell_angle_alpha   90.00000000
_cell_angle_beta   90.00000000
_cell_angle_gamma   90.00000000
_symmetry_Int_Tables_number   1
_chemical_formula_structural   MoH8(S2N)2
_chemical_formula_sum   'Mo4 H32 S16 N8'
_cell_volume   857.79087135
_cell_formula_units_Z   4
loop_
 _symmetry_equiv_pos_site_id
 _symmetry_equiv_pos_as_xyz
  1  'x, y, z'
loop_
 _atom_site_type_symbol
 _atom_site_label
 _atom_site_symmetry_multiplicity
 _atom_site_fract_x
 _atom_site_fract_y
 _atom_site_fract_z
 _atom_site_occupancy
  Mo  Mo0  1  0.75000000  0.25383100  0.57255500  1
  Mo  Mo1  1  0.75000000  0.75383100  0.92744500  1
  Mo  Mo2  1  0.25000000  0.74616900  0.42744500  1
  Mo  Mo3  1  0.25000000  0.24616900  0.07255500  1
  H  H4  1  0.75000000  0.75569600  0.65333300  1
  H  H5  1  0.75000000  0.25569600  0.84666700  1
  H  H6  1  0.25000000  0.24430400  0.34666700  1
  H  H7  1  0.25000000  0.74430400  0.15333300  1
  H  H8  1  0.75000000  0.58322600  0.65989700  1
  H  H9  1  0.75000000  0.08322600  0.84010300  1
  H  H10  1  0.25000000  0.41677400  0.34010300  1
  H  H11  1  0.25000000  0.91677400  0.15989700  1
  H  H12  1  0.86987400  0.66327800  0.56049200  1
  H  H13  1  0.63012600  0.16327800  0.93950800  1
  H  H14  1  0.36987400  0.33672200  0.43950800  1
  H  H15  1  0.13012600  0.83672200  0.06049200  1
  H  H16  1  0.13012600  0.33672200  0.43950800  1
  H  H17  1  0.36987400  0.83672200  0.06049200  1
  H  H18  1  0.63012600  0.66327800  0.56049200  1
  H  H19  1  0.86987400  0.16327800  0.93950800  1
  H  H20  1  0.75000000  0.00833500  0.27058900  1
  H  H21  1  0.75000000  0.50833600  0.22941100  1
  H  H22  1  0.25000000  0.99166400  0.72941100  1
  H  H23  1  0.25000000  0.49166500  0.77058900  1
  H  H24  1  0.75000000  0.01760500  0.40680800  1
  H  H25  1  0.75000000  0.51760500  0.09319200  1
  H  H26  1  0.25000000  0.98239500  0.59319200  1
  H  H27  1  0.25000000  0.48239500  0.90680800  1
  H  H28  1  0.63087400  0.89028800  0.34323200  1
  H  H29  1  0.86912600  0.39028800  0.15676800  1
  H  H30  1  0.13087400  0.10971200  0.65676800  1
  H  H31  1  0.36912600  0.60971200  0.84323200  1
  H  H32  1  0.36912600  0.10971200  0.65676800  1
  H  H33  1  0.13087400  0.60971200  0.84323200  1
  H  H34  1  0.86912600  0.89028800  0.34323200  1
  H  H35  1  0.63087400  0.39028800  0.15676800  1
  S  S36  1  0.75000000  0.03262000  0.61135400  1
  S  S37  1  0.75000000  0.53262000  0.88864600  1
  S  S38  1  0.25000000  0.96738000  0.38864600  1
  S  S39  1  0.25000000  0.46738000  0.11135400  1
  S  S40  1  0.75000000  0.28379100  0.39708000  1
  S  S41  1  0.75000000  0.78379100  0.10292000  1
  S  S42  1  0.25000000  0.71620900  0.60292000  1
  S  S43  1  0.25000000  0.21620900  0.89708000  1
  S  S44  1  0.49778800  0.35158800  0.64151500  1
  S  S45  1  0.00221200  0.85158800  0.85848500  1
  S  S46  1  0.99778800  0.64841200  0.35848500  1
  S  S47  1  0.50221200  0.14841200  0.14151500  1
  S  S48  1  0.50221200  0.64841200  0.35848500  1
  S  S49  1  0.99778800  0.14841200  0.14151500  1
  S  S50  1  0.00221200  0.35158800  0.64151500  1
  S  S51  1  0.49778800  0.85158800  0.85848500  1
  N  N52  1  0.75000000  0.66650800  0.60856800  1
  N  N53  1  0.75000000  0.16650800  0.89143200  1
  N  N54  1  0.25000000  0.33349200  0.39143200  1
  N  N55  1  0.25000000  0.83349200  0.10856800  1
  N  N56  1  0.75000000  0.95187700  0.34082000  1
  N  N57  1  0.75000000  0.45187700  0.15918000  1
  N  N58  1  0.25000000  0.04812300  0.65918000  1
  N  N59  1  0.25000000  0.54812300  0.84082000  1
