# generated using pymatgen
data_AsRuS
_symmetry_space_group_name_H-M   'P 1'
_cell_length_a   5.95092300
_cell_length_b   5.96465900
_cell_length_c   6.00750345
_cell_angle_alpha   68.78496011
_cell_angle_beta   90.00000000
_cell_angle_gamma   90.00000000
_symmetry_Int_Tables_number   1
_chemical_formula_structural   AsRuS
_chemical_formula_sum   'As4 Ru4 S4'
_cell_volume   198.78633025
_cell_formula_units_Z   4
loop_
 _symmetry_equiv_pos_site_id
 _symmetry_equiv_pos_as_xyz
  1  'x, y, z'
loop_
 _atom_site_type_symbol
 _atom_site_label
 _atom_site_symmetry_multiplicity
 _atom_site_fract_x
 _atom_site_fract_y
 _atom_site_fract_z
 _atom_site_occupancy
  As  As0  1  0.87365800  0.64903100  0.62857100  1
  As  As1  1  0.12634200  0.35096900  0.37142900  1
  As  As2  1  0.37365800  0.35096900  0.87142900  1
  As  As3  1  0.62634200  0.64903100  0.12857100  1
  Ru  Ru4  1  0.49457400  0.78432600  0.70374500  1
  Ru  Ru5  1  0.50542600  0.21567400  0.29625500  1
  Ru  Ru6  1  0.99457400  0.21567400  0.79625500  1
  Ru  Ru7  1  0.00542600  0.78432600  0.20374500  1
  S  S8  1  0.12765800  0.84284900  0.81582400  1
  S  S9  1  0.87234200  0.15715100  0.18417600  1
  S  S10  1  0.62765800  0.15715100  0.68417600  1
  S  S11  1  0.37234200  0.84284900  0.31582400  1
