# generated using pymatgen
data_YbZnPd
_symmetry_space_group_name_H-M   'P 1'
_cell_length_a   4.37309300
_cell_length_b   6.98836400
_cell_length_c   7.77784100
_cell_angle_alpha   90.00000000
_cell_angle_beta   90.00000000
_cell_angle_gamma   90.00000000
_symmetry_Int_Tables_number   1
_chemical_formula_structural   YbZnPd
_chemical_formula_sum   'Yb4 Zn4 Pd4'
_cell_volume   237.69677637
_cell_formula_units_Z   4
loop_
 _symmetry_equiv_pos_site_id
 _symmetry_equiv_pos_as_xyz
  1  'x, y, z'
loop_
 _atom_site_type_symbol
 _atom_site_label
 _atom_site_symmetry_multiplicity
 _atom_site_fract_x
 _atom_site_fract_y
 _atom_site_fract_z
 _atom_site_occupancy
  Yb  Yb0  1  0.25000000  0.51635000  0.19272900  1
  Yb  Yb1  1  0.75000000  0.48365000  0.80727100  1
  Yb  Yb2  1  0.25000000  0.01635000  0.30727100  1
  Yb  Yb3  1  0.75000000  0.98365000  0.69272900  1
  Zn  Zn4  1  0.25000000  0.66194500  0.57380600  1
  Zn  Zn5  1  0.75000000  0.33805500  0.42619400  1
  Zn  Zn6  1  0.25000000  0.16194500  0.92619400  1
  Zn  Zn7  1  0.75000000  0.83805500  0.07380600  1
  Pd  Pd8  1  0.75000000  0.71823200  0.39260500  1
  Pd  Pd9  1  0.25000000  0.28176800  0.60739500  1
  Pd  Pd10  1  0.75000000  0.21823200  0.10739500  1
  Pd  Pd11  1  0.25000000  0.78176800  0.89260500  1
