# generated using pymatgen
data_Sm2HgO4
_symmetry_space_group_name_H-M   'P 1'
_cell_length_a   7.18799379
_cell_length_b   7.18799379
_cell_length_c   10.25624756
_cell_angle_alpha   59.73886218
_cell_angle_beta   59.73886218
_cell_angle_gamma   30.44888243
_symmetry_Int_Tables_number   1
_chemical_formula_structural   Sm2HgO4
_chemical_formula_sum   'Sm4 Hg2 O8'
_cell_volume   229.00819248
_cell_formula_units_Z   2
loop_
 _symmetry_equiv_pos_site_id
 _symmetry_equiv_pos_as_xyz
  1  'x, y, z'
loop_
 _atom_site_type_symbol
 _atom_site_label
 _atom_site_symmetry_multiplicity
 _atom_site_fract_x
 _atom_site_fract_y
 _atom_site_fract_z
 _atom_site_occupancy
  Sm  Sm0  1  0.61952400  0.61952400  0.53991200  1
  Sm  Sm1  1  0.38047600  0.38047600  0.46008800  1
  Sm  Sm2  1  0.84071400  0.84071400  0.79849200  1
  Sm  Sm3  1  0.15928600  0.15928600  0.20150800  1
  Hg  Hg4  1  0.88556600  0.88556600  0.16176400  1
  Hg  Hg5  1  0.11443400  0.11443400  0.83823600  1
  O  O6  1  0.96414700  0.96414700  0.28111900  1
  O  O7  1  0.03585300  0.03585300  0.71888100  1
  O  O8  1  0.58155500  0.58155500  0.34659700  1
  O  O9  1  0.41844500  0.41844500  0.65340300  1
  O  O10  1  0.79707000  0.79707000  0.05563900  1
  O  O11  1  0.20293000  0.20293000  0.94436100  1
  O  O12  1  0.76984100  0.76984100  0.61133600  1
  O  O13  1  0.23015900  0.23015900  0.38866400  1
