# generated using pymatgen
data_TmCoSi
_symmetry_space_group_name_H-M   'P 1'
_cell_length_a   4.13156300
_cell_length_b   6.78767500
_cell_length_c   6.94452500
_cell_angle_alpha   90.00000000
_cell_angle_beta   90.00000000
_cell_angle_gamma   90.00000000
_symmetry_Int_Tables_number   1
_chemical_formula_structural   TmCoSi
_chemical_formula_sum   'Tm4 Co4 Si4'
_cell_volume   194.75022356
_cell_formula_units_Z   4
loop_
 _symmetry_equiv_pos_site_id
 _symmetry_equiv_pos_as_xyz
  1  'x, y, z'
loop_
 _atom_site_type_symbol
 _atom_site_label
 _atom_site_symmetry_multiplicity
 _atom_site_fract_x
 _atom_site_fract_y
 _atom_site_fract_z
 _atom_site_occupancy
  Tm  Tm0  1  0.75000000  0.51514500  0.80766700  1
  Tm  Tm1  1  0.75000000  0.01514500  0.69233300  1
  Tm  Tm2  1  0.25000000  0.48485500  0.19233300  1
  Tm  Tm3  1  0.25000000  0.98485500  0.30766700  1
  Co  Co4  1  0.75000000  0.35220000  0.43819000  1
  Co  Co5  1  0.75000000  0.85220000  0.06181000  1
  Co  Co6  1  0.25000000  0.64780000  0.56181000  1
  Co  Co7  1  0.25000000  0.14780000  0.93819000  1
  Si  Si8  1  0.75000000  0.19764300  0.10524100  1
  Si  Si9  1  0.75000000  0.69764300  0.39475900  1
  Si  Si10  1  0.25000000  0.80235700  0.89475900  1
  Si  Si11  1  0.25000000  0.30235700  0.60524100  1
