# generated using pymatgen
data_NdGa
_symmetry_space_group_name_H-M   'P 1'
_cell_length_a   6.09513968
_cell_length_b   6.09513968
_cell_length_c   4.18605900
_cell_angle_alpha   90.00000000
_cell_angle_beta   90.00000000
_cell_angle_gamma   136.86513415
_symmetry_Int_Tables_number   1
_chemical_formula_structural   NdGa
_chemical_formula_sum   'Nd2 Ga2'
_cell_volume   106.32849418
_cell_formula_units_Z   2
loop_
 _symmetry_equiv_pos_site_id
 _symmetry_equiv_pos_as_xyz
  1  'x, y, z'
loop_
 _atom_site_type_symbol
 _atom_site_label
 _atom_site_symmetry_multiplicity
 _atom_site_fract_x
 _atom_site_fract_y
 _atom_site_fract_z
 _atom_site_occupancy
  Nd  Nd0  1  0.85943900  0.14056100  0.75000000  1
  Nd  Nd1  1  0.14056100  0.85943900  0.25000000  1
  Ga  Ga2  1  0.57091500  0.42908500  0.75000000  1
  Ga  Ga3  1  0.42908500  0.57091500  0.25000000  1
