# generated using pymatgen
data_Cs2Na2Sr(B3O5)6
_symmetry_space_group_name_H-M   'P 1'
_cell_length_a   8.65495600
_cell_length_b   8.59957300
_cell_length_c   17.46180164
_cell_angle_alpha   87.19431997
_cell_angle_beta   90.00000000
_cell_angle_gamma   90.00000000
_symmetry_Int_Tables_number   1
_chemical_formula_structural   Cs2Na2Sr(B3O5)6
_chemical_formula_sum   'Cs4 Na4 Sr2 B36 O60'
_cell_volume   1298.10522145
_cell_formula_units_Z   2
loop_
 _symmetry_equiv_pos_site_id
 _symmetry_equiv_pos_as_xyz
  1  'x, y, z'
loop_
 _atom_site_type_symbol
 _atom_site_label
 _atom_site_symmetry_multiplicity
 _atom_site_fract_x
 _atom_site_fract_y
 _atom_site_fract_z
 _atom_site_occupancy
  Cs  Cs0  1  0.46061300  0.50140200  0.80462900  1
  Cs  Cs1  1  0.96061300  0.49859800  0.69537100  1
  Cs  Cs2  1  0.53938700  0.49859800  0.19537100  1
  Cs  Cs3  1  0.03938700  0.50140200  0.30462900  1
  Na  Na4  1  0.26106200  0.22573700  0.61851300  1
  Na  Na5  1  0.76106200  0.77426300  0.88148700  1
  Na  Na6  1  0.73893800  0.77426300  0.38148700  1
  Na  Na7  1  0.23893800  0.22573700  0.11851300  1
  Sr  Sr8  1  0.00000000  0.00000000  0.00000000  1
  Sr  Sr9  1  0.50000000  0.00000000  0.50000000  1
  B  B10  1  0.65097100  0.17151300  0.91773600  1
  B  B11  1  0.15097100  0.82848700  0.58226400  1
  B  B12  1  0.34902900  0.82848700  0.08226400  1
  B  B13  1  0.84902900  0.17151300  0.41773600  1
  B  B14  1  0.62101200  0.17766800  0.05787000  1
  B  B15  1  0.12101200  0.82233200  0.44213000  1
  B  B16  1  0.37898800  0.82233200  0.94213000  1
  B  B17  1  0.87898800  0.17766800  0.55787000  1
  B  B18  1  0.39663100  0.22269700  0.97450800  1
  B  B19  1  0.89663100  0.77730300  0.52549200  1
  B  B20  1  0.60336900  0.77730300  0.02549200  1
  B  B21  1  0.10336900  0.22269700  0.47450800  1
  B  B22  1  0.14205200  0.33026900  0.91458800  1
  B  B23  1  0.64205200  0.66973100  0.58541200  1
  B  B24  1  0.85794800  0.66973100  0.08541200  1
  B  B25  1  0.35794800  0.33026900  0.41458800  1
  B  B26  1  0.86081500  0.37559500  0.90757900  1
  B  B27  1  0.36081500  0.62440500  0.59242100  1
  B  B28  1  0.13918500  0.62440500  0.09242100  1
  B  B29  1  0.63918500  0.37559500  0.40757900  1
  B  B30  1  0.03978100  0.59616300  0.89525800  1
  B  B31  1  0.53978100  0.40383700  0.60474200  1
  B  B32  1  0.96021900  0.40383700  0.10474200  1
  B  B33  1  0.46021900  0.59616300  0.39525800  1
  B  B34  1  0.19024600  0.95370200  0.71104800  1
  B  B35  1  0.69024600  0.04629800  0.78895200  1
  B  B36  1  0.80975400  0.04629800  0.28895200  1
  B  B37  1  0.30975400  0.95370200  0.21104800  1
  B  B38  1  0.16579700  0.85102100  0.84425900  1
  B  B39  1  0.66579700  0.14897900  0.65574100  1
  B  B40  1  0.83420300  0.14897900  0.15574100  1
  B  B41  1  0.33420300  0.85102100  0.34425900  1
  B  B42  1  0.17295400  0.13438000  0.81460400  1
  B  B43  1  0.67295400  0.86562000  0.68539600  1
  B  B44  1  0.82704600  0.86562000  0.18539600  1
  B  B45  1  0.32704600  0.13438000  0.31460400  1
  O  O46  1  0.71396200  0.32827400  0.89807000  1
  O  O47  1  0.21396200  0.67172600  0.60193000  1
  O  O48  1  0.28603800  0.67172600  0.10193000  1
  O  O49  1  0.78603800  0.32827400  0.39807000  1
  O  O50  1  0.70716900  0.05228600  0.86680100  1
  O  O51  1  0.20716900  0.94771400  0.63319900  1
  O  O52  1  0.29283100  0.94771400  0.13319900  1
  O  O53  1  0.79283100  0.05228600  0.36680100  1
  O  O54  1  0.70176500  0.12156400  0.99700500  1
  O  O55  1  0.20176500  0.87843600  0.50299500  1
  O  O56  1  0.29823500  0.87843600  0.00299500  1
  O  O57  1  0.79823500  0.12156400  0.49700500  1
  O  O58  1  0.48067200  0.18723800  0.91212400  1
  O  O59  1  0.98067200  0.81276200  0.58787600  1
  O  O60  1  0.51932800  0.81276200  0.08787600  1
  O  O61  1  0.01932800  0.18723800  0.41212400  1
  O  O62  1  0.67776900  0.18998800  0.12961900  1
  O  O63  1  0.17776900  0.81001200  0.37038100  1
  O  O64  1  0.32223100  0.81001200  0.87038100  1
  O  O65  1  0.82223100  0.18998800  0.62961900  1
  O  O66  1  0.46800200  0.23057500  0.04661200  1
  O  O67  1  0.96800200  0.76942500  0.45338800  1
  O  O68  1  0.53199800  0.76942500  0.95338800  1
  O  O69  1  0.03199800  0.23057500  0.54661200  1
  O  O70  1  0.24018600  0.25348500  0.97445400  1
  O  O71  1  0.74018600  0.74651500  0.52554600  1
  O  O72  1  0.75981400  0.74651500  0.02554600  1
  O  O73  1  0.25981400  0.25348500  0.47445400  1
  O  O74  1  0.98066400  0.28301300  0.93426200  1
  O  O75  1  0.48066400  0.71698700  0.56573800  1
  O  O76  1  0.01933600  0.71698700  0.06573800  1
  O  O77  1  0.51933600  0.28301300  0.43426200  1
  O  O78  1  0.16151500  0.50182300  0.91384300  1
  O  O79  1  0.66151500  0.49817700  0.58615700  1
  O  O80  1  0.83848500  0.49817700  0.08615700  1
  O  O81  1  0.33848500  0.50182300  0.41384300  1
  O  O82  1  0.17754000  0.28493200  0.83547200  1
  O  O83  1  0.67754000  0.71506800  0.66452800  1
  O  O84  1  0.82246000  0.71506800  0.16452800  1
  O  O85  1  0.32246000  0.28493200  0.33547200  1
  O  O86  1  0.89148800  0.53214400  0.88494600  1
  O  O87  1  0.39148800  0.46785600  0.61505400  1
  O  O88  1  0.10851200  0.46785600  0.11505400  1
  O  O89  1  0.60851200  0.53214400  0.38494600  1
  O  O90  1  0.04370600  0.75493600  0.88306500  1
  O  O91  1  0.54370600  0.24506400  0.61693500  1
  O  O92  1  0.95629400  0.24506400  0.11693500  1
  O  O93  1  0.45629400  0.75493600  0.38306500  1
  O  O94  1  0.20956400  0.10534200  0.73844200  1
  O  O95  1  0.70956400  0.89465800  0.76155800  1
  O  O96  1  0.79043600  0.89465800  0.26155800  1
  O  O97  1  0.29043600  0.10534200  0.23844200  1
  O  O98  1  0.15948300  0.83084800  0.76067800  1
  O  O99  1  0.65948300  0.16915200  0.73932200  1
  O  O100  1  0.84051700  0.16915200  0.23932200  1
  O  O101  1  0.34051700  0.83084800  0.26067800  1
  O  O102  1  0.12831900  0.01333500  0.86371900  1
  O  O103  1  0.62831900  0.98666500  0.63628100  1
  O  O104  1  0.87168100  0.98666500  0.13628100  1
  O  O105  1  0.37168100  0.01333500  0.36371900  1
