# generated using pymatgen
data_Na3Er(PO4)2
_symmetry_space_group_name_H-M   'P 1'
_cell_length_a   5.29359600
_cell_length_b   13.88629100
_cell_length_c   18.49351100
_cell_angle_alpha   90.00000000
_cell_angle_beta   90.00000000
_cell_angle_gamma   90.00000000
_symmetry_Int_Tables_number   1
_chemical_formula_structural   Na3Er(PO4)2
_chemical_formula_sum   'Na24 Er8 P16 O64'
_cell_volume   1359.42867201
_cell_formula_units_Z   8
loop_
 _symmetry_equiv_pos_site_id
 _symmetry_equiv_pos_as_xyz
  1  'x, y, z'
loop_
 _atom_site_type_symbol
 _atom_site_label
 _atom_site_symmetry_multiplicity
 _atom_site_fract_x
 _atom_site_fract_y
 _atom_site_fract_z
 _atom_site_occupancy
  Na  Na0  1  0.00817600  0.78257200  0.50791300  1
  Na  Na1  1  0.99182400  0.21742800  0.00791300  1
  Na  Na2  1  0.99182400  0.28257200  0.50791300  1
  Na  Na3  1  0.00817600  0.71742800  0.00791300  1
  Na  Na4  1  0.00672000  0.04805800  0.85051500  1
  Na  Na5  1  0.99328000  0.95194200  0.35051500  1
  Na  Na6  1  0.99328000  0.54805800  0.85051500  1
  Na  Na7  1  0.00672000  0.45194200  0.35051500  1
  Na  Na8  1  0.00270300  0.13925700  0.67220200  1
  Na  Na9  1  0.99729700  0.86074300  0.17220200  1
  Na  Na10  1  0.99729700  0.63925700  0.67220200  1
  Na  Na11  1  0.00270300  0.36074300  0.17220200  1
  Na  Na12  1  0.51907900  0.20239000  0.77105200  1
  Na  Na13  1  0.48092100  0.79761000  0.27105200  1
  Na  Na14  1  0.48092100  0.70239000  0.77105200  1
  Na  Na15  1  0.51907900  0.29761000  0.27105200  1
  Na  Na16  1  0.46142800  0.03130000  0.61193400  1
  Na  Na17  1  0.53857200  0.96870000  0.11193400  1
  Na  Na18  1  0.53857200  0.53130000  0.61193400  1
  Na  Na19  1  0.46142800  0.46870000  0.11193400  1
  Na  Na20  1  0.49912800  0.11201500  0.95042600  1
  Na  Na21  1  0.50087200  0.88798500  0.45042600  1
  Na  Na22  1  0.50087200  0.61201500  0.95042600  1
  Na  Na23  1  0.49912800  0.38798500  0.45042600  1
  Er  Er24  1  0.07190200  0.38956900  0.69515400  1
  Er  Er25  1  0.92809800  0.61043100  0.19515400  1
  Er  Er26  1  0.92809800  0.88956900  0.69515400  1
  Er  Er27  1  0.07190200  0.11043100  0.19515400  1
  Er  Er28  1  0.44311500  0.36112200  0.92739700  1
  Er  Er29  1  0.55688500  0.63887800  0.42739700  1
  Er  Er30  1  0.55688500  0.86112200  0.92739700  1
  Er  Er31  1  0.44311500  0.13887800  0.42739700  1
  P  P32  1  0.03069600  0.52457000  0.51895000  1
  P  P33  1  0.96930400  0.47543000  0.01895000  1
  P  P34  1  0.96930400  0.02457000  0.51895000  1
  P  P35  1  0.03069600  0.97543000  0.01895000  1
  P  P36  1  0.00668900  0.77821500  0.84740600  1
  P  P37  1  0.99331100  0.22178500  0.34740600  1
  P  P38  1  0.99331100  0.27821500  0.84740600  1
  P  P39  1  0.00668900  0.72178500  0.34740600  1
  P  P40  1  0.51923100  0.47250700  0.77515200  1
  P  P41  1  0.48076900  0.52749300  0.27515200  1
  P  P42  1  0.48076900  0.97250700  0.77515200  1
  P  P43  1  0.51923100  0.02749300  0.27515200  1
  P  P44  1  0.53869700  0.27335200  0.60379600  1
  P  P45  1  0.46130300  0.72664800  0.10379600  1
  P  P46  1  0.46130300  0.77335200  0.60379600  1
  P  P47  1  0.53869700  0.22664800  0.10379600  1
  O  O48  1  0.42823700  0.19093700  0.64958500  1
  O  O49  1  0.57176300  0.80906300  0.14958500  1
  O  O50  1  0.57176300  0.69093700  0.64958500  1
  O  O51  1  0.42823700  0.30906300  0.14958500  1
  O  O52  1  0.30054900  0.52759600  0.73643100  1
  O  O53  1  0.69945100  0.47240400  0.23643100  1
  O  O54  1  0.69945100  0.02759600  0.73643100  1
  O  O55  1  0.30054900  0.97240400  0.23643100  1
  O  O56  1  0.12482100  0.11852700  0.50578400  1
  O  O57  1  0.87517900  0.88147300  0.00578400  1
  O  O58  1  0.87517900  0.61852700  0.50578400  1
  O  O59  1  0.12482100  0.38147300  0.00578400  1
  O  O60  1  0.20867100  0.22353800  0.88833800  1
  O  O61  1  0.79132900  0.77646200  0.38833800  1
  O  O62  1  0.79132900  0.72353800  0.88833800  1
  O  O63  1  0.20867100  0.27646200  0.38833800  1
  O  O64  1  0.31524900  0.54224800  0.49946100  1
  O  O65  1  0.68475100  0.45775200  0.99946100  1
  O  O66  1  0.68475100  0.04224800  0.49946100  1
  O  O67  1  0.31524900  0.95775200  0.99946100  1
  O  O68  1  0.07852100  0.55821100  0.97304200  1
  O  O69  1  0.92147900  0.44178900  0.47304200  1
  O  O70  1  0.92147900  0.05821100  0.97304200  1
  O  O71  1  0.07852100  0.94178900  0.47304200  1
  O  O72  1  0.22593000  0.99913800  0.73843600  1
  O  O73  1  0.77407000  0.00086200  0.23843600  1
  O  O74  1  0.77407000  0.49913800  0.73843600  1
  O  O75  1  0.22593000  0.50086200  0.23843600  1
  O  O76  1  0.38234100  0.36734600  0.61489700  1
  O  O77  1  0.61765900  0.63265400  0.11489700  1
  O  O78  1  0.61765900  0.86734600  0.61489700  1
  O  O79  1  0.38234100  0.13265400  0.11489700  1
  O  O80  1  0.46184200  0.36419600  0.76823000  1
  O  O81  1  0.53815800  0.63580400  0.26823000  1
  O  O82  1  0.53815800  0.86419600  0.76823000  1
  O  O83  1  0.46184200  0.13580400  0.26823000  1
  O  O84  1  0.05146200  0.38653700  0.85373800  1
  O  O85  1  0.94853800  0.61346300  0.35373800  1
  O  O86  1  0.94853800  0.88653700  0.85373800  1
  O  O87  1  0.05146200  0.11346300  0.35373800  1
  O  O88  1  0.17870800  0.79246400  0.62555800  1
  O  O89  1  0.82129200  0.20753600  0.12555800  1
  O  O90  1  0.82129200  0.29246400  0.62555800  1
  O  O91  1  0.17870800  0.70753600  0.12555800  1
  O  O92  1  0.00840200  0.74847500  0.76626300  1
  O  O93  1  0.99159800  0.25152500  0.26626300  1
  O  O94  1  0.99159800  0.24847500  0.76626300  1
  O  O95  1  0.00840200  0.75152500  0.26626300  1
  O  O96  1  0.47277300  0.00107900  0.85671800  1
  O  O97  1  0.52722700  0.99892100  0.35671800  1
  O  O98  1  0.52722700  0.50107900  0.85671800  1
  O  O99  1  0.47277300  0.49892100  0.35671800  1
  O  O100  1  0.99317200  0.00221600  0.60137900  1
  O  O101  1  0.00682800  0.99778400  0.10137900  1
  O  O102  1  0.00682800  0.50221600  0.60137900  1
  O  O103  1  0.99317200  0.49778400  0.10137900  1
  O  O104  1  0.73568400  0.25177500  0.88235900  1
  O  O105  1  0.26431600  0.74822500  0.38235900  1
  O  O106  1  0.26431600  0.75177500  0.88235900  1
  O  O107  1  0.73568400  0.24822500  0.38235900  1
  O  O108  1  0.53263100  0.24986400  0.52128700  1
  O  O109  1  0.46736900  0.75013600  0.02128700  1
  O  O110  1  0.46736900  0.74986400  0.52128700  1
  O  O111  1  0.53263100  0.25013600  0.02128700  1
