# generated using pymatgen
data_Nd4MgPt
_symmetry_space_group_name_H-M   'P 1'
_cell_length_a   10.10269904
_cell_length_b   10.10269904
_cell_length_c   10.10269904
_cell_angle_alpha   60.00000000
_cell_angle_beta   60.00000000
_cell_angle_gamma   60.00000000
_symmetry_Int_Tables_number   1
_chemical_formula_structural   Nd4MgPt
_chemical_formula_sum   'Nd16 Mg4 Pt4'
_cell_volume   729.11704118
_cell_formula_units_Z   4
loop_
 _symmetry_equiv_pos_site_id
 _symmetry_equiv_pos_as_xyz
  1  'x, y, z'
loop_
 _atom_site_type_symbol
 _atom_site_label
 _atom_site_symmetry_multiplicity
 _atom_site_fract_x
 _atom_site_fract_y
 _atom_site_fract_z
 _atom_site_occupancy
  Nd  Nd0  1  0.34730700  0.34730700  0.34730700  1
  Nd  Nd1  1  0.34730700  0.34730700  0.95808000  1
  Nd  Nd2  1  0.34730700  0.95808000  0.34730700  1
  Nd  Nd3  1  0.95808000  0.34730700  0.34730700  1
  Nd  Nd4  1  0.80986000  0.19014000  0.19014000  1
  Nd  Nd5  1  0.19014000  0.80986000  0.80986000  1
  Nd  Nd6  1  0.19014000  0.80986000  0.19014000  1
  Nd  Nd7  1  0.80986000  0.19014000  0.80986000  1
  Nd  Nd8  1  0.19014000  0.19014000  0.80986000  1
  Nd  Nd9  1  0.80986000  0.80986000  0.19014000  1
  Nd  Nd10  1  0.93412100  0.56587900  0.56587900  1
  Nd  Nd11  1  0.56587900  0.93412100  0.93412100  1
  Nd  Nd12  1  0.56587900  0.93412100  0.56587900  1
  Nd  Nd13  1  0.93412100  0.56587900  0.93412100  1
  Nd  Nd14  1  0.56587900  0.56587900  0.93412100  1
  Nd  Nd15  1  0.93412100  0.93412100  0.56587900  1
  Mg  Mg16  1  0.57953000  0.57953000  0.57953000  1
  Mg  Mg17  1  0.57953000  0.57953000  0.26141100  1
  Mg  Mg18  1  0.57953000  0.26141100  0.57953000  1
  Mg  Mg19  1  0.26141100  0.57953000  0.57953000  1
  Pt  Pt20  1  0.14224000  0.14224000  0.14224000  1
  Pt  Pt21  1  0.14224000  0.14224000  0.57328100  1
  Pt  Pt22  1  0.14224000  0.57328100  0.14224000  1
  Pt  Pt23  1  0.57328100  0.14224000  0.14224000  1
