# generated using pymatgen
data_CaFe2P2HO9
_symmetry_space_group_name_H-M   'P 1'
_cell_length_a   6.48598900
_cell_length_b   9.68371200
_cell_length_c   10.93044200
_cell_angle_alpha   90.00000000
_cell_angle_beta   90.00000000
_cell_angle_gamma   90.00000000
_symmetry_Int_Tables_number   1
_chemical_formula_structural   CaFe2P2HO9
_chemical_formula_sum   'Ca4 Fe8 P8 H4 O36'
_cell_volume   686.52411449
_cell_formula_units_Z   4
loop_
 _symmetry_equiv_pos_site_id
 _symmetry_equiv_pos_as_xyz
  1  'x, y, z'
loop_
 _atom_site_type_symbol
 _atom_site_label
 _atom_site_symmetry_multiplicity
 _atom_site_fract_x
 _atom_site_fract_y
 _atom_site_fract_z
 _atom_site_occupancy
  Ca  Ca0  1  0.00000000  0.93133000  0.26766700  1
  Ca  Ca1  1  0.00000000  0.06867000  0.73233300  1
  Ca  Ca2  1  0.00000000  0.43133000  0.23233300  1
  Ca  Ca3  1  0.00000000  0.56867000  0.76766700  1
  Fe  Fe4  1  0.26251700  0.50000000  0.50000000  1
  Fe  Fe5  1  0.73748300  0.00000000  0.00000000  1
  Fe  Fe6  1  0.73748300  0.50000000  0.50000000  1
  Fe  Fe7  1  0.26251700  0.00000000  0.00000000  1
  Fe  Fe8  1  0.50000000  0.84042900  0.44238700  1
  Fe  Fe9  1  0.50000000  0.15957100  0.55761300  1
  Fe  Fe10  1  0.50000000  0.34042900  0.05761300  1
  Fe  Fe11  1  0.50000000  0.65957100  0.94238700  1
  P  P12  1  0.50000000  0.58879000  0.25474400  1
  P  P13  1  0.50000000  0.41121000  0.74525600  1
  P  P14  1  0.50000000  0.08879000  0.24525600  1
  P  P15  1  0.50000000  0.91121000  0.75474400  1
  P  P16  1  0.00000000  0.70663600  0.02161700  1
  P  P17  1  0.00000000  0.29336400  0.97838300  1
  P  P18  1  0.00000000  0.20663600  0.47838300  1
  P  P19  1  0.00000000  0.79336400  0.52161700  1
  H  H20  1  0.50000000  0.82308900  0.11536000  1
  H  H21  1  0.50000000  0.17691100  0.88464000  1
  H  H22  1  0.50000000  0.32308900  0.38464000  1
  H  H23  1  0.50000000  0.67691100  0.61536000  1
  O  O24  1  0.30425600  0.52437900  0.31282900  1
  O  O25  1  0.30425600  0.47562100  0.68717100  1
  O  O26  1  0.69574400  0.02437900  0.18717100  1
  O  O27  1  0.69574400  0.97562100  0.81282900  1
  O  O28  1  0.69574400  0.47562100  0.68717100  1
  O  O29  1  0.69574400  0.52437900  0.31282900  1
  O  O30  1  0.30425600  0.97562100  0.81282900  1
  O  O31  1  0.30425600  0.02437900  0.18717100  1
  O  O32  1  0.50000000  0.74819100  0.27124400  1
  O  O33  1  0.50000000  0.25180900  0.72875600  1
  O  O34  1  0.50000000  0.24819100  0.22875600  1
  O  O35  1  0.50000000  0.75180900  0.77124400  1
  O  O36  1  0.50000000  0.55004800  0.11454400  1
  O  O37  1  0.50000000  0.44995200  0.88545600  1
  O  O38  1  0.50000000  0.05004800  0.38545600  1
  O  O39  1  0.50000000  0.94995200  0.61454400  1
  O  O40  1  0.00000000  0.86869600  0.03302800  1
  O  O41  1  0.00000000  0.13130400  0.96697200  1
  O  O42  1  0.00000000  0.36869600  0.46697200  1
  O  O43  1  0.00000000  0.63130400  0.53302800  1
  O  O44  1  0.18681800  0.84163500  0.44076300  1
  O  O45  1  0.18681800  0.15836500  0.55923700  1
  O  O46  1  0.81318200  0.34163500  0.05923700  1
  O  O47  1  0.81318200  0.65836500  0.94076300  1
  O  O48  1  0.81318200  0.15836500  0.55923700  1
  O  O49  1  0.81318200  0.84163500  0.44076300  1
  O  O50  1  0.18681800  0.65836500  0.94076300  1
  O  O51  1  0.18681800  0.34163500  0.05923700  1
  O  O52  1  0.00000000  0.65159600  0.15114000  1
  O  O53  1  0.00000000  0.34840400  0.84886000  1
  O  O54  1  0.00000000  0.15159600  0.34886000  1
  O  O55  1  0.00000000  0.84840400  0.65114000  1
  O  O56  1  0.50000000  0.83866600  0.02589100  1
  O  O57  1  0.50000000  0.16133400  0.97410900  1
  O  O58  1  0.50000000  0.33866600  0.47410900  1
  O  O59  1  0.50000000  0.66133400  0.52589100  1
