# generated using pymatgen
data_Rb3YbV2O8
_symmetry_space_group_name_H-M   'P 1'
_cell_length_a   6.07650998
_cell_length_b   6.07650998
_cell_length_c   7.93525800
_cell_angle_alpha   90.00000000
_cell_angle_beta   90.00000000
_cell_angle_gamma   119.99999975
_symmetry_Int_Tables_number   1
_chemical_formula_structural   Rb3YbV2O8
_chemical_formula_sum   'Rb3 Yb1 V2 O8'
_cell_volume   253.74653178
_cell_formula_units_Z   1
loop_
 _symmetry_equiv_pos_site_id
 _symmetry_equiv_pos_as_xyz
  1  'x, y, z'
loop_
 _atom_site_type_symbol
 _atom_site_label
 _atom_site_symmetry_multiplicity
 _atom_site_fract_x
 _atom_site_fract_y
 _atom_site_fract_z
 _atom_site_occupancy
  Rb  Rb0  1  0.66666700  0.33333300  0.31903700  1
  Rb  Rb1  1  0.33333300  0.66666700  0.68096300  1
  Rb  Rb2  1  0.00000000  0.00000000  0.00000000  1
  Yb  Yb3  1  0.00000000  0.00000000  0.50000000  1
  V  V4  1  0.66666700  0.33333300  0.75602800  1
  V  V5  1  0.33333300  0.66666700  0.24397200  1
  O  O6  1  0.66666700  0.33333300  0.97262000  1
  O  O7  1  0.33333300  0.66666700  0.02738000  1
  O  O8  1  0.82344900  0.64689700  0.67871500  1
  O  O9  1  0.17655100  0.35310300  0.32128500  1
  O  O10  1  0.82344900  0.17655100  0.67871500  1
  O  O11  1  0.17655100  0.82344900  0.32128500  1
  O  O12  1  0.35310300  0.17655100  0.67871500  1
  O  O13  1  0.64689700  0.82344900  0.32128500  1
