# generated using pymatgen
data_Al21Pt8
_symmetry_space_group_name_H-M   'P 1'
_cell_length_a   10.68178977
_cell_length_b   10.68178977
_cell_length_c   10.68178977
_cell_angle_alpha   104.70962390
_cell_angle_beta   104.70962390
_cell_angle_gamma   119.48259703
_symmetry_Int_Tables_number   1
_chemical_formula_structural   Al21Pt8
_chemical_formula_sum   'Al42 Pt16'
_cell_volume   916.42312570
_cell_formula_units_Z   2
loop_
 _symmetry_equiv_pos_site_id
 _symmetry_equiv_pos_as_xyz
  1  'x, y, z'
loop_
 _atom_site_type_symbol
 _atom_site_label
 _atom_site_symmetry_multiplicity
 _atom_site_fract_x
 _atom_site_fract_y
 _atom_site_fract_z
 _atom_site_occupancy
  Al  Al0  1  0.50000000  0.50000000  0.00000000  1
  Al  Al1  1  0.75000000  0.25000000  0.50000000  1
  Al  Al2  1  0.18941800  0.04662800  0.03666700  1
  Al  Al3  1  0.29662800  0.75996100  0.35720900  1
  Al  Al4  1  0.40275200  0.93941800  0.64279100  1
  Al  Al5  1  0.00996100  0.15275200  0.96333300  1
  Al  Al6  1  0.06058200  0.70337200  0.46333300  1
  Al  Al7  1  0.95337200  0.99003900  0.14279100  1
  Al  Al8  1  0.84724800  0.81058200  0.85720900  1
  Al  Al9  1  0.24003900  0.59724800  0.53666700  1
  Al  Al10  1  0.14037200  0.30364900  0.34046900  1
  Al  Al11  1  0.55364900  0.71318000  0.66327700  1
  Al  Al12  1  0.04990300  0.89037200  0.33672300  1
  Al  Al13  1  0.96318000  0.79990300  0.65953100  1
  Al  Al14  1  0.10962800  0.44635100  0.15953100  1
  Al  Al15  1  0.69635100  0.03682000  0.83672300  1
  Al  Al16  1  0.20009700  0.85962800  0.16327700  1
  Al  Al17  1  0.28682000  0.95009700  0.84046900  1
  Al  Al18  1  0.26519600  0.25573200  0.57202500  1
  Al  Al19  1  0.50573200  0.43370700  0.49053600  1
  Al  Al20  1  0.94317100  0.01519600  0.50946400  1
  Al  Al21  1  0.68370700  0.69317100  0.42797500  1
  Al  Al22  1  0.98480400  0.49426800  0.92797500  1
  Al  Al23  1  0.74426800  0.31629300  0.00946400  1
  Al  Al24  1  0.30682900  0.73480400  0.99053600  1
  Al  Al25  1  0.56629300  0.05682900  0.07202500  1
  Al  Al26  1  0.48916000  0.26119500  0.79137300  1
  Al  Al27  1  0.51119500  0.21982200  0.27203500  1
  Al  Al28  1  0.94778700  0.23916000  0.72796500  1
  Al  Al29  1  0.46982200  0.69778700  0.20862700  1
  Al  Al30  1  0.76084000  0.48880500  0.70862700  1
  Al  Al31  1  0.73880500  0.53017800  0.22796500  1
  Al  Al32  1  0.30221300  0.51084000  0.77203500  1
  Al  Al33  1  0.78017800  0.05221300  0.29137300  1
  Al  Al34  1  0.20270200  0.18031800  0.83781100  1
  Al  Al35  1  0.43031800  0.09250600  0.47761600  1
  Al  Al36  1  0.61489000  0.95270200  0.52238400  1
  Al  Al37  1  0.34250600  0.36489000  0.16218900  1
  Al  Al38  1  0.04729800  0.56968200  0.66218900  1
  Al  Al39  1  0.81968200  0.65749400  0.02238400  1
  Al  Al40  1  0.63511000  0.79729800  0.97761600  1
  Al  Al41  1  0.90749400  0.38511000  0.33781100  1
  Pt  Pt42  1  0.03508500  0.31166700  0.53761900  1
  Pt  Pt43  1  0.56166700  0.52404800  0.77658200  1
  Pt  Pt44  1  0.74746600  0.78508500  0.22341800  1
  Pt  Pt45  1  0.77404800  0.49746600  0.46238100  1
  Pt  Pt46  1  0.21491500  0.43833300  0.96238100  1
  Pt  Pt47  1  0.68833300  0.22595200  0.72341800  1
  Pt  Pt48  1  0.50253400  0.96491500  0.27658200  1
  Pt  Pt49  1  0.47595200  0.25253400  0.03761900  1
  Pt  Pt50  1  0.99348900  0.60990000  0.18677800  1
  Pt  Pt51  1  0.85990000  0.17312200  0.11641000  1
  Pt  Pt52  1  0.05671200  0.74348900  0.88359000  1
  Pt  Pt53  1  0.42312200  0.80671200  0.81322200  1
  Pt  Pt54  1  0.25651100  0.14010000  0.31322200  1
  Pt  Pt55  1  0.39010000  0.57687800  0.38359000  1
  Pt  Pt56  1  0.19328800  0.00651100  0.61641000  1
  Pt  Pt57  1  0.82687800  0.94328800  0.68677800  1
