# generated using pymatgen
data_TbCoGe2
_symmetry_space_group_name_H-M   'P 1'
_cell_length_a   8.50322410
_cell_length_b   8.50322410
_cell_length_c   4.18785800
_cell_angle_alpha   90.00000000
_cell_angle_beta   90.00000000
_cell_angle_gamma   151.62137470
_symmetry_Int_Tables_number   1
_chemical_formula_structural   TbCoGe2
_chemical_formula_sum   'Tb2 Co2 Ge4'
_cell_volume   143.92073570
_cell_formula_units_Z   2
loop_
 _symmetry_equiv_pos_site_id
 _symmetry_equiv_pos_as_xyz
  1  'x, y, z'
loop_
 _atom_site_type_symbol
 _atom_site_label
 _atom_site_symmetry_multiplicity
 _atom_site_fract_x
 _atom_site_fract_y
 _atom_site_fract_z
 _atom_site_occupancy
  Tb  Tb0  1  0.89209100  0.10790900  0.25000000  1
  Tb  Tb1  1  0.10790900  0.89209100  0.75000000  1
  Co  Co2  1  0.68199000  0.31801000  0.25000000  1
  Co  Co3  1  0.31801000  0.68199000  0.75000000  1
  Ge  Ge4  1  0.54507300  0.45492700  0.25000000  1
  Ge  Ge5  1  0.45492700  0.54507300  0.75000000  1
  Ge  Ge6  1  0.25117300  0.74882700  0.25000000  1
  Ge  Ge7  1  0.74882700  0.25117300  0.75000000  1
