# generated using pymatgen
data_K4Ba2B14H16O33
_symmetry_space_group_name_H-M   'P 1'
_cell_length_a   9.21606100
_cell_length_b   13.10616207
_cell_length_c   13.48418415
_cell_angle_alpha   106.25881270
_cell_angle_beta   94.71883215
_cell_angle_gamma   106.17989453
_symmetry_Int_Tables_number   1
_chemical_formula_structural   K4Ba2B14H16O33
_chemical_formula_sum   'K8 Ba4 B28 H32 O66'
_cell_volume   1478.78237366
_cell_formula_units_Z   2
loop_
 _symmetry_equiv_pos_site_id
 _symmetry_equiv_pos_as_xyz
  1  'x, y, z'
loop_
 _atom_site_type_symbol
 _atom_site_label
 _atom_site_symmetry_multiplicity
 _atom_site_fract_x
 _atom_site_fract_y
 _atom_site_fract_z
 _atom_site_occupancy
  K  K0  1  0.19658600  0.58409500  0.61758400  1
  K  K1  1  0.80341400  0.41590500  0.38241600  1
  K  K2  1  0.15522400  0.62937400  0.08861000  1
  K  K3  1  0.84477600  0.37062600  0.91139000  1
  K  K4  1  0.55882500  0.16342600  0.60221500  1
  K  K5  1  0.44117500  0.83657400  0.39778500  1
  K  K6  1  0.55669400  0.16520500  0.10185000  1
  K  K7  1  0.44330600  0.83479500  0.89815000  1
  Ba  Ba8  1  0.17905100  0.13944200  0.40403800  1
  Ba  Ba9  1  0.82094900  0.86055800  0.59596200  1
  Ba  Ba10  1  0.16936500  0.12366100  0.89679100  1
  Ba  Ba11  1  0.83063500  0.87633900  0.10320900  1
  B  B12  1  0.36456000  0.36998300  0.85751500  1
  B  B13  1  0.63544000  0.63001700  0.14248500  1
  B  B14  1  0.21033600  0.49212700  0.83634100  1
  B  B15  1  0.78966400  0.50787300  0.16365900  1
  B  B16  1  0.08376900  0.28304600  0.75589000  1
  B  B17  1  0.91623100  0.71695400  0.24411000  1
  B  B18  1  0.92109700  0.14159500  0.58925400  1
  B  B19  1  0.07890300  0.85840500  0.41074600  1
  B  B20  1  0.84397000  0.12005600  0.75977100  1
  B  B21  1  0.15603000  0.87994400  0.24022900  1
  B  B22  1  0.61503600  0.11898900  0.85071100  1
  B  B23  1  0.38496400  0.88101100  0.14928900  1
  B  B24  1  0.78657300  0.01906000  0.89499000  1
  B  B25  1  0.21342700  0.98094000  0.10501000  1
  B  B26  1  0.91782600  0.14942600  0.09040500  1
  B  B27  1  0.08217400  0.85057400  0.90959500  1
  B  B28  1  0.08644300  0.29172800  0.25697200  1
  B  B29  1  0.91355700  0.70827200  0.74302800  1
  B  B30  1  0.22105200  0.49697000  0.30299200  1
  B  B31  1  0.77894800  0.50303000  0.69700800  1
  B  B32  1  0.38501100  0.37039500  0.29578900  1
  B  B33  1  0.61498900  0.62960500  0.70421100  1
  B  B34  1  0.83936700  0.13405700  0.26382300  1
  B  B35  1  0.16063300  0.86594300  0.73617700  1
  B  B36  1  0.78572800  0.02516100  0.39370200  1
  B  B37  1  0.21427200  0.97483900  0.60629800  1
  B  B38  1  0.61835600  0.13440500  0.36167300  1
  B  B39  1  0.38164400  0.86559500  0.63832700  1
  H  H40  1  0.99469500  0.68074800  0.55998700  1
  H  H41  1  0.00530500  0.31925200  0.44001300  1
  H  H42  1  0.98004300  0.67134000  0.44055200  1
  H  H43  1  0.01995700  0.32866000  0.55944800  1
  H  H44  1  0.20362500  0.39662000  0.01820000  1
  H  H45  1  0.79637500  0.60338000  0.98180000  1
  H  H46  1  0.08497000  0.35247400  0.08415700  1
  H  H47  1  0.91503000  0.64752600  0.91584300  1
  H  H48  1  0.31662200  0.31595700  0.64697700  1
  H  H49  1  0.68337800  0.68404300  0.35302300  1
  H  H50  1  0.46294100  0.39518900  0.62303900  1
  H  H51  1  0.53705900  0.60481100  0.37696100  1
  H  H52  1  0.55752800  0.40353900  0.79018400  1
  H  H53  1  0.44247200  0.59646100  0.20981600  1
  H  H54  1  0.43916100  0.39299400  0.01333700  1
  H  H55  1  0.56083900  0.60700600  0.98666300  1
  H  H56  1  0.11105300  0.60520000  0.29801300  1
  H  H57  1  0.88894700  0.39480000  0.70198700  1
  H  H58  1  0.51702400  0.40567600  0.18822100  1
  H  H59  1  0.48297600  0.59432400  0.81177900  1
  H  H60  1  0.76078300  0.84856800  0.84644300  1
  H  H61  1  0.23921700  0.15143200  0.15355700  1
  H  H62  1  0.75804000  0.85491700  0.33695300  1
  H  H63  1  0.24196000  0.14508300  0.66304700  1
  H  H64  1  0.50570300  0.25212900  0.38348300  1
  H  H65  1  0.49429700  0.74787100  0.61651700  1
  H  H66  1  0.50712500  0.23169300  0.85205700  1
  H  H67  1  0.49287500  0.76830700  0.14794300  1
  H  H68  1  0.44551700  0.39816600  0.45468000  1
  H  H69  1  0.55448300  0.60183400  0.54532000  1
  H  H70  1  0.09652400  0.59779100  0.82710200  1
  H  H71  1  0.90347600  0.40220900  0.17289800  1
  O  O72  1  0.51829200  0.36463400  0.83924900  1
  O  O73  1  0.48170800  0.63536600  0.16075100  1
  O  O74  1  0.34619700  0.35066100  0.96061700  1
  O  O75  1  0.65380300  0.64933900  0.03938300  1
  O  O76  1  0.35269100  0.48371100  0.86278900  1
  O  O77  1  0.64730900  0.51628900  0.13721100  1
  O  O78  1  0.24377000  0.28133900  0.77592700  1
  O  O79  1  0.75623000  0.71866100  0.22407300  1
  O  O80  1  0.20012400  0.60041200  0.85509700  1
  O  O81  1  0.79987600  0.39958800  0.14490300  1
  O  O82  1  0.08065300  0.40234600  0.79248400  1
  O  O83  1  0.91934700  0.59765400  0.20751600  1
  O  O84  1  0.03144700  0.24309600  0.64078600  1
  O  O85  1  0.96855300  0.75690400  0.35921400  1
  O  O86  1  0.90851100  0.10669900  0.48269900  1
  O  O87  1  0.09148900  0.89330100  0.51730100  1
  O  O88  1  0.82924500  0.08054100  0.64215400  1
  O  O89  1  0.17075500  0.91945900  0.35784600  1
  O  O90  1  0.98349500  0.21513600  0.80722000  1
  O  O91  1  0.01650500  0.78486400  0.19278000  1
  O  O92  1  0.70536400  0.15582100  0.78395500  1
  O  O93  1  0.29463600  0.84417900  0.21604500  1
  O  O94  1  0.49905900  0.16620100  0.87756800  1
  O  O95  1  0.50094100  0.83379900  0.12243200  1
  O  O96  1  0.63749100  0.04483000  0.89910200  1
  O  O97  1  0.36250900  0.95517000  0.10089800  1
  O  O98  1  0.76440800  0.90925600  0.90992100  1
  O  O99  1  0.23559200  0.09074400  0.09007900  1
  O  O100  1  0.84319600  0.02399400  0.79692600  1
  O  O101  1  0.15680400  0.97600500  0.20307400  1
  O  O102  1  0.90381300  0.10771500  0.98379900  1
  O  O103  1  0.09618700  0.89228500  0.01620100  1
  O  O104  1  0.03441300  0.24764500  0.14077200  1
  O  O105  1  0.96558700  0.75235500  0.85922800  1
  O  O106  1  0.08683700  0.41160700  0.28767200  1
  O  O107  1  0.91316300  0.58839300  0.71232800  1
  O  O108  1  0.21748200  0.60506700  0.31232700  1
  O  O109  1  0.78251800  0.39493300  0.68767300  1
  O  O110  1  0.36452700  0.48429100  0.31058500  1
  O  O111  1  0.63547300  0.51570900  0.68941500  1
  O  O112  1  0.46215700  0.34027300  0.20724600  1
  O  O113  1  0.53784300  0.65972700  0.79275400  1
  O  O114  1  0.49173400  0.37956900  0.39238900  1
  O  O115  1  0.50826600  0.62043100  0.60761100  1
  O  O116  1  0.23925300  0.28430700  0.28560500  1
  O  O117  1  0.76074700  0.71569300  0.71439500  1
  O  O118  1  0.98111000  0.22886600  0.31090800  1
  O  O119  1  0.01889000  0.77113400  0.68909200  1
  O  O120  1  0.70477700  0.17278300  0.29380500  1
  O  O121  1  0.29522300  0.82721700  0.70619500  1
  O  O122  1  0.50231600  0.17871900  0.39479700  1
  O  O123  1  0.49768400  0.82128100  0.60520300  1
  O  O124  1  0.64139700  0.05605000  0.40477100  1
  O  O125  1  0.35860300  0.94395000  0.59522900  1
  O  O126  1  0.75740500  0.91188400  0.40204000  1
  O  O127  1  0.24259500  0.08811600  0.59796000  1
  O  O128  1  0.83979500  0.03563600  0.29669900  1
  O  O129  1  0.16020500  0.96436400  0.70330100  1
  O  O130  1  0.82038200  0.09575300  0.14598000  1
  O  O131  1  0.17961800  0.90424700  0.85402000  1
  O  O132  1  0.98218700  0.62679900  0.48880900  1
  O  O133  1  0.01781300  0.37320100  0.51119100  1
  O  O134  1  0.11530100  0.41196800  0.05036900  1
  O  O135  1  0.88469900  0.58803200  0.94963100  1
  O  O136  1  0.37218800  0.32788100  0.58950300  1
  O  O137  1  0.62781200  0.67211900  0.41049700  1
