# generated using pymatgen
data_Cs4BaV6O18
_symmetry_space_group_name_H-M   'P 1'
_cell_length_a   10.66849124
_cell_length_b   10.66849124
_cell_length_c   10.66849145
_cell_angle_alpha   83.63643318
_cell_angle_beta   83.63643318
_cell_angle_gamma   83.63643219
_symmetry_Int_Tables_number   1
_chemical_formula_structural   Cs4BaV6O18
_chemical_formula_sum   'Cs8 Ba2 V12 O36'
_cell_volume   1193.35064394
_cell_formula_units_Z   2
loop_
 _symmetry_equiv_pos_site_id
 _symmetry_equiv_pos_as_xyz
  1  'x, y, z'
loop_
 _atom_site_type_symbol
 _atom_site_label
 _atom_site_symmetry_multiplicity
 _atom_site_fract_x
 _atom_site_fract_y
 _atom_site_fract_z
 _atom_site_occupancy
  Cs  Cs0  1  0.49915500  0.49915500  0.49915500  1
  Cs  Cs1  1  0.99915500  0.99915500  0.99915500  1
  Cs  Cs2  1  0.90763900  0.08861400  0.48702000  1
  Cs  Cs3  1  0.48702000  0.90763900  0.08861400  1
  Cs  Cs4  1  0.08861400  0.48702000  0.90763900  1
  Cs  Cs5  1  0.98702000  0.58861400  0.40763900  1
  Cs  Cs6  1  0.40763900  0.98702000  0.58861400  1
  Cs  Cs7  1  0.58861400  0.40763900  0.98702000  1
  Ba  Ba8  1  0.26864400  0.26864400  0.26864400  1
  Ba  Ba9  1  0.76864400  0.76864400  0.76864400  1
  V  V10  1  0.80018800  0.66907100  0.10307000  1
  V  V11  1  0.10307000  0.80018800  0.66907100  1
  V  V12  1  0.66907100  0.10307000  0.80018800  1
  V  V13  1  0.60307000  0.16907100  0.30018800  1
  V  V14  1  0.30018800  0.60307000  0.16907100  1
  V  V15  1  0.16907100  0.30018800  0.60307000  1
  V  V16  1  0.69089900  0.83478000  0.37641100  1
  V  V17  1  0.37641100  0.69089900  0.83478000  1
  V  V18  1  0.83478000  0.37641100  0.69089900  1
  V  V19  1  0.87641100  0.33478000  0.19089900  1
  V  V20  1  0.19089900  0.87641100  0.33478000  1
  V  V21  1  0.33478000  0.19089900  0.87641100  1
  O  O22  1  0.00795200  0.35006000  0.66553000  1
  O  O23  1  0.66553000  0.00795200  0.35006000  1
  O  O24  1  0.35006000  0.66553000  0.00795200  1
  O  O25  1  0.16553000  0.85006000  0.50795200  1
  O  O26  1  0.50795200  0.16553000  0.85006000  1
  O  O27  1  0.85006000  0.50795200  0.16553000  1
  O  O28  1  0.17093100  0.17023900  0.52710700  1
  O  O29  1  0.52710700  0.17093100  0.17023900  1
  O  O30  1  0.17023900  0.52710700  0.17093100  1
  O  O31  1  0.02710700  0.67023900  0.67093100  1
  O  O32  1  0.67093100  0.02710700  0.67023900  1
  O  O33  1  0.67023900  0.67093100  0.02710700  1
  O  O34  1  0.77078000  0.77005400  0.23301100  1
  O  O35  1  0.23301100  0.77078000  0.77005400  1
  O  O36  1  0.77005400  0.23301100  0.77078000  1
  O  O37  1  0.73301100  0.27005400  0.27078000  1
  O  O38  1  0.27078000  0.73301100  0.27005400  1
  O  O39  1  0.27005400  0.27078000  0.73301100  1
  O  O40  1  0.91099500  0.72283200  0.99138000  1
  O  O41  1  0.99138000  0.91099500  0.72283200  1
  O  O42  1  0.72283200  0.99138000  0.91099500  1
  O  O43  1  0.49138000  0.22283200  0.41099500  1
  O  O44  1  0.41099500  0.49138000  0.22283200  1
  O  O45  1  0.22283200  0.41099500  0.49138000  1
  O  O46  1  0.00016500  0.29223600  0.27794000  1
  O  O47  1  0.27794000  0.00016500  0.29223600  1
  O  O48  1  0.29223600  0.27794000  0.00016500  1
  O  O49  1  0.77794000  0.79223600  0.50016500  1
  O  O50  1  0.50016500  0.77794000  0.79223600  1
  O  O51  1  0.79223600  0.50016500  0.77794000  1
  O  O52  1  0.54989800  0.77950000  0.41080000  1
  O  O53  1  0.41080000  0.54989800  0.77950000  1
  O  O54  1  0.77950000  0.41080000  0.54989800  1
  O  O55  1  0.91080000  0.27950000  0.04989800  1
  O  O56  1  0.04989800  0.91080000  0.27950000  1
  O  O57  1  0.27950000  0.04989800  0.91080000  1
