# generated using pymatgen
data_CsCrAs2O7
_symmetry_space_group_name_H-M   'P 1'
_cell_length_a   10.31803000
_cell_length_b   8.09993800
_cell_length_c   8.89561822
_cell_angle_alpha   73.96964918
_cell_angle_beta   90.00000000
_cell_angle_gamma   90.00000000
_symmetry_Int_Tables_number   1
_chemical_formula_structural   CsCrAs2O7
_chemical_formula_sum   'Cs4 Cr4 As8 O28'
_cell_volume   714.54604622
_cell_formula_units_Z   4
loop_
 _symmetry_equiv_pos_site_id
 _symmetry_equiv_pos_as_xyz
  1  'x, y, z'
loop_
 _atom_site_type_symbol
 _atom_site_label
 _atom_site_symmetry_multiplicity
 _atom_site_fract_x
 _atom_site_fract_y
 _atom_site_fract_z
 _atom_site_occupancy
  Cs  Cs0  1  0.19540700  0.68082500  0.45632600  1
  Cs  Cs1  1  0.69540700  0.31917500  0.04367400  1
  Cs  Cs2  1  0.80459300  0.31917500  0.54367400  1
  Cs  Cs3  1  0.30459300  0.68082500  0.95632600  1
  Cr  Cr4  1  0.39854800  0.25894200  0.76431900  1
  Cr  Cr5  1  0.89854800  0.74105800  0.73568100  1
  Cr  Cr6  1  0.60145200  0.74105800  0.23568100  1
  Cr  Cr7  1  0.10145200  0.25894200  0.26431900  1
  As  As8  1  0.13028100  0.07173600  0.68424300  1
  As  As9  1  0.63028100  0.92826400  0.81575700  1
  As  As10  1  0.86971900  0.92826400  0.31575700  1
  As  As11  1  0.36971900  0.07173600  0.18424300  1
  As  As12  1  0.09160200  0.36606300  0.84014400  1
  As  As13  1  0.59160200  0.63393700  0.65985600  1
  As  As14  1  0.90839800  0.63393700  0.15985600  1
  As  As15  1  0.40839800  0.36606300  0.34014400  1
  O  O16  1  0.10298600  0.20261100  0.50192900  1
  O  O17  1  0.60298600  0.79738900  0.99807100  1
  O  O18  1  0.89701400  0.79738900  0.49807100  1
  O  O19  1  0.39701400  0.20261100  0.00192900  1
  O  O20  1  0.07333800  0.86733000  0.72233500  1
  O  O21  1  0.57333800  0.13267000  0.77766500  1
  O  O22  1  0.92666200  0.13267000  0.27766500  1
  O  O23  1  0.42666200  0.86733000  0.22233500  1
  O  O24  1  0.28709100  0.05860000  0.75140100  1
  O  O25  1  0.78709100  0.94140000  0.74859900  1
  O  O26  1  0.71290900  0.94140000  0.24859900  1
  O  O27  1  0.21290900  0.05860000  0.25140100  1
  O  O28  1  0.03501400  0.16682200  0.80967400  1
  O  O29  1  0.53501400  0.83317800  0.69032600  1
  O  O30  1  0.96498600  0.83317800  0.19032600  1
  O  O31  1  0.46498600  0.16682200  0.30967400  1
  O  O32  1  0.08071600  0.34692300  0.03218300  1
  O  O33  1  0.58071600  0.65307700  0.46781700  1
  O  O34  1  0.91928400  0.65307700  0.96781700  1
  O  O35  1  0.41928400  0.34692300  0.53218300  1
  O  O36  1  0.99428500  0.52010300  0.72512800  1
  O  O37  1  0.49428500  0.47989700  0.77487200  1
  O  O38  1  0.00571500  0.47989700  0.27487200  1
  O  O39  1  0.50571500  0.52010300  0.22512800  1
  O  O40  1  0.24239300  0.40625400  0.75810500  1
  O  O41  1  0.74239300  0.59374600  0.74189500  1
  O  O42  1  0.75760700  0.59374600  0.24189500  1
  O  O43  1  0.25760700  0.40625400  0.25810500  1
