# generated using pymatgen
data_TbEr4Ni10(B2C)5
_symmetry_space_group_name_H-M   'P 1'
_cell_length_a   3.53021700
_cell_length_b   5.80270559
_cell_length_c   16.85956610
_cell_angle_alpha   88.38669285
_cell_angle_beta   83.99041669
_cell_angle_gamma   72.29072697
_symmetry_Int_Tables_number   1
_chemical_formula_structural   TbEr4Ni10(B2C)5
_chemical_formula_sum   'Tb1 Er4 Ni10 B10 C5'
_cell_volume   327.18840751
_cell_formula_units_Z   1
loop_
 _symmetry_equiv_pos_site_id
 _symmetry_equiv_pos_as_xyz
  1  'x, y, z'
loop_
 _atom_site_type_symbol
 _atom_site_label
 _atom_site_symmetry_multiplicity
 _atom_site_fract_x
 _atom_site_fract_y
 _atom_site_fract_z
 _atom_site_occupancy
  Tb  Tb0  1  0.00000000  0.00000000  0.00000000  1
  Er  Er1  1  0.00001100  0.79964000  0.20033800  1
  Er  Er2  1  0.00013200  0.59983900  0.39989700  1
  Er  Er3  1  0.99986800  0.40016100  0.60010300  1
  Er  Er4  1  0.99998900  0.20036000  0.79966200  1
  Ni  Ni5  1  0.25038900  0.44904600  0.05017500  1
  Ni  Ni6  1  0.25057900  0.64946600  0.84937500  1
  Ni  Ni7  1  0.25018300  0.84969800  0.64993600  1
  Ni  Ni8  1  0.25019700  0.04969000  0.44991600  1
  Ni  Ni9  1  0.25010600  0.24967700  0.25011200  1
  Ni  Ni10  1  0.74961100  0.55095400  0.94982500  1
  Ni  Ni11  1  0.74989400  0.75032300  0.74988800  1
  Ni  Ni12  1  0.74980300  0.95031000  0.55008400  1
  Ni  Ni13  1  0.74981700  0.15030200  0.35006400  1
  Ni  Ni14  1  0.74942100  0.35053400  0.15062500  1
  B  B15  1  0.35704300  0.35747900  0.92843400  1
  B  B16  1  0.35723500  0.55701000  0.72852100  1
  B  B17  1  0.35724300  0.75685400  0.52866000  1
  B  B18  1  0.35721400  0.95684600  0.32872500  1
  B  B19  1  0.35719400  0.15668100  0.12893100  1
  B  B20  1  0.64295700  0.64252100  0.07156600  1
  B  B21  1  0.64280600  0.84331900  0.87106900  1
  B  B22  1  0.64278600  0.04315400  0.67127500  1
  B  B23  1  0.64275700  0.24314600  0.47134000  1
  B  B24  1  0.64276500  0.44299000  0.27147900  1
  C  C25  1  0.49991900  0.10200900  0.89815300  1
  C  C26  1  0.50001600  0.30008800  0.69988100  1
  C  C27  1  0.50000000  0.50000000  0.50000000  1
  C  C28  1  0.49998400  0.69991200  0.30011900  1
  C  C29  1  0.50008100  0.89799100  0.10184700  1
