# generated using pymatgen
data_Rb2Mn3Te4
_symmetry_space_group_name_H-M   'P 1'
_cell_length_a   10.50557661
_cell_length_b   10.50557661
_cell_length_c   10.50557661
_cell_angle_alpha   143.28201138
_cell_angle_beta   104.90555452
_cell_angle_gamma   86.62823438
_symmetry_Int_Tables_number   1
_chemical_formula_structural   Rb2Mn3Te4
_chemical_formula_sum   'Rb4 Mn6 Te8'
_cell_volume   647.73417838
_cell_formula_units_Z   2
loop_
 _symmetry_equiv_pos_site_id
 _symmetry_equiv_pos_as_xyz
  1  'x, y, z'
loop_
 _atom_site_type_symbol
 _atom_site_label
 _atom_site_symmetry_multiplicity
 _atom_site_fract_x
 _atom_site_fract_y
 _atom_site_fract_z
 _atom_site_occupancy
  Rb  Rb0  1  0.12239700  0.26496000  0.38735700  1
  Rb  Rb1  1  0.87760300  0.73504000  0.61264300  1
  Rb  Rb2  1  0.62239700  0.23504000  0.85743600  1
  Rb  Rb3  1  0.37760300  0.76496000  0.14256400  1
  Mn  Mn4  1  0.25000000  0.25000000  0.00000000  1
  Mn  Mn5  1  0.75000000  0.75000000  0.00000000  1
  Mn  Mn6  1  0.51705900  0.25000000  0.26705900  1
  Mn  Mn7  1  0.48294100  0.75000000  0.73294100  1
  Mn  Mn8  1  0.98294100  0.25000000  0.73294100  1
  Mn  Mn9  1  0.01705900  0.75000000  0.26705900  1
  Te  Te10  1  0.48679400  0.58135700  0.35705100  1
  Te  Te11  1  0.51320600  0.41864300  0.64294900  1
  Te  Te12  1  0.22430600  0.12974300  0.64294900  1
  Te  Te13  1  0.27569400  0.91864300  0.90543700  1
  Te  Te14  1  0.77569400  0.87025700  0.35705100  1
  Te  Te15  1  0.72430600  0.08135700  0.09456300  1
  Te  Te16  1  0.01320600  0.37025700  0.09456300  1
  Te  Te17  1  0.98679400  0.62974300  0.90543700  1
