# generated using pymatgen
data_Yb2Fe12P7
_symmetry_space_group_name_H-M   'P 1'
_cell_length_a   8.96207111
_cell_length_b   8.96207111
_cell_length_c   3.61552100
_cell_angle_alpha   90.00000000
_cell_angle_beta   90.00000000
_cell_angle_gamma   119.99999346
_symmetry_Int_Tables_number   1
_chemical_formula_structural   Yb2Fe12P7
_chemical_formula_sum   'Yb2 Fe12 P7'
_cell_volume   251.48860981
_cell_formula_units_Z   1
loop_
 _symmetry_equiv_pos_site_id
 _symmetry_equiv_pos_as_xyz
  1  'x, y, z'
loop_
 _atom_site_type_symbol
 _atom_site_label
 _atom_site_symmetry_multiplicity
 _atom_site_fract_x
 _atom_site_fract_y
 _atom_site_fract_z
 _atom_site_occupancy
  Yb  Yb0  1  0.66666700  0.33333300  0.00000000  1
  Yb  Yb1  1  0.33333300  0.66666700  0.50000000  1
  Fe  Fe2  1  0.05106500  0.62221800  0.00000000  1
  Fe  Fe3  1  0.57115300  0.94893500  0.00000000  1
  Fe  Fe4  1  0.37778200  0.42884700  0.00000000  1
  Fe  Fe5  1  0.27223100  0.11808500  0.00000000  1
  Fe  Fe6  1  0.84585400  0.72776900  0.00000000  1
  Fe  Fe7  1  0.88191500  0.15414600  0.00000000  1
  Fe  Fe8  1  0.43223000  0.04480800  0.50000000  1
  Fe  Fe9  1  0.61257800  0.56777000  0.50000000  1
  Fe  Fe10  1  0.95519200  0.38742200  0.50000000  1
  Fe  Fe11  1  0.09769700  0.87797800  0.50000000  1
  Fe  Fe12  1  0.78028100  0.90230300  0.50000000  1
  Fe  Fe13  1  0.12202200  0.21971900  0.50000000  1
  P  P14  1  0.29113300  0.88319600  0.00000000  1
  P  P15  1  0.59206300  0.70886700  0.00000000  1
  P  P16  1  0.11680400  0.40793700  0.00000000  1
  P  P17  1  0.39935600  0.28563800  0.50000000  1
  P  P18  1  0.88628200  0.60064400  0.50000000  1
  P  P19  1  0.71436200  0.11371800  0.50000000  1
  P  P20  1  0.00000000  0.00000000  0.00000000  1
