# generated using pymatgen
data_GaSiNi6
_symmetry_space_group_name_H-M   'P 1'
_cell_length_a   3.53741000
_cell_length_b   3.53741000
_cell_length_c   7.04366500
_cell_angle_alpha   90.00000000
_cell_angle_beta   90.00000000
_cell_angle_gamma   90.00000000
_symmetry_Int_Tables_number   1
_chemical_formula_structural   GaSiNi6
_chemical_formula_sum   'Ga1 Si1 Ni6'
_cell_volume   88.13927847
_cell_formula_units_Z   1
loop_
 _symmetry_equiv_pos_site_id
 _symmetry_equiv_pos_as_xyz
  1  'x, y, z'
loop_
 _atom_site_type_symbol
 _atom_site_label
 _atom_site_symmetry_multiplicity
 _atom_site_fract_x
 _atom_site_fract_y
 _atom_site_fract_z
 _atom_site_occupancy
  Ga  Ga0  1  0.00000000  0.00000000  0.00000000  1
  Si  Si1  1  0.00000000  0.00000000  0.50000000  1
  Ni  Ni2  1  0.50000000  0.50000000  0.00000000  1
  Ni  Ni3  1  0.50000000  0.50000000  0.50000000  1
  Ni  Ni4  1  0.50000000  0.00000000  0.25891200  1
  Ni  Ni5  1  0.50000000  0.00000000  0.74108800  1
  Ni  Ni6  1  0.00000000  0.50000000  0.25891200  1
  Ni  Ni7  1  0.00000000  0.50000000  0.74108800  1
