# generated using pymatgen
data_KNi3P3O11
_symmetry_space_group_name_H-M   'P 1'
_cell_length_a   9.49495400
_cell_length_b   9.98810600
_cell_length_c   10.19788543
_cell_angle_alpha   60.00208063
_cell_angle_beta   90.00000000
_cell_angle_gamma   90.00000000
_symmetry_Int_Tables_number   1
_chemical_formula_structural   KNi3P3O11
_chemical_formula_sum   'K4 Ni12 P12 O44'
_cell_volume   837.57917873
_cell_formula_units_Z   4
loop_
 _symmetry_equiv_pos_site_id
 _symmetry_equiv_pos_as_xyz
  1  'x, y, z'
loop_
 _atom_site_type_symbol
 _atom_site_label
 _atom_site_symmetry_multiplicity
 _atom_site_fract_x
 _atom_site_fract_y
 _atom_site_fract_z
 _atom_site_occupancy
  K  K0  1  0.23543200  0.41712200  0.58099500  1
  K  K1  1  0.26456800  0.41712200  0.08099500  1
  K  K2  1  0.76456800  0.58287800  0.41900500  1
  K  K3  1  0.73543200  0.58287800  0.91900500  1
  Ni  Ni4  1  0.62821400  0.26289600  0.37492100  1
  Ni  Ni5  1  0.87178600  0.26289600  0.87492100  1
  Ni  Ni6  1  0.37178600  0.73710400  0.62507900  1
  Ni  Ni7  1  0.12821400  0.73710400  0.12507900  1
  Ni  Ni8  1  0.13205400  0.09546600  0.39649100  1
  Ni  Ni9  1  0.36794600  0.09546600  0.89649100  1
  Ni  Ni10  1  0.86794600  0.90453400  0.60350900  1
  Ni  Ni11  1  0.63205400  0.90453400  0.10350900  1
  Ni  Ni12  1  0.63144600  0.08502200  0.73589800  1
  Ni  Ni13  1  0.86855400  0.08502200  0.23589800  1
  Ni  Ni14  1  0.36855400  0.91497800  0.26410200  1
  Ni  Ni15  1  0.13144600  0.91497800  0.76410200  1
  P  P16  1  0.33764200  0.10302300  0.56887900  1
  P  P17  1  0.16235800  0.10302300  0.06887900  1
  P  P18  1  0.66235800  0.89697700  0.43112100  1
  P  P19  1  0.83764200  0.89697700  0.93112100  1
  P  P20  1  0.92551100  0.22886200  0.57682700  1
  P  P21  1  0.57448900  0.22886200  0.07682700  1
  P  P22  1  0.07448900  0.77113800  0.42317300  1
  P  P23  1  0.42551100  0.77113800  0.92317300  1
  P  P24  1  0.94060500  0.40044900  0.24827900  1
  P  P25  1  0.55939500  0.40044900  0.74827900  1
  P  P26  1  0.05939500  0.59955100  0.75172100  1
  P  P27  1  0.44060500  0.59955100  0.25172100  1
  O  O28  1  0.27084300  0.94797700  0.58409000  1
  O  O29  1  0.22915700  0.94797700  0.08409000  1
  O  O30  1  0.72915700  0.05202300  0.41591000  1
  O  O31  1  0.77084300  0.05202300  0.91591000  1
  O  O32  1  0.50000500  0.10976600  0.56519000  1
  O  O33  1  0.99999500  0.10976600  0.06519000  1
  O  O34  1  0.49999500  0.89023400  0.43481000  1
  O  O35  1  0.00000500  0.89023400  0.93481000  1
  O  O36  1  0.27152400  0.23267100  0.42390400  1
  O  O37  1  0.22847600  0.23267100  0.92390400  1
  O  O38  1  0.72847600  0.76732900  0.57609600  1
  O  O39  1  0.77152400  0.76732900  0.07609600  1
  O  O40  1  0.27552700  0.09782900  0.71439200  1
  O  O41  1  0.22447300  0.09782900  0.21439200  1
  O  O42  1  0.72447300  0.90217100  0.28560800  1
  O  O43  1  0.77552700  0.90217100  0.78560800  1
  O  O44  1  0.97810600  0.25948300  0.69889900  1
  O  O45  1  0.52189400  0.25948300  0.19889900  1
  O  O46  1  0.02189400  0.74051700  0.30110100  1
  O  O47  1  0.47810600  0.74051700  0.80110100  1
  O  O48  1  0.99597200  0.08153900  0.58458200  1
  O  O49  1  0.50402800  0.08153900  0.08458200  1
  O  O50  1  0.00402800  0.91846100  0.41541800  1
  O  O51  1  0.49597200  0.91846100  0.91541800  1
  O  O52  1  0.76370300  0.22798500  0.56323900  1
  O  O53  1  0.73629700  0.22798500  0.06323900  1
  O  O54  1  0.23629700  0.77201500  0.43676100  1
  O  O55  1  0.26370300  0.77201500  0.93676100  1
  O  O56  1  0.97962500  0.37224400  0.41900400  1
  O  O57  1  0.52037500  0.37224400  0.91900400  1
  O  O58  1  0.02037500  0.62775600  0.58099600  1
  O  O59  1  0.47962500  0.62775600  0.08099600  1
  O  O60  1  0.02443800  0.54180300  0.14102700  1
  O  O61  1  0.47556200  0.54180300  0.64102700  1
  O  O62  1  0.97556200  0.45819700  0.85897300  1
  O  O63  1  0.52443800  0.45819700  0.35897300  1
  O  O64  1  0.78125400  0.41329200  0.23376200  1
  O  O65  1  0.71874600  0.41329200  0.73376200  1
  O  O66  1  0.21874600  0.58670800  0.76623800  1
  O  O67  1  0.28125400  0.58670800  0.26623800  1
  O  O68  1  0.99150400  0.25083600  0.25075900  1
  O  O69  1  0.50849600  0.25083600  0.75075900  1
  O  O70  1  0.00849600  0.74916400  0.74924100  1
  O  O71  1  0.49150400  0.74916400  0.24924100  1
