# generated using pymatgen
data_Yb3Ni19B10
_symmetry_space_group_name_H-M   'P 1'
_cell_length_a   7.85192560
_cell_length_b   7.85192560
_cell_length_c   5.71273341
_cell_angle_alpha   88.67659598
_cell_angle_beta   88.67659598
_cell_angle_gamma   67.42708394
_symmetry_Int_Tables_number   1
_chemical_formula_structural   Yb3Ni19B10
_chemical_formula_sum   'Yb3 Ni19 B10'
_cell_volume   325.09841037
_cell_formula_units_Z   1
loop_
 _symmetry_equiv_pos_site_id
 _symmetry_equiv_pos_as_xyz
  1  'x, y, z'
loop_
 _atom_site_type_symbol
 _atom_site_label
 _atom_site_symmetry_multiplicity
 _atom_site_fract_x
 _atom_site_fract_y
 _atom_site_fract_z
 _atom_site_occupancy
  Yb  Yb0  1  0.62472500  0.62472500  0.60892900  1
  Yb  Yb1  1  0.37527500  0.37527500  0.39107100  1
  Yb  Yb2  1  0.00000000  0.00000000  0.00000000  1
  Ni  Ni3  1  0.62212500  0.62212500  0.12402600  1
  Ni  Ni4  1  0.37787500  0.37787500  0.87597400  1
  Ni  Ni5  1  0.83564900  0.83564900  0.70487600  1
  Ni  Ni6  1  0.16435100  0.16435100  0.29512400  1
  Ni  Ni7  1  0.81894300  0.81894300  0.26906000  1
  Ni  Ni8  1  0.18105700  0.18105700  0.73094000  1
  Ni  Ni9  1  0.00000000  0.00000000  0.50000000  1
  Ni  Ni10  1  0.62181000  0.12320100  0.07663000  1
  Ni  Ni11  1  0.37819000  0.87679900  0.92337000  1
  Ni  Ni12  1  0.87679900  0.37819000  0.92337000  1
  Ni  Ni13  1  0.12320100  0.62181000  0.07663000  1
  Ni  Ni14  1  0.28648100  0.77289300  0.29999800  1
  Ni  Ni15  1  0.71351900  0.22710700  0.70000200  1
  Ni  Ni16  1  0.22710700  0.71351900  0.70000200  1
  Ni  Ni17  1  0.77289300  0.28648100  0.29999800  1
  Ni  Ni18  1  0.48292200  0.95455400  0.30197100  1
  Ni  Ni19  1  0.51707800  0.04544600  0.69802900  1
  Ni  Ni20  1  0.04544600  0.51707800  0.69802900  1
  Ni  Ni21  1  0.95455400  0.48292200  0.30197100  1
  B  B22  1  0.70081900  0.06449500  0.43062300  1
  B  B23  1  0.29918100  0.93550500  0.56937700  1
  B  B24  1  0.93550500  0.29918100  0.56937700  1
  B  B25  1  0.06449500  0.70081900  0.43062300  1
  B  B26  1  0.35005100  0.14084400  0.02572200  1
  B  B27  1  0.64994900  0.85915600  0.97427800  1
  B  B28  1  0.85915600  0.64994900  0.97427800  1
  B  B29  1  0.14084400  0.35005100  0.02572200  1
  B  B30  1  0.61553800  0.38446200  0.00000000  1
  B  B31  1  0.38446200  0.61553800  0.00000000  1
