# generated using pymatgen
data_LaHoSi2O7
_symmetry_space_group_name_H-M   'P 1'
_cell_length_a   8.65292100
_cell_length_b   5.44292300
_cell_length_c   14.02653273
_cell_angle_alpha   67.68807119
_cell_angle_beta   90.00000000
_cell_angle_gamma   90.00000000
_symmetry_Int_Tables_number   1
_chemical_formula_structural   LaHoSi2O7
_chemical_formula_sum   'La4 Ho4 Si8 O28'
_cell_volume   611.15075162
_cell_formula_units_Z   4
loop_
 _symmetry_equiv_pos_site_id
 _symmetry_equiv_pos_as_xyz
  1  'x, y, z'
loop_
 _atom_site_type_symbol
 _atom_site_label
 _atom_site_symmetry_multiplicity
 _atom_site_fract_x
 _atom_site_fract_y
 _atom_site_fract_z
 _atom_site_occupancy
  La  La0  1  0.80533300  0.48408600  0.77136000  1
  La  La1  1  0.30533300  0.51591400  0.72864000  1
  La  La2  1  0.19466700  0.51591400  0.22864000  1
  La  La3  1  0.69466700  0.48408600  0.27136000  1
  Ho  Ho4  1  0.60768900  0.18245100  0.59017600  1
  Ho  Ho5  1  0.10768900  0.81754900  0.90982400  1
  Ho  Ho6  1  0.39231100  0.81754900  0.40982400  1
  Ho  Ho7  1  0.89231100  0.18245100  0.09017600  1
  Si  Si8  1  0.24475700  0.25132800  0.02120200  1
  Si  Si9  1  0.74475700  0.74867200  0.47879800  1
  Si  Si10  1  0.75524300  0.74867200  0.97879800  1
  Si  Si11  1  0.25524300  0.25132800  0.52120200  1
  Si  Si12  1  0.50182600  0.04585800  0.18202100  1
  Si  Si13  1  0.00182600  0.95414200  0.31797900  1
  Si  Si14  1  0.49817400  0.95414200  0.81797900  1
  Si  Si15  1  0.99817400  0.04585800  0.68202100  1
  O  O16  1  0.41876600  0.20763000  0.07074000  1
  O  O17  1  0.91876600  0.79237000  0.42926000  1
  O  O18  1  0.58123400  0.79237000  0.92926000  1
  O  O19  1  0.08123400  0.20763000  0.57074000  1
  O  O20  1  0.25189900  0.46359600  0.90281700  1
  O  O21  1  0.75189900  0.53640400  0.59718300  1
  O  O22  1  0.74810100  0.53640400  0.09718300  1
  O  O23  1  0.24810100  0.46359600  0.40281700  1
  O  O24  1  0.15644200  0.97081800  0.04005500  1
  O  O25  1  0.65644200  0.02918200  0.45994500  1
  O  O26  1  0.84355800  0.02918200  0.95994500  1
  O  O27  1  0.34355800  0.97081800  0.54005500  1
  O  O28  1  0.13077500  0.41360600  0.07433000  1
  O  O29  1  0.63077500  0.58639400  0.42567000  1
  O  O30  1  0.86922500  0.58639400  0.92567000  1
  O  O31  1  0.36922500  0.41360600  0.57433000  1
  O  O32  1  0.42265400  0.75464400  0.24413700  1
  O  O33  1  0.92265400  0.24535600  0.25586300  1
  O  O34  1  0.57734600  0.24535600  0.75586300  1
  O  O35  1  0.07734600  0.75464400  0.74413700  1
  O  O36  1  0.48057600  0.20787400  0.25971100  1
  O  O37  1  0.98057600  0.79212600  0.24028900  1
  O  O38  1  0.51942400  0.79212600  0.74028900  1
  O  O39  1  0.01942400  0.20787400  0.75971100  1
  O  O40  1  0.68119700  0.97634800  0.16825600  1
  O  O41  1  0.18119700  0.02365200  0.33174400  1
  O  O42  1  0.31880300  0.02365200  0.83174400  1
  O  O43  1  0.81880300  0.97634800  0.66825600  1
