# generated using pymatgen
data_Ba2Ge2Se5
_symmetry_space_group_name_H-M   'P 1'
_cell_length_a   9.24914400
_cell_length_b   9.40398000
_cell_length_c   12.84994100
_cell_angle_alpha   90.00000000
_cell_angle_beta   90.00000000
_cell_angle_gamma   90.00000000
_symmetry_Int_Tables_number   1
_chemical_formula_structural   Ba2Ge2Se5
_chemical_formula_sum   'Ba8 Ge8 Se20'
_cell_volume   1117.67200098
_cell_formula_units_Z   4
loop_
 _symmetry_equiv_pos_site_id
 _symmetry_equiv_pos_as_xyz
  1  'x, y, z'
loop_
 _atom_site_type_symbol
 _atom_site_label
 _atom_site_symmetry_multiplicity
 _atom_site_fract_x
 _atom_site_fract_y
 _atom_site_fract_z
 _atom_site_occupancy
  Ba  Ba0  1  0.49597300  0.87653800  0.17819300  1
  Ba  Ba1  1  0.50402700  0.37653800  0.32180700  1
  Ba  Ba2  1  0.99597300  0.12346200  0.82180700  1
  Ba  Ba3  1  0.00402700  0.62346200  0.67819300  1
  Ba  Ba4  1  0.50402700  0.12346200  0.82180700  1
  Ba  Ba5  1  0.49597300  0.62346200  0.67819300  1
  Ba  Ba6  1  0.00402700  0.87653800  0.17819300  1
  Ba  Ba7  1  0.99597300  0.37653800  0.32180700  1
  Ge  Ge8  1  0.75000000  0.97428100  0.53621900  1
  Ge  Ge9  1  0.25000000  0.02571900  0.46378100  1
  Ge  Ge10  1  0.75000000  0.52571900  0.03621900  1
  Ge  Ge11  1  0.25000000  0.47428100  0.96378100  1
  Ge  Ge12  1  0.25000000  0.81662700  0.90381000  1
  Ge  Ge13  1  0.75000000  0.31662700  0.59619000  1
  Ge  Ge14  1  0.75000000  0.18337300  0.09619000  1
  Ge  Ge15  1  0.25000000  0.68337300  0.40381000  1
  Se  Se16  1  0.25000000  0.11785000  0.28281400  1
  Se  Se17  1  0.75000000  0.61785000  0.21718600  1
  Se  Se18  1  0.75000000  0.88215000  0.71718600  1
  Se  Se19  1  0.25000000  0.38215000  0.78281400  1
  Se  Se20  1  0.75000000  0.52454000  0.49374300  1
  Se  Se21  1  0.75000000  0.97546000  0.99374300  1
  Se  Se22  1  0.25000000  0.02454000  0.00625700  1
  Se  Se23  1  0.25000000  0.47546000  0.50625700  1
  Se  Se24  1  0.25000000  0.61574300  0.22458600  1
  Se  Se25  1  0.75000000  0.11574300  0.27541400  1
  Se  Se26  1  0.75000000  0.38425700  0.77541400  1
  Se  Se27  1  0.25000000  0.88425700  0.72458600  1
  Se  Se28  1  0.04291300  0.82746200  0.44175500  1
  Se  Se29  1  0.95708700  0.32746200  0.05824500  1
  Se  Se30  1  0.54291300  0.17253800  0.55824500  1
  Se  Se31  1  0.45708700  0.67253800  0.94175500  1
  Se  Se32  1  0.95708700  0.17253800  0.55824500  1
  Se  Se33  1  0.04291300  0.67253800  0.94175500  1
  Se  Se34  1  0.45708700  0.82746200  0.44175500  1
  Se  Se35  1  0.54291300  0.32746200  0.05824500  1
