# generated using pymatgen
data_AgMoPO6
_symmetry_space_group_name_H-M   'P 1'
_cell_length_a   12.20089500
_cell_length_b   6.43599200
_cell_length_c   13.59860772
_cell_angle_alpha   64.83643918
_cell_angle_beta   90.00000000
_cell_angle_gamma   90.00000000
_symmetry_Int_Tables_number   1
_chemical_formula_structural   AgMoPO6
_chemical_formula_sum   'Ag8 Mo8 P8 O48'
_cell_volume   966.48934873
_cell_formula_units_Z   8
loop_
 _symmetry_equiv_pos_site_id
 _symmetry_equiv_pos_as_xyz
  1  'x, y, z'
loop_
 _atom_site_type_symbol
 _atom_site_label
 _atom_site_symmetry_multiplicity
 _atom_site_fract_x
 _atom_site_fract_y
 _atom_site_fract_z
 _atom_site_occupancy
  Ag  Ag0  1  0.80172800  0.12651300  0.85474100  1
  Ag  Ag1  1  0.30172800  0.87348700  0.64525900  1
  Ag  Ag2  1  0.19827200  0.87348700  0.14525900  1
  Ag  Ag3  1  0.69827200  0.12651300  0.35474100  1
  Ag  Ag4  1  0.71020900  0.56138400  0.87744200  1
  Ag  Ag5  1  0.21020900  0.43861600  0.62255800  1
  Ag  Ag6  1  0.28979100  0.43861600  0.12255800  1
  Ag  Ag7  1  0.78979100  0.56138400  0.37744200  1
  Mo  Mo8  1  0.89806100  0.64490400  0.61325400  1
  Mo  Mo9  1  0.39806100  0.35509600  0.88674600  1
  Mo  Mo10  1  0.10193900  0.35509600  0.38674600  1
  Mo  Mo11  1  0.60193900  0.64490400  0.11325400  1
  Mo  Mo12  1  0.60019900  0.12512500  0.62930200  1
  Mo  Mo13  1  0.10019900  0.87487500  0.87069800  1
  Mo  Mo14  1  0.39980100  0.87487500  0.37069800  1
  Mo  Mo15  1  0.89980100  0.12512500  0.12930200  1
  P  P16  1  0.96072600  0.13458800  0.62351500  1
  P  P17  1  0.46072600  0.86541200  0.87648500  1
  P  P18  1  0.03927400  0.86541200  0.37648500  1
  P  P19  1  0.53927400  0.13458800  0.12351500  1
  P  P20  1  0.61480000  0.68977700  0.56193500  1
  P  P21  1  0.11480000  0.31022300  0.93806500  1
  P  P22  1  0.38520000  0.31022300  0.43806500  1
  P  P23  1  0.88520000  0.68977700  0.06193500  1
  O  O24  1  0.83461000  0.53895200  0.74255400  1
  O  O25  1  0.33461000  0.46104800  0.75744600  1
  O  O26  1  0.16539000  0.46104800  0.25744600  1
  O  O27  1  0.66539000  0.53895200  0.24255400  1
  O  O28  1  0.53722600  0.39525000  0.85742400  1
  O  O29  1  0.03722600  0.60475000  0.64257600  1
  O  O30  1  0.46277400  0.60475000  0.14257600  1
  O  O31  1  0.96277400  0.39525000  0.35742400  1
  O  O32  1  0.70267600  0.06446800  0.72811600  1
  O  O33  1  0.20267600  0.93553200  0.77188400  1
  O  O34  1  0.29732400  0.93553200  0.27188400  1
  O  O35  1  0.79732400  0.06446800  0.22811600  1
  O  O36  1  0.67236200  0.22456300  0.50526200  1
  O  O37  1  0.17236200  0.77543700  0.99473800  1
  O  O38  1  0.32763800  0.77543700  0.49473800  1
  O  O39  1  0.82763800  0.22456300  0.00526200  1
  O  O40  1  0.57048000  0.79073600  0.93784300  1
  O  O41  1  0.73788000  0.69398200  0.53350000  1
  O  O42  1  0.07048000  0.20926400  0.56215700  1
  O  O43  1  0.92952000  0.79073600  0.43784300  1
  O  O44  1  0.97820200  0.00981400  0.74664100  1
  O  O45  1  0.47820200  0.99018600  0.75335900  1
  O  O46  1  0.02179800  0.99018600  0.25335900  1
  O  O47  1  0.52179800  0.00981400  0.24664100  1
  O  O48  1  0.56998800  0.44105200  0.61831900  1
  O  O49  1  0.06998800  0.55894800  0.88168100  1
  O  O50  1  0.43001200  0.55894800  0.38168100  1
  O  O51  1  0.93001200  0.44105200  0.11831900  1
  O  O52  1  0.59631300  0.79832700  0.64326500  1
  O  O53  1  0.09631300  0.20167300  0.85673500  1
  O  O54  1  0.40368700  0.20167300  0.35673500  1
  O  O55  1  0.90368700  0.79832700  0.14326500  1
  O  O56  1  0.60541600  0.97561900  0.08456900  1
  O  O57  1  0.10541600  0.02438100  0.41543100  1
  O  O58  1  0.39458400  0.02438100  0.91543100  1
  O  O59  1  0.89458400  0.97561900  0.58456900  1
  O  O60  1  0.61457300  0.34813500  0.09591700  1
  O  O61  1  0.11457300  0.65186500  0.40408300  1
  O  O62  1  0.38542700  0.65186500  0.90408300  1
  O  O63  1  0.88542700  0.34813500  0.59591700  1
  O  O64  1  0.55423000  0.83019900  0.45471300  1
  O  O65  1  0.05423000  0.16980100  0.04528700  1
  O  O66  1  0.44577000  0.16980100  0.54528700  1
  O  O67  1  0.94577000  0.83019900  0.95471300  1
  O  O68  1  0.76212000  0.69398200  0.03350000  1
  O  O69  1  0.26212000  0.30601800  0.46650000  1
  O  O70  1  0.23788000  0.30601800  0.96650000  1
  O  O71  1  0.42952000  0.20926400  0.06215700  1
