# generated using pymatgen
data_Nd6Cd(GeS7)2
_symmetry_space_group_name_H-M   'P 1'
_cell_length_a   10.26560636
_cell_length_b   10.26560636
_cell_length_c   5.82102900
_cell_angle_alpha   90.00000000
_cell_angle_beta   90.00000000
_cell_angle_gamma   120.00000234
_symmetry_Int_Tables_number   1
_chemical_formula_structural   Nd6Cd(GeS7)2
_chemical_formula_sum   'Nd6 Cd1 Ge2 S14'
_cell_volume   531.25080190
_cell_formula_units_Z   1
loop_
 _symmetry_equiv_pos_site_id
 _symmetry_equiv_pos_as_xyz
  1  'x, y, z'
loop_
 _atom_site_type_symbol
 _atom_site_label
 _atom_site_symmetry_multiplicity
 _atom_site_fract_x
 _atom_site_fract_y
 _atom_site_fract_z
 _atom_site_occupancy
  Nd  Nd0  1  0.46132000  0.02422800  0.75388500  1
  Nd  Nd1  1  0.56290900  0.53868000  0.75388500  1
  Nd  Nd2  1  0.97577200  0.43709100  0.75388500  1
  Nd  Nd3  1  0.20495200  0.30872100  0.24960800  1
  Nd  Nd4  1  0.10377000  0.79504800  0.24960800  1
  Nd  Nd5  1  0.69127900  0.89623000  0.24960800  1
  Cd  Cd6  1  0.33333300  0.66666700  0.51515200  1
  Ge  Ge7  1  0.66666700  0.33333300  0.17105100  1
  Ge  Ge8  1  0.00000000  0.00000000  0.66468400  1
  S  S9  1  0.42778100  0.92490900  0.28178800  1
  S  S10  1  0.49712700  0.57221900  0.28178800  1
  S  S11  1  0.07509100  0.50287300  0.28178800  1
  S  S12  1  0.24157800  0.41010200  0.77033200  1
  S  S13  1  0.16852400  0.75842200  0.77033200  1
  S  S14  1  0.58989800  0.83147600  0.77033200  1
  S  S15  1  0.66666700  0.33333300  0.54711100  1
  S  S16  1  0.00000000  0.00000000  0.04274300  1
  S  S17  1  0.74779800  0.18594600  0.01369700  1
  S  S18  1  0.43814900  0.25220200  0.01369700  1
  S  S19  1  0.81405400  0.56185100  0.01369700  1
  S  S20  1  0.91861900  0.14741400  0.50947000  1
  S  S21  1  0.22879400  0.08138100  0.50947000  1
  S  S22  1  0.85258600  0.77120600  0.50947000  1
