# generated using pymatgen
data_Li2B3PO8
_symmetry_space_group_name_H-M   'P 1'
_cell_length_a   8.78569700
_cell_length_b   10.84229210
_cell_length_c   13.07686776
_cell_angle_alpha   90.71543568
_cell_angle_beta   90.58862452
_cell_angle_gamma   90.07424156
_symmetry_Int_Tables_number   1
_chemical_formula_structural   Li2B3PO8
_chemical_formula_sum   'Li16 B24 P8 O64'
_cell_volume   1245.50030803
_cell_formula_units_Z   8
loop_
 _symmetry_equiv_pos_site_id
 _symmetry_equiv_pos_as_xyz
  1  'x, y, z'
loop_
 _atom_site_type_symbol
 _atom_site_label
 _atom_site_symmetry_multiplicity
 _atom_site_fract_x
 _atom_site_fract_y
 _atom_site_fract_z
 _atom_site_occupancy
  Li  Li0  1  0.87998600  0.65475500  0.28562500  1
  Li  Li1  1  0.12001400  0.34524500  0.71437500  1
  Li  Li2  1  0.86492500  0.22765700  0.73647600  1
  Li  Li3  1  0.13507500  0.77234300  0.26352400  1
  Li  Li4  1  0.78215500  0.72232200  0.96117200  1
  Li  Li5  1  0.21784500  0.27767800  0.03882800  1
  Li  Li6  1  0.74470800  0.45610500  0.67097700  1
  Li  Li7  1  0.25529200  0.54389500  0.32902300  1
  Li  Li8  1  0.74016400  0.94037500  0.17267800  1
  Li  Li9  1  0.25983600  0.05962500  0.82732200  1
  Li  Li10  1  0.63665400  0.45794700  0.99050300  1
  Li  Li11  1  0.36334600  0.54205300  0.00949700  1
  Li  Li12  1  0.56437700  0.95823300  0.58554500  1
  Li  Li13  1  0.43562300  0.04176700  0.41445500  1
  Li  Li14  1  0.23720100  0.83022700  0.60388200  1
  Li  Li15  1  0.76279900  0.16977300  0.39611800  1
  B  B16  1  0.95160200  0.67323000  0.60630000  1
  B  B17  1  0.04839800  0.32677000  0.39370000  1
  B  B18  1  0.88100600  0.88966200  0.57403200  1
  B  B19  1  0.11899400  0.11033800  0.42596800  1
  B  B20  1  0.80966500  0.98848600  0.85497700  1
  B  B21  1  0.19033500  0.01151400  0.14502300  1
  B  B22  1  0.79952900  0.44524900  0.38646900  1
  B  B23  1  0.20047100  0.55475100  0.61353100  1
  B  B24  1  0.69867900  0.73950400  0.64793900  1
  B  B25  1  0.30132100  0.26049600  0.35206100  1
  B  B26  1  0.60641500  0.60501100  0.35248700  1
  B  B27  1  0.39358500  0.39498900  0.64751300  1
  B  B28  1  0.55351100  0.91384900  0.87875500  1
  B  B29  1  0.44648900  0.08615100  0.12124500  1
  B  B30  1  0.45607100  0.61791400  0.66020500  1
  B  B31  1  0.54392900  0.38208600  0.33979500  1
  B  B32  1  0.40939000  0.88496000  0.20749300  1
  B  B33  1  0.59061000  0.11504000  0.79250700  1
  B  B34  1  0.31002200  0.80365900  0.92301400  1
  B  B35  1  0.68997800  0.19634100  0.07698600  1
  B  B36  1  0.09254800  0.65934400  0.94307800  1
  B  B37  1  0.90745200  0.34065600  0.05692200  1
  B  B38  1  0.05304200  0.87977600  0.89912400  1
  B  B39  1  0.94695800  0.12022400  0.10087600  1
  P  P40  1  0.92199700  0.47073700  0.87257400  1
  P  P41  1  0.07800300  0.52926300  0.12742600  1
  P  P42  1  0.90156800  0.93422300  0.36334600  1
  P  P43  1  0.09843200  0.06577700  0.63665400  1
  P  P44  1  0.40864300  0.79209400  0.40686400  1
  P  P45  1  0.59135700  0.20790600  0.59313600  1
  P  P46  1  0.40817800  0.30781100  0.85656600  1
  P  P47  1  0.59182200  0.69218900  0.14343400  1
  O  O48  1  0.99652700  0.79012400  0.58644400  1
  O  O49  1  0.00347300  0.20987600  0.41355600  1
  O  O50  1  0.99648100  0.76495000  0.91058300  1
  O  O51  1  0.00351900  0.23505000  0.08941700  1
  O  O52  1  0.96418800  0.97970900  0.87395000  1
  O  O53  1  0.03581200  0.02029100  0.12605000  1
  O  O54  1  0.95740300  0.36590900  0.95204800  1
  O  O55  1  0.04259700  0.63409100  0.04795200  1
  O  O56  1  0.95149500  0.42489100  0.39966600  1
  O  O57  1  0.04850500  0.57510900  0.60033400  1
  O  O58  1  0.93755600  0.00737500  0.61160400  1
  O  O59  1  0.06244400  0.99262500  0.38839600  1
  O  O60  1  0.93239700  0.81990700  0.29889500  1
  O  O61  1  0.06760300  0.18009300  0.70110500  1
  O  O62  1  0.93096700  0.44459600  0.12870700  1
  O  O63  1  0.06903300  0.55540400  0.87129300  1
  O  O64  1  0.91504000  0.40677300  0.76745000  1
  O  O65  1  0.08496000  0.59322700  0.23255000  1
  O  O66  1  0.82702800  0.89778800  0.46780000  1
  O  O67  1  0.17297200  0.10221200  0.53220000  1
  O  O68  1  0.80225100  0.64328000  0.63508700  1
  O  O69  1  0.19774900  0.35672000  0.36491300  1
  O  O70  1  0.78202200  0.54467500  0.90253900  1
  O  O71  1  0.21797800  0.45532500  0.09746100  1
  O  O72  1  0.75483800  0.09209800  0.81018500  1
  O  O73  1  0.24516200  0.90790200  0.18981500  1
  O  O74  1  0.75143100  0.56328300  0.39808700  1
  O  O75  1  0.24856900  0.43671700  0.60191300  1
  O  O76  1  0.74027500  0.85867900  0.63287000  1
  O  O77  1  0.25972500  0.14132100  0.36713000  1
  O  O78  1  0.73353100  0.28158700  0.61991900  1
  O  O79  1  0.26646900  0.71841300  0.38008100  1
  O  O80  1  0.71183900  0.77712700  0.09960200  1
  O  O81  1  0.28816100  0.22287300  0.90039800  1
  O  O82  1  0.71097800  0.89441700  0.88521200  1
  O  O83  1  0.28902200  0.10558300  0.11478800  1
  O  O84  1  0.65600900  0.65215100  0.25221400  1
  O  O85  1  0.34399100  0.34784900  0.74778600  1
  O  O86  1  0.56278600  0.23769500  0.83497500  1
  O  O87  1  0.43721400  0.76230500  0.16502500  1
  O  O88  1  0.55080900  0.71738100  0.67654400  1
  O  O89  1  0.44919100  0.28261900  0.32345600  1
  O  O90  1  0.54756500  0.70207800  0.41966000  1
  O  O91  1  0.45243500  0.29792200  0.58034000  1
  O  O92  1  0.50502300  0.49873700  0.65953100  1
  O  O93  1  0.49497700  0.50126300  0.34046900  1
  O  O94  1  0.50496200  0.98112300  0.16152100  1
  O  O95  1  0.49503800  0.01887700  0.83847900  1
  O  O96  1  0.46469000  0.82044600  0.91552600  1
  O  O97  1  0.53531000  0.17955400  0.08447400  1
  O  O98  1  0.44596400  0.88976900  0.31993300  1
  O  O99  1  0.55403600  0.11023100  0.68006700  1
  O  O100  1  0.44804800  0.41966400  0.92107600  1
  O  O101  1  0.55195200  0.58033700  0.07892400  1
  O  O102  1  0.40255800  0.87371000  0.50335000  1
  O  O103  1  0.59744200  0.12629000  0.49665000  1
  O  O104  1  0.30215100  0.64899900  0.64240300  1
  O  O105  1  0.69784900  0.35100100  0.35759700  1
  O  O106  1  0.25651600  0.68884500  0.94176600  1
  O  O107  1  0.74348400  0.31115500  0.05823400  1
  O  O108  1  0.20973200  0.90334700  0.91014800  1
  O  O109  1  0.79026800  0.09665300  0.08985200  1
  O  O110  1  0.20446700  0.97504700  0.68997000  1
  O  O111  1  0.79553300  0.02495300  0.31003000  1
