# generated using pymatgen
data_VNiH14(O2F)4
_symmetry_space_group_name_H-M   'P 1'
_cell_length_a   6.50839600
_cell_length_b   11.17037056
_cell_length_c   14.08695927
_cell_angle_alpha   89.26369546
_cell_angle_beta   89.04079008
_cell_angle_gamma   79.15341163
_symmetry_Int_Tables_number   1
_chemical_formula_structural   VNiH14(O2F)4
_chemical_formula_sum   'V4 Ni4 H56 O32 F16'
_cell_volume   1005.65206538
_cell_formula_units_Z   4
loop_
 _symmetry_equiv_pos_site_id
 _symmetry_equiv_pos_as_xyz
  1  'x, y, z'
loop_
 _atom_site_type_symbol
 _atom_site_label
 _atom_site_symmetry_multiplicity
 _atom_site_fract_x
 _atom_site_fract_y
 _atom_site_fract_z
 _atom_site_occupancy
  V  V0  1  0.49377600  0.23695300  0.26581400  1
  V  V1  1  0.50622400  0.76304700  0.73418600  1
  V  V2  1  0.48681500  0.73382300  0.24141300  1
  V  V3  1  0.51318500  0.26617700  0.75858700  1
  Ni  Ni4  1  0.00000000  0.00000000  0.00000000  1
  Ni  Ni5  1  0.00000000  0.50000000  0.00000000  1
  Ni  Ni6  1  0.00000000  0.50000000  0.50000000  1
  Ni  Ni7  1  0.00000000  0.00000000  0.50000000  1
  H  H8  1  0.60381400  0.09685000  0.06416100  1
  H  H9  1  0.39618600  0.90315000  0.93583900  1
  H  H10  1  0.60023200  0.11064400  0.95215700  1
  H  H11  1  0.39976800  0.88935600  0.04784300  1
  H  H12  1  0.04421100  0.84521300  0.85310400  1
  H  H13  1  0.95578900  0.15478700  0.14689600  1
  H  H14  1  0.80547200  0.86077500  0.88606000  1
  H  H15  1  0.19452800  0.13922500  0.11394000  1
  H  H16  1  0.82114900  0.86614700  0.12959400  1
  H  H17  1  0.17885100  0.13385300  0.87040600  1
  H  H18  1  0.05268300  0.87525300  0.16502900  1
  H  H19  1  0.94731700  0.12474700  0.83497100  1
  H  H20  1  0.66982600  0.68751300  0.04239300  1
  H  H21  1  0.33017400  0.31248700  0.95760700  1
  H  H22  1  0.61616100  0.62436900  0.94588900  1
  H  H23  1  0.38383900  0.37563100  0.05411100  1
  H  H24  1  0.77288900  0.35975700  0.91142300  1
  H  H25  1  0.22711100  0.64024300  0.08857700  1
  H  H26  1  0.92707200  0.27655000  0.98186000  1
  H  H27  1  0.07292800  0.72345000  0.01814000  1
  H  H28  1  0.05411900  0.41169900  0.18026100  1
  H  H29  1  0.94588100  0.58830100  0.81973900  1
  H  H30  1  0.88590000  0.53499900  0.18405200  1
  H  H31  1  0.11410000  0.46500100  0.81594800  1
  H  H32  1  0.80388900  0.37073500  0.38167200  1
  H  H33  1  0.19611100  0.62926500  0.61832800  1
  H  H34  1  0.04331900  0.35499700  0.34762700  1
  H  H35  1  0.95668100  0.64500300  0.65237300  1
  H  H36  1  0.60285000  0.61103400  0.45076600  1
  H  H37  1  0.39715000  0.38896600  0.54923400  1
  H  H38  1  0.59814800  0.59140800  0.56260800  1
  H  H39  1  0.40185200  0.40859200  0.43739200  1
  H  H40  1  0.81968100  0.35973500  0.62216700  1
  H  H41  1  0.18031900  0.64026500  0.37783300  1
  H  H42  1  0.05021700  0.36495200  0.66035700  1
  H  H43  1  0.94978300  0.63504800  0.33964300  1
  H  H44  1  0.89739100  0.03581600  0.68533900  1
  H  H45  1  0.10260900  0.96418400  0.31466100  1
  H  H46  1  0.07456600  0.91466100  0.68371100  1
  H  H47  1  0.92543400  0.08533900  0.31628900  1
  H  H48  1  0.73831700  0.86175700  0.54479000  1
  H  H49  1  0.26168300  0.13824300  0.45521000  1
  H  H50  1  0.91714900  0.77474400  0.48854000  1
  H  H51  1  0.08285100  0.22525600  0.51146000  1
  H  H52  1  0.62501700  0.12787800  0.45031100  1
  H  H53  1  0.37498300  0.87212200  0.54968900  1
  H  H54  1  0.66765000  0.18282500  0.55153100  1
  H  H55  1  0.33235000  0.81717500  0.44846900  1
  H  H56  1  0.54834200  0.96416800  0.30675600  1
  H  H57  1  0.45165800  0.03583200  0.69324400  1
  H  H58  1  0.70202200  0.86882300  0.36665600  1
  H  H59  1  0.29797800  0.13117700  0.63334400  1
  H  H60  1  0.68014300  0.39059400  0.13397200  1
  H  H61  1  0.31985700  0.60940600  0.86602800  1
  H  H62  1  0.47759800  0.47057900  0.17769400  1
  H  H63  1  0.52240200  0.52942100  0.82230600  1
  O  O64  1  0.68460300  0.07106100  0.00528100  1
  O  O65  1  0.31539700  0.92893900  0.99471900  1
  O  O66  1  0.94815500  0.86284400  0.90861600  1
  O  O67  1  0.05184500  0.13715600  0.09138400  1
  O  O68  1  0.96005500  0.88042000  0.10936800  1
  O  O69  1  0.03994500  0.11958000  0.89063200  1
  O  O70  1  0.71860400  0.62060800  0.99776700  1
  O  O71  1  0.28139600  0.37939200  0.00223300  1
  O  O72  1  0.84307400  0.35876500  0.97345000  1
  O  O73  1  0.15692600  0.64123500  0.02655000  1
  O  O74  1  0.94289300  0.46431600  0.14309300  1
  O  O75  1  0.05710700  0.53568400  0.85690700  1
  O  O76  1  0.94797900  0.37081300  0.40360800  1
  O  O77  1  0.05202100  0.62918700  0.59639200  1
  O  O78  1  0.68543000  0.57133900  0.50431200  1
  O  O79  1  0.31457000  0.42866100  0.49568800  1
  O  O80  1  0.96202900  0.36922800  0.60306500  1
  O  O81  1  0.03797100  0.63077200  0.39693500  1
  O  O82  1  0.98998400  0.97805600  0.64375600  1
  O  O83  1  0.01001600  0.02194400  0.35624400  1
  O  O84  1  0.82781400  0.85648600  0.48691400  1
  O  O85  1  0.17218600  0.14351400  0.51308600  1
  O  O86  1  0.71237000  0.11422400  0.50773500  1
  O  O87  1  0.28763000  0.88577600  0.49226500  1
  O  O88  1  0.63050200  0.88064900  0.30480300  1
  O  O89  1  0.36949800  0.11935100  0.69519700  1
  O  O90  1  0.53538500  0.38680300  0.15409000  1
  O  O91  1  0.46461500  0.61319700  0.84591000  1
  O  O92  1  0.37772700  0.62512400  0.19366600  1
  O  O93  1  0.62227300  0.37487600  0.80633400  1
  O  O94  1  0.46206800  0.13565100  0.35123200  1
  O  O95  1  0.53793200  0.86434900  0.64876800  1
  F  F96  1  0.43900600  0.15072700  0.15330200  1
  F  F97  1  0.56099400  0.84927300  0.84669800  1
  F  F98  1  0.79221000  0.18518800  0.23982900  1
  F  F99  1  0.20779000  0.81481200  0.76017100  1
  F  F100  1  0.56127600  0.36186500  0.34942800  1
  F  F101  1  0.43872400  0.63813500  0.65057200  1
  F  F102  1  0.21045900  0.33154300  0.25807600  1
  F  F103  1  0.78954100  0.66845700  0.74192400  1
  F  F104  1  0.77307200  0.64319900  0.25720300  1
  F  F105  1  0.22692800  0.35680100  0.74279700  1
  F  F106  1  0.42258700  0.69848300  0.37537900  1
  F  F107  1  0.57741300  0.30151700  0.62462100  1
  F  F108  1  0.24286900  0.86632700  0.24151900  1
  F  F109  1  0.75713100  0.13367300  0.75848100  1
  F  F110  1  0.58175100  0.80217200  0.12291900  1
  F  F111  1  0.41824900  0.19782800  0.87708100  1
