# generated using pymatgen
data_LaAg(MoO4)2
_symmetry_space_group_name_H-M   'P 1'
_cell_length_a   6.99186493
_cell_length_b   6.99186493
_cell_length_c   6.99186493
_cell_angle_alpha   134.11836208
_cell_angle_beta   134.11836208
_cell_angle_gamma   66.90319584
_symmetry_Int_Tables_number   1
_chemical_formula_structural   LaAg(MoO4)2
_chemical_formula_sum   'La1 Ag1 Mo2 O8'
_cell_volume   173.31161414
_cell_formula_units_Z   1
loop_
 _symmetry_equiv_pos_site_id
 _symmetry_equiv_pos_as_xyz
  1  'x, y, z'
loop_
 _atom_site_type_symbol
 _atom_site_label
 _atom_site_symmetry_multiplicity
 _atom_site_fract_x
 _atom_site_fract_y
 _atom_site_fract_z
 _atom_site_occupancy
  La  La0  1  0.50000000  0.50000000  0.00000000  1
  Ag  Ag1  1  0.75000000  0.25000000  0.50000000  1
  Mo  Mo2  1  0.25000000  0.75000000  0.50000000  1
  Mo  Mo3  1  0.00000000  0.00000000  0.00000000  1
  O  O4  1  0.39576200  0.52076600  0.59295600  1
  O  O5  1  0.92781100  0.80280600  0.40704400  1
  O  O6  1  0.06962400  0.15574200  0.38967300  1
  O  O7  1  0.76606900  0.67995200  0.61032700  1
  O  O8  1  0.84425800  0.23393100  0.91388300  1
  O  O9  1  0.32004800  0.93037600  0.08611700  1
  O  O10  1  0.19719400  0.60423800  0.12500400  1
  O  O11  1  0.47923400  0.07218900  0.87499600  1
