# generated using pymatgen
data_Ba3HfTa4O15
_symmetry_space_group_name_H-M   'P 1'
_cell_length_a   4.02685129
_cell_length_b   12.83205410
_cell_length_c   12.82928100
_cell_angle_alpha   90.00000000
_cell_angle_beta   90.00000000
_cell_angle_gamma   89.87856715
_symmetry_Int_Tables_number   1
_chemical_formula_structural   Ba3HfTa4O15
_chemical_formula_sum   'Ba6 Hf2 Ta8 O30'
_cell_volume   662.92304445
_cell_formula_units_Z   2
loop_
 _symmetry_equiv_pos_site_id
 _symmetry_equiv_pos_as_xyz
  1  'x, y, z'
loop_
 _atom_site_type_symbol
 _atom_site_label
 _atom_site_symmetry_multiplicity
 _atom_site_fract_x
 _atom_site_fract_y
 _atom_site_fract_z
 _atom_site_occupancy
  Ba  Ba0  1  0.62257700  0.82780500  0.32564100  1
  Ba  Ba1  1  0.62125800  0.16901700  0.67278100  1
  Ba  Ba2  1  0.62125800  0.66901700  0.82721900  1
  Ba  Ba3  1  0.62257700  0.32780500  0.17435900  1
  Ba  Ba4  1  0.61703300  0.49649500  0.49895600  1
  Ba  Ba5  1  0.61703300  0.99649500  0.00104400  1
  Hf  Hf6  1  0.12129600  0.28226000  0.42072300  1
  Hf  Hf7  1  0.12129600  0.78226000  0.07927700  1
  Ta  Ta8  1  0.11127500  0.71139000  0.57456900  1
  Ta  Ta9  1  0.11127500  0.21139000  0.92543100  1
  Ta  Ta10  1  0.11236700  0.42152700  0.71135000  1
  Ta  Ta11  1  0.11126000  0.57449200  0.28676100  1
  Ta  Ta12  1  0.11236700  0.92152700  0.78865000  1
  Ta  Ta13  1  0.11126000  0.07449200  0.21323900  1
  Ta  Ta14  1  0.14369000  0.00037600  0.50217500  1
  Ta  Ta15  1  0.14369000  0.50037600  0.99782500  1
  O  O16  1  0.11659200  0.49961000  0.15490000  1
  O  O17  1  0.11933300  0.50216400  0.84449500  1
  O  O18  1  0.11933300  0.00216400  0.65550500  1
  O  O19  1  0.11659200  0.99961000  0.34510000  1
  O  O20  1  0.11456200  0.15257700  0.51316000  1
  O  O21  1  0.11608200  0.84338800  0.49760900  1
  O  O22  1  0.11456200  0.65257700  0.98684000  1
  O  O23  1  0.11608200  0.34338800  0.00239100  1
  O  O24  1  0.61869200  0.99710200  0.49825300  1
  O  O25  1  0.61869200  0.49710200  0.00174700  1
  O  O26  1  0.62152600  0.30092900  0.41224000  1
  O  O27  1  0.62080100  0.70372400  0.58267800  1
  O  O28  1  0.62080100  0.20372400  0.91732200  1
  O  O29  1  0.62152600  0.80092900  0.08776000  1
  O  O30  1  0.62168400  0.42107000  0.70777400  1
  O  O31  1  0.61972500  0.58271500  0.29635300  1
  O  O32  1  0.62168400  0.92107000  0.79222600  1
  O  O33  1  0.61972500  0.08271500  0.20364700  1
  O  O34  1  0.12170900  0.44033700  0.35898600  1
  O  O35  1  0.12288900  0.56808300  0.64542600  1
  O  O36  1  0.12288900  0.06808300  0.85457400  1
  O  O37  1  0.12170900  0.94033700  0.14101400  1
  O  O38  1  0.12417200  0.36013600  0.57182500  1
  O  O39  1  0.12147300  0.64227700  0.43715600  1
  O  O40  1  0.12417200  0.86013600  0.92817500  1
  O  O41  1  0.12147300  0.14227700  0.06284400  1
  O  O42  1  0.12176600  0.71994500  0.22861100  1
  O  O43  1  0.12323700  0.28258100  0.78254800  1
  O  O44  1  0.12323700  0.78258100  0.71745200  1
  O  O45  1  0.12176600  0.21994500  0.27138900  1
