# generated using pymatgen
data_AlH12(NO5)3
_symmetry_space_group_name_H-M   'P 1'
_cell_length_a   8.49702016
_cell_length_b   8.49702016
_cell_length_c   8.60607842
_cell_angle_alpha   86.45501845
_cell_angle_beta   86.45501845
_cell_angle_gamma   91.92707045
_symmetry_Int_Tables_number   1
_chemical_formula_structural   AlH12(NO5)3
_chemical_formula_sum   'Al2 H24 N6 O30'
_cell_volume   618.54015062
_cell_formula_units_Z   2
loop_
 _symmetry_equiv_pos_site_id
 _symmetry_equiv_pos_as_xyz
  1  'x, y, z'
loop_
 _atom_site_type_symbol
 _atom_site_label
 _atom_site_symmetry_multiplicity
 _atom_site_fract_x
 _atom_site_fract_y
 _atom_site_fract_z
 _atom_site_occupancy
  Al  Al0  1  0.00000000  0.50000000  0.00000000  1
  Al  Al1  1  0.50000000  0.00000000  0.50000000  1
  H  H2  1  0.13429800  0.48316800  0.26437600  1
  H  H3  1  0.51683200  0.86570200  0.23562400  1
  H  H4  1  0.86570200  0.51683200  0.73562400  1
  H  H5  1  0.48316800  0.13429800  0.76437600  1
  H  H6  1  0.06813000  0.65964000  0.23814200  1
  H  H7  1  0.34036000  0.93187000  0.26185800  1
  H  H8  1  0.93187000  0.34036000  0.76185800  1
  H  H9  1  0.65964000  0.06813000  0.73814200  1
  H  H10  1  0.17341800  0.25874900  0.00492900  1
  H  H11  1  0.74125100  0.82658200  0.49507100  1
  H  H12  1  0.82658200  0.74125100  0.99507100  1
  H  H13  1  0.25874900  0.17341800  0.50492900  1
  H  H14  1  0.01433800  0.21213100  0.11580900  1
  H  H15  1  0.78786900  0.98566200  0.38419100  1
  H  H16  1  0.98566200  0.78786900  0.88419100  1
  H  H17  1  0.21213100  0.01433800  0.61580900  1
  H  H18  1  0.72155700  0.36929400  0.05741400  1
  H  H19  1  0.63070600  0.27844300  0.44258600  1
  H  H20  1  0.27844300  0.63070600  0.94258600  1
  H  H21  1  0.36929400  0.72155700  0.55741400  1
  H  H22  1  0.75701200  0.48616400  0.19954500  1
  H  H23  1  0.51383600  0.24298800  0.30045500  1
  H  H24  1  0.24298800  0.51383600  0.80045500  1
  H  H25  1  0.48616400  0.75701200  0.69954500  1
  N  N26  1  0.26008700  0.46565400  0.51534000  1
  N  N27  1  0.53434600  0.73991300  0.98466000  1
  N  N28  1  0.73991300  0.53434600  0.48466000  1
  N  N29  1  0.46565400  0.26008700  0.01534000  1
  N  N30  1  0.04104200  0.95895800  0.25000000  1
  N  N31  1  0.95895800  0.04104200  0.75000000  1
  O  O32  1  0.07705900  0.55405700  0.19322500  1
  O  O33  1  0.44594300  0.92294100  0.30677500  1
  O  O34  1  0.92294100  0.44594300  0.80677500  1
  O  O35  1  0.55405700  0.07705900  0.69322500  1
  O  O36  1  0.06309800  0.28911900  0.03237600  1
  O  O37  1  0.71088100  0.93690200  0.46762400  1
  O  O38  1  0.93690200  0.71088100  0.96762400  1
  O  O39  1  0.28911900  0.06309800  0.53237600  1
  O  O40  1  0.80142900  0.44207800  0.10192900  1
  O  O41  1  0.55792200  0.19857100  0.39807100  1
  O  O42  1  0.19857100  0.55792200  0.89807100  1
  O  O43  1  0.44207800  0.80142900  0.60192900  1
  O  O44  1  0.21846300  0.36436500  0.42137500  1
  O  O45  1  0.63563500  0.78153700  0.07862500  1
  O  O46  1  0.78153700  0.63563500  0.57862500  1
  O  O47  1  0.36436500  0.21846300  0.92137500  1
  O  O48  1  0.42038900  0.31351400  0.14399800  1
  O  O49  1  0.68648600  0.57961100  0.35600200  1
  O  O50  1  0.57961100  0.68648600  0.85600200  1
  O  O51  1  0.31351400  0.42038900  0.64399800  1
  O  O52  1  0.24708500  0.61090800  0.47738300  1
  O  O53  1  0.38909200  0.75291500  0.02261700  1
  O  O54  1  0.75291500  0.38909200  0.52261700  1
  O  O55  1  0.61090800  0.24708500  0.97738300  1
  O  O56  1  0.93551600  0.06448400  0.25000000  1
  O  O57  1  0.06448400  0.93551600  0.75000000  1
  O  O58  1  0.00648600  0.82535700  0.31699100  1
  O  O59  1  0.17464300  0.99351400  0.18300900  1
  O  O60  1  0.99351400  0.17464300  0.68300900  1
  O  O61  1  0.82535700  0.00648600  0.81699100  1
