# generated using pymatgen
data_Mg149Ti
_symmetry_space_group_name_H-M   'P 1'
_cell_length_a   15.90448776
_cell_length_b   15.90449586
_cell_length_c   15.58381769
_cell_angle_alpha   90.00000000
_cell_angle_beta   90.00000000
_cell_angle_gamma   120.00037663
_symmetry_Int_Tables_number   1
_chemical_formula_structural   Mg149Ti
_chemical_formula_sum   'Mg149 Ti1'
_cell_volume   3413.83428734
_cell_formula_units_Z   1
loop_
 _symmetry_equiv_pos_site_id
 _symmetry_equiv_pos_as_xyz
  1  'x, y, z'
loop_
 _atom_site_type_symbol
 _atom_site_label
 _atom_site_symmetry_multiplicity
 _atom_site_fract_x
 _atom_site_fract_y
 _atom_site_fract_z
 _atom_site_occupancy
  Mg  Mg0  1  0.60168048  0.00020148  0.00000000  1
  Mg  Mg1  1  0.39852221  0.00019769  0.00000000  1
  Mg  Mg2  1  0.00040636  0.19641983  0.00000000  1
  Mg  Mg3  1  0.19601018  0.19641745  0.00000000  1
  Mg  Mg4  1  0.59977792  0.19955914  0.00000000  1
  Mg  Mg5  1  0.40009012  0.20004388  0.00000000  1
  Mg  Mg6  1  0.79995576  0.20004224  0.00000000  1
  Mg  Mg7  1  0.99980024  0.39832030  0.00000000  1
  Mg  Mg8  1  0.39852003  0.39831999  0.00000000  1
  Mg  Mg9  1  0.19988151  0.39976313  0.00000000  1
  Mg  Mg10  1  0.80044143  0.40022159  0.00000000  1
  Mg  Mg11  1  0.59978058  0.40022202  0.00000000  1
  Mg  Mg12  1  0.19988162  0.59994172  0.00000000  1
  Mg  Mg13  1  0.40005973  0.59994077  0.00000000  1
  Mg  Mg14  1  0.79995643  0.59991073  0.00000000  1
  Mg  Mg15  1  0.60167768  0.60147615  0.00000000  1
  Mg  Mg16  1  0.99979959  0.60147842  0.00000000  1
  Mg  Mg17  1  0.40005906  0.80012062  0.00000000  1
  Mg  Mg18  1  0.60023543  0.80011664  0.00000000  1
  Mg  Mg19  1  0.19988131  0.80011722  0.00000000  1
  Mg  Mg20  1  0.00040783  0.80398599  0.00000000  1
  Mg  Mg21  1  0.80358235  0.80398814  0.00000000  1
  Mg  Mg22  1  0.19600909  0.99958738  0.00000000  1
  Mg  Mg23  1  0.80357722  0.99959104  0.00000000  1
  Mg  Mg24  1  0.06537437  0.13074783  0.16294452  1
  Mg  Mg25  1  0.06537365  0.93462425  0.16294442  1
  Mg  Mg26  1  0.86925062  0.93462347  0.16294309  1
  Mg  Mg27  1  0.26647705  0.13323726  0.16590522  1
  Mg  Mg28  1  0.86676105  0.13324001  0.16590300  1
  Mg  Mg29  1  0.86676128  0.73352121  0.16590511  1
  Mg  Mg30  1  0.06665005  0.53332358  0.16648570  1
  Mg  Mg31  1  0.46667703  0.53332551  0.16648854  1
  Mg  Mg32  1  0.46667441  0.93334936  0.16648799  1
  Mg  Mg33  1  0.66666705  0.33333368  0.16631207  1
  Mg  Mg34  1  0.26621612  0.33330315  0.16654716  1
  Mg  Mg35  1  0.06708372  0.33330329  0.16654540  1
  Mg  Mg36  1  0.06708445  0.73378087  0.16654483  1
  Mg  Mg37  1  0.66669536  0.73377937  0.16654458  1
  Mg  Mg38  1  0.66669664  0.93291636  0.16654345  1
  Mg  Mg39  1  0.26622084  0.93291743  0.16654409  1
  Mg  Mg40  1  0.66697495  0.13326839  0.16665753  1
  Mg  Mg41  1  0.46629210  0.13326980  0.16665730  1
  Mg  Mg42  1  0.46629348  0.33302476  0.16665843  1
  Mg  Mg43  1  0.86673124  0.33302377  0.16665687  1
  Mg  Mg44  1  0.66697454  0.53370627  0.16666013  1
  Mg  Mg45  1  0.86673392  0.53370857  0.16665754  1
  Mg  Mg46  1  0.26672693  0.53345116  0.16674288  1
  Mg  Mg47  1  0.46655145  0.73327477  0.16674108  1
  Mg  Mg48  1  0.26672673  0.73327496  0.16674119  1
  Mg  Mg49  1  0.19937261  0.19963783  0.33201423  1
  Mg  Mg50  1  0.00026460  0.19963627  0.33201458  1
  Mg  Mg51  1  0.80036574  0.80062830  0.33201294  1
  Mg  Mg52  1  0.00026038  0.80062701  0.33201408  1
  Mg  Mg53  1  0.80036619  0.99973711  0.33201208  1
  Mg  Mg54  1  0.19936957  0.99973557  0.33201288  1
  Mg  Mg55  1  0.60018410  0.99998560  0.33310820  1
  Mg  Mg56  1  0.39979932  0.99998342  0.33310582  1
  Mg  Mg57  1  0.00001535  0.39981556  0.33310736  1
  Mg  Mg58  1  0.39979839  0.39981498  0.33310755  1
  Mg  Mg59  1  0.60018518  0.60020169  0.33310540  1
  Mg  Mg60  1  0.00001602  0.60020181  0.33310582  1
  Mg  Mg61  1  0.59991647  0.19983199  0.33313511  1
  Mg  Mg62  1  0.59991773  0.40008374  0.33313594  1
  Mg  Mg63  1  0.80016848  0.40008570  0.33313435  1
  Mg  Mg64  1  -0.00000038  -0.00000139  0.33341419  1
  Mg  Mg65  1  0.39986138  0.19993104  0.33338628  1
  Mg  Mg66  1  0.80006888  0.19992903  0.33338350  1
  Mg  Mg67  1  0.80006721  0.60013935  0.33338238  1
  Mg  Mg68  1  0.20012723  0.40025527  0.33360198  1
  Mg  Mg69  1  0.59974661  0.79987387  0.33360247  1
  Mg  Mg70  1  0.20012692  0.79987266  0.33360138  1
  Mg  Mg71  1  0.19989678  0.59994794  0.33347942  1
  Mg  Mg72  1  0.40005008  0.59995079  0.33348086  1
  Mg  Mg73  1  0.40005134  0.80010270  0.33347872  1
  Mg  Mg74  1  0.86687130  0.13312811  0.50000000  1
  Mg  Mg75  1  0.26625645  0.13312745  0.50000000  1
  Mg  Mg76  1  0.06661349  0.13322415  0.50000000  1
  Mg  Mg77  1  0.66707464  0.13386867  0.50000000  1
  Mg  Mg78  1  0.46679748  0.13387119  0.50000000  1
  Mg  Mg79  1  0.06640553  0.33283342  0.50000000  1
  Mg  Mg80  1  0.26642864  0.33283303  0.50000000  1
  Mg  Mg81  1  0.86613177  0.33292650  0.50000000  1
  Mg  Mg82  1  0.46679681  0.33292812  0.50000000  1
  Mg  Mg83  1  0.66666658  0.33333221  0.50000000  1
  Mg  Mg84  1  0.46706388  0.53293752  0.50000000  1
  Mg  Mg85  1  0.06587386  0.53293508  0.50000000  1
  Mg  Mg86  1  0.26647289  0.53294161  0.50000000  1
  Mg  Mg87  1  0.66707429  0.53320458  0.50000000  1
  Mg  Mg88  1  0.86613434  0.53320648  0.50000000  1
  Mg  Mg89  1  0.46705686  0.73352930  0.50000000  1
  Mg  Mg90  1  0.26646876  0.73352739  0.50000000  1
  Mg  Mg91  1  0.06640515  0.73357107  0.50000000  1
  Mg  Mg92  1  0.66716829  0.73357335  0.50000000  1
  Mg  Mg93  1  0.86687364  0.73374470  0.50000000  1
  Mg  Mg94  1  0.86677969  0.93339019  0.50000000  1
  Mg  Mg95  1  0.06661562  0.93338682  0.50000000  1
  Mg  Mg96  1  0.66716717  0.93359515  0.50000000  1
  Mg  Mg97  1  0.26642945  0.93359780  0.50000000  1
  Mg  Mg98  1  0.46706517  0.93412709  0.50000000  1
  Mg  Mg99  1  0.19989678  0.59994794  0.66652058  1
  Mg  Mg100  1  0.40005008  0.59995079  0.66651914  1
  Mg  Mg101  1  0.40005134  0.80010270  0.66652128  1
  Mg  Mg102  1  0.20012723  0.40025527  0.66639802  1
  Mg  Mg103  1  0.59974661  0.79987387  0.66639753  1
  Mg  Mg104  1  0.20012692  0.79987266  0.66639862  1
  Mg  Mg105  1  0.39986138  0.19993104  0.66661372  1
  Mg  Mg106  1  0.80006888  0.19992903  0.66661650  1
  Mg  Mg107  1  0.80006721  0.60013935  0.66661762  1
  Mg  Mg108  1  -0.00000038  -0.00000139  0.66658581  1
  Mg  Mg109  1  0.59991647  0.19983199  0.66686489  1
  Mg  Mg110  1  0.59991773  0.40008374  0.66686406  1
  Mg  Mg111  1  0.80016848  0.40008570  0.66686565  1
  Mg  Mg112  1  0.60018410  0.99998560  0.66689180  1
  Mg  Mg113  1  0.39979932  0.99998342  0.66689418  1
  Mg  Mg114  1  0.00001535  0.39981556  0.66689264  1
  Mg  Mg115  1  0.39979839  0.39981498  0.66689245  1
  Mg  Mg116  1  0.60018518  0.60020169  0.66689460  1
  Mg  Mg117  1  0.00001602  0.60020181  0.66689418  1
  Mg  Mg118  1  0.19937261  0.19963783  0.66798577  1
  Mg  Mg119  1  0.00026460  0.19963627  0.66798542  1
  Mg  Mg120  1  0.80036574  0.80062830  0.66798706  1
  Mg  Mg121  1  0.00026038  0.80062701  0.66798592  1
  Mg  Mg122  1  0.80036619  0.99973711  0.66798792  1
  Mg  Mg123  1  0.19936957  0.99973557  0.66798712  1
  Mg  Mg124  1  0.26672693  0.53345116  0.83325712  1
  Mg  Mg125  1  0.46655145  0.73327477  0.83325892  1
  Mg  Mg126  1  0.26672673  0.73327496  0.83325881  1
  Mg  Mg127  1  0.66697495  0.13326839  0.83334247  1
  Mg  Mg128  1  0.46629210  0.13326980  0.83334270  1
  Mg  Mg129  1  0.46629348  0.33302476  0.83334157  1
  Mg  Mg130  1  0.86673124  0.33302377  0.83334313  1
  Mg  Mg131  1  0.66697454  0.53370627  0.83333987  1
  Mg  Mg132  1  0.86673392  0.53370857  0.83334246  1
  Mg  Mg133  1  0.26621612  0.33330315  0.83345284  1
  Mg  Mg134  1  0.06708372  0.33330329  0.83345460  1
  Mg  Mg135  1  0.06708445  0.73378087  0.83345517  1
  Mg  Mg136  1  0.66669536  0.73377937  0.83345542  1
  Mg  Mg137  1  0.66669664  0.93291636  0.83345655  1
  Mg  Mg138  1  0.26622084  0.93291743  0.83345591  1
  Mg  Mg139  1  0.66666705  0.33333368  0.83368793  1
  Mg  Mg140  1  0.06665005  0.53332358  0.83351430  1
  Mg  Mg141  1  0.46667703  0.53332551  0.83351146  1
  Mg  Mg142  1  0.46667441  0.93334936  0.83351201  1
  Mg  Mg143  1  0.26647705  0.13323726  0.83409478  1
  Mg  Mg144  1  0.86676105  0.13324001  0.83409700  1
  Mg  Mg145  1  0.86676128  0.73352121  0.83409489  1
  Mg  Mg146  1  0.06537437  0.13074783  0.83705548  1
  Mg  Mg147  1  0.06537365  0.93462425  0.83705558  1
  Mg  Mg148  1  0.86925062  0.93462347  0.83705691  1
  Ti  Ti149  1  0.00000065  0.00000163  0.00000000  1
