# generated using pymatgen
data_Ba6Tm2Al4O15
_symmetry_space_group_name_H-M   'P 1'
_cell_length_a   5.92925100
_cell_length_b   7.91434900
_cell_length_c   18.43934658
_cell_angle_alpha   88.44465196
_cell_angle_beta   90.00000000
_cell_angle_gamma   90.00000000
_symmetry_Int_Tables_number   1
_chemical_formula_structural   Ba6Tm2Al4O15
_chemical_formula_sum   'Ba12 Tm4 Al8 O30'
_cell_volume   864.96896304
_cell_formula_units_Z   2
loop_
 _symmetry_equiv_pos_site_id
 _symmetry_equiv_pos_as_xyz
  1  'x, y, z'
loop_
 _atom_site_type_symbol
 _atom_site_label
 _atom_site_symmetry_multiplicity
 _atom_site_fract_x
 _atom_site_fract_y
 _atom_site_fract_z
 _atom_site_occupancy
  Ba  Ba0  1  0.75686000  0.50135600  0.08086200  1
  Ba  Ba1  1  0.24314000  0.49864400  0.91913800  1
  Ba  Ba2  1  0.75686000  0.49864400  0.41913800  1
  Ba  Ba3  1  0.24314000  0.50135600  0.58086200  1
  Ba  Ba4  1  0.74639300  0.97095700  0.08906900  1
  Ba  Ba5  1  0.25360700  0.02904300  0.91093100  1
  Ba  Ba6  1  0.74639300  0.02904300  0.41093100  1
  Ba  Ba7  1  0.25360700  0.97095700  0.58906900  1
  Ba  Ba8  1  0.72121500  0.00000000  0.75000000  1
  Ba  Ba9  1  0.27878500  0.00000000  0.25000000  1
  Ba  Ba10  1  0.67243700  0.50000000  0.75000000  1
  Ba  Ba11  1  0.32756300  0.50000000  0.25000000  1
  Tm  Tm12  1  0.74375000  0.75119800  0.91018300  1
  Tm  Tm13  1  0.25625000  0.24880200  0.08981700  1
  Tm  Tm14  1  0.74375000  0.24880200  0.58981700  1
  Tm  Tm15  1  0.25625000  0.75119800  0.41018300  1
  Al  Al16  1  0.75274200  0.75283700  0.55530700  1
  Al  Al17  1  0.24725800  0.24716300  0.44469300  1
  Al  Al18  1  0.75274200  0.24716300  0.94469300  1
  Al  Al19  1  0.24725800  0.75283700  0.05530800  1
  Al  Al20  1  0.77270400  0.77912100  0.26833700  1
  Al  Al21  1  0.22729600  0.22087900  0.73166300  1
  Al  Al22  1  0.77270400  0.22087900  0.23166300  1
  Al  Al23  1  0.22729600  0.77912100  0.76833700  1
  O  O24  1  0.21086000  0.00000000  0.75000000  1
  O  O25  1  0.78914000  0.00000000  0.25000000  1
  O  O26  1  0.49232500  0.76294400  0.99815600  1
  O  O27  1  0.50767500  0.23705600  0.00184400  1
  O  O28  1  0.49232500  0.23705600  0.50184400  1
  O  O29  1  0.50767500  0.76294400  0.49815600  1
  O  O30  1  0.75719600  0.94709000  0.60432800  1
  O  O31  1  0.24280400  0.05291000  0.39567200  1
  O  O32  1  0.75719600  0.05291000  0.89567200  1
  O  O33  1  0.24280400  0.94709000  0.10432800  1
  O  O34  1  0.00310200  0.76177500  0.99626400  1
  O  O35  1  0.99689800  0.23822500  0.00373600  1
  O  O36  1  0.00310200  0.23822500  0.50373600  1
  O  O37  1  0.99689800  0.76177500  0.49626400  1
  O  O38  1  0.31317200  0.69143700  0.68667200  1
  O  O39  1  0.68682800  0.30856300  0.31332800  1
  O  O40  1  0.31317200  0.30856300  0.81332800  1
  O  O41  1  0.68682800  0.69143700  0.18667200  1
  O  O42  1  0.45142400  0.75271600  0.83344700  1
  O  O43  1  0.54857600  0.24728400  0.16655300  1
  O  O44  1  0.45142400  0.24728400  0.66655300  1
  O  O45  1  0.54857600  0.75271600  0.33344700  1
  O  O46  1  0.96772200  0.73258600  0.81248300  1
  O  O47  1  0.03227800  0.26741400  0.18751700  1
  O  O48  1  0.96772200  0.26741400  0.68751700  1
  O  O49  1  0.03227800  0.73258600  0.31248300  1
  O  O50  1  0.75379600  0.53888900  0.59158800  1
  O  O51  1  0.24620400  0.46111100  0.40841200  1
  O  O52  1  0.75379600  0.46111100  0.90841200  1
  O  O53  1  0.24620400  0.53888900  0.09158800  1
