# generated using pymatgen
data_CrPdO2
_symmetry_space_group_name_H-M   'P 1'
_cell_length_a   3.00604792
_cell_length_b   10.37598503
_cell_length_c   6.33180766
_cell_angle_alpha   105.71305436
_cell_angle_beta   89.99984809
_cell_angle_gamma   89.99991070
_symmetry_Int_Tables_number   1
_chemical_formula_structural   CrPdO2
_chemical_formula_sum   'Cr4 Pd4 O8'
_cell_volume   190.11324419
_cell_formula_units_Z   4
loop_
 _symmetry_equiv_pos_site_id
 _symmetry_equiv_pos_as_xyz
  1  'x, y, z'
loop_
 _atom_site_type_symbol
 _atom_site_label
 _atom_site_symmetry_multiplicity
 _atom_site_fract_x
 _atom_site_fract_y
 _atom_site_fract_z
 _atom_site_occupancy
  Cr  Cr0  1  0.99999800  0.74949600  0.50021300  1
  Cr  Cr1  1  0.50000100  0.00050200  0.49978700  1
  Cr  Cr2  1  0.99999600  0.24936400  0.50009300  1
  Cr  Cr3  1  0.50000100  0.50063700  0.49990400  1
  Pd  Pd4  1  0.00000000  0.49966800  0.99897000  1
  Pd  Pd5  1  0.50000100  0.75032200  0.00102900  1
  Pd  Pd6  1  0.00000000  0.99967800  0.99897400  1
  Pd  Pd7  1  0.50000200  0.25033200  0.00103000  1
  O  O8  1  0.50000300  0.69507600  0.66846500  1
  O  O9  1  0.00000500  0.94445500  0.66615800  1
  O  O10  1  0.50000100  0.19505100  0.66846700  1
  O  O11  1  0.00000500  0.44445400  0.66614200  1
  O  O12  1  0.49999600  0.80554500  0.33384600  1
  O  O13  1  0.99999800  0.05492400  0.33153400  1
  O  O14  1  0.49999400  0.30554600  0.33385800  1
  O  O15  1  0.99999900  0.55494900  0.33153200  1
