# generated using pymatgen
data_KNb4Ag(PS10)2
_symmetry_space_group_name_H-M   'P 1'
_cell_length_a   7.24379500
_cell_length_b   7.39533412
_cell_length_c   13.08413846
_cell_angle_alpha   89.57566753
_cell_angle_beta   76.34103096
_cell_angle_gamma   88.65217250
_symmetry_Int_Tables_number   1
_chemical_formula_structural   KNb4Ag(PS10)2
_chemical_formula_sum   'K1 Nb4 Ag1 P2 S20'
_cell_volume   680.90822232
_cell_formula_units_Z   1
loop_
 _symmetry_equiv_pos_site_id
 _symmetry_equiv_pos_as_xyz
  1  'x, y, z'
loop_
 _atom_site_type_symbol
 _atom_site_label
 _atom_site_symmetry_multiplicity
 _atom_site_fract_x
 _atom_site_fract_y
 _atom_site_fract_z
 _atom_site_occupancy
  K  K0  1  0.57071700  0.50009500  0.41847500  1
  Nb  Nb1  1  0.00225500  0.06705600  0.89408600  1
  Nb  Nb2  1  0.99793700  0.93365000  0.10489400  1
  Nb  Nb3  1  0.00111700  0.06704400  0.60584500  1
  Nb  Nb4  1  0.99856300  0.93314500  0.39577700  1
  Ag  Ag5  1  0.50227000  0.50005500  0.99908300  1
  P  P6  1  0.79200700  0.38794400  0.77644200  1
  P  P7  1  0.20558300  0.61416000  0.22285400  1
  S  S8  1  0.25153300  0.10687400  0.71658400  1
  S  S9  1  0.74758100  0.89486200  0.28269300  1
  S  S10  1  0.74473000  0.10853500  0.78286100  1
  S  S11  1  0.25560300  0.89148700  0.21732400  1
  S  S12  1  0.71947200  0.08346200  0.04949500  1
  S  S13  1  0.28094400  0.91613900  0.95021400  1
  S  S14  1  0.12642600  0.85796400  0.73406800  1
  S  S15  1  0.87410600  0.14258400  0.26679600  1
  S  S16  1  0.78475300  0.82770400  0.99112000  1
  S  S17  1  0.21583000  0.17193300  0.00833000  1
  S  S18  1  0.55513800  0.54453600  0.80739500  1
  S  S19  1  0.44309100  0.45575400  0.19201100  1
  S  S20  1  0.95484900  0.41536300  0.88433200  1
  S  S21  1  0.04384200  0.58344800  0.11558900  1
  S  S22  1  0.77731300  0.82989700  0.56641800  1
  S  S23  1  0.22180100  0.16820500  0.43429200  1
  S  S24  1  0.72249800  0.08740500  0.52160200  1
  S  S25  1  0.27702600  0.91146700  0.48043400  1
  S  S26  1  0.94724300  0.41736400  0.62368500  1
  S  S27  1  0.05437300  0.58167000  0.37699900  1
