# generated using pymatgen
data_SrZr4(AsO4)6
_symmetry_space_group_name_H-M   'P 1'
_cell_length_a   9.17462001
_cell_length_b   9.17462001
_cell_length_c   9.69238935
_cell_angle_alpha   61.75193212
_cell_angle_beta   61.75193212
_cell_angle_gamma   59.99999994
_symmetry_Int_Tables_number   1
_chemical_formula_structural   SrZr4(AsO4)6
_chemical_formula_sum   'Sr1 Zr4 As6 O24'
_cell_volume   591.69581385
_cell_formula_units_Z   1
loop_
 _symmetry_equiv_pos_site_id
 _symmetry_equiv_pos_as_xyz
  1  'x, y, z'
loop_
 _atom_site_type_symbol
 _atom_site_label
 _atom_site_symmetry_multiplicity
 _atom_site_fract_x
 _atom_site_fract_y
 _atom_site_fract_z
 _atom_site_occupancy
  Sr  Sr0  1  0.50000000  0.50000000  0.50000000  1
  Zr  Zr1  1  0.14458500  0.14458500  0.56624400  1
  Zr  Zr2  1  0.85541500  0.85541500  0.43375600  1
  Zr  Zr3  1  0.64646600  0.64646600  0.06060300  1
  Zr  Zr4  1  0.35353400  0.35353400  0.93939700  1
  As  As5  1  0.96248000  0.25245800  0.25378300  1
  As  As6  1  0.25245800  0.53127900  0.25378300  1
  As  As7  1  0.53127900  0.96248000  0.25378300  1
  As  As8  1  0.03752000  0.74754200  0.74621700  1
  As  As9  1  0.74754200  0.46872100  0.74621700  1
  As  As10  1  0.46872100  0.03752000  0.74621700  1
  O  O11  1  0.98358000  0.26810500  0.41178600  1
  O  O12  1  0.26810500  0.33652900  0.41178600  1
  O  O13  1  0.33652900  0.98358000  0.41178600  1
  O  O14  1  0.01642000  0.73189500  0.58821400  1
  O  O15  1  0.73189500  0.66347100  0.58821400  1
  O  O16  1  0.66347100  0.01642000  0.58821400  1
  O  O17  1  0.49637600  0.87636600  0.92761400  1
  O  O18  1  0.87636600  0.69964500  0.92761400  1
  O  O19  1  0.69964500  0.49637600  0.92761400  1
  O  O20  1  0.50362400  0.12363400  0.07238600  1
  O  O21  1  0.12363400  0.30035500  0.07238600  1
  O  O22  1  0.30035500  0.50362400  0.07238600  1
  O  O23  1  0.02842300  0.95188900  0.70927900  1
  O  O24  1  0.95188900  0.31040900  0.70927900  1
  O  O25  1  0.31040900  0.02842300  0.70927900  1
  O  O26  1  0.97157700  0.04811100  0.29072100  1
  O  O27  1  0.04811100  0.68959100  0.29072100  1
  O  O28  1  0.68959100  0.97157700  0.29072100  1
  O  O29  1  0.59419100  0.75597900  0.24208200  1
  O  O30  1  0.75597900  0.40774800  0.24208200  1
  O  O31  1  0.40774800  0.59419100  0.24208200  1
  O  O32  1  0.40580900  0.24402100  0.75791800  1
  O  O33  1  0.24402100  0.59225200  0.75791800  1
  O  O34  1  0.59225200  0.40580900  0.75791800  1
