# generated using pymatgen
data_Pr2CuSn4
_symmetry_space_group_name_H-M   'P 1'
_cell_length_a   4.52293900
_cell_length_b   4.58713200
_cell_length_c   9.20585574
_cell_angle_alpha   75.57324959
_cell_angle_beta   90.00000000
_cell_angle_gamma   90.00000000
_symmetry_Int_Tables_number   1
_chemical_formula_structural   Pr2CuSn4
_chemical_formula_sum   'Pr2 Cu1 Sn4'
_cell_volume   184.97410567
_cell_formula_units_Z   1
loop_
 _symmetry_equiv_pos_site_id
 _symmetry_equiv_pos_as_xyz
  1  'x, y, z'
loop_
 _atom_site_type_symbol
 _atom_site_label
 _atom_site_symmetry_multiplicity
 _atom_site_fract_x
 _atom_site_fract_y
 _atom_site_fract_z
 _atom_site_occupancy
  Pr  Pr0  1  0.25000000  0.89745200  0.20509500  1
  Pr  Pr1  1  0.75000000  0.10281100  0.79437700  1
  Cu  Cu2  1  0.25000000  0.68102600  0.63794900  1
  Sn  Sn3  1  0.25000000  0.25968300  0.48063500  1
  Sn  Sn4  1  0.75000000  0.75921700  0.48156500  1
  Sn  Sn5  1  0.25000000  0.53938600  0.92122700  1
  Sn  Sn6  1  0.75000000  0.43342400  0.13315200  1
