# generated using pymatgen
data_PuF4
_symmetry_space_group_name_H-M   'P 1'
_cell_length_a   8.32500112
_cell_length_b   8.32500112
_cell_length_c   8.32350294
_cell_angle_alpha   63.06642374
_cell_angle_beta   63.06642374
_cell_angle_gamma   80.44374575
_symmetry_Int_Tables_number   1
_chemical_formula_structural   PuF4
_chemical_formula_sum   'Pu6 F24'
_cell_volume   457.95337015
_cell_formula_units_Z   6
loop_
 _symmetry_equiv_pos_site_id
 _symmetry_equiv_pos_as_xyz
  1  'x, y, z'
loop_
 _atom_site_type_symbol
 _atom_site_label
 _atom_site_symmetry_multiplicity
 _atom_site_fract_x
 _atom_site_fract_y
 _atom_site_fract_z
 _atom_site_occupancy
  Pu  Pu0  1  0.63254600  0.77749400  0.66915500  1
  Pu  Pu1  1  0.36745400  0.22250600  0.33084500  1
  Pu  Pu2  1  0.22250600  0.36745400  0.83084500  1
  Pu  Pu3  1  0.77749400  0.63254600  0.16915500  1
  Pu  Pu4  1  0.78642700  0.21357300  0.75000000  1
  Pu  Pu5  1  0.21357300  0.78642700  0.25000000  1
  F  F6  1  0.31963500  0.25825100  0.60452400  1
  F  F7  1  0.68036500  0.74174900  0.39547600  1
  F  F8  1  0.74174900  0.68036500  0.89547600  1
  F  F9  1  0.25825100  0.31963500  0.10452400  1
  F  F10  1  0.82622700  0.93519900  0.95601300  1
  F  F11  1  0.17377300  0.06480100  0.04398700  1
  F  F12  1  0.06480100  0.17377300  0.54398700  1
  F  F13  1  0.93519900  0.82622700  0.45601300  1
  F  F14  1  0.39702700  0.60297300  0.75000000  1
  F  F15  1  0.60297300  0.39702700  0.25000000  1
  F  F16  1  0.50000000  0.00000000  0.50000000  1
  F  F17  1  0.00000000  0.50000000  0.00000000  1
  F  F18  1  0.50357500  0.25907300  0.78100200  1
  F  F19  1  0.49642500  0.74092700  0.21899800  1
  F  F20  1  0.74092700  0.49642500  0.71899800  1
  F  F21  1  0.25907300  0.50357500  0.28100200  1
  F  F22  1  0.40124600  0.81405500  0.92763900  1
  F  F23  1  0.59875400  0.18594500  0.07236100  1
  F  F24  1  0.18594500  0.59875400  0.57236100  1
  F  F25  1  0.81405500  0.40124600  0.42763900  1
  F  F26  1  0.72556800  0.02782800  0.65052500  1
  F  F27  1  0.27443200  0.97217200  0.34947500  1
  F  F28  1  0.97217200  0.27443200  0.84947500  1
  F  F29  1  0.02782800  0.72556800  0.15052500  1
