# generated using pymatgen
data_Sr2Co(SeO3)3
_symmetry_space_group_name_H-M   'P 1'
_cell_length_a   7.46007440
_cell_length_b   7.76397967
_cell_length_c   8.87212183
_cell_angle_alpha   103.24766111
_cell_angle_beta   105.47959853
_cell_angle_gamma   95.57393877
_symmetry_Int_Tables_number   1
_chemical_formula_structural   Sr2Co(SeO3)3
_chemical_formula_sum   'Sr4 Co2 Se6 O18'
_cell_volume   475.14047698
_cell_formula_units_Z   2
loop_
 _symmetry_equiv_pos_site_id
 _symmetry_equiv_pos_as_xyz
  1  'x, y, z'
loop_
 _atom_site_type_symbol
 _atom_site_label
 _atom_site_symmetry_multiplicity
 _atom_site_fract_x
 _atom_site_fract_y
 _atom_site_fract_z
 _atom_site_occupancy
  Sr  Sr0  1  0.62783300  0.48432000  0.80703400  1
  Sr  Sr1  1  0.37216700  0.51568000  0.19296600  1
  Sr  Sr2  1  0.75326000  0.90949000  0.61077000  1
  Sr  Sr3  1  0.24674100  0.09051000  0.38923000  1
  Co  Co4  1  0.09636200  0.33863100  0.75453500  1
  Co  Co5  1  0.90363700  0.66136900  0.24546500  1
  Se  Se6  1  0.23434300  0.63392600  0.58490500  1
  Se  Se7  1  0.90402800  0.21000300  0.04062500  1
  Se  Se8  1  0.36252600  0.08363900  0.79342300  1
  Se  Se9  1  0.63747300  0.91636100  0.20657700  1
  Se  Se10  1  0.09597100  0.78999700  0.95937400  1
  Se  Se11  1  0.76565800  0.36607400  0.41509500  1
  O  O12  1  0.17441400  0.63059100  0.38202100  1
  O  O13  1  0.82558600  0.36940900  0.61798000  1
  O  O14  1  0.22588200  0.40727500  0.58834400  1
  O  O15  1  0.77411800  0.59272500  0.41165600  1
  O  O16  1  0.47479700  0.69954900  0.64611100  1
  O  O17  1  0.52520300  0.30045100  0.35388900  1
  O  O18  1  0.06151300  0.81823600  0.14776800  1
  O  O19  1  0.93848700  0.18176400  0.85223200  1
  O  O20  1  0.16565200  0.58052800  0.93153300  1
  O  O21  1  0.83434900  0.41947200  0.06846700  1
  O  O22  1  0.87214100  0.75216300  0.83010500  1
  O  O23  1  0.12786000  0.24783700  0.16989500  1
  O  O24  1  0.48799800  0.87569700  0.31811400  1
  O  O25  1  0.51200100  0.12430300  0.68188500  1
  O  O26  1  0.85384800  0.94902000  0.35305800  1
  O  O27  1  0.36387700  0.30263300  0.90051700  1
  O  O28  1  0.63612400  0.69736700  0.09948300  1
  O  O29  1  0.14615100  0.05098000  0.64694300  1
