# generated using pymatgen
data_Ca3Mn3N5
_symmetry_space_group_name_H-M   'P 1'
_cell_length_a   5.53127035
_cell_length_b   6.78041186
_cell_length_c   8.32086804
_cell_angle_alpha   107.97028006
_cell_angle_beta   104.02294140
_cell_angle_gamma   94.97621412
_symmetry_Int_Tables_number   1
_chemical_formula_structural   Ca3Mn3N5
_chemical_formula_sum   'Ca6 Mn6 N10'
_cell_volume   283.55402065
_cell_formula_units_Z   2
loop_
 _symmetry_equiv_pos_site_id
 _symmetry_equiv_pos_as_xyz
  1  'x, y, z'
loop_
 _atom_site_type_symbol
 _atom_site_label
 _atom_site_symmetry_multiplicity
 _atom_site_fract_x
 _atom_site_fract_y
 _atom_site_fract_z
 _atom_site_occupancy
  Ca  Ca0  1  0.82272800  0.41907700  0.61724200  1
  Ca  Ca1  1  0.17727200  0.58092300  0.38275800  1
  Ca  Ca2  1  0.66073400  0.86989300  0.88003200  1
  Ca  Ca3  1  0.33926600  0.13010700  0.11996800  1
  Ca  Ca4  1  0.65354600  0.66966500  0.20099000  1
  Ca  Ca5  1  0.34645400  0.33033500  0.79901000  1
  Mn  Mn6  1  0.90728600  0.32196800  0.97240300  1
  Mn  Mn7  1  0.09271400  0.67803200  0.02759700  1
  Mn  Mn8  1  0.68991800  0.94851000  0.56646900  1
  Mn  Mn9  1  0.31008200  0.05149000  0.43353100  1
  Mn  Mn10  1  0.10351500  0.88458100  0.69896200  1
  Mn  Mn11  1  0.89648500  0.11541900  0.30103800  1
  N  N12  1  0.93727300  0.11781900  0.77537600  1
  N  N13  1  0.06272700  0.88218100  0.22462400  1
  N  N14  1  0.83329200  0.71030900  0.50781500  1
  N  N15  1  0.16670800  0.28969100  0.49218500  1
  N  N16  1  0.75033800  0.53871000  0.91125500  1
  N  N17  1  0.24966200  0.46129000  0.08874500  1
  N  N18  1  0.37596800  0.93508700  0.61522900  1
  N  N19  1  0.62403200  0.06491300  0.38477100  1
  N  N20  1  0.19153600  0.77854300  0.87485200  1
  N  N21  1  0.80846400  0.22145700  0.12514800  1
