# generated using pymatgen
data_Co2Si
_symmetry_space_group_name_H-M   'P 1'
_cell_length_a   3.71223400
_cell_length_b   4.88516400
_cell_length_c   7.04589500
_cell_angle_alpha   90.00000000
_cell_angle_beta   90.00000000
_cell_angle_gamma   90.00000000
_symmetry_Int_Tables_number   1
_chemical_formula_structural   Co2Si
_chemical_formula_sum   'Co8 Si4'
_cell_volume   127.77640322
_cell_formula_units_Z   4
loop_
 _symmetry_equiv_pos_site_id
 _symmetry_equiv_pos_as_xyz
  1  'x, y, z'
loop_
 _atom_site_type_symbol
 _atom_site_label
 _atom_site_symmetry_multiplicity
 _atom_site_fract_x
 _atom_site_fract_y
 _atom_site_fract_z
 _atom_site_occupancy
  Co  Co0  1  0.75000000  0.32640100  0.06426400  1
  Co  Co1  1  0.25000000  0.67359900  0.93573600  1
  Co  Co2  1  0.75000000  0.82640100  0.43573600  1
  Co  Co3  1  0.25000000  0.17359900  0.56426400  1
  Co  Co4  1  0.25000000  0.03708600  0.21765500  1
  Co  Co5  1  0.75000000  0.96291400  0.78234500  1
  Co  Co6  1  0.25000000  0.53708600  0.28234500  1
  Co  Co7  1  0.75000000  0.46291400  0.71765500  1
  Si  Si8  1  0.25000000  0.70285400  0.60640000  1
  Si  Si9  1  0.75000000  0.29714600  0.39360000  1
  Si  Si10  1  0.25000000  0.20285400  0.89360000  1
  Si  Si11  1  0.75000000  0.79714600  0.10640000  1
