# generated using pymatgen
data_In(PO3)3
_symmetry_space_group_name_H-M   'P 1'
_cell_length_a   12.12994309
_cell_length_b   12.12994309
_cell_length_c   9.84902800
_cell_angle_alpha   69.97723129
_cell_angle_beta   69.97723129
_cell_angle_gamma   110.72205756
_symmetry_Int_Tables_number   1
_chemical_formula_structural   In(PO3)3
_chemical_formula_sum   'In6 P18 O54'
_cell_volume   1081.89058077
_cell_formula_units_Z   6
loop_
 _symmetry_equiv_pos_site_id
 _symmetry_equiv_pos_as_xyz
  1  'x, y, z'
loop_
 _atom_site_type_symbol
 _atom_site_label
 _atom_site_symmetry_multiplicity
 _atom_site_fract_x
 _atom_site_fract_y
 _atom_site_fract_z
 _atom_site_occupancy
  In  In0  1  0.19067800  0.01195300  0.48828000  1
  In  In1  1  0.01195300  0.19067800  0.98828000  1
  In  In2  1  0.33915800  0.82687300  0.02158000  1
  In  In3  1  0.82687300  0.33915800  0.52158000  1
  In  In4  1  0.52080700  0.67772200  0.48901600  1
  In  In5  1  0.67772200  0.52080700  0.98901600  1
  P  P6  1  0.54218200  0.16036000  0.23437200  1
  P  P7  1  0.16036000  0.54218200  0.73437200  1
  P  P8  1  0.83718400  0.88771300  0.71472700  1
  P  P9  1  0.88771300  0.83718400  0.21472700  1
  P  P10  1  0.08067600  0.80591800  0.33618000  1
  P  P11  1  0.80591800  0.08067600  0.83618000  1
  P  P12  1  0.74819600  0.14642600  0.33980000  1
  P  P13  1  0.14642600  0.74819600  0.83980000  1
  P  P14  1  0.46755900  0.18605100  0.77935000  1
  P  P15  1  0.18605100  0.46755900  0.27935000  1
  P  P16  1  0.48480900  0.42345000  0.81961600  1
  P  P17  1  0.42345000  0.48480900  0.31961600  1
  P  P18  1  0.27517800  0.21858600  0.65370500  1
  P  P19  1  0.21858600  0.27517800  0.15370500  1
  P  P20  1  0.54198800  0.93191600  0.17943100  1
  P  P21  1  0.93191600  0.54198800  0.67943100  1
  P  P22  1  0.60100100  0.87378400  0.67005300  1
  P  P23  1  0.87378400  0.60100100  0.17005300  1
  O  O24  1  0.75053700  0.74077300  0.86119400  1
  O  O25  1  0.74077300  0.75053700  0.36119400  1
  O  O26  1  0.83486000  0.25460000  0.36195900  1
  O  O27  1  0.25460000  0.83486000  0.86195900  1
  O  O28  1  0.82343700  0.11362000  0.21889700  1
  O  O29  1  0.11362000  0.82343700  0.71889700  1
  O  O30  1  0.67318500  0.96289500  0.02318600  1
  O  O31  1  0.96289500  0.67318500  0.52318600  1
  O  O32  1  0.98826400  0.85829000  0.28791400  1
  O  O33  1  0.85829000  0.98826400  0.78791400  1
  O  O34  1  0.41389200  0.84751000  0.18505900  1
  O  O35  1  0.84751000  0.41389200  0.68505900  1
  O  O36  1  0.18224000  0.91386600  0.34475100  1
  O  O37  1  0.91386600  0.18224000  0.84475100  1
  O  O38  1  0.65731400  0.19635200  0.28388000  1
  O  O39  1  0.19635200  0.65731400  0.78388000  1
  O  O40  1  0.62706800  0.00708900  0.52074300  1
  O  O41  1  0.00708900  0.62706800  0.02074300  1
  O  O42  1  0.13974900  0.76127100  0.21997800  1
  O  O43  1  0.76127100  0.13974900  0.71997800  1
  O  O44  1  0.57341800  0.29599400  0.10895400  1
  O  O45  1  0.29599400  0.57341800  0.60895400  1
  O  O46  1  0.40163300  0.06166000  0.39634600  1
  O  O47  1  0.06166000  0.40163300  0.89634600  1
  O  O48  1  0.26589900  0.44153700  0.37701100  1
  O  O49  1  0.44153700  0.26589900  0.87701100  1
  O  O50  1  0.35630200  0.40024200  0.97246600  1
  O  O51  1  0.40024200  0.35630200  0.47246600  1
  O  O52  1  0.04651000  0.42174800  0.41443800  1
  O  O53  1  0.42174800  0.04651000  0.91443800  1
  O  O54  1  0.48596000  0.48586900  0.15829300  1
  O  O55  1  0.48586900  0.48596000  0.65829300  1
  O  O56  1  0.16277700  0.35985200  0.21714800  1
  O  O57  1  0.35985200  0.16277700  0.71714800  1
  O  O58  1  0.50281000  0.61493700  0.31403300  1
  O  O59  1  0.61493700  0.50281000  0.81403300  1
  O  O60  1  0.25596300  0.20194400  0.26949500  1
  O  O61  1  0.20194400  0.25596300  0.76949500  1
  O  O62  1  0.11406400  0.18836100  0.12735000  1
  O  O63  1  0.18836100  0.11406400  0.62735000  1
  O  O64  1  0.08533500  0.57394500  0.63136300  1
  O  O65  1  0.57394500  0.08533500  0.13136300  1
  O  O66  1  0.86966800  0.54564800  0.83753400  1
  O  O67  1  0.54564800  0.86966800  0.33753400  1
  O  O68  1  0.91984800  0.75762800  0.11978700  1
  O  O69  1  0.75762800  0.91984800  0.61978700  1
  O  O70  1  0.27560500  0.61126700  0.12470300  1
  O  O71  1  0.61126700  0.27560500  0.62470300  1
  O  O72  1  0.94006800  0.97701800  0.07307700  1
  O  O73  1  0.97701800  0.94006800  0.57307700  1
  O  O74  1  0.74933100  0.53539800  0.15851300  1
  O  O75  1  0.53539800  0.74933100  0.65851300  1
  O  O76  1  0.86236900  0.52633100  0.33556900  1
  O  O77  1  0.52633100  0.86236900  0.83556900  1
