# generated using pymatgen
data_YSnGe
_symmetry_space_group_name_H-M   'P 1'
_cell_length_a   8.48309727
_cell_length_b   8.48309727
_cell_length_c   4.10424200
_cell_angle_alpha   90.00000000
_cell_angle_beta   90.00000000
_cell_angle_gamma   150.88946629
_symmetry_Int_Tables_number   1
_chemical_formula_structural   YSnGe
_chemical_formula_sum   'Y2 Sn2 Ge2'
_cell_volume   143.68821169
_cell_formula_units_Z   2
loop_
 _symmetry_equiv_pos_site_id
 _symmetry_equiv_pos_as_xyz
  1  'x, y, z'
loop_
 _atom_site_type_symbol
 _atom_site_label
 _atom_site_symmetry_multiplicity
 _atom_site_fract_x
 _atom_site_fract_y
 _atom_site_fract_z
 _atom_site_occupancy
  Y  Y0  1  0.40550700  0.59449300  0.25000000  1
  Y  Y1  1  0.59449300  0.40550700  0.75000000  1
  Sn  Sn2  1  0.75478800  0.24521200  0.25000000  1
  Sn  Sn3  1  0.24521200  0.75478800  0.75000000  1
  Ge  Ge4  1  0.05347500  0.94652500  0.25000000  1
  Ge  Ge5  1  0.94652500  0.05347500  0.75000000  1
