# generated using pymatgen
data_Ca(TmS2)2
_symmetry_space_group_name_H-M   'P 1'
_cell_length_a   3.85272700
_cell_length_b   12.85947500
_cell_length_c   13.06720800
_cell_angle_alpha   90.00000000
_cell_angle_beta   90.00000000
_cell_angle_gamma   90.00000000
_symmetry_Int_Tables_number   1
_chemical_formula_structural   Ca(TmS2)2
_chemical_formula_sum   'Ca4 Tm8 S16'
_cell_volume   647.40236128
_cell_formula_units_Z   4
loop_
 _symmetry_equiv_pos_site_id
 _symmetry_equiv_pos_as_xyz
  1  'x, y, z'
loop_
 _atom_site_type_symbol
 _atom_site_label
 _atom_site_symmetry_multiplicity
 _atom_site_fract_x
 _atom_site_fract_y
 _atom_site_fract_z
 _atom_site_occupancy
  Ca  Ca0  1  0.25000000  0.36870000  0.58363900  1
  Ca  Ca1  1  0.25000000  0.86870000  0.91636100  1
  Ca  Ca2  1  0.75000000  0.63130000  0.41636100  1
  Ca  Ca3  1  0.75000000  0.13130000  0.08363900  1
  Tm  Tm4  1  0.25000000  0.10728000  0.41681200  1
  Tm  Tm5  1  0.25000000  0.60728000  0.08318800  1
  Tm  Tm6  1  0.75000000  0.89272000  0.58318800  1
  Tm  Tm7  1  0.75000000  0.39272000  0.91681200  1
  Tm  Tm8  1  0.25000000  0.14683200  0.79752400  1
  Tm  Tm9  1  0.25000000  0.64683200  0.70247600  1
  Tm  Tm10  1  0.75000000  0.85316800  0.20247600  1
  Tm  Tm11  1  0.75000000  0.35316800  0.29752400  1
  S  S12  1  0.25000000  0.21714600  0.23805800  1
  S  S13  1  0.25000000  0.71714600  0.26194200  1
  S  S14  1  0.75000000  0.78285400  0.76194200  1
  S  S15  1  0.75000000  0.28285400  0.73805800  1
  S  S16  1  0.25000000  0.25821200  0.97332600  1
  S  S17  1  0.25000000  0.75821200  0.52667400  1
  S  S18  1  0.75000000  0.74178800  0.02667400  1
  S  S19  1  0.75000000  0.24178800  0.47332600  1
  S  S20  1  0.25000000  0.46909500  0.38194000  1
  S  S21  1  0.25000000  0.96909500  0.11806000  1
  S  S22  1  0.75000000  0.53090500  0.61806000  1
  S  S23  1  0.75000000  0.03090500  0.88194000  1
  S  S24  1  0.25000000  0.03349900  0.61790400  1
  S  S25  1  0.25000000  0.53349900  0.88209600  1
  S  S26  1  0.75000000  0.96650100  0.38209600  1
  S  S27  1  0.75000000  0.46650100  0.11790400  1
