# generated using pymatgen
data_Ba2NdTaO6
_symmetry_space_group_name_H-M   'P 1'
_cell_length_a   6.10770423
_cell_length_b   6.10770423
_cell_length_c   6.15762099
_cell_angle_alpha   59.95999647
_cell_angle_beta   59.95999647
_cell_angle_gamma   60.05719947
_symmetry_Int_Tables_number   1
_chemical_formula_structural   Ba2NdTaO6
_chemical_formula_sum   'Ba2 Nd1 Ta1 O6'
_cell_volume   162.39709203
_cell_formula_units_Z   1
loop_
 _symmetry_equiv_pos_site_id
 _symmetry_equiv_pos_as_xyz
  1  'x, y, z'
loop_
 _atom_site_type_symbol
 _atom_site_label
 _atom_site_symmetry_multiplicity
 _atom_site_fract_x
 _atom_site_fract_y
 _atom_site_fract_z
 _atom_site_occupancy
  Ba  Ba0  1  0.75117900  0.75117900  0.74496600  1
  Ba  Ba1  1  0.24882100  0.24882100  0.25503400  1
  Nd  Nd2  1  0.00000000  0.00000000  0.00000000  1
  Ta  Ta3  1  0.50000000  0.50000000  0.50000000  1
  O  O4  1  0.70080700  0.23634300  0.30277700  1
  O  O5  1  0.29919300  0.76365700  0.69722300  1
  O  O6  1  0.76365700  0.29919300  0.69722300  1
  O  O7  1  0.23634300  0.70080700  0.30277700  1
  O  O8  1  0.72966200  0.72966200  0.21094700  1
  O  O9  1  0.27033800  0.27033800  0.78905300  1
