# generated using pymatgen
data_BaMg149
_symmetry_space_group_name_H-M   'P 1'
_cell_length_a   16.05660863
_cell_length_b   16.05661374
_cell_length_c   15.68443951
_cell_angle_alpha   90.00000000
_cell_angle_beta   90.00000000
_cell_angle_gamma   120.00001235
_symmetry_Int_Tables_number   1
_chemical_formula_structural   BaMg149
_chemical_formula_sum   'Ba1 Mg149'
_cell_volume   3501.92921277
_cell_formula_units_Z   1
loop_
 _symmetry_equiv_pos_site_id
 _symmetry_equiv_pos_as_xyz
  1  'x, y, z'
loop_
 _atom_site_type_symbol
 _atom_site_label
 _atom_site_symmetry_multiplicity
 _atom_site_fract_x
 _atom_site_fract_y
 _atom_site_fract_z
 _atom_site_occupancy
  Ba  Ba0  1  -0.00000000  -0.00000000  0.00000000  1
  Mg  Mg1  1  0.60039915  0.20079830  0.00000000  1
  Mg  Mg2  1  0.79883712  0.20116188  0.00000000  1
  Mg  Mg3  1  0.40232476  0.20116188  0.00000000  1
  Mg  Mg4  1  0.20916036  0.21279702  0.00000000  1
  Mg  Mg5  1  0.00363765  0.21279802  0.00000000  1
  Mg  Mg6  1  0.79920170  0.39960085  0.00000000  1
  Mg  Mg7  1  0.60039915  0.39960085  0.00000000  1
  Mg  Mg8  1  0.00050212  0.40277285  0.00000000  1
  Mg  Mg9  1  0.40226973  0.40277285  0.00000000  1
  Mg  Mg10  1  0.20243782  0.40487564  0.00000000  1
  Mg  Mg11  1  0.59722615  0.59772927  0.00000000  1
  Mg  Mg12  1  0.00050212  0.59772927  0.00000000  1
  Mg  Mg13  1  0.79883712  0.59767524  0.00000000  1
  Mg  Mg14  1  0.39936650  0.60063450  0.00000000  1
  Mg  Mg15  1  0.20126901  0.60063450  0.00000000  1
  Mg  Mg16  1  0.78720198  0.79083964  0.00000000  1
  Mg  Mg17  1  0.00363765  0.79083964  0.00000000  1
  Mg  Mg18  1  0.20243782  0.79756218  0.00000000  1
  Mg  Mg19  1  0.59512436  0.79756218  0.00000000  1
  Mg  Mg20  1  0.39936650  0.79873199  0.00000000  1
  Mg  Mg21  1  0.78720198  0.99636235  0.00000000  1
  Mg  Mg22  1  0.20916036  0.99636235  0.00000000  1
  Mg  Mg23  1  0.59722615  0.99949688  0.00000000  1
  Mg  Mg24  1  0.40226973  0.99949788  0.00000000  1
  Mg  Mg25  1  0.86888413  0.13111487  0.16435832  1
  Mg  Mg26  1  0.26223074  0.13111587  0.16435832  1
  Mg  Mg27  1  0.86888413  0.73776926  0.16435832  1
  Mg  Mg28  1  0.66666600  0.33333300  0.16603629  1
  Mg  Mg29  1  0.66753325  0.13289066  0.16646086  1
  Mg  Mg30  1  0.46535741  0.13289066  0.16646086  1
  Mg  Mg31  1  0.46535741  0.33246675  0.16646086  1
  Mg  Mg32  1  0.86710934  0.33246675  0.16646086  1
  Mg  Mg33  1  0.66753325  0.53464259  0.16646086  1
  Mg  Mg34  1  0.86710934  0.53464259  0.16646086  1
  Mg  Mg35  1  0.26721563  0.53443127  0.16743080  1
  Mg  Mg36  1  0.26721563  0.73278437  0.16743080  1
  Mg  Mg37  1  0.46556873  0.73278437  0.16743080  1
  Mg  Mg38  1  0.06687779  0.53343940  0.16779646  1
  Mg  Mg39  1  0.46656160  0.53343940  0.16779646  1
  Mg  Mg40  1  0.46656160  0.93312221  0.16779646  1
  Mg  Mg41  1  0.26871593  0.33692270  0.16828750  1
  Mg  Mg42  1  0.06820678  0.33692270  0.16828750  1
  Mg  Mg43  1  0.66307730  0.73128407  0.16828750  1
  Mg  Mg44  1  0.06820678  0.73128407  0.16828750  1
  Mg  Mg45  1  0.26871593  0.93179322  0.16828750  1
  Mg  Mg46  1  0.66307730  0.93179322  0.16828750  1
  Mg  Mg47  1  0.07059583  0.14119065  0.17592023  1
  Mg  Mg48  1  0.85880835  0.92940417  0.17592023  1
  Mg  Mg49  1  0.07059583  0.92940417  0.17592023  1
  Mg  Mg50  1  0.80009759  0.19990241  0.33256609  1
  Mg  Mg51  1  0.39980483  0.19990241  0.33256609  1
  Mg  Mg52  1  0.80009759  0.60019517  0.33256609  1
  Mg  Mg53  1  0.60006432  0.20012864  0.33285393  1
  Mg  Mg54  1  0.60006432  0.39993568  0.33285393  1
  Mg  Mg55  1  0.79987136  0.39993568  0.33285393  1
  Mg  Mg56  1  0.40005519  0.59994481  0.33378831  1
  Mg  Mg57  1  0.19989062  0.59994581  0.33378831  1
  Mg  Mg58  1  0.40005519  0.80011038  0.33378831  1
  Mg  Mg59  1  0.59944183  0.00020818  0.33395334  1
  Mg  Mg60  1  0.40076635  0.00020818  0.33395334  1
  Mg  Mg61  1  0.40076635  0.40055717  0.33395334  1
  Mg  Mg62  1  0.99979182  0.40055717  0.33395334  1
  Mg  Mg63  1  0.59944183  0.59923365  0.33395334  1
  Mg  Mg64  1  0.99979182  0.59923365  0.33395334  1
  Mg  Mg65  1  0.20014310  0.40028721  0.33404750  1
  Mg  Mg66  1  0.20014310  0.79985590  0.33404750  1
  Mg  Mg67  1  0.59971279  0.79985690  0.33404750  1
  Mg  Mg68  1  -0.00000000  -0.00000000  0.33437959  1
  Mg  Mg69  1  0.79871559  0.00053870  0.33525222  1
  Mg  Mg70  1  0.20182311  0.00053870  0.33525222  1
  Mg  Mg71  1  0.20182311  0.20128341  0.33525222  1
  Mg  Mg72  1  0.99946130  0.20128441  0.33525222  1
  Mg  Mg73  1  0.99946130  0.79817689  0.33525222  1
  Mg  Mg74  1  0.79871559  0.79817689  0.33525222  1
  Mg  Mg75  1  0.06675419  0.13350738  0.50000000  1
  Mg  Mg76  1  0.26747217  0.13373659  0.50000000  1
  Mg  Mg77  1  0.86626441  0.13373659  0.50000000  1
  Mg  Mg78  1  0.66721489  0.13426930  0.50000000  1
  Mg  Mg79  1  0.46705440  0.13426930  0.50000000  1
  Mg  Mg80  1  0.86573070  0.33278511  0.50000000  1
  Mg  Mg81  1  0.46705440  0.33278511  0.50000000  1
  Mg  Mg82  1  0.66666600  0.33333300  0.50000000  1
  Mg  Mg83  1  0.06718650  0.33404950  0.50000000  1
  Mg  Mg84  1  0.26686300  0.33404950  0.50000000  1
  Mg  Mg85  1  0.66721489  0.53294560  0.50000000  1
  Mg  Mg86  1  0.86573070  0.53294560  0.50000000  1
  Mg  Mg87  1  0.46676244  0.53323656  0.50000000  1
  Mg  Mg88  1  0.06647411  0.53323756  0.50000000  1
  Mg  Mg89  1  0.26687115  0.53374329  0.50000000  1
  Mg  Mg90  1  0.86626441  0.73252783  0.50000000  1
  Mg  Mg91  1  0.66595050  0.73313700  0.50000000  1
  Mg  Mg92  1  0.06718650  0.73313700  0.50000000  1
  Mg  Mg93  1  0.46625671  0.73312885  0.50000000  1
  Mg  Mg94  1  0.26687115  0.73312885  0.50000000  1
  Mg  Mg95  1  0.26686300  0.93281350  0.50000000  1
  Mg  Mg96  1  0.66595050  0.93281350  0.50000000  1
  Mg  Mg97  1  0.86649262  0.93324681  0.50000000  1
  Mg  Mg98  1  0.06675419  0.93324681  0.50000000  1
  Mg  Mg99  1  0.46676244  0.93352589  0.50000000  1
  Mg  Mg100  1  0.79871559  0.00053870  0.66474778  1
  Mg  Mg101  1  0.20182311  0.00053870  0.66474778  1
  Mg  Mg102  1  0.20182311  0.20128341  0.66474778  1
  Mg  Mg103  1  0.99946130  0.20128441  0.66474778  1
  Mg  Mg104  1  0.99946130  0.79817689  0.66474778  1
  Mg  Mg105  1  0.79871559  0.79817689  0.66474778  1
  Mg  Mg106  1  -0.00000000  -0.00000000  0.66562041  1
  Mg  Mg107  1  0.20014310  0.40028721  0.66595250  1
  Mg  Mg108  1  0.20014310  0.79985590  0.66595250  1
  Mg  Mg109  1  0.59971279  0.79985690  0.66595250  1
  Mg  Mg110  1  0.59944183  0.00020818  0.66604666  1
  Mg  Mg111  1  0.40076635  0.00020818  0.66604666  1
  Mg  Mg112  1  0.40076635  0.40055717  0.66604666  1
  Mg  Mg113  1  0.99979182  0.40055717  0.66604666  1
  Mg  Mg114  1  0.59944183  0.59923365  0.66604666  1
  Mg  Mg115  1  0.99979182  0.59923365  0.66604666  1
  Mg  Mg116  1  0.40005519  0.59994481  0.66621169  1
  Mg  Mg117  1  0.19989062  0.59994581  0.66621169  1
  Mg  Mg118  1  0.40005519  0.80011038  0.66621169  1
  Mg  Mg119  1  0.60006432  0.20012864  0.66714607  1
  Mg  Mg120  1  0.60006432  0.39993568  0.66714607  1
  Mg  Mg121  1  0.79987136  0.39993568  0.66714607  1
  Mg  Mg122  1  0.80009759  0.19990241  0.66743491  1
  Mg  Mg123  1  0.39980483  0.19990241  0.66743491  1
  Mg  Mg124  1  0.80009759  0.60019517  0.66743491  1
  Mg  Mg125  1  0.07059583  0.14119065  0.82407977  1
  Mg  Mg126  1  0.85880835  0.92940417  0.82407977  1
  Mg  Mg127  1  0.07059583  0.92940417  0.82407977  1
  Mg  Mg128  1  0.26871593  0.33692270  0.83171350  1
  Mg  Mg129  1  0.06820678  0.33692270  0.83171350  1
  Mg  Mg130  1  0.66307730  0.73128407  0.83171350  1
  Mg  Mg131  1  0.06820678  0.73128407  0.83171350  1
  Mg  Mg132  1  0.26871593  0.93179322  0.83171350  1
  Mg  Mg133  1  0.66307730  0.93179322  0.83171350  1
  Mg  Mg134  1  0.06687779  0.53343940  0.83220354  1
  Mg  Mg135  1  0.46656160  0.53343940  0.83220354  1
  Mg  Mg136  1  0.46656160  0.93312221  0.83220354  1
  Mg  Mg137  1  0.26721563  0.53443127  0.83256920  1
  Mg  Mg138  1  0.26721563  0.73278437  0.83256920  1
  Mg  Mg139  1  0.46556873  0.73278437  0.83256920  1
  Mg  Mg140  1  0.66753325  0.13289066  0.83354014  1
  Mg  Mg141  1  0.46535741  0.13289066  0.83354014  1
  Mg  Mg142  1  0.46535741  0.33246675  0.83354014  1
  Mg  Mg143  1  0.86710934  0.33246675  0.83354014  1
  Mg  Mg144  1  0.66753325  0.53464259  0.83354014  1
  Mg  Mg145  1  0.86710934  0.53464259  0.83354014  1
  Mg  Mg146  1  0.66666600  0.33333300  0.83396471  1
  Mg  Mg147  1  0.86888413  0.13111487  0.83564168  1
  Mg  Mg148  1  0.26223074  0.13111587  0.83564168  1
  Mg  Mg149  1  0.86888413  0.73776926  0.83564168  1
