# generated using pymatgen
data_La6CoCl11
_symmetry_space_group_name_H-M   'P 1'
_cell_length_a   11.44981800
_cell_length_b   11.44981800
_cell_length_c   14.64955900
_cell_angle_alpha   90.00000000
_cell_angle_beta   90.00000000
_cell_angle_gamma   90.00000000
_symmetry_Int_Tables_number   1
_chemical_formula_structural   La6CoCl11
_chemical_formula_sum   'La24 Co4 Cl44'
_cell_volume   1920.53275285
_cell_formula_units_Z   4
loop_
 _symmetry_equiv_pos_site_id
 _symmetry_equiv_pos_as_xyz
  1  'x, y, z'
loop_
 _atom_site_type_symbol
 _atom_site_label
 _atom_site_symmetry_multiplicity
 _atom_site_fract_x
 _atom_site_fract_y
 _atom_site_fract_z
 _atom_site_occupancy
  La  La0  1  0.76851000  0.98838700  0.24102200  1
  La  La1  1  0.23149000  0.01161300  0.24102200  1
  La  La2  1  0.48838700  0.73149000  0.74102200  1
  La  La3  1  0.51161300  0.26851000  0.74102200  1
  La  La4  1  0.73149000  0.51161300  0.25897800  1
  La  La5  1  0.26851000  0.48838700  0.25897800  1
  La  La6  1  0.01161300  0.76851000  0.75897800  1
  La  La7  1  0.98838700  0.23149000  0.75897800  1
  La  La8  1  0.43591000  0.76330300  0.10153800  1
  La  La9  1  0.56409000  0.23669700  0.10153800  1
  La  La10  1  0.26330300  0.06409000  0.60153800  1
  La  La11  1  0.73669700  0.93591000  0.60153800  1
  La  La12  1  0.06409000  0.73669700  0.39846200  1
  La  La13  1  0.93591000  0.26330300  0.39846200  1
  La  La14  1  0.23669700  0.43591000  0.89846200  1
  La  La15  1  0.76330300  0.56409000  0.89846200  1
  La  La16  1  0.39101100  0.75779600  0.37379400  1
  La  La17  1  0.60898900  0.24220400  0.37379400  1
  La  La18  1  0.25779600  0.10898900  0.87379400  1
  La  La19  1  0.74220400  0.89101100  0.87379400  1
  La  La20  1  0.10898900  0.74220400  0.12620600  1
  La  La21  1  0.89101100  0.25779600  0.12620600  1
  La  La22  1  0.24220400  0.39101100  0.62620600  1
  La  La23  1  0.75779600  0.60898900  0.62620600  1
  Co  Co24  1  0.75000000  0.25000000  0.25000000  1
  Co  Co25  1  0.25000000  0.75000000  0.25000000  1
  Co  Co26  1  0.75000000  0.75000000  0.75000000  1
  Co  Co27  1  0.25000000  0.25000000  0.75000000  1
  Cl  Cl28  1  0.60172900  0.75248000  0.25655700  1
  Cl  Cl29  1  0.39827100  0.24752000  0.25655700  1
  Cl  Cl30  1  0.25248000  0.89827100  0.75655700  1
  Cl  Cl31  1  0.74752000  0.10172900  0.75655700  1
  Cl  Cl32  1  0.89827100  0.74752000  0.24344300  1
  Cl  Cl33  1  0.10172900  0.25248000  0.24344300  1
  Cl  Cl34  1  0.24752000  0.60172900  0.74344300  1
  Cl  Cl35  1  0.75248000  0.39827100  0.74344300  1
  Cl  Cl36  1  0.64024400  0.98790800  0.40342300  1
  Cl  Cl37  1  0.35975600  0.01209200  0.40342300  1
  Cl  Cl38  1  0.48790800  0.85975600  0.90342300  1
  Cl  Cl39  1  0.51209200  0.14024400  0.90342300  1
  Cl  Cl40  1  0.85975600  0.51209200  0.09657700  1
  Cl  Cl41  1  0.14024400  0.48790800  0.09657700  1
  Cl  Cl42  1  0.01209200  0.64024400  0.59657700  1
  Cl  Cl43  1  0.98790800  0.35975600  0.59657700  1
  Cl  Cl44  1  0.74658000  0.05088300  0.04860900  1
  Cl  Cl45  1  0.25342000  0.94911700  0.04860900  1
  Cl  Cl46  1  0.55088300  0.75342000  0.54860900  1
  Cl  Cl47  1  0.44911700  0.24658000  0.54860900  1
  Cl  Cl48  1  0.75342000  0.44911700  0.45139100  1
  Cl  Cl49  1  0.24658000  0.55088300  0.45139100  1
  Cl  Cl50  1  0.94911700  0.74658000  0.95139100  1
  Cl  Cl51  1  0.05088300  0.25342000  0.95139100  1
  Cl  Cl52  1  0.50000000  0.00000000  0.16735500  1
  Cl  Cl53  1  0.50000000  0.00000000  0.66735500  1
  Cl  Cl54  1  0.00000000  0.50000000  0.33264500  1
  Cl  Cl55  1  0.00000000  0.50000000  0.83264500  1
  Cl  Cl56  1  0.00000000  0.00000000  0.14429200  1
  Cl  Cl57  1  0.50000000  0.50000000  0.64429200  1
  Cl  Cl58  1  0.50000000  0.50000000  0.35570800  1
  Cl  Cl59  1  0.00000000  0.00000000  0.85570800  1
  Cl  Cl60  1  0.50000000  0.50000000  0.12690700  1
  Cl  Cl61  1  0.00000000  0.00000000  0.62690700  1
  Cl  Cl62  1  0.00000000  0.00000000  0.37309300  1
  Cl  Cl63  1  0.50000000  0.50000000  0.87309300  1
  Cl  Cl64  1  0.26706700  0.68082800  0.96806500  1
  Cl  Cl65  1  0.73293300  0.31917200  0.96806500  1
  Cl  Cl66  1  0.18082800  0.23293300  0.46806500  1
  Cl  Cl67  1  0.81917200  0.76706700  0.46806500  1
  Cl  Cl68  1  0.23293300  0.81917200  0.53193500  1
  Cl  Cl69  1  0.76706700  0.18082800  0.53193500  1
  Cl  Cl70  1  0.31917200  0.26706700  0.03193500  1
  Cl  Cl71  1  0.68082800  0.73293300  0.03193500  1
