# generated using pymatgen
data_Li2TiFe(PO4)3
_symmetry_space_group_name_H-M   'P 1'
_cell_length_a   8.66099400
_cell_length_b   8.74193800
_cell_length_c   12.12023600
_cell_angle_alpha   90.00000000
_cell_angle_beta   90.00000000
_cell_angle_gamma   90.00000000
_symmetry_Int_Tables_number   1
_chemical_formula_structural   Li2TiFe(PO4)3
_chemical_formula_sum   'Li8 Ti4 Fe4 P12 O48'
_cell_volume   917.67000398
_cell_formula_units_Z   4
loop_
 _symmetry_equiv_pos_site_id
 _symmetry_equiv_pos_as_xyz
  1  'x, y, z'
loop_
 _atom_site_type_symbol
 _atom_site_label
 _atom_site_symmetry_multiplicity
 _atom_site_fract_x
 _atom_site_fract_y
 _atom_site_fract_z
 _atom_site_occupancy
  Li  Li0  1  0.46515900  0.78200700  0.68327600  1
  Li  Li1  1  0.53314600  0.27735400  0.81863200  1
  Li  Li2  1  0.53484100  0.21799300  0.18327600  1
  Li  Li3  1  0.46685400  0.72264600  0.31863200  1
  Li  Li4  1  0.03314600  0.22264600  0.31863200  1
  Li  Li5  1  0.96515900  0.71799300  0.18327600  1
  Li  Li6  1  0.96685400  0.77735400  0.81863200  1
  Li  Li7  1  0.03484100  0.28200700  0.68327600  1
  Ti  Ti8  1  0.50328600  0.46297700  0.61072400  1
  Ti  Ti9  1  0.49671400  0.53702300  0.11072400  1
  Ti  Ti10  1  0.00328600  0.03702300  0.11072400  1
  Ti  Ti11  1  0.99671400  0.96297700  0.61072400  1
  Fe  Fe12  1  0.49820800  0.96318200  0.88826100  1
  Fe  Fe13  1  0.50179200  0.03681800  0.38826100  1
  Fe  Fe14  1  0.99820800  0.53681800  0.38826100  1
  Fe  Fe15  1  0.00179200  0.46318200  0.88826100  1
  P  P16  1  0.71111500  0.74839800  0.49889500  1
  P  P17  1  0.28888500  0.25160200  0.99889500  1
  P  P18  1  0.78888500  0.24839800  0.49889500  1
  P  P19  1  0.21111500  0.75160200  0.99889500  1
  P  P20  1  0.64538100  0.60885900  0.85210600  1
  P  P21  1  0.35370100  0.10743100  0.64588900  1
  P  P22  1  0.35461900  0.39114100  0.35210600  1
  P  P23  1  0.64629900  0.89256900  0.14588900  1
  P  P24  1  0.85370100  0.39256900  0.14588900  1
  P  P25  1  0.14538100  0.89114100  0.35210600  1
  P  P26  1  0.14629900  0.60743100  0.64588900  1
  P  P27  1  0.85461900  0.10885900  0.85210600  1
  O  O28  1  0.42335600  0.99172600  0.72780700  1
  O  O29  1  0.57540400  0.48764500  0.77228300  1
  O  O30  1  0.57664400  0.00827400  0.22780700  1
  O  O31  1  0.42459600  0.51235500  0.27228300  1
  O  O32  1  0.07540400  0.01235500  0.27228300  1
  O  O33  1  0.92335600  0.50827400  0.22780700  1
  O  O34  1  0.92459600  0.98764500  0.77228300  1
  O  O35  1  0.07664400  0.49172600  0.72780700  1
  O  O36  1  0.58518700  0.76845000  0.82126000  1
  O  O37  1  0.41064300  0.27325700  0.67508000  1
  O  O38  1  0.41481300  0.23155000  0.32126000  1
  O  O39  1  0.58935700  0.72674300  0.17508000  1
  O  O40  1  0.91064300  0.22674300  0.17508000  1
  O  O41  1  0.08518700  0.73155000  0.32126000  1
  O  O42  1  0.08935700  0.77325700  0.67508000  1
  O  O43  1  0.91481300  0.26845000  0.82126000  1
  O  O44  1  0.58982500  0.56364800  0.97089900  1
  O  O45  1  0.40192300  0.06503000  0.52945000  1
  O  O46  1  0.41017500  0.43635200  0.47089900  1
  O  O47  1  0.59807700  0.93497000  0.02945000  1
  O  O48  1  0.90192300  0.43497000  0.02945000  1
  O  O49  1  0.08982500  0.93635200  0.47089900  1
  O  O50  1  0.09807700  0.56503000  0.52945000  1
  O  O51  1  0.91017500  0.06364800  0.97089900  1
  O  O52  1  0.60487900  0.66074600  0.58227700  1
  O  O53  1  0.39821000  0.16556400  0.92124500  1
  O  O54  1  0.39512100  0.33925400  0.08227700  1
  O  O55  1  0.60179000  0.83443600  0.42124500  1
  O  O56  1  0.89821000  0.33443600  0.42124500  1
  O  O57  1  0.10487900  0.83925400  0.08227700  1
  O  O58  1  0.10179000  0.66556400  0.92124500  1
  O  O59  1  0.89512100  0.16074600  0.58227700  1
  O  O60  1  0.32571500  0.60540000  0.65544000  1
  O  O61  1  0.67799300  0.10802100  0.84564300  1
  O  O62  1  0.67428500  0.39460000  0.15544000  1
  O  O63  1  0.32200700  0.89197900  0.34564300  1
  O  O64  1  0.17799300  0.39197900  0.34564300  1
  O  O65  1  0.82571500  0.89460000  0.15544000  1
  O  O66  1  0.82200700  0.60802100  0.84564300  1
  O  O67  1  0.17428500  0.10540000  0.65544000  1
  O  O68  1  0.30855900  0.86134200  0.93207400  1
  O  O69  1  0.68744600  0.35869800  0.56876000  1
  O  O70  1  0.69144100  0.13865800  0.43207400  1
  O  O71  1  0.31255400  0.64130200  0.06876000  1
  O  O72  1  0.18744600  0.14130200  0.06876000  1
  O  O73  1  0.80855900  0.63865800  0.43207400  1
  O  O74  1  0.81255400  0.85869800  0.56876000  1
  O  O75  1  0.19144100  0.36134200  0.93207400  1
