# generated using pymatgen
data_Rb7EuFe6(P4O17)2
_symmetry_space_group_name_H-M   'P 1'
_cell_length_a   9.43150200
_cell_length_b   10.04325882
_cell_length_c   10.14322826
_cell_angle_alpha   91.95611308
_cell_angle_beta   94.08771727
_cell_angle_gamma   116.31759900
_symmetry_Int_Tables_number   1
_chemical_formula_structural   Rb7EuFe6(P4O17)2
_chemical_formula_sum   'Rb7 Eu1 Fe6 P8 O34'
_cell_volume   856.69487608
_cell_formula_units_Z   1
loop_
 _symmetry_equiv_pos_site_id
 _symmetry_equiv_pos_as_xyz
  1  'x, y, z'
loop_
 _atom_site_type_symbol
 _atom_site_label
 _atom_site_symmetry_multiplicity
 _atom_site_fract_x
 _atom_site_fract_y
 _atom_site_fract_z
 _atom_site_occupancy
  Rb  Rb0  1  0.07267500  0.20906900  0.34232700  1
  Rb  Rb1  1  0.92732500  0.79093100  0.65767300  1
  Rb  Rb2  1  0.62550900  0.97537300  0.37461000  1
  Rb  Rb3  1  0.37449100  0.02462700  0.62539000  1
  Rb  Rb4  1  0.67660000  0.43916000  0.90434900  1
  Rb  Rb5  1  0.32340000  0.56084000  0.09565100  1
  Rb  Rb6  1  0.50000000  0.00000000  0.00000000  1
  Eu  Eu7  1  0.50000000  0.50000000  0.50000000  1
  Fe  Fe8  1  0.15610600  0.10791600  0.96605100  1
  Fe  Fe9  1  0.84389400  0.89208400  0.03394900  1
  Fe  Fe10  1  0.83467900  0.09451900  0.75421100  1
  Fe  Fe11  1  0.16532100  0.90548100  0.24578900  1
  Fe  Fe12  1  0.84354900  0.42335300  0.27723800  1
  Fe  Fe13  1  0.15645100  0.57664700  0.72276200  1
  P  P14  1  0.78770000  0.33254900  0.57275000  1
  P  P15  1  0.21230000  0.66745100  0.42725000  1
  P  P16  1  0.19373900  0.26481400  0.69147800  1
  P  P17  1  0.80626100  0.73518600  0.30852200  1
  P  P18  1  0.91075600  0.23161100  0.03834900  1
  P  P19  1  0.08924400  0.76838900  0.96165100  1
  P  P20  1  0.55854100  0.75621100  0.78332000  1
  P  P21  1  0.44145900  0.24378900  0.21668000  1
  O  O22  1  0.37396800  0.21945900  0.06815800  1
  O  O23  1  0.62603200  0.78054100  0.93184200  1
  O  O24  1  0.83646200  0.31067000  0.43227400  1
  O  O25  1  0.16353800  0.68933000  0.56772600  1
  O  O26  1  0.01564900  0.15716300  0.64382300  1
  O  O27  1  0.98435100  0.84283700  0.35617700  1
  O  O28  1  0.17974100  0.91496800  0.89269900  1
  O  O29  1  0.82025900  0.08503200  0.10730100  1
  O  O30  1  0.25833700  0.19689800  0.80117400  1
  O  O31  1  0.74166300  0.80310200  0.19882600  1
  O  O32  1  0.93265300  0.00588300  0.87652100  1
  O  O33  1  0.06734700  0.99411700  0.12347900  1
  O  O34  1  0.20994500  0.41646400  0.74789400  1
  O  O35  1  0.79005500  0.58353600  0.25210600  1
  O  O36  1  0.08714100  0.26769500  0.02772100  1
  O  O37  1  0.91285900  0.73230500  0.97227900  1
  O  O38  1  0.61689500  0.27294800  0.21728500  1
  O  O39  1  0.38310500  0.72705200  0.78271500  1
  O  O40  1  0.29037300  0.28558000  0.57140400  1
  O  O41  1  0.70962700  0.71442000  0.42859600  1
  O  O42  1  0.71737400  0.17567700  0.62896300  1
  O  O43  1  0.28262600  0.82432300  0.37103700  1
  O  O44  1  0.65938200  0.38763100  0.56102200  1
  O  O45  1  0.34061800  0.61236900  0.43897800  1
  O  O46  1  0.81833300  0.21957700  0.90003500  1
  O  O47  1  0.18166700  0.78042300  0.09996500  1
  O  O48  1  0.91104800  0.36509200  0.11923100  1
  O  O49  1  0.08895200  0.63490800  0.88076900  1
  O  O50  1  0.58045800  0.62978900  0.71216100  1
  O  O51  1  0.41954200  0.37021100  0.28783900  1
  O  O52  1  0.64605800  0.90351200  0.71152300  1
  O  O53  1  0.35394200  0.09648800  0.28847700  1
  O  O54  1  0.92993500  0.44410800  0.66540300  1
  O  O55  1  0.07006500  0.55589200  0.33459700  1
