# generated using pymatgen
data_CeNdAl2O6
_symmetry_space_group_name_H-M   'P 1'
_cell_length_a   5.35415952
_cell_length_b   5.35415952
_cell_length_c   5.35077820
_cell_angle_alpha   60.25174585
_cell_angle_beta   60.25174585
_cell_angle_gamma   90.00594756
_symmetry_Int_Tables_number   1
_chemical_formula_structural   CeNdAl2O6
_chemical_formula_sum   'Ce1 Nd1 Al2 O6'
_cell_volume   109.27846625
_cell_formula_units_Z   1
loop_
 _symmetry_equiv_pos_site_id
 _symmetry_equiv_pos_as_xyz
  1  'x, y, z'
loop_
 _atom_site_type_symbol
 _atom_site_label
 _atom_site_symmetry_multiplicity
 _atom_site_fract_x
 _atom_site_fract_y
 _atom_site_fract_z
 _atom_site_occupancy
  Ce  Ce0  1  0.75083500  0.75083500  0.49894000  1
  Nd  Nd1  1  0.24749100  0.24749100  0.50222000  1
  Al  Al2  1  0.99974300  0.50022100  0.99999600  1
  Al  Al3  1  0.50022100  0.99974300  0.99999600  1
  O  O4  1  0.21413400  0.78904400  0.99703300  1
  O  O5  1  0.78904400  0.21413400  0.99703300  1
  O  O6  1  0.23392200  0.76777900  0.49986600  1
  O  O7  1  0.76777900  0.23392200  0.49986600  1
  O  O8  1  0.69561000  0.69561000  0.03428800  1
  O  O9  1  0.30122000  0.30122000  0.97076300  1
