# generated using pymatgen
data_Na9Fe2P4HO18
_symmetry_space_group_name_H-M   'P 1'
_cell_length_a   7.17998201
_cell_length_b   11.37896083
_cell_length_c   11.37896112
_cell_angle_alpha   81.60588687
_cell_angle_beta   71.74199602
_cell_angle_gamma   71.74199097
_symmetry_Int_Tables_number   1
_chemical_formula_structural   Na9Fe2P4HO18
_chemical_formula_sum   'Na18 Fe4 P8 H2 O36'
_cell_volume   837.23823063
_cell_formula_units_Z   2
loop_
 _symmetry_equiv_pos_site_id
 _symmetry_equiv_pos_as_xyz
  1  'x, y, z'
loop_
 _atom_site_type_symbol
 _atom_site_label
 _atom_site_symmetry_multiplicity
 _atom_site_fract_x
 _atom_site_fract_y
 _atom_site_fract_z
 _atom_site_occupancy
  Na  Na0  1  0.11949400  0.24081100  0.52283900  1
  Na  Na1  1  0.38048000  0.00456300  0.23926000  1
  Na  Na2  1  0.01234700  0.73907800  0.73904400  1
  Na  Na3  1  0.24458200  0.76615400  0.22460200  1
  Na  Na4  1  0.26358400  0.22411300  0.76777000  1
  Na  Na5  1  0.25024600  0.50473900  0.49484500  1
  Na  Na6  1  0.48709300  0.26509900  0.26281700  1
  Na  Na7  1  0.37889900  0.47937300  0.76161900  1
  Na  Na8  1  0.61949400  0.52283900  0.24081100  1
  Na  Na9  1  0.28604100  0.96971100  0.96644500  1
  Na  Na10  1  0.88048000  0.23926000  0.00456300  1
  Na  Na11  1  0.51234700  0.73904400  0.73907800  1
  Na  Na12  1  0.76358400  0.76777000  0.22411300  1
  Na  Na13  1  0.75024600  0.49484500  0.50473900  1
  Na  Na14  1  0.74458200  0.22460200  0.76615400  1
  Na  Na15  1  0.98709300  0.26281700  0.26509900  1
  Na  Na16  1  0.87889900  0.76161900  0.47937300  1
  Na  Na17  1  0.78604100  0.96644500  0.96971100  1
  Fe  Fe18  1  0.98956700  0.49812300  0.00256200  1
  Fe  Fe19  1  0.50976200  0.49717700  0.00212100  1
  Fe  Fe20  1  0.48956700  0.00256200  0.49812300  1
  Fe  Fe21  1  0.00976200  0.00212100  0.49717700  1
  P  P22  1  0.11695300  0.50330200  0.26521000  1
  P  P23  1  0.37797100  0.23791200  0.00107900  1
  P  P24  1  0.12263900  0.99924700  0.75663700  1
  P  P25  1  0.38263700  0.73657400  0.49494700  1
  P  P26  1  0.61695300  0.26521000  0.50330200  1
  P  P27  1  0.87797100  0.00107900  0.23791200  1
  P  P28  1  0.62263900  0.75663700  0.99924700  1
  P  P29  1  0.88263700  0.49494700  0.73657400  1
  H  H30  1  0.19126100  0.65340600  0.97100600  1
  H  H31  1  0.69126100  0.97100600  0.65340600  1
  O  O32  1  0.02428700  0.08642900  0.86747800  1
  O  O33  1  0.02633100  0.63791900  0.30918900  1
  O  O34  1  0.10854400  0.40914800  0.37941800  1
  O  O35  1  0.25455100  0.05032900  0.43935000  1
  O  O36  1  0.01064400  0.52168700  0.81321000  1
  O  O37  1  0.32942000  0.19708800  0.14012100  1
  O  O38  1  0.03339800  0.96610100  0.31789800  1
  O  O39  1  0.32224500  0.03356400  0.67890100  1
  O  O40  1  0.34692400  0.48081100  0.18920700  1
  O  O41  1  0.15153200  0.81235500  0.51964300  1
  O  O42  1  0.17832200  0.31933300  0.96624600  1
  O  O43  1  0.46528400  0.67992500  0.03084600  1
  O  O44  1  0.16837100  0.86268700  0.80581300  1
  O  O45  1  0.48901400  0.18824200  0.47798300  1
  O  O46  1  0.24084200  0.56532900  0.95357400  1
  O  O47  1  0.39277900  0.62115000  0.58750000  1
  O  O48  1  0.47116500  0.69638100  0.35890600  1
  O  O49  1  0.47319100  0.12669200  0.91656600  1
  O  O50  1  0.52428700  0.86747800  0.08642900  1
  O  O51  1  0.52633100  0.30918900  0.63791900  1
  O  O52  1  0.60854400  0.37941800  0.40914800  1
  O  O53  1  0.75455100  0.43935000  0.05032900  1
  O  O54  1  0.51064400  0.81321000  0.52168700  1
  O  O55  1  0.82942000  0.14012100  0.19708800  1
  O  O56  1  0.53339800  0.31789800  0.96610100  1
  O  O57  1  0.82224500  0.67890100  0.03356400  1
  O  O58  1  0.84692400  0.18920700  0.48081100  1
  O  O59  1  0.65153200  0.51964300  0.81235500  1
  O  O60  1  0.67832200  0.96624600  0.31933300  1
  O  O61  1  0.96528400  0.03084600  0.67992500  1
  O  O62  1  0.66837100  0.80581300  0.86268700  1
  O  O63  1  0.98901400  0.47798300  0.18824200  1
  O  O64  1  0.74084200  0.95357400  0.56532900  1
  O  O65  1  0.89277900  0.58750000  0.62115000  1
  O  O66  1  0.97116500  0.35890600  0.69638100  1
  O  O67  1  0.97319100  0.91656600  0.12669200  1
