# generated using pymatgen
data_Na3Y(PO4)2
_symmetry_space_group_name_H-M   'P 1'
_cell_length_a   5.33506900
_cell_length_b   13.96928800
_cell_length_c   18.61024000
_cell_angle_alpha   90.00000000
_cell_angle_beta   90.00000000
_cell_angle_gamma   90.00000000
_symmetry_Int_Tables_number   1
_chemical_formula_structural   Na3Y(PO4)2
_chemical_formula_sum   'Na24 Y8 P16 O64'
_cell_volume   1386.96750337
_cell_formula_units_Z   8
loop_
 _symmetry_equiv_pos_site_id
 _symmetry_equiv_pos_as_xyz
  1  'x, y, z'
loop_
 _atom_site_type_symbol
 _atom_site_label
 _atom_site_symmetry_multiplicity
 _atom_site_fract_x
 _atom_site_fract_y
 _atom_site_fract_z
 _atom_site_occupancy
  Na  Na0  1  0.00872700  0.78297300  0.50785200  1
  Na  Na1  1  0.99127300  0.21702700  0.00785200  1
  Na  Na2  1  0.99127300  0.28297300  0.50785200  1
  Na  Na3  1  0.00872700  0.71702700  0.00785200  1
  Na  Na4  1  0.00726300  0.04792100  0.85087600  1
  Na  Na5  1  0.99273700  0.95207900  0.35087600  1
  Na  Na6  1  0.99273700  0.54792100  0.85087600  1
  Na  Na7  1  0.00726300  0.45207900  0.35087600  1
  Na  Na8  1  0.00281000  0.13862600  0.67224000  1
  Na  Na9  1  0.99719000  0.86137400  0.17224000  1
  Na  Na10  1  0.99719000  0.63862600  0.67224000  1
  Na  Na11  1  0.00281000  0.36137400  0.17224000  1
  Na  Na12  1  0.51994400  0.20287200  0.77093800  1
  Na  Na13  1  0.48005600  0.79712800  0.27093800  1
  Na  Na14  1  0.48005600  0.70287200  0.77093800  1
  Na  Na15  1  0.51994400  0.29712800  0.27093800  1
  Na  Na16  1  0.46193600  0.03117500  0.61198600  1
  Na  Na17  1  0.53806400  0.96882500  0.11198600  1
  Na  Na18  1  0.53806400  0.53117500  0.61198600  1
  Na  Na19  1  0.46193600  0.46882500  0.11198600  1
  Na  Na20  1  0.49962800  0.11185800  0.95047500  1
  Na  Na21  1  0.50037200  0.88814200  0.45047500  1
  Na  Na22  1  0.50037200  0.61185800  0.95047500  1
  Na  Na23  1  0.49962800  0.38814200  0.45047500  1
  Y  Y24  1  0.07102600  0.38883800  0.69566900  1
  Y  Y25  1  0.92897400  0.61116200  0.19566900  1
  Y  Y26  1  0.92897400  0.88883800  0.69566900  1
  Y  Y27  1  0.07102600  0.11116200  0.19566900  1
  Y  Y28  1  0.44400900  0.36150500  0.92726500  1
  Y  Y29  1  0.55599100  0.63849500  0.42726500  1
  Y  Y30  1  0.55599100  0.86150500  0.92726500  1
  Y  Y31  1  0.44400900  0.13849500  0.42726500  1
  P  P32  1  0.03078500  0.52457800  0.51884800  1
  P  P33  1  0.96921500  0.47542200  0.01884800  1
  P  P34  1  0.96921500  0.02457800  0.51884800  1
  P  P35  1  0.03078500  0.97542200  0.01884800  1
  P  P36  1  0.00759300  0.77731100  0.84729900  1
  P  P37  1  0.99240700  0.22268900  0.34729900  1
  P  P38  1  0.99240700  0.27731100  0.84729900  1
  P  P39  1  0.00759300  0.72268900  0.34729900  1
  P  P40  1  0.51960000  0.47337200  0.77520100  1
  P  P41  1  0.48040000  0.52662800  0.27520100  1
  P  P42  1  0.48040000  0.97337200  0.77520100  1
  P  P43  1  0.51960000  0.02662800  0.27520100  1
  P  P44  1  0.53836900  0.27355900  0.60386200  1
  P  P45  1  0.46163100  0.72644100  0.10386200  1
  P  P46  1  0.46163100  0.77355900  0.60386200  1
  P  P47  1  0.53836900  0.22644100  0.10386200  1
  O  O48  1  0.42646700  0.19171500  0.64942000  1
  O  O49  1  0.57353300  0.80828500  0.14942000  1
  O  O50  1  0.57353300  0.69171500  0.64942000  1
  O  O51  1  0.42646700  0.30828500  0.14942000  1
  O  O52  1  0.30196300  0.52757500  0.73640000  1
  O  O53  1  0.69803700  0.47242500  0.23640000  1
  O  O54  1  0.69803700  0.02757500  0.73640000  1
  O  O55  1  0.30196300  0.97242500  0.23640000  1
  O  O56  1  0.12113200  0.11864800  0.50588000  1
  O  O57  1  0.87886800  0.88135200  0.00588000  1
  O  O58  1  0.87886800  0.61864800  0.50588000  1
  O  O59  1  0.12113200  0.38135200  0.00588000  1
  O  O60  1  0.20753100  0.22417500  0.88814500  1
  O  O61  1  0.79246900  0.77582500  0.38814500  1
  O  O62  1  0.79246900  0.72417500  0.88814500  1
  O  O63  1  0.20753100  0.27582500  0.38814500  1
  O  O64  1  0.31346500  0.54078900  0.49941600  1
  O  O65  1  0.68653500  0.45921100  0.99941600  1
  O  O66  1  0.68653500  0.04078900  0.49941600  1
  O  O67  1  0.31346500  0.95921100  0.99941600  1
  O  O68  1  0.08020400  0.55711400  0.97296400  1
  O  O69  1  0.91979600  0.44288600  0.47296400  1
  O  O70  1  0.91979600  0.05711400  0.97296400  1
  O  O71  1  0.08020400  0.94288600  0.47296400  1
  O  O72  1  0.22781400  0.00013700  0.73857600  1
  O  O73  1  0.77218600  0.99986300  0.23857600  1
  O  O74  1  0.77218600  0.50013700  0.73857600  1
  O  O75  1  0.22781400  0.49986300  0.23857600  1
  O  O76  1  0.38534400  0.36757300  0.61529400  1
  O  O77  1  0.61465600  0.63242700  0.11529400  1
  O  O78  1  0.61465600  0.86757300  0.61529400  1
  O  O79  1  0.38534400  0.13242700  0.11529400  1
  O  O80  1  0.46459300  0.36508900  0.76925000  1
  O  O81  1  0.53540700  0.63491100  0.26925000  1
  O  O82  1  0.53540700  0.86508900  0.76925000  1
  O  O83  1  0.46459300  0.13491100  0.26925000  1
  O  O84  1  0.04625400  0.38562100  0.85221500  1
  O  O85  1  0.95374600  0.61437900  0.35221500  1
  O  O86  1  0.95374600  0.88562100  0.85221500  1
  O  O87  1  0.04625400  0.11437900  0.35221500  1
  O  O88  1  0.18093000  0.79106700  0.62565300  1
  O  O89  1  0.81907000  0.20893300  0.12565300  1
  O  O90  1  0.81907000  0.29106700  0.62565300  1
  O  O91  1  0.18093000  0.70893300  0.12565300  1
  O  O92  1  0.00815600  0.74635400  0.76686500  1
  O  O93  1  0.99184400  0.25364600  0.26686500  1
  O  O94  1  0.99184400  0.24635400  0.76686500  1
  O  O95  1  0.00815600  0.75364600  0.26686500  1
  O  O96  1  0.47341700  0.00255800  0.85598600  1
  O  O97  1  0.52658300  0.99744200  0.35598600  1
  O  O98  1  0.52658300  0.50255800  0.85598600  1
  O  O99  1  0.47341700  0.49744200  0.35598600  1
  O  O100  1  0.99297700  0.00198900  0.60077000  1
  O  O101  1  0.00702300  0.99801100  0.10077000  1
  O  O102  1  0.00702300  0.50198900  0.60077000  1
  O  O103  1  0.99297700  0.49801100  0.10077000  1
  O  O104  1  0.73754100  0.25050600  0.88220100  1
  O  O105  1  0.26245900  0.74949400  0.38220100  1
  O  O106  1  0.26245900  0.75050600  0.88220100  1
  O  O107  1  0.73754100  0.24949400  0.38220100  1
  O  O108  1  0.53168700  0.25059200  0.52185000  1
  O  O109  1  0.46831300  0.74940800  0.02185000  1
  O  O110  1  0.46831300  0.75059200  0.52185000  1
  O  O111  1  0.53168700  0.24940800  0.02185000  1
