# generated using pymatgen
data_NaPr3Ge4O13
_symmetry_space_group_name_H-M   'P 1'
_cell_length_a   6.94820500
_cell_length_b   7.20075454
_cell_length_c   12.04521451
_cell_angle_alpha   102.29272234
_cell_angle_beta   98.58421946
_cell_angle_gamma   91.61166252
_symmetry_Int_Tables_number   1
_chemical_formula_structural   NaPr3Ge4O13
_chemical_formula_sum   'Na2 Pr6 Ge8 O26'
_cell_volume   581.11615008
_cell_formula_units_Z   2
loop_
 _symmetry_equiv_pos_site_id
 _symmetry_equiv_pos_as_xyz
  1  'x, y, z'
loop_
 _atom_site_type_symbol
 _atom_site_label
 _atom_site_symmetry_multiplicity
 _atom_site_fract_x
 _atom_site_fract_y
 _atom_site_fract_z
 _atom_site_occupancy
  Na  Na0  1  0.12283300  0.80659000  0.34878200  1
  Na  Na1  1  0.87716700  0.19341000  0.65121800  1
  Pr  Pr2  1  0.94672100  0.67572400  0.64552900  1
  Pr  Pr3  1  0.05327900  0.32427600  0.35447100  1
  Pr  Pr4  1  0.72552700  0.91223100  0.13522300  1
  Pr  Pr5  1  0.27447300  0.08776900  0.86477700  1
  Pr  Pr6  1  0.55366200  0.53728300  0.83490500  1
  Pr  Pr7  1  0.44633800  0.46271700  0.16509500  1
  Ge  Ge8  1  0.22873300  0.93952400  0.12052200  1
  Ge  Ge9  1  0.77126700  0.06047600  0.87947800  1
  Ge  Ge10  1  0.40565100  0.72228600  0.56728600  1
  Ge  Ge11  1  0.59434900  0.27771400  0.43271400  1
  Ge  Ge12  1  0.11550700  0.60072900  0.89794700  1
  Ge  Ge13  1  0.88449300  0.39927100  0.10205300  1
  Ge  Ge14  1  0.69016500  0.84434400  0.40486000  1
  Ge  Ge15  1  0.30983500  0.15565600  0.59514000  1
  O  O16  1  0.59242300  0.64746000  0.65755500  1
  O  O17  1  0.40757700  0.35254000  0.34244500  1
  O  O18  1  0.64358800  0.88540400  0.92896200  1
  O  O19  1  0.35641200  0.11459600  0.07103800  1
  O  O20  1  0.41123900  0.79174100  0.15927000  1
  O  O21  1  0.58876100  0.20825900  0.84073000  1
  O  O22  1  0.24671500  0.72302800  0.81490200  1
  O  O23  1  0.75328500  0.27697200  0.18509800  1
  O  O24  1  0.05182400  0.79310700  0.00749300  1
  O  O25  1  0.94817600  0.20689300  0.99250700  1
  O  O26  1  0.75092200  0.69473800  0.28225200  1
  O  O27  1  0.24907800  0.30526200  0.71774800  1
  O  O28  1  0.85170200  0.88470300  0.53155600  1
  O  O29  1  0.14829800  0.11529700  0.46844400  1
  O  O30  1  0.18721900  0.58170300  0.51868900  1
  O  O31  1  0.81278100  0.41829700  0.48131100  1
  O  O32  1  0.45312900  0.78095000  0.43469200  1
  O  O33  1  0.54687100  0.21905000  0.56530800  1
  O  O34  1  0.32509900  0.93887600  0.65082400  1
  O  O35  1  0.67490100  0.06112400  0.34917600  1
  O  O36  1  0.89564500  0.51098000  0.80513700  1
  O  O37  1  0.10435500  0.48902000  0.19486300  1
  O  O38  1  0.71653100  0.55136000  0.04563300  1
  O  O39  1  0.28346900  0.44864000  0.95436700  1
  O  O40  1  0.93132300  0.98659500  0.78026300  1
  O  O41  1  0.06867700  0.01340500  0.21973700  1
