# generated using pymatgen
data_HfSe3
_symmetry_space_group_name_H-M   'P 1'
_cell_length_a   3.74951800
_cell_length_b   5.44819600
_cell_length_c   10.19817641
_cell_angle_alpha   83.81959539
_cell_angle_beta   90.00000000
_cell_angle_gamma   90.00000000
_symmetry_Int_Tables_number   1
_chemical_formula_structural   HfSe3
_chemical_formula_sum   'Hf2 Se6'
_cell_volume   207.11861532
_cell_formula_units_Z   2
loop_
 _symmetry_equiv_pos_site_id
 _symmetry_equiv_pos_as_xyz
  1  'x, y, z'
loop_
 _atom_site_type_symbol
 _atom_site_label
 _atom_site_symmetry_multiplicity
 _atom_site_fract_x
 _atom_site_fract_y
 _atom_site_fract_z
 _atom_site_occupancy
  Hf  Hf0  1  0.25000000  0.72059000  0.64603200  1
  Hf  Hf1  1  0.75000000  0.27941000  0.35396800  1
  Se  Se2  1  0.25000000  0.09242800  0.19462100  1
  Se  Se3  1  0.75000000  0.90757200  0.80537900  1
  Se  Se4  1  0.75000000  0.75989700  0.45057000  1
  Se  Se5  1  0.25000000  0.24010300  0.54943000  1
  Se  Se6  1  0.75000000  0.46904000  0.80524400  1
  Se  Se7  1  0.25000000  0.53096000  0.19475600  1
