# generated using pymatgen
data_MnAl6
_symmetry_space_group_name_H-M   'P 1'
_cell_length_a   4.96433081
_cell_length_b   4.96433081
_cell_length_c   8.81915300
_cell_angle_alpha   90.00000000
_cell_angle_beta   90.00000000
_cell_angle_gamma   98.81539730
_symmetry_Int_Tables_number   1
_chemical_formula_structural   MnAl6
_chemical_formula_sum   'Mn2 Al12'
_cell_volume   214.77688692
_cell_formula_units_Z   2
loop_
 _symmetry_equiv_pos_site_id
 _symmetry_equiv_pos_as_xyz
  1  'x, y, z'
loop_
 _atom_site_type_symbol
 _atom_site_label
 _atom_site_symmetry_multiplicity
 _atom_site_fract_x
 _atom_site_fract_y
 _atom_site_fract_z
 _atom_site_occupancy
  Mn  Mn0  1  0.54314100  0.54314100  0.75000000  1
  Mn  Mn1  1  0.45685900  0.45685900  0.25000000  1
  Al  Al2  1  0.39619900  0.03128200  0.75000000  1
  Al  Al3  1  0.60380100  0.96871800  0.25000000  1
  Al  Al4  1  0.67333600  0.32666400  0.00000000  1
  Al  Al5  1  0.32666400  0.67333600  0.50000000  1
  Al  Al6  1  0.32666400  0.67333600  0.00000000  1
  Al  Al7  1  0.67333600  0.32666400  0.50000000  1
  Al  Al8  1  0.14022800  0.14022800  0.10042300  1
  Al  Al9  1  0.85977200  0.85977200  0.60042300  1
  Al  Al10  1  0.14022800  0.14022800  0.39957700  1
  Al  Al11  1  0.85977200  0.85977200  0.89957700  1
  Al  Al12  1  0.96871800  0.60380100  0.25000000  1
  Al  Al13  1  0.03128200  0.39619900  0.75000000  1
