# generated using pymatgen
data_CsGaAgF6
_symmetry_space_group_name_H-M   'P 1'
_cell_length_a   7.56930500
_cell_length_b   7.70268600
_cell_length_c   10.63359500
_cell_angle_alpha   90.00000000
_cell_angle_beta   90.00000000
_cell_angle_gamma   90.00000000
_symmetry_Int_Tables_number   1
_chemical_formula_structural   CsGaAgF6
_chemical_formula_sum   'Cs4 Ga4 Ag4 F24'
_cell_volume   619.98090652
_cell_formula_units_Z   4
loop_
 _symmetry_equiv_pos_site_id
 _symmetry_equiv_pos_as_xyz
  1  'x, y, z'
loop_
 _atom_site_type_symbol
 _atom_site_label
 _atom_site_symmetry_multiplicity
 _atom_site_fract_x
 _atom_site_fract_y
 _atom_site_fract_z
 _atom_site_occupancy
  Cs  Cs0  1  0.01975300  0.25000000  0.63342100  1
  Cs  Cs1  1  0.98024700  0.75000000  0.36657900  1
  Cs  Cs2  1  0.48024700  0.75000000  0.13342100  1
  Cs  Cs3  1  0.51975300  0.25000000  0.86657900  1
  Ga  Ga4  1  0.00000000  0.00000000  0.00000000  1
  Ga  Ga5  1  0.50000000  0.00000000  0.50000000  1
  Ga  Ga6  1  0.00000000  0.50000000  0.00000000  1
  Ga  Ga7  1  0.50000000  0.50000000  0.50000000  1
  Ag  Ag8  1  0.21520400  0.25000000  0.25275200  1
  Ag  Ag9  1  0.78479600  0.75000000  0.74724800  1
  Ag  Ag10  1  0.28479600  0.75000000  0.75275200  1
  Ag  Ag11  1  0.71520400  0.25000000  0.24724800  1
  F  F12  1  0.29082400  0.03478200  0.40343800  1
  F  F13  1  0.70917600  0.96521800  0.59656200  1
  F  F14  1  0.20917600  0.96521800  0.90343800  1
  F  F15  1  0.70917600  0.53478200  0.59656200  1
  F  F16  1  0.79082400  0.03478200  0.09656200  1
  F  F17  1  0.29082400  0.46521800  0.40343800  1
  F  F18  1  0.79082400  0.46521800  0.09656200  1
  F  F19  1  0.20917600  0.53478200  0.90343800  1
  F  F20  1  0.54477700  0.25000000  0.51041200  1
  F  F21  1  0.45522300  0.75000000  0.48958800  1
  F  F22  1  0.95522300  0.75000000  0.01041200  1
  F  F23  1  0.04477700  0.25000000  0.98958800  1
  F  F24  1  0.14056000  0.50917500  0.14967100  1
  F  F25  1  0.85944000  0.49082500  0.85032900  1
  F  F26  1  0.35944000  0.49082500  0.64967100  1
  F  F27  1  0.85944000  0.00917500  0.85032900  1
  F  F28  1  0.64056000  0.50917500  0.35032900  1
  F  F29  1  0.14056000  0.99082500  0.14967100  1
  F  F30  1  0.64056000  0.99082500  0.35032900  1
  F  F31  1  0.35944000  0.00917500  0.64967100  1
  F  F32  1  0.46337400  0.25000000  0.17048900  1
  F  F33  1  0.53662600  0.75000000  0.82951100  1
  F  F34  1  0.03662600  0.75000000  0.67048900  1
  F  F35  1  0.96337400  0.25000000  0.32951100  1
