# generated using pymatgen
data_Nd5(In2Pt)2
_symmetry_space_group_name_H-M   'P 1'
_cell_length_a   3.79323900
_cell_length_b   8.33306600
_cell_length_c   18.77559900
_cell_angle_alpha   90.00000000
_cell_angle_beta   90.00000000
_cell_angle_gamma   90.00000000
_symmetry_Int_Tables_number   1
_chemical_formula_structural   Nd5(In2Pt)2
_chemical_formula_sum   'Nd10 In8 Pt4'
_cell_volume   593.48374689
_cell_formula_units_Z   2
loop_
 _symmetry_equiv_pos_site_id
 _symmetry_equiv_pos_as_xyz
  1  'x, y, z'
loop_
 _atom_site_type_symbol
 _atom_site_label
 _atom_site_symmetry_multiplicity
 _atom_site_fract_x
 _atom_site_fract_y
 _atom_site_fract_z
 _atom_site_occupancy
  Nd  Nd0  1  0.00000000  0.11699700  0.41509900  1
  Nd  Nd1  1  0.00000000  0.88300300  0.58490100  1
  Nd  Nd2  1  0.00000000  0.38300300  0.91509900  1
  Nd  Nd3  1  0.00000000  0.61699700  0.08490100  1
  Nd  Nd4  1  0.00000000  0.24303200  0.21853600  1
  Nd  Nd5  1  0.00000000  0.75696800  0.78146400  1
  Nd  Nd6  1  0.00000000  0.25696800  0.71853600  1
  Nd  Nd7  1  0.00000000  0.74303200  0.28146400  1
  Nd  Nd8  1  0.00000000  0.00000000  0.00000000  1
  Nd  Nd9  1  0.00000000  0.50000000  0.50000000  1
  In  In10  1  0.50000000  0.42658900  0.35022100  1
  In  In11  1  0.50000000  0.57341100  0.64977900  1
  In  In12  1  0.50000000  0.07341100  0.85022100  1
  In  In13  1  0.50000000  0.92658900  0.14977900  1
  In  In14  1  0.50000000  0.29214600  0.06815100  1
  In  In15  1  0.50000000  0.70785400  0.93184900  1
  In  In16  1  0.50000000  0.20785400  0.56815100  1
  In  In17  1  0.50000000  0.79214600  0.43184900  1
  Pt  Pt18  1  0.50000000  0.02411100  0.30293400  1
  Pt  Pt19  1  0.50000000  0.97588900  0.69706600  1
  Pt  Pt20  1  0.50000000  0.47588900  0.80293400  1
  Pt  Pt21  1  0.50000000  0.52411100  0.19706600  1
