# generated using pymatgen
data_Ba7Cd31
_symmetry_space_group_name_H-M   'P 1'
_cell_length_a   10.83133365
_cell_length_b   10.83133365
_cell_length_c   10.55428000
_cell_angle_alpha   90.00000000
_cell_angle_beta   90.00000000
_cell_angle_gamma   119.99999788
_symmetry_Int_Tables_number   1
_chemical_formula_structural   Ba7Cd31
_chemical_formula_sum   'Ba7 Cd31'
_cell_volume   1072.31682693
_cell_formula_units_Z   1
loop_
 _symmetry_equiv_pos_site_id
 _symmetry_equiv_pos_as_xyz
  1  'x, y, z'
loop_
 _atom_site_type_symbol
 _atom_site_label
 _atom_site_symmetry_multiplicity
 _atom_site_fract_x
 _atom_site_fract_y
 _atom_site_fract_z
 _atom_site_occupancy
  Ba  Ba0  1  0.00000000  0.00000000  0.50000000  1
  Ba  Ba1  1  0.33333300  0.66666700  0.50000000  1
  Ba  Ba2  1  0.16590400  0.33180800  0.00000000  1
  Ba  Ba3  1  0.66819200  0.83409600  0.00000000  1
  Ba  Ba4  1  0.16590400  0.83409600  0.00000000  1
  Ba  Ba5  1  0.66666700  0.33333300  0.28800400  1
  Ba  Ba6  1  0.66666700  0.33333300  0.71199600  1
  Cd  Cd7  1  0.39336600  0.33328100  0.50000000  1
  Cd  Cd8  1  0.66671900  0.06008500  0.50000000  1
  Cd  Cd9  1  0.93991500  0.60663400  0.50000000  1
  Cd  Cd10  1  0.93991500  0.33328100  0.50000000  1
  Cd  Cd11  1  0.66671900  0.60663400  0.50000000  1
  Cd  Cd12  1  0.39336600  0.06008500  0.50000000  1
  Cd  Cd13  1  0.16487000  0.32974000  0.33173200  1
  Cd  Cd14  1  0.67026000  0.83513000  0.33173200  1
  Cd  Cd15  1  0.16487000  0.83513000  0.33173200  1
  Cd  Cd16  1  0.16487000  0.32974000  0.66826800  1
  Cd  Cd17  1  0.67026000  0.83513000  0.66826800  1
  Cd  Cd18  1  0.16487000  0.83513000  0.66826800  1
  Cd  Cd19  1  0.00000000  0.00000000  0.15056500  1
  Cd  Cd20  1  0.33333300  0.66666700  0.14642100  1
  Cd  Cd21  1  0.33333300  0.66666700  0.85357900  1
  Cd  Cd22  1  0.00000000  0.00000000  0.84943500  1
  Cd  Cd23  1  0.29868800  0.14934400  0.24043400  1
  Cd  Cd24  1  0.85065600  0.14934400  0.24043400  1
  Cd  Cd25  1  0.85065600  0.70131200  0.24043400  1
  Cd  Cd26  1  0.48270100  0.51729900  0.23562100  1
  Cd  Cd27  1  0.03459900  0.51729900  0.23562100  1
  Cd  Cd28  1  0.48270100  0.96540100  0.23562100  1
  Cd  Cd29  1  0.03459900  0.51729900  0.76437900  1
  Cd  Cd30  1  0.48270100  0.51729900  0.76437900  1
  Cd  Cd31  1  0.48270100  0.96540100  0.76437900  1
  Cd  Cd32  1  0.85065600  0.14934400  0.75956600  1
  Cd  Cd33  1  0.29868800  0.14934400  0.75956600  1
  Cd  Cd34  1  0.85065600  0.70131200  0.75956600  1
  Cd  Cd35  1  0.46685500  0.23342800  0.00000000  1
  Cd  Cd36  1  0.76657200  0.23342800  0.00000000  1
  Cd  Cd37  1  0.76657200  0.53314500  0.00000000  1
