# generated using pymatgen
data_Dy7C2I12O
_symmetry_space_group_name_H-M   'P 1'
_cell_length_a   9.93647200
_cell_length_b   10.59896274
_cell_length_c   16.99444829
_cell_angle_alpha   101.58465384
_cell_angle_beta   92.90014481
_cell_angle_gamma   112.96753015
_symmetry_Int_Tables_number   1
_chemical_formula_structural   Dy7C2I12O
_chemical_formula_sum   'Dy14 C4 I24 O2'
_cell_volume   1597.75486245
_cell_formula_units_Z   2
loop_
 _symmetry_equiv_pos_site_id
 _symmetry_equiv_pos_as_xyz
  1  'x, y, z'
loop_
 _atom_site_type_symbol
 _atom_site_label
 _atom_site_symmetry_multiplicity
 _atom_site_fract_x
 _atom_site_fract_y
 _atom_site_fract_z
 _atom_site_occupancy
  Dy  Dy0  1  0.66419800  0.54811100  0.88647900  1
  Dy  Dy1  1  0.33580200  0.45188900  0.11352100  1
  Dy  Dy2  1  0.93445900  0.57142500  0.73736100  1
  Dy  Dy3  1  0.06554100  0.42857500  0.26263900  1
  Dy  Dy4  1  0.86838700  0.88303500  0.85719200  1
  Dy  Dy5  1  0.13161300  0.11696500  0.14280800  1
  Dy  Dy6  1  0.45492900  0.74681300  0.81024400  1
  Dy  Dy7  1  0.54507100  0.25318700  0.18975600  1
  Dy  Dy8  1  0.72163200  0.75906000  0.65703100  1
  Dy  Dy9  1  0.27836800  0.24094000  0.34296900  1
  Dy  Dy10  1  0.52471300  0.44035800  0.68580800  1
  Dy  Dy11  1  0.47528700  0.55964200  0.31419200  1
  Dy  Dy12  1  0.35756100  0.54899800  0.51991300  1
  Dy  Dy13  1  0.64243900  0.45100200  0.48008700  1
  C  C14  1  0.63583900  0.67904900  0.78170100  1
  C  C15  1  0.36416100  0.32095100  0.21829900  1
  C  C16  1  0.75388200  0.63843100  0.76401800  1
  C  C17  1  0.24611800  0.36156900  0.23598200  1
  I  I18  1  0.66113800  0.02616400  0.91040700  1
  I  I19  1  0.33886200  0.97383600  0.08959300  1
  I  I20  1  0.94889200  0.05473700  0.72899900  1
  I  I21  1  0.05110800  0.94526300  0.27100100  1
  I  I22  1  0.43908900  0.25238700  0.80114400  1
  I  I23  1  0.56091100  0.74761300  0.19885600  1
  I  I24  1  0.90444000  0.42994800  0.87338300  1
  I  I25  1  0.09556000  0.57005200  0.12661700  1
  I  I26  1  0.45608000  0.84921000  0.64770500  1
  I  I27  1  0.54392000  0.15079000  0.35229500  1
  I  I28  1  0.21591900  0.47022500  0.68394000  1
  I  I29  1  0.78408100  0.52977500  0.31606000  1
  I  I30  1  0.72595500  0.29631600  0.60788000  1
  I  I31  1  0.27404500  0.70368400  0.39212000  1
  I  I32  1  0.17485800  0.84614000  0.83450800  1
  I  I33  1  0.82514200  0.15386000  0.16549200  1
  I  I34  1  0.60616900  0.39807400  0.05043700  1
  I  I35  1  0.39383100  0.60192600  0.94956300  1
  I  I36  1  0.69202300  0.80296900  0.47146400  1
  I  I37  1  0.30797700  0.19703100  0.52853600  1
  I  I38  1  0.87591400  0.80223100  0.01882000  1
  I  I39  1  0.12408600  0.19776900  0.98118000  1
  I  I40  1  0.96305300  0.67554200  0.57381700  1
  I  I41  1  0.03694700  0.32445800  0.42618300  1
  O  O42  1  0.55717400  0.54689100  0.58126800  1
  O  O43  1  0.44282600  0.45310900  0.41873200  1
