# generated using pymatgen
data_Tb6Al39Cr8
_symmetry_space_group_name_H-M   'P 1'
_cell_length_a   10.91328248
_cell_length_b   10.91328248
_cell_length_c   17.33582300
_cell_angle_alpha   90.00000000
_cell_angle_beta   90.00000000
_cell_angle_gamma   120.00000288
_symmetry_Int_Tables_number   1
_chemical_formula_structural   Tb6Al39Cr8
_chemical_formula_sum   'Tb12 Al78 Cr16'
_cell_volume   1788.07559726
_cell_formula_units_Z   2
loop_
 _symmetry_equiv_pos_site_id
 _symmetry_equiv_pos_as_xyz
  1  'x, y, z'
loop_
 _atom_site_type_symbol
 _atom_site_label
 _atom_site_symmetry_multiplicity
 _atom_site_fract_x
 _atom_site_fract_y
 _atom_site_fract_z
 _atom_site_occupancy
  Tb  Tb0  1  0.53329800  0.00000000  0.59734800  1
  Tb  Tb1  1  0.46670200  0.00000000  0.40265200  1
  Tb  Tb2  1  0.00000000  0.53329800  0.59734800  1
  Tb  Tb3  1  0.46670200  0.00000000  0.09734800  1
  Tb  Tb4  1  0.00000000  0.53329800  0.90265200  1
  Tb  Tb5  1  0.00000000  0.46670200  0.40265200  1
  Tb  Tb6  1  0.53329800  0.00000000  0.90265200  1
  Tb  Tb7  1  0.00000000  0.46670200  0.09734800  1
  Tb  Tb8  1  0.46670200  0.46670200  0.59734800  1
  Tb  Tb9  1  0.53329800  0.53329800  0.40265200  1
  Tb  Tb10  1  0.53329800  0.53329800  0.09734800  1
  Tb  Tb11  1  0.46670200  0.46670200  0.90265200  1
  Al  Al12  1  0.15235400  0.60488600  0.75000000  1
  Al  Al13  1  0.84764600  0.39511400  0.25000000  1
  Al  Al14  1  0.39511400  0.54746800  0.75000000  1
  Al  Al15  1  0.60488600  0.15235400  0.75000000  1
  Al  Al16  1  0.60488600  0.45253200  0.25000000  1
  Al  Al17  1  0.39511400  0.84764600  0.25000000  1
  Al  Al18  1  0.45253200  0.84764600  0.75000000  1
  Al  Al19  1  0.54746800  0.39511400  0.75000000  1
  Al  Al20  1  0.54746800  0.15235400  0.25000000  1
  Al  Al21  1  0.45253200  0.60488600  0.25000000  1
  Al  Al22  1  0.84764600  0.45253200  0.75000000  1
  Al  Al23  1  0.15235400  0.54746800  0.25000000  1
  Al  Al24  1  0.15457400  0.00000000  0.11517400  1
  Al  Al25  1  0.84542600  0.00000000  0.88482600  1
  Al  Al26  1  0.00000000  0.15457400  0.11517400  1
  Al  Al27  1  0.84542600  0.00000000  0.61517400  1
  Al  Al28  1  0.00000000  0.15457400  0.38482600  1
  Al  Al29  1  0.00000000  0.84542600  0.88482600  1
  Al  Al30  1  0.15457400  0.00000000  0.38482600  1
  Al  Al31  1  0.00000000  0.84542600  0.61517400  1
  Al  Al32  1  0.84542600  0.84542600  0.11517400  1
  Al  Al33  1  0.15457400  0.15457400  0.88482600  1
  Al  Al34  1  0.15457400  0.15457400  0.61517400  1
  Al  Al35  1  0.84542600  0.84542600  0.38482600  1
  Al  Al36  1  0.24951300  0.49902700  0.50000000  1
  Al  Al37  1  0.75048700  0.50097300  0.50000000  1
  Al  Al38  1  0.50097300  0.75048700  0.50000000  1
  Al  Al39  1  0.75048700  0.50097300  0.00000000  1
  Al  Al40  1  0.49902700  0.24951300  0.00000000  1
  Al  Al41  1  0.49902700  0.24951300  0.50000000  1
  Al  Al42  1  0.24951300  0.49902700  0.00000000  1
  Al  Al43  1  0.50097300  0.75048700  0.00000000  1
  Al  Al44  1  0.24951300  0.75048700  0.50000000  1
  Al  Al45  1  0.75048700  0.24951300  0.50000000  1
  Al  Al46  1  0.75048700  0.24951300  0.00000000  1
  Al  Al47  1  0.24951300  0.75048700  0.00000000  1
  Al  Al48  1  0.15105800  0.00000000  0.75000000  1
  Al  Al49  1  0.84894200  0.00000000  0.25000000  1
  Al  Al50  1  0.00000000  0.15105800  0.75000000  1
  Al  Al51  1  0.00000000  0.84894200  0.25000000  1
  Al  Al52  1  0.84894200  0.84894200  0.75000000  1
  Al  Al53  1  0.15105800  0.15105800  0.25000000  1
  Al  Al54  1  0.25066600  0.00000000  0.52902500  1
  Al  Al55  1  0.74933400  0.00000000  0.47097500  1
  Al  Al56  1  0.00000000  0.25066600  0.52902500  1
  Al  Al57  1  0.74933400  0.00000000  0.02902500  1
  Al  Al58  1  0.00000000  0.25066600  0.97097500  1
  Al  Al59  1  0.00000000  0.74933400  0.47097500  1
  Al  Al60  1  0.25066600  0.00000000  0.97097500  1
  Al  Al61  1  0.00000000  0.74933400  0.02902500  1
  Al  Al62  1  0.74933400  0.74933400  0.52902500  1
  Al  Al63  1  0.25066600  0.25066600  0.47097500  1
  Al  Al64  1  0.25066600  0.25066600  0.02902500  1
  Al  Al65  1  0.74933400  0.74933400  0.97097500  1
  Al  Al66  1  0.16504600  0.39704300  0.66142400  1
  Al  Al67  1  0.83495400  0.60295700  0.33857600  1
  Al  Al68  1  0.60295700  0.76800200  0.66142400  1
  Al  Al69  1  0.83495400  0.60295700  0.16142400  1
  Al  Al70  1  0.39704300  0.16504600  0.83857600  1
  Al  Al71  1  0.39704300  0.23199800  0.33857600  1
  Al  Al72  1  0.16504600  0.39704300  0.83857600  1
  Al  Al73  1  0.60295700  0.83495400  0.16142400  1
  Al  Al74  1  0.23199800  0.83495400  0.66142400  1
  Al  Al75  1  0.39704300  0.23199800  0.16142400  1
  Al  Al76  1  0.76800200  0.60295700  0.83857600  1
  Al  Al77  1  0.76800200  0.16504600  0.33857600  1
  Al  Al78  1  0.60295700  0.76800200  0.83857600  1
  Al  Al79  1  0.23199800  0.39704300  0.16142400  1
  Al  Al80  1  0.60295700  0.83495400  0.33857600  1
  Al  Al81  1  0.39704300  0.16504600  0.66142400  1
  Al  Al82  1  0.76800200  0.16504600  0.16142400  1
  Al  Al83  1  0.23199800  0.39704300  0.33857600  1
  Al  Al84  1  0.23199800  0.83495400  0.83857600  1
  Al  Al85  1  0.76800200  0.60295700  0.66142400  1
  Al  Al86  1  0.83495400  0.23199800  0.83857600  1
  Al  Al87  1  0.16504600  0.76800200  0.16142400  1
  Al  Al88  1  0.16504600  0.76800200  0.33857600  1
  Al  Al89  1  0.83495400  0.23199800  0.66142400  1
  Cr  Cr90  1  0.33333300  0.66666700  0.63276200  1
  Cr  Cr91  1  0.66666700  0.33333300  0.36723800  1
  Cr  Cr92  1  0.66666700  0.33333300  0.13276200  1
  Cr  Cr93  1  0.66666700  0.33333300  0.86723800  1
  Cr  Cr94  1  0.33333300  0.66666700  0.86723800  1
  Cr  Cr95  1  0.33333300  0.66666700  0.13276200  1
  Cr  Cr96  1  0.33333300  0.66666700  0.36723800  1
  Cr  Cr97  1  0.66666700  0.33333300  0.63276200  1
  Cr  Cr98  1  0.00000000  0.00000000  0.50000000  1
  Cr  Cr99  1  0.00000000  0.00000000  0.00000000  1
  Cr  Cr100  1  0.74203200  0.00000000  0.75000000  1
  Cr  Cr101  1  0.25796800  0.00000000  0.25000000  1
  Cr  Cr102  1  0.00000000  0.74203200  0.75000000  1
  Cr  Cr103  1  0.00000000  0.25796800  0.25000000  1
  Cr  Cr104  1  0.25796800  0.25796800  0.75000000  1
  Cr  Cr105  1  0.74203200  0.74203200  0.25000000  1
