# generated using pymatgen
data_Zn4B6SeO12
_symmetry_space_group_name_H-M   'P 1'
_cell_length_a   6.71703679
_cell_length_b   6.71703679
_cell_length_c   6.71703679
_cell_angle_alpha   109.47122063
_cell_angle_beta   109.47122063
_cell_angle_gamma   109.47122063
_symmetry_Int_Tables_number   1
_chemical_formula_structural   Zn4B6SeO12
_chemical_formula_sum   'Zn4 B6 Se1 O12'
_cell_volume   233.29814766
_cell_formula_units_Z   1
loop_
 _symmetry_equiv_pos_site_id
 _symmetry_equiv_pos_as_xyz
  1  'x, y, z'
loop_
 _atom_site_type_symbol
 _atom_site_label
 _atom_site_symmetry_multiplicity
 _atom_site_fract_x
 _atom_site_fract_y
 _atom_site_fract_z
 _atom_site_occupancy
  Zn  Zn0  1  0.00000000  0.00000000  0.35477300  1
  Zn  Zn1  1  0.35477300  0.00000000  0.00000000  1
  Zn  Zn2  1  0.00000000  0.35477300  0.00000000  1
  Zn  Zn3  1  0.64522700  0.64522700  0.64522700  1
  B  B4  1  0.25000000  0.50000000  0.75000000  1
  B  B5  1  0.50000000  0.75000000  0.25000000  1
  B  B6  1  0.50000000  0.25000000  0.75000000  1
  B  B7  1  0.75000000  0.25000000  0.50000000  1
  B  B8  1  0.25000000  0.75000000  0.50000000  1
  B  B9  1  0.75000000  0.50000000  0.25000000  1
  Se  Se10  1  0.00000000  0.00000000  0.00000000  1
  O  O11  1  0.71456700  0.71456700  0.28814500  1
  O  O12  1  0.57357900  0.28543300  0.00000000  1
  O  O13  1  0.28543300  0.57357900  0.00000000  1
  O  O14  1  0.42642100  0.71185500  0.42642100  1
  O  O15  1  0.57357900  0.00000000  0.28543300  1
  O  O16  1  0.00000000  0.57357900  0.28543300  1
  O  O17  1  0.71185500  0.42642100  0.42642100  1
  O  O18  1  0.28814500  0.71456700  0.71456700  1
  O  O19  1  0.71456700  0.28814500  0.71456700  1
  O  O20  1  0.28543300  0.00000000  0.57357900  1
  O  O21  1  0.00000000  0.28543300  0.57357900  1
  O  O22  1  0.42642100  0.42642100  0.71185500  1
