# generated using pymatgen
data_KCd6P7O24
_symmetry_space_group_name_H-M   'P 1'
_cell_length_a   27.64271500
_cell_length_b   5.59139700
_cell_length_c   6.88437662
_cell_angle_alpha   72.83594819
_cell_angle_beta   90.00000000
_cell_angle_gamma   90.00000000
_symmetry_Int_Tables_number   1
_chemical_formula_structural   KCd6P7O24
_chemical_formula_sum   'K2 Cd12 P14 O48'
_cell_volume   1016.66960791
_cell_formula_units_Z   2
loop_
 _symmetry_equiv_pos_site_id
 _symmetry_equiv_pos_as_xyz
  1  'x, y, z'
loop_
 _atom_site_type_symbol
 _atom_site_label
 _atom_site_symmetry_multiplicity
 _atom_site_fract_x
 _atom_site_fract_y
 _atom_site_fract_z
 _atom_site_occupancy
  K  K0  1  0.75000000  0.28146700  0.63325400  1
  K  K1  1  0.25000000  0.71853300  0.36674600  1
  Cd  Cd2  1  0.31755100  0.10902400  0.70577700  1
  Cd  Cd3  1  0.45679100  0.18114800  0.31229300  1
  Cd  Cd4  1  0.04320900  0.18114800  0.31229300  1
  Cd  Cd5  1  0.54320900  0.81885200  0.68770700  1
  Cd  Cd6  1  0.81755100  0.89097600  0.29422300  1
  Cd  Cd7  1  0.95679100  0.81885200  0.68770700  1
  Cd  Cd8  1  0.18244900  0.10902400  0.70577700  1
  Cd  Cd9  1  0.68244900  0.89097600  0.29422300  1
  Cd  Cd10  1  0.90147500  0.21573900  0.91969200  1
  Cd  Cd11  1  0.40147500  0.78426100  0.08030800  1
  Cd  Cd12  1  0.09852500  0.78426100  0.08030800  1
  Cd  Cd13  1  0.59852500  0.21573900  0.91969200  1
  P  P14  1  0.10846200  0.67202700  0.60780500  1
  P  P15  1  0.60846200  0.32797300  0.39219500  1
  P  P16  1  0.89153800  0.32797300  0.39219500  1
  P  P17  1  0.39153800  0.67202700  0.60780500  1
  P  P18  1  0.83034400  0.75673300  0.82327300  1
  P  P19  1  0.33034400  0.24326700  0.17672700  1
  P  P20  1  0.16965600  0.24326700  0.17672700  1
  P  P21  1  0.66965600  0.75673300  0.82327300  1
  P  P22  1  0.25000000  0.52530000  0.89683300  1
  P  P23  1  0.75000000  0.47470000  0.10316700  1
  P  P24  1  0.02510400  0.29107800  0.79025200  1
  P  P25  1  0.97489600  0.70892200  0.20974800  1
  P  P26  1  0.47489600  0.29107800  0.79025200  1
  P  P27  1  0.52510400  0.70892200  0.20974800  1
  O  O28  1  0.02092200  0.13871100  0.63804200  1
  O  O29  1  0.52092200  0.86128900  0.36195800  1
  O  O30  1  0.97907800  0.86128900  0.36195800  1
  O  O31  1  0.47907800  0.13871100  0.63804200  1
  O  O32  1  0.97673300  0.41001900  0.82430900  1
  O  O33  1  0.47673300  0.58998100  0.17569100  1
  O  O34  1  0.02326700  0.58998100  0.17569100  1
  O  O35  1  0.52326700  0.41001900  0.82430900  1
  O  O36  1  0.04864600  0.13731600  0.98937400  1
  O  O37  1  0.54864600  0.86268400  0.01062600  1
  O  O38  1  0.95135400  0.86268400  0.01062600  1
  O  O39  1  0.45135400  0.13731600  0.98937400  1
  O  O40  1  0.05789300  0.53520300  0.69308000  1
  O  O41  1  0.55789300  0.46479700  0.30692000  1
  O  O42  1  0.09541900  0.84840100  0.39662400  1
  O  O43  1  0.44210700  0.53520300  0.69308000  1
  O  O44  1  0.75000000  0.19784800  0.22089300  1
  O  O45  1  0.25000000  0.80215200  0.77910700  1
  O  O46  1  0.75000000  0.65561500  0.23086800  1
  O  O47  1  0.94210700  0.46479700  0.30692000  1
  O  O48  1  0.70433500  0.51890200  0.95555600  1
  O  O49  1  0.20433500  0.48109800  0.04444400  1
  O  O50  1  0.29566500  0.48109800  0.04444400  1
  O  O51  1  0.79566500  0.51890200  0.95555600  1
  O  O52  1  0.14710200  0.48598900  0.59785600  1
  O  O53  1  0.64710200  0.51401100  0.40214400  1
  O  O54  1  0.85289800  0.51401100  0.40214400  1
  O  O55  1  0.35289800  0.48598900  0.59785600  1
  O  O56  1  0.66740800  0.94289600  0.94972000  1
  O  O57  1  0.16740800  0.05710400  0.05028000  1
  O  O58  1  0.33259200  0.05710400  0.05028000  1
  O  O59  1  0.83259200  0.94289600  0.94972000  1
  O  O60  1  0.62211800  0.62321400  0.81004500  1
  O  O61  1  0.12211800  0.37678600  0.18995500  1
  O  O62  1  0.37788200  0.37678600  0.18995500  1
  O  O63  1  0.87788200  0.62321400  0.81004500  1
  O  O64  1  0.69610300  0.86711400  0.62334600  1
  O  O65  1  0.19610300  0.13288600  0.37665400  1
  O  O66  1  0.30389700  0.13288600  0.37665400  1
  O  O67  1  0.80389700  0.86711400  0.62334600  1
  O  O68  1  0.12068400  0.82631100  0.75481400  1
  O  O69  1  0.62068400  0.17368900  0.24518600  1
  O  O70  1  0.87931600  0.17368900  0.24518600  1
  O  O71  1  0.37931600  0.82631100  0.75481400  1
  O  O72  1  0.40458100  0.84840100  0.39662400  1
  O  O73  1  0.90458100  0.15159900  0.60337600  1
  O  O74  1  0.59541900  0.15159900  0.60337600  1
  O  O75  1  0.25000000  0.34438500  0.76913200  1
