# generated using pymatgen
data_Zr4N3OF5
_symmetry_space_group_name_H-M   'P 1'
_cell_length_a   5.44414000
_cell_length_b   5.21161200
_cell_length_c   21.82127138
_cell_angle_alpha   89.80422594
_cell_angle_beta   90.00000000
_cell_angle_gamma   90.00000000
_symmetry_Int_Tables_number   1
_chemical_formula_structural   Zr4N3OF5
_chemical_formula_sum   'Zr16 N12 O4 F20'
_cell_volume   619.12576204
_cell_formula_units_Z   4
loop_
 _symmetry_equiv_pos_site_id
 _symmetry_equiv_pos_as_xyz
  1  'x, y, z'
loop_
 _atom_site_type_symbol
 _atom_site_label
 _atom_site_symmetry_multiplicity
 _atom_site_fract_x
 _atom_site_fract_y
 _atom_site_fract_z
 _atom_site_occupancy
  Zr  Zr0  1  0.71898600  0.81829200  0.12753400  1
  Zr  Zr1  1  0.28101400  0.18170800  0.87246600  1
  Zr  Zr2  1  0.21898600  0.18170800  0.37246600  1
  Zr  Zr3  1  0.78101400  0.81829200  0.62753400  1
  Zr  Zr4  1  0.27646100  0.81080000  0.24977500  1
  Zr  Zr5  1  0.72353900  0.18920000  0.75022500  1
  Zr  Zr6  1  0.77646100  0.18920000  0.25022500  1
  Zr  Zr7  1  0.22353900  0.81080000  0.74977500  1
  Zr  Zr8  1  0.72533800  0.79678400  0.37091300  1
  Zr  Zr9  1  0.27466200  0.20321600  0.62908700  1
  Zr  Zr10  1  0.22533800  0.20321600  0.12908700  1
  Zr  Zr11  1  0.77466200  0.79678400  0.87091300  1
  Zr  Zr12  1  0.73051800  0.19567900  0.99881600  1
  Zr  Zr13  1  0.26948200  0.80432100  0.00118400  1
  Zr  Zr14  1  0.23051800  0.80432100  0.50118400  1
  Zr  Zr15  1  0.76948200  0.19567900  0.49881600  1
  N  N16  1  0.96533300  0.96735800  0.43780000  1
  N  N17  1  0.03466700  0.03264200  0.56220000  1
  N  N18  1  0.46533300  0.03264200  0.06220000  1
  N  N19  1  0.53466700  0.96735800  0.93780000  1
  N  N20  1  0.49551900  0.96245300  0.68548800  1
  N  N21  1  0.50448100  0.03754700  0.31451200  1
  N  N22  1  0.99551900  0.03754700  0.81451200  1
  N  N23  1  0.00448100  0.96245300  0.18548800  1
  N  N24  1  0.00436800  0.95559000  0.31215600  1
  N  N25  1  0.99563200  0.04441000  0.68784400  1
  N  N26  1  0.50436800  0.04441000  0.18784400  1
  N  N27  1  0.49563200  0.95559000  0.81215600  1
  O  O28  1  0.46642200  0.00554800  0.43988300  1
  O  O29  1  0.53357800  0.99445200  0.56011700  1
  O  O30  1  0.96642200  0.99445200  0.06011700  1
  O  O31  1  0.03357800  0.00554800  0.93988300  1
  F  F32  1  0.63388300  0.57536100  0.25298100  1
  F  F33  1  0.36611700  0.42463900  0.74701900  1
  F  F34  1  0.13388300  0.42463900  0.24701900  1
  F  F35  1  0.86611700  0.57536100  0.75298100  1
  F  F36  1  0.62695500  0.55356800  0.04658300  1
  F  F37  1  0.37304500  0.44643200  0.95341700  1
  F  F38  1  0.12695500  0.44643200  0.45341700  1
  F  F39  1  0.87304500  0.55356800  0.54658300  1
  F  F40  1  0.62884600  0.51189700  0.44626600  1
  F  F41  1  0.37115400  0.48810300  0.55373400  1
  F  F42  1  0.12884600  0.48810300  0.05373400  1
  F  F43  1  0.87115400  0.51189700  0.94626600  1
  F  F44  1  0.86752600  0.44038500  0.14971000  1
  F  F45  1  0.13247400  0.55961500  0.85029000  1
  F  F46  1  0.36752600  0.55961500  0.35029000  1
  F  F47  1  0.63247400  0.44038500  0.64971000  1
  F  F48  1  0.88644700  0.42973500  0.34762300  1
  F  F49  1  0.11355300  0.57026500  0.65237700  1
  F  F50  1  0.38644700  0.57026500  0.15237700  1
  F  F51  1  0.61355300  0.42973500  0.84762300  1
