# generated using pymatgen
data_Cs3InP2
_symmetry_space_group_name_H-M   'P 1'
_cell_length_a   9.87516600
_cell_length_b   13.11483109
_cell_length_c   16.05420576
_cell_angle_alpha   80.97425179
_cell_angle_beta   81.49121204
_cell_angle_gamma   70.76418327
_symmetry_Int_Tables_number   1
_chemical_formula_structural   Cs3InP2
_chemical_formula_sum   'Cs24 In8 P16'
_cell_volume   1928.44891517
_cell_formula_units_Z   8
loop_
 _symmetry_equiv_pos_site_id
 _symmetry_equiv_pos_as_xyz
  1  'x, y, z'
loop_
 _atom_site_type_symbol
 _atom_site_label
 _atom_site_symmetry_multiplicity
 _atom_site_fract_x
 _atom_site_fract_y
 _atom_site_fract_z
 _atom_site_occupancy
  Cs  Cs0  1  0.95666300  0.51525700  0.79952600  1
  Cs  Cs1  1  0.04333700  0.48474300  0.20047400  1
  Cs  Cs2  1  0.58793300  0.01446700  0.18862600  1
  Cs  Cs3  1  0.41206700  0.98553300  0.81137400  1
  Cs  Cs4  1  0.59644100  0.66694100  0.17888600  1
  Cs  Cs5  1  0.40355900  0.33305900  0.82111400  1
  Cs  Cs6  1  0.85191700  0.76813500  0.32482900  1
  Cs  Cs7  1  0.14808300  0.23186500  0.67517100  1
  Cs  Cs8  1  0.45766400  0.35205100  0.08575000  1
  Cs  Cs9  1  0.54233600  0.64794900  0.91425000  1
  Cs  Cs10  1  0.21238400  0.96364000  0.24693500  1
  Cs  Cs11  1  0.78761600  0.03636000  0.75306500  1
  Cs  Cs12  1  0.78152600  0.30743200  0.88542300  1
  Cs  Cs13  1  0.21847400  0.69256800  0.11457700  1
  Cs  Cs14  1  0.88869500  0.16453500  0.51469900  1
  Cs  Cs15  1  0.11130500  0.83546500  0.48530100  1
  Cs  Cs16  1  0.73018500  0.77099200  0.64552100  1
  Cs  Cs17  1  0.26981500  0.22900800  0.35447900  1
  Cs  Cs18  1  0.52117600  0.63542300  0.46138000  1
  Cs  Cs19  1  0.47882400  0.36457700  0.53862000  1
  Cs  Cs20  1  0.76486300  0.32872400  0.26499300  1
  Cs  Cs21  1  0.23513700  0.67127600  0.73500700  1
  Cs  Cs22  1  0.93972400  0.10074900  0.08442600  1
  Cs  Cs23  1  0.06027600  0.89925100  0.91557400  1
  In  In24  1  0.08348100  0.35592600  0.00920200  1
  In  In25  1  0.91651900  0.64407400  0.99079800  1
  In  In26  1  0.33665400  0.10618100  0.01279700  1
  In  In27  1  0.66334600  0.89381900  0.98720300  1
  In  In28  1  0.63849100  0.02358400  0.43807500  1
  In  In29  1  0.36150900  0.97641600  0.56192500  1
  In  In30  1  0.13514700  0.51446200  0.42746700  1
  In  In31  1  0.86485300  0.48553800  0.57253300  1
  P  P32  1  0.60650900  0.10885000  0.96114000  1
  P  P33  1  0.39349100  0.89115000  0.03886000  1
  P  P34  1  0.53428400  0.08003300  0.58653200  1
  P  P35  1  0.46571600  0.91996700  0.41346800  1
  P  P36  1  0.14369400  0.20769700  0.90172100  1
  P  P37  1  0.85630600  0.79230300  0.09827900  1
  P  P38  1  0.81024900  0.47556300  0.03875300  1
  P  P39  1  0.18975100  0.52443700  0.96124700  1
  P  P40  1  0.19868900  0.21842700  0.14147800  1
  P  P41  1  0.80131100  0.78157300  0.85852200  1
  P  P42  1  0.91152900  0.45162700  0.41647900  1
  P  P43  1  0.08847100  0.54837300  0.58352100  1
  P  P44  1  0.84862600  0.04335400  0.34055300  1
  P  P45  1  0.15137400  0.95664600  0.65944700  1
  P  P46  1  0.34042800  0.52110000  0.31948300  1
  P  P47  1  0.65957200  0.47890000  0.68051700  1
