# generated using pymatgen
data_Sm4CdIr
_symmetry_space_group_name_H-M   'P 1'
_cell_length_a   9.83696266
_cell_length_b   9.83696266
_cell_length_c   9.83696266
_cell_angle_alpha   60.00000000
_cell_angle_beta   60.00000000
_cell_angle_gamma   60.00000000
_symmetry_Int_Tables_number   1
_chemical_formula_structural   Sm4CdIr
_chemical_formula_sum   'Sm16 Cd4 Ir4'
_cell_volume   673.08214511
_cell_formula_units_Z   4
loop_
 _symmetry_equiv_pos_site_id
 _symmetry_equiv_pos_as_xyz
  1  'x, y, z'
loop_
 _atom_site_type_symbol
 _atom_site_label
 _atom_site_symmetry_multiplicity
 _atom_site_fract_x
 _atom_site_fract_y
 _atom_site_fract_z
 _atom_site_occupancy
  Sm  Sm0  1  0.59847000  0.59847000  0.59847000  1
  Sm  Sm1  1  0.59847000  0.59847000  0.20458900  1
  Sm  Sm2  1  0.59847000  0.20458900  0.59847000  1
  Sm  Sm3  1  0.20458900  0.59847000  0.59847000  1
  Sm  Sm4  1  0.06099300  0.43900700  0.43900700  1
  Sm  Sm5  1  0.43900700  0.06099300  0.06099300  1
  Sm  Sm6  1  0.43900700  0.06099300  0.43900700  1
  Sm  Sm7  1  0.06099300  0.43900700  0.06099300  1
  Sm  Sm8  1  0.43900700  0.43900700  0.06099300  1
  Sm  Sm9  1  0.06099300  0.06099300  0.43900700  1
  Sm  Sm10  1  0.18731500  0.81268500  0.81268500  1
  Sm  Sm11  1  0.81268500  0.18731500  0.18731500  1
  Sm  Sm12  1  0.81268500  0.18731500  0.81268500  1
  Sm  Sm13  1  0.18731500  0.81268500  0.18731500  1
  Sm  Sm14  1  0.81268500  0.81268500  0.18731500  1
  Sm  Sm15  1  0.18731500  0.18731500  0.81268500  1
  Cd  Cd16  1  0.83060500  0.83060500  0.83060500  1
  Cd  Cd17  1  0.83060500  0.83060500  0.50818400  1
  Cd  Cd18  1  0.83060500  0.50818400  0.83060500  1
  Cd  Cd19  1  0.50818400  0.83060500  0.83060500  1
  Ir  Ir20  1  0.39152000  0.39152000  0.39152000  1
  Ir  Ir21  1  0.39152000  0.39152000  0.82543900  1
  Ir  Ir22  1  0.39152000  0.82543900  0.39152000  1
  Ir  Ir23  1  0.82543900  0.39152000  0.39152000  1
