# generated using pymatgen
data_K3ScV2O8
_symmetry_space_group_name_H-M   'P 1'
_cell_length_a   5.83392230
_cell_length_b   5.83392230
_cell_length_c   7.48686100
_cell_angle_alpha   90.00000000
_cell_angle_beta   90.00000000
_cell_angle_gamma   120.00000338
_symmetry_Int_Tables_number   1
_chemical_formula_structural   K3ScV2O8
_chemical_formula_sum   'K3 Sc1 V2 O8'
_cell_volume   220.67425445
_cell_formula_units_Z   1
loop_
 _symmetry_equiv_pos_site_id
 _symmetry_equiv_pos_as_xyz
  1  'x, y, z'
loop_
 _atom_site_type_symbol
 _atom_site_label
 _atom_site_symmetry_multiplicity
 _atom_site_fract_x
 _atom_site_fract_y
 _atom_site_fract_z
 _atom_site_occupancy
  K  K0  1  0.33333300  0.66666700  0.67646100  1
  K  K1  1  0.66666700  0.33333300  0.32353900  1
  K  K2  1  0.00000000  0.00000000  0.00000000  1
  Sc  Sc3  1  0.00000000  0.00000000  0.50000000  1
  V  V4  1  0.33333300  0.66666700  0.24619500  1
  V  V5  1  0.66666700  0.33333300  0.75380500  1
  O  O6  1  0.33333300  0.66666700  0.02169200  1
  O  O7  1  0.66666700  0.33333300  0.97830800  1
  O  O8  1  0.16955200  0.83044800  0.33020900  1
  O  O9  1  0.83044800  0.16955200  0.66979100  1
  O  O10  1  0.16955200  0.33910400  0.33020900  1
  O  O11  1  0.83044800  0.66089600  0.66979100  1
  O  O12  1  0.66089600  0.83044800  0.33020900  1
  O  O13  1  0.33910400  0.16955200  0.66979100  1
