# generated using pymatgen
data_Pr(LuS2)3
_symmetry_space_group_name_H-M   'P 1'
_cell_length_a   3.94802600
_cell_length_b   11.00358300
_cell_length_c   11.20936251
_cell_angle_alpha   70.94544758
_cell_angle_beta   90.00000000
_cell_angle_gamma   90.00000000
_symmetry_Int_Tables_number   1
_chemical_formula_structural   Pr(LuS2)3
_chemical_formula_sum   'Pr2 Lu6 S12'
_cell_volume   460.28042776
_cell_formula_units_Z   2
loop_
 _symmetry_equiv_pos_site_id
 _symmetry_equiv_pos_as_xyz
  1  'x, y, z'
loop_
 _atom_site_type_symbol
 _atom_site_label
 _atom_site_symmetry_multiplicity
 _atom_site_fract_x
 _atom_site_fract_y
 _atom_site_fract_z
 _atom_site_occupancy
  Pr  Pr0  1  0.75000000  0.55078900  0.80397700  1
  Pr  Pr1  1  0.25000000  0.44921100  0.19602300  1
  Lu  Lu2  1  0.75000000  0.17929300  0.00000400  1
  Lu  Lu3  1  0.25000000  0.82070700  0.99999600  1
  Lu  Lu4  1  0.75000000  0.94353900  0.66592100  1
  Lu  Lu5  1  0.25000000  0.05646100  0.33407900  1
  Lu  Lu6  1  0.75000000  0.66086900  0.41287300  1
  Lu  Lu7  1  0.25000000  0.33913100  0.58712700  1
  S  S8  1  0.75000000  0.97790400  0.88832800  1
  S  S9  1  0.25000000  0.02209600  0.11167200  1
  S  S10  1  0.75000000  0.30208800  0.74857800  1
  S  S11  1  0.25000000  0.69791200  0.25142200  1
  S  S12  1  0.75000000  0.89268600  0.44240100  1
  S  S13  1  0.25000000  0.10731400  0.55759900  1
  S  S14  1  0.75000000  0.41922100  0.40762700  1
  S  S15  1  0.25000000  0.58077900  0.59237300  1
  S  S16  1  0.75000000  0.23030900  0.23019000  1
  S  S17  1  0.25000000  0.76969100  0.76981000  1
  S  S18  1  0.75000000  0.62125200  0.03610800  1
  S  S19  1  0.25000000  0.37874800  0.96389200  1
