# generated using pymatgen
data_RbFeI4
_symmetry_space_group_name_H-M   'P 1'
_cell_length_a   18.36639200
_cell_length_b   7.44348300
_cell_length_c   8.49516773
_cell_angle_alpha   73.52967488
_cell_angle_beta   90.00000000
_cell_angle_gamma   90.00000000
_symmetry_Int_Tables_number   1
_chemical_formula_structural   RbFeI4
_chemical_formula_sum   'Rb4 Fe4 I16'
_cell_volume   1113.71876416
_cell_formula_units_Z   4
loop_
 _symmetry_equiv_pos_site_id
 _symmetry_equiv_pos_as_xyz
  1  'x, y, z'
loop_
 _atom_site_type_symbol
 _atom_site_label
 _atom_site_symmetry_multiplicity
 _atom_site_fract_x
 _atom_site_fract_y
 _atom_site_fract_z
 _atom_site_occupancy
  Rb  Rb0  1  0.13115100  0.18936800  0.70890700  1
  Rb  Rb1  1  0.86884900  0.81063200  0.29109300  1
  Rb  Rb2  1  0.63115100  0.81063200  0.79109300  1
  Rb  Rb3  1  0.36884900  0.18936800  0.20890700  1
  Fe  Fe4  1  0.37238300  0.81570100  0.79743200  1
  Fe  Fe5  1  0.62761700  0.18429900  0.20256800  1
  Fe  Fe6  1  0.87238300  0.18429900  0.70256800  1
  Fe  Fe7  1  0.12761700  0.81570100  0.29743200  1
  I  I8  1  0.25096100  0.64519700  0.85623600  1
  I  I9  1  0.74903900  0.35480300  0.14376400  1
  I  I10  1  0.75096100  0.35480300  0.64376400  1
  I  I11  1  0.24903900  0.64519700  0.35623600  1
  I  I12  1  0.05217600  0.73022000  0.56420400  1
  I  I13  1  0.94782400  0.26978000  0.43579600  1
  I  I14  1  0.55217600  0.26978000  0.93579600  1
  I  I15  1  0.44782400  0.73022000  0.06420400  1
  I  I16  1  0.44749500  0.73214100  0.57365700  1
  I  I17  1  0.55250500  0.26785900  0.42634300  1
  I  I18  1  0.94749500  0.26785900  0.92634300  1
  I  I19  1  0.05250500  0.73214100  0.07365700  1
  I  I20  1  0.84462000  0.82823500  0.78972600  1
  I  I21  1  0.15538000  0.17176500  0.21027400  1
  I  I22  1  0.34462000  0.17176500  0.71027400  1
  I  I23  1  0.65538000  0.82823500  0.28972600  1
