# generated using pymatgen
data_AgSO4
_symmetry_space_group_name_H-M   'P 1'
_cell_length_a   9.71860589
_cell_length_b   10.13128581
_cell_length_c   10.13128581
_cell_angle_alpha   89.25211093
_cell_angle_beta   121.38533821
_cell_angle_gamma   121.38533821
_symmetry_Int_Tables_number   1
_chemical_formula_structural   AgSO4
_chemical_formula_sum   'Ag8 S8 O32'
_cell_volume   679.84314333
_cell_formula_units_Z   8
loop_
 _symmetry_equiv_pos_site_id
 _symmetry_equiv_pos_as_xyz
  1  'x, y, z'
loop_
 _atom_site_type_symbol
 _atom_site_label
 _atom_site_symmetry_multiplicity
 _atom_site_fract_x
 _atom_site_fract_y
 _atom_site_fract_z
 _atom_site_occupancy
  Ag  Ag0  1  0.50000000  0.00000000  0.00000000  1
  Ag  Ag1  1  0.00000000  0.00000000  0.00000000  1
  Ag  Ag2  1  0.00000000  0.50000000  0.50000000  1
  Ag  Ag3  1  0.50000000  0.50000000  0.50000000  1
  Ag  Ag4  1  0.00000000  0.00000000  0.50000000  1
  Ag  Ag5  1  0.50000000  0.50000000  0.00000000  1
  Ag  Ag6  1  0.50000000  0.00000000  0.50000000  1
  Ag  Ag7  1  0.00000000  0.50000000  0.00000000  1
  S  S8  1  0.49977600  0.29283300  0.76447100  1
  S  S9  1  0.00022400  0.23552900  0.70716700  1
  S  S10  1  0.50022400  0.70716700  0.23552900  1
  S  S11  1  0.99977600  0.76447100  0.29283300  1
  S  S12  1  0.99709700  0.25420900  0.20403000  1
  S  S13  1  0.50290300  0.79597000  0.74579100  1
  S  S14  1  0.00290300  0.74579100  0.79597000  1
  S  S15  1  0.49709700  0.20403000  0.25420900  1
  O  O16  1  0.52449300  0.70651000  0.10101800  1
  O  O17  1  0.97550700  0.89898200  0.29349000  1
  O  O18  1  0.47550700  0.29349000  0.89898200  1
  O  O19  1  0.02449300  0.10101800  0.70651000  1
  O  O20  1  0.17412400  0.37572100  0.86838900  1
  O  O21  1  0.32587600  0.13161100  0.62427900  1
  O  O22  1  0.82587600  0.62427900  0.13161100  1
  O  O23  1  0.67412400  0.86838900  0.37572100  1
  O  O24  1  0.82142100  0.17940000  0.70216600  1
  O  O25  1  0.67857900  0.29783400  0.82060000  1
  O  O26  1  0.17857900  0.82060000  0.29783400  1
  O  O27  1  0.32142100  0.70216600  0.17940000  1
  O  O28  1  0.98241700  0.28247400  0.56203100  1
  O  O29  1  0.51758300  0.43796900  0.71752600  1
  O  O30  1  0.01758300  0.71752600  0.43796900  1
  O  O31  1  0.48241700  0.56203100  0.28247400  1
  O  O32  1  0.50000300  0.80409000  0.59631800  1
  O  O33  1  0.99999700  0.40368200  0.19591000  1
  O  O34  1  0.49999700  0.19591000  0.40368200  1
  O  O35  1  0.00000300  0.59631800  0.80409000  1
  O  O36  1  0.67982200  0.80341900  0.87898000  1
  O  O37  1  0.82017800  0.12102000  0.19658100  1
  O  O38  1  0.32017800  0.19658100  0.12102000  1
  O  O39  1  0.17982200  0.87898000  0.80341900  1
  O  O40  1  0.32407400  0.63165900  0.70577900  1
  O  O41  1  0.17592600  0.29422100  0.36834100  1
  O  O42  1  0.67592600  0.36834100  0.29422100  1
  O  O43  1  0.82407400  0.70577900  0.63165900  1
  O  O44  1  0.50844400  0.93613000  0.79854400  1
  O  O45  1  0.99155600  0.20145600  0.06387000  1
  O  O46  1  0.49155600  0.06387000  0.20145600  1
  O  O47  1  0.00844400  0.79854400  0.93613000  1
