# generated using pymatgen
data_SmMoBrO4
_symmetry_space_group_name_H-M   'P 1'
_cell_length_a   7.00344700
_cell_length_b   7.43203607
_cell_length_c   11.24542592
_cell_angle_alpha   106.20636012
_cell_angle_beta   106.94855967
_cell_angle_gamma   92.33995204
_symmetry_Int_Tables_number   1
_chemical_formula_structural   SmMoBrO4
_chemical_formula_sum   'Sm4 Mo4 Br4 O16'
_cell_volume   532.87347615
_cell_formula_units_Z   4
loop_
 _symmetry_equiv_pos_site_id
 _symmetry_equiv_pos_as_xyz
  1  'x, y, z'
loop_
 _atom_site_type_symbol
 _atom_site_label
 _atom_site_symmetry_multiplicity
 _atom_site_fract_x
 _atom_site_fract_y
 _atom_site_fract_z
 _atom_site_occupancy
  Sm  Sm0  1  0.64333500  0.12495400  0.73021200  1
  Sm  Sm1  1  0.35666500  0.87504600  0.26978800  1
  Sm  Sm2  1  0.39499000  0.64689800  0.76898700  1
  Sm  Sm3  1  0.60501000  0.35310200  0.23101300  1
  Mo  Mo4  1  0.73433400  0.81568900  0.13377900  1
  Mo  Mo5  1  0.26566600  0.18431100  0.86622100  1
  Mo  Mo6  1  0.77480200  0.59162200  0.63053400  1
  Mo  Mo7  1  0.22519800  0.40837800  0.36946600  1
  Br  Br8  1  0.25793400  0.97631400  0.51754100  1
  Br  Br9  1  0.74206600  0.02368600  0.48245900  1
  Br  Br10  1  0.19577500  0.71498300  0.98113800  1
  Br  Br11  1  0.80422500  0.28501700  0.01886200  1
  O  O12  1  0.67386600  0.72965200  0.96124600  1
  O  O13  1  0.32613400  0.27034800  0.03875400  1
  O  O14  1  0.99939700  0.86550900  0.20702300  1
  O  O15  1  0.00060300  0.13449100  0.79297700  1
  O  O16  1  0.62495500  0.65673600  0.20137100  1
  O  O17  1  0.37504500  0.34326400  0.79862900  1
  O  O18  1  0.39163500  0.97897200  0.81965100  1
  O  O19  1  0.60836500  0.02102800  0.18034900  1
  O  O20  1  0.04043800  0.63859000  0.67733000  1
  O  O21  1  0.95956200  0.36141000  0.32267000  1
  O  O22  1  0.69835900  0.42539500  0.70327000  1
  O  O23  1  0.30164100  0.57460500  0.29673000  1
  O  O24  1  0.67943500  0.50711400  0.45651200  1
  O  O25  1  0.32056500  0.49288600  0.54348800  1
  O  O26  1  0.65985900  0.79652000  0.69886100  1
  O  O27  1  0.34014100  0.20348000  0.30113900  1
