# generated using pymatgen
data_Tm4CdPt
_symmetry_space_group_name_H-M   'P 1'
_cell_length_a   9.53850420
_cell_length_b   9.53850420
_cell_length_c   9.53850420
_cell_angle_alpha   60.00000000
_cell_angle_beta   60.00000000
_cell_angle_gamma   60.00000000
_symmetry_Int_Tables_number   1
_chemical_formula_structural   Tm4CdPt
_chemical_formula_sum   'Tm16 Cd4 Pt4'
_cell_volume   613.65719070
_cell_formula_units_Z   4
loop_
 _symmetry_equiv_pos_site_id
 _symmetry_equiv_pos_as_xyz
  1  'x, y, z'
loop_
 _atom_site_type_symbol
 _atom_site_label
 _atom_site_symmetry_multiplicity
 _atom_site_fract_x
 _atom_site_fract_y
 _atom_site_fract_z
 _atom_site_occupancy
  Tm  Tm0  1  0.35276700  0.35276700  0.35276700  1
  Tm  Tm1  1  0.35276700  0.35276700  0.94170000  1
  Tm  Tm2  1  0.35276700  0.94170000  0.35276700  1
  Tm  Tm3  1  0.94170000  0.35276700  0.35276700  1
  Tm  Tm4  1  0.81121400  0.18878600  0.18878600  1
  Tm  Tm5  1  0.18878600  0.81121400  0.81121400  1
  Tm  Tm6  1  0.18878600  0.81121400  0.18878600  1
  Tm  Tm7  1  0.81121400  0.18878600  0.81121400  1
  Tm  Tm8  1  0.18878600  0.18878600  0.81121400  1
  Tm  Tm9  1  0.81121400  0.81121400  0.18878600  1
  Tm  Tm10  1  0.93464800  0.56535200  0.56535200  1
  Tm  Tm11  1  0.56535200  0.93464800  0.93464800  1
  Tm  Tm12  1  0.56535200  0.93464800  0.56535200  1
  Tm  Tm13  1  0.93464800  0.56535200  0.93464800  1
  Tm  Tm14  1  0.56535200  0.56535200  0.93464800  1
  Tm  Tm15  1  0.93464800  0.93464800  0.56535200  1
  Cd  Cd16  1  0.58242400  0.58242400  0.58242400  1
  Cd  Cd17  1  0.58242400  0.58242400  0.25272800  1
  Cd  Cd18  1  0.58242400  0.25272800  0.58242400  1
  Cd  Cd19  1  0.25272800  0.58242400  0.58242400  1
  Pt  Pt20  1  0.14348600  0.14348600  0.14348600  1
  Pt  Pt21  1  0.14348600  0.14348600  0.56954300  1
  Pt  Pt22  1  0.14348600  0.56954300  0.14348600  1
  Pt  Pt23  1  0.56954300  0.14348600  0.14348600  1
