# generated using pymatgen
data_CsSc3F10
_symmetry_space_group_name_H-M   'P 1'
_cell_length_a   6.94820600
_cell_length_b   7.66739800
_cell_length_c   8.21462400
_cell_angle_alpha   90.00000000
_cell_angle_beta   90.00000000
_cell_angle_gamma   90.00000000
_symmetry_Int_Tables_number   1
_chemical_formula_structural   CsSc3F10
_chemical_formula_sum   'Cs2 Sc6 F20'
_cell_volume   437.63130710
_cell_formula_units_Z   2
loop_
 _symmetry_equiv_pos_site_id
 _symmetry_equiv_pos_as_xyz
  1  'x, y, z'
loop_
 _atom_site_type_symbol
 _atom_site_label
 _atom_site_symmetry_multiplicity
 _atom_site_fract_x
 _atom_site_fract_y
 _atom_site_fract_z
 _atom_site_occupancy
  Cs  Cs0  1  0.99115400  0.50000000  0.00000000  1
  Cs  Cs1  1  0.00884600  0.50000000  0.50000000  1
  Sc  Sc2  1  0.00000000  0.00411000  0.25000000  1
  Sc  Sc3  1  0.00000000  0.99589100  0.75000000  1
  Sc  Sc4  1  0.50000000  0.73761800  0.25000000  1
  Sc  Sc5  1  0.50000000  0.26238200  0.75000000  1
  Sc  Sc6  1  0.50000000  0.27431400  0.25000000  1
  Sc  Sc7  1  0.50000000  0.72568600  0.75000000  1
  F  F8  1  0.32972700  0.50471900  0.24200300  1
  F  F9  1  0.67027300  0.49528100  0.74200300  1
  F  F10  1  0.67027300  0.50471900  0.25799700  1
  F  F11  1  0.32972700  0.49528100  0.75799700  1
  F  F12  1  0.50000000  0.00580800  0.25000000  1
  F  F13  1  0.50000000  0.99419200  0.75000000  1
  F  F14  1  0.20180700  0.18818600  0.73922500  1
  F  F15  1  0.79819300  0.81181400  0.23922500  1
  F  F16  1  0.79819300  0.18818600  0.76077500  1
  F  F17  1  0.20180700  0.81181400  0.26077500  1
  F  F18  1  0.49901000  0.27358600  0.99988100  1
  F  F19  1  0.50099000  0.72641400  0.49988100  1
  F  F20  1  0.50099000  0.27358600  0.50011900  1
  F  F21  1  0.49901000  0.72641400  0.00011900  1
  F  F22  1  0.01316000  0.00000000  0.00000000  1
  F  F23  1  0.98684000  0.00000000  0.50000000  1
  F  F24  1  0.19950700  0.19853100  0.25857000  1
  F  F25  1  0.80049300  0.80146900  0.75857000  1
  F  F26  1  0.80049300  0.19853100  0.24143000  1
  F  F27  1  0.19950700  0.80146900  0.74143000  1
