# generated using pymatgen
data_CsEr10(C2I9)2
_symmetry_space_group_name_H-M   'P 1'
_cell_length_a   11.44200700
_cell_length_b   11.44180448
_cell_length_c   11.46452827
_cell_angle_alpha   93.24401259
_cell_angle_beta   109.84864402
_cell_angle_gamma   119.91124013
_symmetry_Int_Tables_number   1
_chemical_formula_structural   CsEr10(C2I9)2
_chemical_formula_sum   'Cs1 Er10 C4 I18'
_cell_volume   1175.78446227
_cell_formula_units_Z   1
loop_
 _symmetry_equiv_pos_site_id
 _symmetry_equiv_pos_as_xyz
  1  'x, y, z'
loop_
 _atom_site_type_symbol
 _atom_site_label
 _atom_site_symmetry_multiplicity
 _atom_site_fract_x
 _atom_site_fract_y
 _atom_site_fract_z
 _atom_site_occupancy
  Cs  Cs0  1  0.00000000  0.50000000  0.50000000  1
  Er  Er1  1  0.96221400  0.92688200  0.67828600  1
  Er  Er2  1  0.03778600  0.07311800  0.32171400  1
  Er  Er3  1  0.38522900  0.29297700  0.28802700  1
  Er  Er4  1  0.61477100  0.70702300  0.71197300  1
  Er  Er5  1  0.94531200  0.84233200  0.00081000  1
  Er  Er6  1  0.05468800  0.15766800  0.99919000  1
  Er  Er7  1  0.34966100  0.07467600  0.01511300  1
  Er  Er8  1  0.65033900  0.92532400  0.98488700  1
  Er  Er9  1  0.27226400  0.95485000  0.28473000  1
  Er  Er10  1  0.72773600  0.04515000  0.71527000  1
  C  C11  1  0.14137400  0.06728700  0.19524400  1
  C  C12  1  0.85862600  0.93271300  0.80475600  1
  C  C13  1  0.21782800  0.06711500  0.11848600  1
  C  C14  1  0.78217200  0.93288500  0.88151400  1
  I  I15  1  0.24282000  0.21655300  0.83107400  1
  I  I16  1  0.75718000  0.78344700  0.16892600  1
  I  I17  1  0.70314200  0.63737600  0.50240500  1
  I  I18  1  0.29685800  0.36262400  0.49759500  1
  I  I19  1  0.69237200  0.53033200  0.84781300  1
  I  I20  1  0.30762800  0.46966800  0.15218700  1
  I  I21  1  0.14264200  0.92339300  0.49650100  1
  I  I22  1  0.85735800  0.07660700  0.50349900  1
  I  I23  1  0.61727900  0.35953400  0.18125400  1
  I  I24  1  0.38272100  0.64046600  0.81874600  1
  I  I25  1  0.09659200  0.78104800  0.83040400  1
  I  I26  1  0.90340800  0.21895200  0.16959600  1
  I  I27  1  0.55914300  0.20554700  0.49417300  1
  I  I28  1  0.44085700  0.79445300  0.50582700  1
  I  I29  1  0.04084000  0.65881300  0.15764300  1
  I  I30  1  0.95916000  0.34118700  0.84235700  1
  I  I31  1  0.53218300  0.07949000  0.83357000  1
  I  I32  1  0.46781700  0.92051000  0.16643000  1
