# generated using pymatgen
data_K9Gd3Si12(O16F)2
_symmetry_space_group_name_H-M   'P 1'
_cell_length_a   6.97635400
_cell_length_b   11.53077156
_cell_length_c   11.60343317
_cell_angle_alpha   87.70589214
_cell_angle_beta   89.48721927
_cell_angle_gamma   80.19558197
_symmetry_Int_Tables_number   1
_chemical_formula_structural   K9Gd3Si12(O16F)2
_chemical_formula_sum   'K9 Gd3 Si12 O32 F2'
_cell_volume   919.03996646
_cell_formula_units_Z   1
loop_
 _symmetry_equiv_pos_site_id
 _symmetry_equiv_pos_as_xyz
  1  'x, y, z'
loop_
 _atom_site_type_symbol
 _atom_site_label
 _atom_site_symmetry_multiplicity
 _atom_site_fract_x
 _atom_site_fract_y
 _atom_site_fract_z
 _atom_site_occupancy
  K  K0  1  0.76504100  0.11500900  0.51693800  1
  K  K1  1  0.23495900  0.88499100  0.48306200  1
  K  K2  1  0.66950200  0.30866200  0.27826600  1
  K  K3  1  0.33049800  0.69133800  0.72173400  1
  K  K4  1  0.33205000  0.65356900  0.28647600  1
  K  K5  1  0.66795000  0.34643100  0.71352400  1
  K  K6  1  0.00000000  0.50000000  0.50000000  1
  K  K7  1  0.51750900  0.83048800  0.01062500  1
  K  K8  1  0.48249100  0.16951200  0.98937500  1
  Gd  Gd9  1  0.01402400  0.01346200  0.16541600  1
  Gd  Gd10  1  0.98597600  0.98653800  0.83458400  1
  Gd  Gd11  1  0.50000000  0.50000000  0.00000000  1
  Si  Si12  1  0.21504900  0.16709000  0.38185100  1
  Si  Si13  1  0.78495100  0.83291000  0.61814900  1
  Si  Si14  1  0.18852000  0.19543700  0.65961000  1
  Si  Si15  1  0.81148000  0.80456300  0.34039000  1
  Si  Si16  1  0.51714600  0.01491600  0.24324200  1
  Si  Si17  1  0.48285400  0.98508400  0.75675800  1
  Si  Si18  1  0.15721700  0.40964100  0.80436100  1
  Si  Si19  1  0.84278300  0.59035900  0.19563900  1
  Si  Si20  1  0.05399400  0.73331800  0.01082700  1
  Si  Si21  1  0.94600600  0.26668200  0.98917300  1
  Si  Si22  1  0.16149900  0.36190700  0.18872700  1
  Si  Si23  1  0.83850100  0.63809300  0.81127300  1
  O  O24  1  0.35443800  0.37402200  0.11748200  1
  O  O25  1  0.64556200  0.62597800  0.88251800  1
  O  O26  1  0.65399400  0.53504200  0.16820900  1
  O  O27  1  0.34600600  0.46495800  0.83179100  1
  O  O28  1  0.20692200  0.18975700  0.51961600  1
  O  O29  1  0.79307800  0.81024300  0.48038400  1
  O  O30  1  0.68951300  0.07745300  0.18952800  1
  O  O31  1  0.31048700  0.92254700  0.81047200  1
  O  O32  1  0.39809700  0.12420500  0.71191600  1
  O  O33  1  0.60190300  0.87579500  0.28808400  1
  O  O34  1  0.43261800  0.08464600  0.36268200  1
  O  O35  1  0.56738200  0.91535400  0.63731800  1
  O  O36  1  0.26932700  0.66314000  0.03871100  1
  O  O37  1  0.73067300  0.33686000  0.96128900  1
  O  O38  1  0.01235500  0.28729400  0.12524300  1
  O  O39  1  0.98764500  0.71270600  0.87475700  1
  O  O40  1  0.02715400  0.87615000  0.01754500  1
  O  O41  1  0.97284600  0.12385000  0.98245500  1
  O  O42  1  0.04128200  0.10304700  0.34185300  1
  O  O43  1  0.95871800  0.89695300  0.65814700  1
  O  O44  1  0.21654000  0.29666900  0.31688900  1
  O  O45  1  0.78346000  0.70333100  0.68311100  1
  O  O46  1  0.18728500  0.33610500  0.68349100  1
  O  O47  1  0.81271500  0.66389500  0.31650900  1
  O  O48  1  0.00039900  0.14737800  0.71076300  1
  O  O49  1  0.99960100  0.85262200  0.28923700  1
  O  O50  1  0.03828400  0.49132000  0.22400700  1
  O  O51  1  0.96171600  0.50868000  0.77599300  1
  O  O52  1  0.11235600  0.31618200  0.90703800  1
  O  O53  1  0.88764400  0.68381800  0.09296200  1
  O  O54  1  0.34122600  0.01015900  0.15473500  1
  O  O55  1  0.65877400  0.98984100  0.84526500  1
  F  F56  1  0.25387400  0.65682200  0.50416300  1
  F  F57  1  0.74612600  0.34317800  0.49583700  1
