# generated using pymatgen
data_Er6InCo2
_symmetry_space_group_name_H-M   'P 1'
_cell_length_a   8.27389174
_cell_length_b   8.27389174
_cell_length_c   8.27389174
_cell_angle_alpha   111.71165504
_cell_angle_beta   110.05922187
_cell_angle_gamma   106.68280198
_symmetry_Int_Tables_number   1
_chemical_formula_structural   Er6InCo2
_chemical_formula_sum   'Er12 In2 Co4'
_cell_volume   435.15605191
_cell_formula_units_Z   2
loop_
 _symmetry_equiv_pos_site_id
 _symmetry_equiv_pos_as_xyz
  1  'x, y, z'
loop_
 _atom_site_type_symbol
 _atom_site_label
 _atom_site_symmetry_multiplicity
 _atom_site_fract_x
 _atom_site_fract_y
 _atom_site_fract_z
 _atom_site_occupancy
  Er  Er0  1  0.18730500  0.28817000  0.47547500  1
  Er  Er1  1  0.81269500  0.71183000  0.52452500  1
  Er  Er2  1  0.18730500  0.71183000  0.89913500  1
  Er  Er3  1  0.81269500  0.28817000  0.10086500  1
  Er  Er4  1  0.31535900  0.61885600  0.30349700  1
  Er  Er5  1  0.68464100  0.38114400  0.69650300  1
  Er  Er6  1  0.31535900  0.01186200  0.69650300  1
  Er  Er7  1  0.68464100  0.98813800  0.30349700  1
  Er  Er8  1  0.44278100  0.23172100  0.21106000  1
  Er  Er9  1  0.55721900  0.76827900  0.78894000  1
  Er  Er10  1  0.02066100  0.23172100  0.78894000  1
  Er  Er11  1  0.97933900  0.76827900  0.21106000  1
  In  In12  1  0.50000000  0.50000000  0.00000000  1
  In  In13  1  0.00000000  0.00000000  0.00000000  1
  Co  Co14  1  0.11278900  0.61278900  0.50000000  1
  Co  Co15  1  0.88721100  0.38721100  0.50000000  1
  Co  Co16  1  0.37617500  0.00000000  0.37617500  1
  Co  Co17  1  0.62382500  0.00000000  0.62382500  1
