# generated using pymatgen
data_Y(BIr)2
_symmetry_space_group_name_H-M   'P 1'
_cell_length_a   7.13898451
_cell_length_b   6.15978922
_cell_length_c   5.50696136
_cell_angle_alpha   75.22252903
_cell_angle_beta   56.54289964
_cell_angle_gamma   48.23457133
_symmetry_Int_Tables_number   1
_chemical_formula_structural   Y(BIr)2
_chemical_formula_sum   'Y2 B4 Ir4'
_cell_volume   148.22899817
_cell_formula_units_Z   2
loop_
 _symmetry_equiv_pos_site_id
 _symmetry_equiv_pos_as_xyz
  1  'x, y, z'
loop_
 _atom_site_type_symbol
 _atom_site_label
 _atom_site_symmetry_multiplicity
 _atom_site_fract_x
 _atom_site_fract_y
 _atom_site_fract_z
 _atom_site_occupancy
  Y  Y0  1  0.75000000  0.75000000  0.75000000  1
  Y  Y1  1  0.50000000  0.50000000  0.50000000  1
  B  B2  1  0.06849300  0.43150700  0.06849300  1
  B  B3  1  0.81849300  0.18150700  0.81849300  1
  B  B4  1  0.43150700  0.06849300  0.43150700  1
  B  B5  1  0.18150700  0.81849300  0.18150700  1
  Ir  Ir6  1  0.37802500  0.37802500  0.12197500  1
  Ir  Ir7  1  0.12802500  0.12802500  0.87197500  1
  Ir  Ir8  1  0.87197500  0.87197500  0.12802500  1
  Ir  Ir9  1  0.12197500  0.12197500  0.37802500  1
