# generated using pymatgen
data_Co4Se3Cl2O9
_symmetry_space_group_name_H-M   'P 1'
_cell_length_a   8.08577100
_cell_length_b   9.83472000
_cell_length_c   14.61249700
_cell_angle_alpha   90.00000000
_cell_angle_beta   90.00000000
_cell_angle_gamma   90.00000000
_symmetry_Int_Tables_number   1
_chemical_formula_structural   Co4Se3Cl2O9
_chemical_formula_sum   'Co16 Se12 Cl8 O36'
_cell_volume   1162.00466664
_cell_formula_units_Z   4
loop_
 _symmetry_equiv_pos_site_id
 _symmetry_equiv_pos_as_xyz
  1  'x, y, z'
loop_
 _atom_site_type_symbol
 _atom_site_label
 _atom_site_symmetry_multiplicity
 _atom_site_fract_x
 _atom_site_fract_y
 _atom_site_fract_z
 _atom_site_occupancy
  Co  Co0  1  0.03329000  0.26524900  0.87301800  1
  Co  Co1  1  0.53329000  0.23475100  0.62698200  1
  Co  Co2  1  0.96671000  0.73475100  0.37301800  1
  Co  Co3  1  0.46671000  0.76524900  0.12698200  1
  Co  Co4  1  0.96671000  0.73475100  0.12698200  1
  Co  Co5  1  0.46671000  0.76524900  0.37301800  1
  Co  Co6  1  0.03329000  0.26524900  0.62698200  1
  Co  Co7  1  0.53329000  0.23475100  0.87301800  1
  Co  Co8  1  0.79627500  0.49891700  0.97761400  1
  Co  Co9  1  0.29627500  0.00108300  0.52238600  1
  Co  Co10  1  0.20372500  0.50108300  0.47761400  1
  Co  Co11  1  0.70372500  0.99891700  0.02238600  1
  Co  Co12  1  0.20372500  0.50108300  0.02238600  1
  Co  Co13  1  0.70372500  0.99891700  0.47761400  1
  Co  Co14  1  0.79627500  0.49891700  0.52238600  1
  Co  Co15  1  0.29627500  0.00108300  0.97761400  1
  Se  Se16  1  0.02815100  0.21239100  0.07810700  1
  Se  Se17  1  0.52815100  0.28760900  0.42189300  1
  Se  Se18  1  0.97184900  0.78760900  0.57810700  1
  Se  Se19  1  0.47184900  0.71239100  0.92189300  1
  Se  Se20  1  0.97184900  0.78760900  0.92189300  1
  Se  Se21  1  0.47184900  0.71239100  0.57810700  1
  Se  Se22  1  0.02815100  0.21239100  0.42189300  1
  Se  Se23  1  0.52815100  0.28760900  0.07810700  1
  Se  Se24  1  0.74341900  0.45782100  0.75000000  1
  Se  Se25  1  0.24341900  0.04217900  0.75000000  1
  Se  Se26  1  0.25658100  0.54217900  0.25000000  1
  Se  Se27  1  0.75658100  0.95782100  0.25000000  1
  Cl  Cl28  1  0.27010900  0.41315900  0.86954700  1
  Cl  Cl29  1  0.77010900  0.08684100  0.63045300  1
  Cl  Cl30  1  0.72989100  0.58684100  0.36954700  1
  Cl  Cl31  1  0.22989100  0.91315900  0.13045300  1
  Cl  Cl32  1  0.72989100  0.58684100  0.13045300  1
  Cl  Cl33  1  0.22989100  0.91315900  0.36954700  1
  Cl  Cl34  1  0.27010900  0.41315900  0.63045300  1
  Cl  Cl35  1  0.77010900  0.08684100  0.86954700  1
  O  O36  1  0.83493800  0.14600700  0.09129400  1
  O  O37  1  0.33493800  0.35399300  0.40870600  1
  O  O38  1  0.16506200  0.85399300  0.59129400  1
  O  O39  1  0.66506200  0.64600700  0.90870600  1
  O  O40  1  0.16506200  0.85399300  0.90870600  1
  O  O41  1  0.66506200  0.64600700  0.59129400  1
  O  O42  1  0.83493800  0.14600700  0.40870600  1
  O  O43  1  0.33493800  0.35399300  0.09129400  1
  O  O44  1  0.86470100  0.41289200  0.84339300  1
  O  O45  1  0.36470100  0.08710800  0.65660700  1
  O  O46  1  0.13529900  0.58710800  0.34339300  1
  O  O47  1  0.63529900  0.91289200  0.15660700  1
  O  O48  1  0.13529900  0.58710800  0.15660700  1
  O  O49  1  0.63529900  0.91289200  0.34339300  1
  O  O50  1  0.86470100  0.41289200  0.65660700  1
  O  O51  1  0.36470100  0.08710800  0.84339300  1
  O  O52  1  0.59489700  0.32686300  0.75000000  1
  O  O53  1  0.09489700  0.17313700  0.75000000  1
  O  O54  1  0.40510300  0.67313700  0.25000000  1
  O  O55  1  0.90510300  0.82686300  0.25000000  1
  O  O56  1  0.99146500  0.36775000  0.01995600  1
  O  O57  1  0.49146500  0.13225000  0.48004400  1
  O  O58  1  0.00853500  0.63225000  0.51995600  1
  O  O59  1  0.50853500  0.86775000  0.98004400  1
  O  O60  1  0.00853500  0.63225000  0.98004400  1
  O  O61  1  0.50853500  0.86775000  0.51995600  1
  O  O62  1  0.99146500  0.36775000  0.48004400  1
  O  O63  1  0.49146500  0.13225000  0.01995600  1
  O  O64  1  0.10381900  0.13579800  0.97770000  1
  O  O65  1  0.60381900  0.36420200  0.52230000  1
  O  O66  1  0.89618100  0.86420200  0.47770000  1
  O  O67  1  0.39618100  0.63579800  0.02230000  1
  O  O68  1  0.89618100  0.86420200  0.02230000  1
  O  O69  1  0.39618100  0.63579800  0.47770000  1
  O  O70  1  0.10381900  0.13579800  0.52230000  1
  O  O71  1  0.60381900  0.36420200  0.97770000  1
