# generated using pymatgen
data_CsHg
_symmetry_space_group_name_H-M   'P 1'
_cell_length_a   7.46069800
_cell_length_b   7.73767503
_cell_length_c   7.87354394
_cell_angle_alpha   107.04641654
_cell_angle_beta   104.44180078
_cell_angle_gamma   92.98465398
_symmetry_Int_Tables_number   1
_chemical_formula_structural   CsHg
_chemical_formula_sum   'Cs4 Hg4'
_cell_volume   416.96358012
_cell_formula_units_Z   4
loop_
 _symmetry_equiv_pos_site_id
 _symmetry_equiv_pos_as_xyz
  1  'x, y, z'
loop_
 _atom_site_type_symbol
 _atom_site_label
 _atom_site_symmetry_multiplicity
 _atom_site_fract_x
 _atom_site_fract_y
 _atom_site_fract_z
 _atom_site_occupancy
  Cs  Cs0  1  0.26057100  0.84319000  0.05366900  1
  Cs  Cs1  1  0.73942900  0.15681000  0.94633100  1
  Cs  Cs2  1  0.81386600  0.71004400  0.36334600  1
  Cs  Cs3  1  0.18613400  0.28995600  0.63665400  1
  Hg  Hg4  1  0.31305000  0.39680400  0.21616500  1
  Hg  Hg5  1  0.68695000  0.60319600  0.78383500  1
  Hg  Hg6  1  0.63128500  0.24884200  0.44565000  1
  Hg  Hg7  1  0.36871500  0.75115800  0.55435000  1
