# generated using pymatgen
data_HoAl2Ni
_symmetry_space_group_name_H-M   'P 1'
_cell_length_a   5.45974657
_cell_length_b   5.45974657
_cell_length_c   6.86845400
_cell_angle_alpha   90.00000000
_cell_angle_beta   90.00000000
_cell_angle_gamma   136.45766564
_symmetry_Int_Tables_number   1
_chemical_formula_structural   HoAl2Ni
_chemical_formula_sum   'Ho2 Al4 Ni2'
_cell_volume   141.04382023
_cell_formula_units_Z   2
loop_
 _symmetry_equiv_pos_site_id
 _symmetry_equiv_pos_as_xyz
  1  'x, y, z'
loop_
 _atom_site_type_symbol
 _atom_site_label
 _atom_site_symmetry_multiplicity
 _atom_site_fract_x
 _atom_site_fract_y
 _atom_site_fract_z
 _atom_site_occupancy
  Ho  Ho0  1  0.06168300  0.93831700  0.25000000  1
  Ho  Ho1  1  0.93831700  0.06168300  0.75000000  1
  Al  Al2  1  0.65578700  0.34421300  0.94578200  1
  Al  Al3  1  0.34421300  0.65578700  0.05421800  1
  Al  Al4  1  0.34421300  0.65578700  0.44578200  1
  Al  Al5  1  0.65578700  0.34421300  0.55421800  1
  Ni  Ni6  1  0.78419100  0.21580900  0.25000000  1
  Ni  Ni7  1  0.21580900  0.78419100  0.75000000  1
