# generated using pymatgen
data_Ca2MoN3
_symmetry_space_group_name_H-M   'P 1'
_cell_length_a   6.05481609
_cell_length_b   6.05481609
_cell_length_c   11.95024986
_cell_angle_alpha   87.97790952
_cell_angle_beta   87.97790952
_cell_angle_gamma   124.54251588
_symmetry_Int_Tables_number   1
_chemical_formula_structural   Ca2MoN3
_chemical_formula_sum   'Ca8 Mo4 N12'
_cell_volume   359.83098259
_cell_formula_units_Z   4
loop_
 _symmetry_equiv_pos_site_id
 _symmetry_equiv_pos_as_xyz
  1  'x, y, z'
loop_
 _atom_site_type_symbol
 _atom_site_label
 _atom_site_symmetry_multiplicity
 _atom_site_fract_x
 _atom_site_fract_y
 _atom_site_fract_z
 _atom_site_occupancy
  Ca  Ca0  1  0.57003000  0.97602300  0.85658400  1
  Ca  Ca1  1  0.02397700  0.42997000  0.64341600  1
  Ca  Ca2  1  0.42997000  0.02397700  0.14341600  1
  Ca  Ca3  1  0.97602300  0.57003000  0.35658400  1
  Ca  Ca4  1  0.33734500  0.10907600  0.58056900  1
  Ca  Ca5  1  0.89092400  0.66265500  0.91943100  1
  Ca  Ca6  1  0.66265500  0.89092400  0.41943100  1
  Ca  Ca7  1  0.10907600  0.33734500  0.08056900  1
  Mo  Mo8  1  0.72121600  0.72325800  0.66182900  1
  Mo  Mo9  1  0.27674200  0.27878400  0.83817100  1
  Mo  Mo10  1  0.27878400  0.27674200  0.33817100  1
  Mo  Mo11  1  0.72325800  0.72121600  0.16182900  1
  N  N12  1  0.61972700  0.38027300  0.75000000  1
  N  N13  1  0.38027300  0.61972700  0.25000000  1
  N  N14  1  0.49992000  0.83585300  0.62435400  1
  N  N15  1  0.16414700  0.50008000  0.87564600  1
  N  N16  1  0.50008000  0.16414700  0.37564600  1
  N  N17  1  0.83585300  0.49992000  0.12435400  1
  N  N18  1  0.68751100  0.87463400  0.03353000  1
  N  N19  1  0.12536600  0.31248900  0.46647000  1
  N  N20  1  0.31248900  0.12536600  0.96647000  1
  N  N21  1  0.87463400  0.68751100  0.53353000  1
  N  N22  1  0.99492600  0.00507400  0.75000000  1
  N  N23  1  0.00507400  0.99492600  0.25000000  1
