# generated using pymatgen
data_Nd5Ru2
_symmetry_space_group_name_H-M   'P 1'
_cell_length_a   8.85636131
_cell_length_b   8.85636131
_cell_length_c   7.38735953
_cell_angle_alpha   83.87910882
_cell_angle_beta   83.87910882
_cell_angle_gamma   43.72073837
_symmetry_Int_Tables_number   1
_chemical_formula_structural   Nd5Ru2
_chemical_formula_sum   'Nd10 Ru4'
_cell_volume   397.81688045
_cell_formula_units_Z   2
loop_
 _symmetry_equiv_pos_site_id
 _symmetry_equiv_pos_as_xyz
  1  'x, y, z'
loop_
 _atom_site_type_symbol
 _atom_site_label
 _atom_site_symmetry_multiplicity
 _atom_site_fract_x
 _atom_site_fract_y
 _atom_site_fract_z
 _atom_site_occupancy
  Nd  Nd0  1  0.02119500  0.79306800  0.91489200  1
  Nd  Nd1  1  0.20693200  0.97880500  0.58510800  1
  Nd  Nd2  1  0.97880500  0.20693200  0.08510800  1
  Nd  Nd3  1  0.79306800  0.02119500  0.41489200  1
  Nd  Nd4  1  0.35932200  0.20632600  0.81486100  1
  Nd  Nd5  1  0.79367400  0.64067800  0.68513900  1
  Nd  Nd6  1  0.64067800  0.79367400  0.18513900  1
  Nd  Nd7  1  0.20632600  0.35932200  0.31486100  1
  Nd  Nd8  1  0.57948700  0.42051300  0.75000000  1
  Nd  Nd9  1  0.42051300  0.57948700  0.25000000  1
  Ru  Ru10  1  0.17732900  0.60190100  0.57557400  1
  Ru  Ru11  1  0.39809900  0.82267100  0.92442600  1
  Ru  Ru12  1  0.82267100  0.39809900  0.42442600  1
  Ru  Ru13  1  0.60190100  0.17732900  0.07557400  1
