# generated using pymatgen
data_K2V2CoO7
_symmetry_space_group_name_H-M   'P 1'
_cell_length_a   5.71287500
_cell_length_b   8.58614000
_cell_length_c   8.58613400
_cell_angle_alpha   90.00022684
_cell_angle_beta   90.00320957
_cell_angle_gamma   90.00314276
_symmetry_Int_Tables_number   1
_chemical_formula_structural   K2V2CoO7
_chemical_formula_sum   'K4 V4 Co2 O14'
_cell_volume   421.16313379
_cell_formula_units_Z   2
loop_
 _symmetry_equiv_pos_site_id
 _symmetry_equiv_pos_as_xyz
  1  'x, y, z'
loop_
 _atom_site_type_symbol
 _atom_site_label
 _atom_site_symmetry_multiplicity
 _atom_site_fract_x
 _atom_site_fract_y
 _atom_site_fract_z
 _atom_site_occupancy
  K  K0  1  0.50883400  0.16222100  0.66222200  1
  K  K1  1  0.49111500  0.33775900  0.16222600  1
  K  K2  1  0.50892700  0.83775700  0.33775700  1
  K  K3  1  0.49111100  0.66222400  0.83775700  1
  V  V4  1  0.95033100  0.64241000  0.14240900  1
  V  V5  1  0.04977000  0.14238100  0.35765300  1
  V  V6  1  0.95014600  0.35768400  0.85768300  1
  V  V7  1  0.04977200  0.85765300  0.64238000  1
  Co  Co8  1  0.99999100  0.49998500  0.50004400  1
  Co  Co9  1  0.99999400  0.00004400  0.99998300  1
  O  O10  1  0.15673100  0.99990900  0.49991000  1
  O  O11  1  0.84328500  0.49997300  0.99997500  1
  O  O12  1  0.75563300  0.14503700  0.35492500  1
  O  O13  1  0.24424900  0.35491000  0.85491000  1
  O  O14  1  0.75563600  0.85492400  0.64503800  1
  O  O15  1  0.24449300  0.64502900  0.14502800  1
  O  O16  1  0.16880700  0.32170500  0.41080700  1
  O  O17  1  0.83108300  0.17827300  0.91072600  1
  O  O18  1  0.16878600  0.67823100  0.58934700  1
  O  O19  1  0.83131500  0.82174200  0.08926800  1
  O  O20  1  0.83131600  0.58927300  0.32174200  1
  O  O21  1  0.16881000  0.91080500  0.82170600  1
  O  O22  1  0.83108200  0.41072700  0.67827300  1
  O  O23  1  0.16878300  0.08934700  0.17823100  1
