# generated using pymatgen
data_CuNiSbS3
_symmetry_space_group_name_H-M   'P 1'
_cell_length_a   4.89310900
_cell_length_b   7.48768300
_cell_length_c   12.44463300
_cell_angle_alpha   90.00000000
_cell_angle_beta   90.00000000
_cell_angle_gamma   90.00000000
_symmetry_Int_Tables_number   1
_chemical_formula_structural   CuNiSbS3
_chemical_formula_sum   'Cu4 Ni4 Sb4 S12'
_cell_volume   455.94707459
_cell_formula_units_Z   4
loop_
 _symmetry_equiv_pos_site_id
 _symmetry_equiv_pos_as_xyz
  1  'x, y, z'
loop_
 _atom_site_type_symbol
 _atom_site_label
 _atom_site_symmetry_multiplicity
 _atom_site_fract_x
 _atom_site_fract_y
 _atom_site_fract_z
 _atom_site_occupancy
  Cu  Cu0  1  0.52520700  0.61891100  0.93755200  1
  Cu  Cu1  1  0.02520700  0.88108900  0.06244800  1
  Cu  Cu2  1  0.47479300  0.11891100  0.56244800  1
  Cu  Cu3  1  0.97479300  0.38108900  0.43755200  1
  Ni  Ni4  1  0.99511900  0.87153600  0.74943700  1
  Ni  Ni5  1  0.49511900  0.62846400  0.25056300  1
  Ni  Ni6  1  0.00488100  0.37153600  0.75056300  1
  Ni  Ni7  1  0.50488100  0.12846400  0.24943700  1
  Sb  Sb8  1  0.55880000  0.62498400  0.63321400  1
  Sb  Sb9  1  0.05880000  0.87501600  0.36678600  1
  Sb  Sb10  1  0.44120000  0.12498400  0.86678600  1
  Sb  Sb11  1  0.94120000  0.37501600  0.13321400  1
  S  S12  1  0.77843200  0.87077200  0.90732800  1
  S  S13  1  0.27843200  0.62922800  0.09267200  1
  S  S14  1  0.22156800  0.37077200  0.59267200  1
  S  S15  1  0.72156800  0.12922800  0.40732800  1
  S  S16  1  0.22360500  0.62261600  0.79508400  1
  S  S17  1  0.72360500  0.87738400  0.20491600  1
  S  S18  1  0.77639500  0.12261600  0.70491600  1
  S  S19  1  0.27639500  0.37738400  0.29508400  1
  S  S20  1  0.21488100  0.87093100  0.59139300  1
  S  S21  1  0.71488100  0.62906900  0.40860700  1
  S  S22  1  0.78511900  0.37093100  0.90860700  1
  S  S23  1  0.28511900  0.12906900  0.09139300  1
