# generated using pymatgen
data_ScTeO3F
_symmetry_space_group_name_H-M   'P 1'
_cell_length_a   5.60661200
_cell_length_b   5.85008500
_cell_length_c   22.31977100
_cell_angle_alpha   90.00000000
_cell_angle_beta   90.00000000
_cell_angle_gamma   90.00000000
_symmetry_Int_Tables_number   1
_chemical_formula_structural   ScTeO3F
_chemical_formula_sum   'Sc8 Te8 O24 F8'
_cell_volume   732.06966792
_cell_formula_units_Z   8
loop_
 _symmetry_equiv_pos_site_id
 _symmetry_equiv_pos_as_xyz
  1  'x, y, z'
loop_
 _atom_site_type_symbol
 _atom_site_label
 _atom_site_symmetry_multiplicity
 _atom_site_fract_x
 _atom_site_fract_y
 _atom_site_fract_z
 _atom_site_occupancy
  Sc  Sc0  1  0.75000000  0.43173000  0.25000000  1
  Sc  Sc1  1  0.75000000  0.06827000  0.75000000  1
  Sc  Sc2  1  0.25000000  0.56827000  0.75000000  1
  Sc  Sc3  1  0.25000000  0.93173000  0.25000000  1
  Sc  Sc4  1  0.67419200  0.25000000  0.50000000  1
  Sc  Sc5  1  0.32580800  0.75000000  0.50000000  1
  Sc  Sc6  1  0.82580800  0.25000000  0.00000000  1
  Sc  Sc7  1  0.17419200  0.75000000  0.00000000  1
  Te  Te8  1  0.68959800  0.70855300  0.10715300  1
  Te  Te9  1  0.68959800  0.79144700  0.89284700  1
  Te  Te10  1  0.81040200  0.70855300  0.39284700  1
  Te  Te11  1  0.81040200  0.79144700  0.60715300  1
  Te  Te12  1  0.31040200  0.29144700  0.89284700  1
  Te  Te13  1  0.31040200  0.20855300  0.10715300  1
  Te  Te14  1  0.18959800  0.29144700  0.60715300  1
  Te  Te15  1  0.18959800  0.20855300  0.39284700  1
  O  O16  1  0.64359100  0.45669900  0.16105300  1
  O  O17  1  0.64359100  0.04330100  0.83894700  1
  O  O18  1  0.85640900  0.45669900  0.33894700  1
  O  O19  1  0.85640900  0.04330100  0.66105300  1
  O  O20  1  0.35640900  0.54330100  0.83894700  1
  O  O21  1  0.35640900  0.95669900  0.16105300  1
  O  O22  1  0.14359100  0.54330100  0.66105300  1
  O  O23  1  0.14359100  0.95669900  0.33894700  1
  O  O24  1  0.41952100  0.63131900  0.06066900  1
  O  O25  1  0.41952100  0.86868100  0.93933100  1
  O  O26  1  0.08047900  0.63131900  0.43933100  1
  O  O27  1  0.08047900  0.86868100  0.56066900  1
  O  O28  1  0.58047900  0.36868100  0.93933100  1
  O  O29  1  0.58047900  0.13131900  0.06066900  1
  O  O30  1  0.91952100  0.36868100  0.56066900  1
  O  O31  1  0.40251800  0.05679300  0.44968000  1
  O  O32  1  0.90251800  0.55679300  0.05032000  1
  O  O33  1  0.90251800  0.94320700  0.94968000  1
  O  O34  1  0.59748200  0.55679300  0.44968000  1
  O  O35  1  0.59748200  0.94320700  0.55032000  1
  O  O36  1  0.09748200  0.44320700  0.94968000  1
  O  O37  1  0.09748200  0.05679300  0.05032000  1
  O  O38  1  0.40251800  0.44320700  0.55032000  1
  O  O39  1  0.91952100  0.13131900  0.43933100  1
  F  F40  1  0.49768800  0.18953500  0.26938200  1
  F  F41  1  0.99768800  0.81046500  0.76938200  1
  F  F42  1  0.50231200  0.68953500  0.26938200  1
  F  F43  1  0.50231200  0.81046500  0.73061800  1
  F  F44  1  0.00231200  0.31046500  0.76938200  1
  F  F45  1  0.00231200  0.18953500  0.23061800  1
  F  F46  1  0.49768800  0.31046500  0.73061800  1
  F  F47  1  0.99768800  0.68953500  0.23061800  1
