# generated using pymatgen
data_NdScSb
_symmetry_space_group_name_H-M   'P 1'
_cell_length_a   8.82754997
_cell_length_b   8.82754997
_cell_length_c   8.82754997
_cell_angle_alpha   150.66394272
_cell_angle_beta   150.66394272
_cell_angle_gamma   41.96767250
_symmetry_Int_Tables_number   1
_chemical_formula_structural   NdScSb
_chemical_formula_sum   'Nd2 Sc2 Sb2'
_cell_volume   164.72859965
_cell_formula_units_Z   2
loop_
 _symmetry_equiv_pos_site_id
 _symmetry_equiv_pos_as_xyz
  1  'x, y, z'
loop_
 _atom_site_type_symbol
 _atom_site_label
 _atom_site_symmetry_multiplicity
 _atom_site_fract_x
 _atom_site_fract_y
 _atom_site_fract_z
 _atom_site_occupancy
  Nd  Nd0  1  0.82480800  0.82480800  0.00000000  1
  Nd  Nd1  1  0.17519200  0.17519200  0.00000000  1
  Sc  Sc2  1  0.00000000  0.50000000  0.50000000  1
  Sc  Sc3  1  0.50000000  0.00000000  0.50000000  1
  Sb  Sb4  1  0.62626800  0.62626800  0.00000000  1
  Sb  Sb5  1  0.37373200  0.37373200  0.00000000  1
