# generated using pymatgen
data_Sc3B2Ir5
_symmetry_space_group_name_H-M   'P 1'
_cell_length_a   3.09962400
_cell_length_b   9.59725500
_cell_length_c   9.59725500
_cell_angle_alpha   90.00000000
_cell_angle_beta   90.00000000
_cell_angle_gamma   90.00000000
_symmetry_Int_Tables_number   1
_chemical_formula_structural   Sc3B2Ir5
_chemical_formula_sum   'Sc6 B4 Ir10'
_cell_volume   285.49800861
_cell_formula_units_Z   2
loop_
 _symmetry_equiv_pos_site_id
 _symmetry_equiv_pos_as_xyz
  1  'x, y, z'
loop_
 _atom_site_type_symbol
 _atom_site_label
 _atom_site_symmetry_multiplicity
 _atom_site_fract_x
 _atom_site_fract_y
 _atom_site_fract_z
 _atom_site_occupancy
  Sc  Sc0  1  0.00000000  0.17512200  0.67512200  1
  Sc  Sc1  1  0.00000000  0.82487800  0.32487800  1
  Sc  Sc2  1  0.00000000  0.32487800  0.17512200  1
  Sc  Sc3  1  0.00000000  0.67512200  0.82487800  1
  Sc  Sc4  1  0.00000000  0.00000000  0.00000000  1
  Sc  Sc5  1  0.00000000  0.50000000  0.50000000  1
  B  B6  1  0.00000000  0.62310000  0.12310000  1
  B  B7  1  0.00000000  0.37690000  0.87690000  1
  B  B8  1  0.00000000  0.87690000  0.62310000  1
  B  B9  1  0.00000000  0.12310000  0.37690000  1
  Ir  Ir10  1  0.50000000  0.07113800  0.22207700  1
  Ir  Ir11  1  0.50000000  0.92886200  0.77792300  1
  Ir  Ir12  1  0.50000000  0.77792300  0.07113800  1
  Ir  Ir13  1  0.50000000  0.42886200  0.72207700  1
  Ir  Ir14  1  0.50000000  0.22207700  0.92886200  1
  Ir  Ir15  1  0.50000000  0.57113800  0.27792300  1
  Ir  Ir16  1  0.50000000  0.72207700  0.57113800  1
  Ir  Ir17  1  0.50000000  0.27792300  0.42886200  1
  Ir  Ir18  1  0.50000000  0.00000000  0.50000000  1
  Ir  Ir19  1  0.50000000  0.50000000  0.00000000  1
