# generated using pymatgen
data_IrF4
_symmetry_space_group_name_H-M   'P 1'
_cell_length_a   6.79144542
_cell_length_b   5.70427732
_cell_length_c   5.59781539
_cell_angle_alpha   73.86222911
_cell_angle_beta   53.78685778
_cell_angle_gamma   52.35091312
_symmetry_Int_Tables_number   1
_chemical_formula_structural   IrF4
_chemical_formula_sum   'Ir2 F8'
_cell_volume   137.36242529
_cell_formula_units_Z   2
loop_
 _symmetry_equiv_pos_site_id
 _symmetry_equiv_pos_as_xyz
  1  'x, y, z'
loop_
 _atom_site_type_symbol
 _atom_site_label
 _atom_site_symmetry_multiplicity
 _atom_site_fract_x
 _atom_site_fract_y
 _atom_site_fract_z
 _atom_site_occupancy
  Ir  Ir0  1  0.75688200  0.24311800  0.24311800  1
  Ir  Ir1  1  0.00688200  0.49311800  0.49311800  1
  F  F2  1  0.24708400  0.07478700  0.48435500  1
  F  F3  1  0.19377400  0.48435500  0.07478700  1
  F  F4  1  0.71259600  0.46867800  0.51906200  1
  F  F5  1  0.29966400  0.51906200  0.46867800  1
  F  F6  1  0.73093800  0.95033600  0.53740400  1
  F  F7  1  0.78132200  0.53740400  0.95033600  1
  F  F8  1  0.17521300  0.00291600  0.05622600  1
  F  F9  1  0.76564500  0.05622600  0.00291600  1
