# generated using pymatgen
data_Rb4Al2S5
_symmetry_space_group_name_H-M   'P 1'
_cell_length_a   9.71998000
_cell_length_b   11.64918000
_cell_length_c   11.68829500
_cell_angle_alpha   90.00000000
_cell_angle_beta   90.00000000
_cell_angle_gamma   90.00000000
_symmetry_Int_Tables_number   1
_chemical_formula_structural   Rb4Al2S5
_chemical_formula_sum   'Rb16 Al8 S20'
_cell_volume   1323.46326564
_cell_formula_units_Z   4
loop_
 _symmetry_equiv_pos_site_id
 _symmetry_equiv_pos_as_xyz
  1  'x, y, z'
loop_
 _atom_site_type_symbol
 _atom_site_label
 _atom_site_symmetry_multiplicity
 _atom_site_fract_x
 _atom_site_fract_y
 _atom_site_fract_z
 _atom_site_occupancy
  Rb  Rb0  1  0.23531500  0.51899000  0.89110700  1
  Rb  Rb1  1  0.73531500  0.48101000  0.10889300  1
  Rb  Rb2  1  0.73531500  0.98101000  0.39110700  1
  Rb  Rb3  1  0.23531500  0.01899000  0.60889300  1
  Rb  Rb4  1  0.71389000  0.55315100  0.42331500  1
  Rb  Rb5  1  0.21389000  0.44684900  0.57668500  1
  Rb  Rb6  1  0.21389000  0.94684900  0.92331500  1
  Rb  Rb7  1  0.71389000  0.05315100  0.07668500  1
  Rb  Rb8  1  0.36619600  0.75404400  0.42609200  1
  Rb  Rb9  1  0.86619600  0.24595600  0.57390800  1
  Rb  Rb10  1  0.86619600  0.74595600  0.92609200  1
  Rb  Rb11  1  0.36619600  0.25404400  0.07390800  1
  Rb  Rb12  1  0.47468500  0.75620500  0.11116400  1
  Rb  Rb13  1  0.97468500  0.24379500  0.88883600  1
  Rb  Rb14  1  0.97468500  0.74379500  0.61116400  1
  Rb  Rb15  1  0.47468500  0.25620500  0.38883600  1
  Al  Al16  1  0.18077800  0.54041300  0.21996400  1
  Al  Al17  1  0.68077800  0.45958700  0.78003600  1
  Al  Al18  1  0.68077800  0.95958700  0.71996400  1
  Al  Al19  1  0.18077800  0.04041300  0.28003600  1
  Al  Al20  1  0.00078000  0.74976400  0.26313200  1
  Al  Al21  1  0.50078000  0.25023600  0.73686800  1
  Al  Al22  1  0.50078000  0.75023600  0.76313200  1
  Al  Al23  1  0.00078000  0.24976400  0.23686800  1
  S  S24  1  0.40325700  0.50840800  0.25439800  1
  S  S25  1  0.90325700  0.49159200  0.74560200  1
  S  S26  1  0.90325700  0.99159200  0.75439800  1
  S  S27  1  0.40325700  0.00840800  0.24560200  1
  S  S28  1  0.04976500  0.59038200  0.37472300  1
  S  S29  1  0.54976500  0.40961800  0.62527700  1
  S  S30  1  0.54976500  0.90961800  0.87472300  1
  S  S31  1  0.04976500  0.09038200  0.12527700  1
  S  S32  1  0.14249900  0.70681900  0.11241200  1
  S  S33  1  0.64249900  0.29318100  0.88758800  1
  S  S34  1  0.64249900  0.79318100  0.61241200  1
  S  S35  1  0.14249900  0.20681900  0.38758800  1
  S  S36  1  0.28012700  0.73723100  0.71407500  1
  S  S37  1  0.78012700  0.26276900  0.28592500  1
  S  S38  1  0.78012700  0.76276900  0.21407500  1
  S  S39  1  0.28012700  0.23723100  0.78592500  1
  S  S40  1  0.07229000  0.89768000  0.37979700  1
  S  S41  1  0.57229000  0.10232000  0.62020300  1
  S  S42  1  0.57229000  0.60232000  0.87979700  1
  S  S43  1  0.07229000  0.39768000  0.12020300  1
