# generated using pymatgen
data_K2ZnSe2
_symmetry_space_group_name_H-M   'P 1'
_cell_length_a   8.19011181
_cell_length_b   8.19011181
_cell_length_c   8.19011181
_cell_angle_alpha   132.88637997
_cell_angle_beta   128.96539840
_cell_angle_gamma   71.97706541
_symmetry_Int_Tables_number   1
_chemical_formula_structural   K2ZnSe2
_chemical_formula_sum   'K4 Zn2 Se4'
_cell_volume   306.12452812
_cell_formula_units_Z   2
loop_
 _symmetry_equiv_pos_site_id
 _symmetry_equiv_pos_as_xyz
  1  'x, y, z'
loop_
 _atom_site_type_symbol
 _atom_site_label
 _atom_site_symmetry_multiplicity
 _atom_site_fract_x
 _atom_site_fract_y
 _atom_site_fract_z
 _atom_site_occupancy
  K  K0  1  0.81154100  0.64143800  0.17010400  1
  K  K1  1  0.18845900  0.35856200  0.82989600  1
  K  K2  1  0.47133400  0.14143800  0.32989600  1
  K  K3  1  0.52866600  0.85856200  0.67010400  1
  Zn  Zn4  1  0.00000000  0.75000000  0.75000000  1
  Zn  Zn5  1  0.00000000  0.25000000  0.25000000  1
  Se  Se6  1  0.70550400  0.39508900  0.31041500  1
  Se  Se7  1  0.29449600  0.60491100  0.68958500  1
  Se  Se8  1  0.08467300  0.89508900  0.18958500  1
  Se  Se9  1  0.91532700  0.10491100  0.81041500  1
