# generated using pymatgen
data_Ca(BC)2
_symmetry_space_group_name_H-M   'P 1'
_cell_length_a   5.31353303
_cell_length_b   5.31353303
_cell_length_c   5.31353303
_cell_angle_alpha   119.35041708
_cell_angle_beta   119.35041708
_cell_angle_gamma   91.12884178
_symmetry_Int_Tables_number   1
_chemical_formula_structural   Ca(BC)2
_chemical_formula_sum   'Ca2 B4 C4'
_cell_volume   107.09944665
_cell_formula_units_Z   2
loop_
 _symmetry_equiv_pos_site_id
 _symmetry_equiv_pos_as_xyz
  1  'x, y, z'
loop_
 _atom_site_type_symbol
 _atom_site_label
 _atom_site_symmetry_multiplicity
 _atom_site_fract_x
 _atom_site_fract_y
 _atom_site_fract_z
 _atom_site_occupancy
  Ca  Ca0  1  0.75000000  0.75000000  0.00000000  1
  Ca  Ca1  1  0.25000000  0.25000000  0.00000000  1
  B  B2  1  0.36106700  0.86106700  0.22213300  1
  B  B3  1  0.86106700  0.63893300  0.50000000  1
  B  B4  1  0.13893300  0.36106700  0.50000000  1
  B  B5  1  0.63893300  0.13893300  0.77786700  1
  C  C6  1  0.65930100  0.84069900  0.50000000  1
  C  C7  1  0.15930100  0.65930100  0.81860100  1
  C  C8  1  0.34069900  0.15930100  0.50000000  1
  C  C9  1  0.84069900  0.34069900  0.18139900  1
