# generated using pymatgen
data_MgTi2NiO6
_symmetry_space_group_name_H-M   'P 1'
_cell_length_a   5.51834262
_cell_length_b   8.81155540
_cell_length_c   9.06158125
_cell_angle_alpha   99.31340637
_cell_angle_beta   84.79835500
_cell_angle_gamma   105.44613638
_symmetry_Int_Tables_number   1
_chemical_formula_structural   MgTi2NiO6
_chemical_formula_sum   'Mg4 Ti8 Ni4 O24'
_cell_volume   418.58360028
_cell_formula_units_Z   4
loop_
 _symmetry_equiv_pos_site_id
 _symmetry_equiv_pos_as_xyz
  1  'x, y, z'
loop_
 _atom_site_type_symbol
 _atom_site_label
 _atom_site_symmetry_multiplicity
 _atom_site_fract_x
 _atom_site_fract_y
 _atom_site_fract_z
 _atom_site_occupancy
  Mg  Mg0  1  0.54520700  0.67671800  0.51510200  1
  Mg  Mg1  1  0.79516800  0.17666400  0.26505900  1
  Mg  Mg2  1  0.29516400  0.17666100  0.76505600  1
  Mg  Mg3  1  0.04520300  0.67671700  0.01510500  1
  Ti  Ti4  1  0.92785000  0.42836500  0.64262000  1
  Ti  Ti5  1  0.17786100  0.92851100  0.39271300  1
  Ti  Ti6  1  0.67788500  0.92850600  0.89270200  1
  Ti  Ti7  1  0.42781300  0.42837900  0.14261500  1
  Ti  Ti8  1  0.82270600  0.07167500  0.60745700  1
  Ti  Ti9  1  0.07269000  0.57173300  0.35757100  1
  Ti  Ti10  1  0.57270900  0.57173900  0.85756200  1
  Ti  Ti11  1  0.32270600  0.07168100  0.10743500  1
  Ni  Ni12  1  0.21058300  0.82458000  0.73692000  1
  Ni  Ni13  1  0.46056300  0.32458800  0.48685900  1
  Ni  Ni14  1  0.96044300  0.32455500  0.98681600  1
  Ni  Ni15  1  0.71051700  0.82456100  0.23692600  1
  O  O16  1  0.60965000  0.52418900  0.64875600  1
  O  O17  1  0.85980200  0.02423200  0.39844600  1
  O  O18  1  0.35981800  0.02423900  0.89848200  1
  O  O19  1  0.10972000  0.52420300  0.14872000  1
  O  O20  1  0.59724300  0.88660000  0.66130600  1
  O  O21  1  0.84703000  0.38654300  0.41127300  1
  O  O22  1  0.34706000  0.38653600  0.91130800  1
  O  O23  1  0.09724600  0.88661300  0.16130600  1
  O  O24  1  0.87481200  0.71794300  0.38353100  1
  O  O25  1  0.12500800  0.21807700  0.13333000  1
  O  O26  1  0.62500500  0.21808200  0.63333800  1
  O  O27  1  0.37482500  0.71794600  0.88353300  1
  O  O28  1  0.13746800  0.97436600  0.60152600  1
  O  O29  1  0.38738500  0.47452800  0.35125800  1
  O  O30  1  0.88739000  0.47452500  0.85126800  1
  O  O31  1  0.63747100  0.97437000  0.10152500  1
  O  O32  1  0.15039400  0.61426600  0.58838600  1
  O  O33  1  0.40068800  0.11439600  0.33803900  1
  O  O34  1  0.90068800  0.11439200  0.83804700  1
  O  O35  1  0.65038300  0.61425400  0.08839000  1
  O  O36  1  0.87385800  0.78123000  0.86508800  1
  O  O37  1  0.12411400  0.28079000  0.61473300  1
  O  O38  1  0.62402700  0.28081100  0.11475600  1
  O  O39  1  0.37385600  0.78124000  0.36513700  1
