# generated using pymatgen
data_Cr2O3
_symmetry_space_group_name_H-M   'P 1'
_cell_length_a   5.06975200
_cell_length_b   5.47253981
_cell_length_c   5.06981880
_cell_angle_alpha   117.59593327
_cell_angle_beta   119.99961285
_cell_angle_gamma   90.00006706
_symmetry_Int_Tables_number   1
_chemical_formula_structural   Cr2O3
_chemical_formula_sum   'Cr4 O6'
_cell_volume   102.92373273
_cell_formula_units_Z   2
loop_
 _symmetry_equiv_pos_site_id
 _symmetry_equiv_pos_as_xyz
  1  'x, y, z'
loop_
 _atom_site_type_symbol
 _atom_site_label
 _atom_site_symmetry_multiplicity
 _atom_site_fract_x
 _atom_site_fract_y
 _atom_site_fract_z
 _atom_site_occupancy
  Cr  Cr0  1  0.65185200  0.95561600  0.30374900  1
  Cr  Cr1  1  0.15190000  0.45562000  0.30377600  1
  Cr  Cr2  1  0.84813000  0.54438400  0.69625000  1
  Cr  Cr3  1  0.34813000  0.04438600  0.69623900  1
  O  O4  1  0.44617600  0.25000000  0.49999800  1
  O  O5  1  0.75001000  0.24998800  0.19619500  1
  O  O6  1  0.05381500  0.25001000  0.80380200  1
  O  O7  1  0.55382200  0.74999700  0.49999700  1
  O  O8  1  0.24998600  0.75001500  0.80380200  1
  O  O9  1  0.94618000  0.74998500  0.19619200  1
