# generated using pymatgen
data_Ce2InRh2
_symmetry_space_group_name_H-M   'P 1'
_cell_length_a   7.68549300
_cell_length_b   7.68549300
_cell_length_c   3.73418900
_cell_angle_alpha   90.00000000
_cell_angle_beta   90.00000000
_cell_angle_gamma   90.00000000
_symmetry_Int_Tables_number   1
_chemical_formula_structural   Ce2InRh2
_chemical_formula_sum   'Ce4 In2 Rh4'
_cell_volume   220.56660473
_cell_formula_units_Z   2
loop_
 _symmetry_equiv_pos_site_id
 _symmetry_equiv_pos_as_xyz
  1  'x, y, z'
loop_
 _atom_site_type_symbol
 _atom_site_label
 _atom_site_symmetry_multiplicity
 _atom_site_fract_x
 _atom_site_fract_y
 _atom_site_fract_z
 _atom_site_occupancy
  Ce  Ce0  1  0.67115000  0.17115000  0.50000000  1
  Ce  Ce1  1  0.32885000  0.82885000  0.50000000  1
  Ce  Ce2  1  0.17115000  0.32885000  0.50000000  1
  Ce  Ce3  1  0.82885000  0.67115000  0.50000000  1
  In  In4  1  0.00000000  0.00000000  0.00000000  1
  In  In5  1  0.50000000  0.50000000  0.00000000  1
  Rh  Rh6  1  0.13544700  0.63544700  0.00000000  1
  Rh  Rh7  1  0.86455300  0.36455300  0.00000000  1
  Rh  Rh8  1  0.63544700  0.86455300  0.00000000  1
  Rh  Rh9  1  0.36455300  0.13544700  0.00000000  1
