# generated using pymatgen
data_DyTe3
_symmetry_space_group_name_H-M   'P 1'
_cell_length_a   13.16438974
_cell_length_b   13.16438974
_cell_length_c   4.34567600
_cell_angle_alpha   90.00000000
_cell_angle_beta   90.00000000
_cell_angle_gamma   161.00142102
_symmetry_Int_Tables_number   1
_chemical_formula_structural   DyTe3
_chemical_formula_sum   'Dy2 Te6'
_cell_volume   245.17119349
_cell_formula_units_Z   2
loop_
 _symmetry_equiv_pos_site_id
 _symmetry_equiv_pos_as_xyz
  1  'x, y, z'
loop_
 _atom_site_type_symbol
 _atom_site_label
 _atom_site_symmetry_multiplicity
 _atom_site_fract_x
 _atom_site_fract_y
 _atom_site_fract_z
 _atom_site_occupancy
  Dy  Dy0  1  0.16977900  0.83022100  0.75000000  1
  Dy  Dy1  1  0.83022100  0.16977900  0.25000000  1
  Te  Te2  1  0.92535900  0.07464100  0.75000000  1
  Te  Te3  1  0.07464100  0.92535900  0.25000000  1
  Te  Te4  1  0.57469500  0.42530500  0.75000000  1
  Te  Te5  1  0.42530500  0.57469500  0.25000000  1
  Te  Te6  1  0.29358600  0.70641400  0.75000000  1
  Te  Te7  1  0.70641400  0.29358600  0.25000000  1
