# generated using pymatgen
data_Cs2U(Si2O5)3
_symmetry_space_group_name_H-M   'P 1'
_cell_length_a   9.08543928
_cell_length_b   9.08543928
_cell_length_c   13.70409600
_cell_angle_alpha   90.00000000
_cell_angle_beta   90.00000000
_cell_angle_gamma   131.89734469
_symmetry_Int_Tables_number   1
_chemical_formula_structural   Cs2U(Si2O5)3
_chemical_formula_sum   'Cs4 U2 Si12 O30'
_cell_volume   842.00576904
_cell_formula_units_Z   2
loop_
 _symmetry_equiv_pos_site_id
 _symmetry_equiv_pos_as_xyz
  1  'x, y, z'
loop_
 _atom_site_type_symbol
 _atom_site_label
 _atom_site_symmetry_multiplicity
 _atom_site_fract_x
 _atom_site_fract_y
 _atom_site_fract_z
 _atom_site_occupancy
  Cs  Cs0  1  0.11120000  0.88880000  0.17318500  1
  Cs  Cs1  1  0.88880000  0.11120000  0.67318500  1
  Cs  Cs2  1  0.22214000  0.77786000  0.86806000  1
  Cs  Cs3  1  0.77786000  0.22214000  0.36806000  1
  U  U4  1  0.36881100  0.63118900  0.51823100  1
  U  U5  1  0.63118900  0.36881100  0.01823100  1
  Si  Si6  1  0.35674600  0.64325400  0.24952800  1
  Si  Si7  1  0.64325400  0.35674600  0.74952800  1
  Si  Si8  1  0.38963700  0.01986100  0.59334000  1
  Si  Si9  1  0.98013900  0.61036300  0.59334000  1
  Si  Si10  1  0.61036300  0.98013900  0.09334000  1
  Si  Si11  1  0.01986100  0.38963700  0.09334000  1
  Si  Si12  1  0.82582100  0.74089600  0.44306300  1
  Si  Si13  1  0.25910400  0.17417900  0.44306300  1
  Si  Si14  1  0.17417900  0.25910400  0.94306300  1
  Si  Si15  1  0.74089600  0.82582100  0.94306300  1
  Si  Si16  1  0.54680500  0.45319500  0.27222800  1
  Si  Si17  1  0.45319500  0.54680500  0.77222800  1
  O  O18  1  0.32971400  0.67028600  0.36194500  1
  O  O19  1  0.67028600  0.32971400  0.86194500  1
  O  O20  1  0.49729000  0.85856000  0.19435900  1
  O  O21  1  0.14144000  0.50271000  0.19435900  1
  O  O22  1  0.50271000  0.14144000  0.69435900  1
  O  O23  1  0.85856000  0.49729000  0.69435900  1
  O  O24  1  0.45391100  0.54608900  0.23430200  1
  O  O25  1  0.54608900  0.45391100  0.73430200  1
  O  O26  1  0.49053700  0.94189700  0.54685800  1
  O  O27  1  0.05810300  0.50946300  0.54685800  1
  O  O28  1  0.50946300  0.05810300  0.04685800  1
  O  O29  1  0.94189700  0.49053700  0.04685800  1
  O  O30  1  0.39025600  0.15734000  0.51622300  1
  O  O31  1  0.84266000  0.60974400  0.51622300  1
  O  O32  1  0.60974400  0.84266000  0.01622300  1
  O  O33  1  0.15734000  0.39025600  0.01622300  1
  O  O34  1  0.16109700  0.83890300  0.62964800  1
  O  O35  1  0.83890300  0.16109700  0.12964800  1
  O  O36  1  0.68377300  0.77225600  0.48729600  1
  O  O37  1  0.22774400  0.31622700  0.48729600  1
  O  O38  1  0.31622700  0.22774400  0.98729600  1
  O  O39  1  0.77225600  0.68377300  0.98729600  1
  O  O40  1  0.04938800  0.95061200  0.41745100  1
  O  O41  1  0.95061200  0.04938800  0.91745100  1
  O  O42  1  0.74503300  0.61999700  0.33852300  1
  O  O43  1  0.38000300  0.25496700  0.33852300  1
  O  O44  1  0.25496700  0.38000300  0.83852300  1
  O  O45  1  0.61999700  0.74503300  0.83852300  1
  O  O46  1  0.60754700  0.39245300  0.18087800  1
  O  O47  1  0.39245300  0.60754700  0.68087800  1
