# generated using pymatgen
data_SbAs
_symmetry_space_group_name_H-M   'P 1'
_cell_length_a   4.37958649
_cell_length_b   4.37958649
_cell_length_c   4.37958629
_cell_angle_alpha   55.94861660
_cell_angle_beta   55.94861660
_cell_angle_gamma   55.94861216
_symmetry_Int_Tables_number   1
_chemical_formula_structural   SbAs
_chemical_formula_sum   'Sb1 As1'
_cell_volume   53.82323736
_cell_formula_units_Z   1
loop_
 _symmetry_equiv_pos_site_id
 _symmetry_equiv_pos_as_xyz
  1  'x, y, z'
loop_
 _atom_site_type_symbol
 _atom_site_label
 _atom_site_symmetry_multiplicity
 _atom_site_fract_x
 _atom_site_fract_y
 _atom_site_fract_z
 _atom_site_occupancy
  Sb  Sb0  1  0.23017000  0.23017000  0.23017000  1
  As  As1  1  0.76983000  0.76983000  0.76983000  1
