# generated using pymatgen
data_Nd3(GaSi2)2
_symmetry_space_group_name_H-M   'P 1'
_cell_length_a   4.26584500
_cell_length_b   4.15883100
_cell_length_c   21.55496944
_cell_angle_alpha   84.46404512
_cell_angle_beta   95.67886435
_cell_angle_gamma   90.00000000
_symmetry_Int_Tables_number   1
_chemical_formula_structural   Nd3(GaSi2)2
_chemical_formula_sum   'Nd6 Ga4 Si8'
_cell_volume   378.73594798
_cell_formula_units_Z   2
loop_
 _symmetry_equiv_pos_site_id
 _symmetry_equiv_pos_as_xyz
  1  'x, y, z'
loop_
 _atom_site_type_symbol
 _atom_site_label
 _atom_site_symmetry_multiplicity
 _atom_site_fract_x
 _atom_site_fract_y
 _atom_site_fract_z
 _atom_site_occupancy
  Nd  Nd0  1  0.37428100  0.87571900  0.24856200  1
  Nd  Nd1  1  0.03997600  0.21002400  0.57995100  1
  Nd  Nd2  1  0.70537800  0.54462200  0.91075800  1
  Nd  Nd3  1  0.29407900  0.45592100  0.08815700  1
  Nd  Nd4  1  0.95992300  0.79007700  0.41984600  1
  Nd  Nd5  1  0.62590600  0.12409400  0.75181100  1
  Ga  Ga6  1  0.90344100  0.34655900  0.30688200  1
  Ga  Ga7  1  0.56988700  0.68011300  0.63977300  1
  Ga  Ga8  1  0.23604400  0.01395600  0.97208900  1
  Ga  Ga9  1  0.76373300  0.98626700  0.02746600  1
  Si  Si10  1  0.43099700  0.31900300  0.36199500  1
  Si  Si11  1  0.09731200  0.65268800  0.69462400  1
  Si  Si12  1  0.84726600  0.40273400  0.19453300  1
  Si  Si13  1  0.51344300  0.73655700  0.52688500  1
  Si  Si14  1  0.17994100  0.07005900  0.85988000  1
  Si  Si15  1  0.81997500  0.93002500  0.13995100  1
  Si  Si16  1  0.48618700  0.26381300  0.47237400  1
  Si  Si17  1  0.15223300  0.59776700  0.80446400  1
