# generated using pymatgen
data_Sr3CrN3
_symmetry_space_group_name_H-M   'P 1'
_cell_length_a   7.82880028
_cell_length_b   7.82880028
_cell_length_c   5.25089400
_cell_angle_alpha   90.00000000
_cell_angle_beta   90.00000000
_cell_angle_gamma   120.00000233
_symmetry_Int_Tables_number   1
_chemical_formula_structural   Sr3CrN3
_chemical_formula_sum   'Sr6 Cr2 N6'
_cell_volume   278.71112237
_cell_formula_units_Z   2
loop_
 _symmetry_equiv_pos_site_id
 _symmetry_equiv_pos_as_xyz
  1  'x, y, z'
loop_
 _atom_site_type_symbol
 _atom_site_label
 _atom_site_symmetry_multiplicity
 _atom_site_fract_x
 _atom_site_fract_y
 _atom_site_fract_z
 _atom_site_occupancy
  Sr  Sr0  1  0.72537600  0.08363900  0.25000000  1
  Sr  Sr1  1  0.64173600  0.72537600  0.75000000  1
  Sr  Sr2  1  0.08363900  0.35826400  0.75000000  1
  Sr  Sr3  1  0.91636100  0.64173600  0.25000000  1
  Sr  Sr4  1  0.35826400  0.27462400  0.25000000  1
  Sr  Sr5  1  0.27462400  0.91636100  0.75000000  1
  Cr  Cr6  1  0.33333300  0.66666700  0.25000000  1
  Cr  Cr7  1  0.66666700  0.33333300  0.75000000  1
  N  N8  1  0.68508600  0.12198300  0.75000000  1
  N  N9  1  0.56310200  0.68508600  0.25000000  1
  N  N10  1  0.12198300  0.43689800  0.25000000  1
  N  N11  1  0.87801700  0.56310200  0.75000000  1
  N  N12  1  0.43689800  0.31491400  0.75000000  1
  N  N13  1  0.31491400  0.87801700  0.25000000  1
