# generated using pymatgen
data_KTaGeO5
_symmetry_space_group_name_H-M   'P 1'
_cell_length_a   6.75399300
_cell_length_b   11.16286600
_cell_length_c   13.60658800
_cell_angle_alpha   90.00000000
_cell_angle_beta   90.00000000
_cell_angle_gamma   90.00000000
_symmetry_Int_Tables_number   1
_chemical_formula_structural   KTaGeO5
_chemical_formula_sum   'K8 Ta8 Ge8 O40'
_cell_volume   1025.85399114
_cell_formula_units_Z   8
loop_
 _symmetry_equiv_pos_site_id
 _symmetry_equiv_pos_as_xyz
  1  'x, y, z'
loop_
 _atom_site_type_symbol
 _atom_site_label
 _atom_site_symmetry_multiplicity
 _atom_site_fract_x
 _atom_site_fract_y
 _atom_site_fract_z
 _atom_site_occupancy
  K  K0  1  0.77358600  0.70055100  0.37289500  1
  K  K1  1  0.28965900  0.43747200  0.88996500  1
  K  K2  1  0.21034100  0.43747200  0.38996500  1
  K  K3  1  0.71034100  0.93747200  0.11003500  1
  K  K4  1  0.27358600  0.20055100  0.12710500  1
  K  K5  1  0.72641400  0.70055100  0.87289500  1
  K  K6  1  0.22641400  0.20055100  0.62710500  1
  K  K7  1  0.78965900  0.93747200  0.61003500  1
  Ta  Ta8  1  0.25972700  0.75333100  0.24411600  1
  Ta  Ta9  1  0.74027300  0.25333100  0.75588400  1
  Ta  Ta10  1  0.24027300  0.75333100  0.74411600  1
  Ta  Ta11  1  0.50414800  0.00004400  0.38331200  1
  Ta  Ta12  1  0.49585200  0.50004400  0.61668800  1
  Ta  Ta13  1  0.99585200  0.00004400  0.88331200  1
  Ta  Ta14  1  0.00414800  0.50004400  0.11668800  1
  Ta  Ta15  1  0.75972700  0.25333100  0.25588400  1
  Ge  Ge16  1  0.67592000  0.24782600  0.50424900  1
  Ge  Ge17  1  0.17592000  0.74782600  0.99575100  1
  Ge  Ge18  1  0.82408000  0.24782600  0.00424900  1
  Ge  Ge19  1  0.50599600  0.49745900  0.18209400  1
  Ge  Ge20  1  0.49400400  0.99745900  0.81790600  1
  Ge  Ge21  1  0.99400400  0.49745900  0.68209400  1
  Ge  Ge22  1  0.32408000  0.74782600  0.49575100  1
  Ge  Ge23  1  0.00599600  0.99745900  0.31790600  1
  O  O24  1  0.93812000  0.12232200  0.78664100  1
  O  O25  1  0.06188000  0.62232200  0.21335900  1
  O  O26  1  0.56188000  0.12232200  0.28664100  1
  O  O27  1  0.43812000  0.62232200  0.71335900  1
  O  O28  1  0.45570400  0.87334500  0.28057100  1
  O  O29  1  0.54429600  0.37334500  0.71942900  1
  O  O30  1  0.04429600  0.87334500  0.78057100  1
  O  O31  1  0.95570400  0.37334500  0.21942900  1
  O  O32  1  0.53607300  0.12330700  0.74183500  1
  O  O33  1  0.46392700  0.62330700  0.25816500  1
  O  O34  1  0.96392700  0.12330700  0.24183500  1
  O  O35  1  0.03607300  0.62330700  0.75816500  1
  O  O36  1  0.04206600  0.87415100  0.23700800  1
  O  O37  1  0.95793400  0.37415100  0.76299200  1
  O  O38  1  0.45793400  0.87415100  0.73700800  1
  O  O39  1  0.17654100  0.77071100  0.60161900  1
  O  O40  1  0.54206600  0.37415100  0.26299200  1
  O  O41  1  0.71518700  0.52611000  0.10867800  1
  O  O42  1  0.21518700  0.02611000  0.39132200  1
  O  O43  1  0.78481300  0.52611000  0.60867800  1
  O  O44  1  0.79948200  0.96014200  0.39044700  1
  O  O45  1  0.20051800  0.46014200  0.60955300  1
  O  O46  1  0.70051800  0.96014200  0.89044700  1
  O  O47  1  0.29948200  0.46014200  0.10955300  1
  O  O48  1  0.49659200  0.86460100  0.48391700  1
  O  O49  1  0.50340800  0.36460100  0.51608300  1
  O  O50  1  0.00340800  0.86460100  0.98391700  1
  O  O51  1  0.99659200  0.36460100  0.01608300  1
  O  O52  1  0.96354200  0.11360100  0.99449700  1
  O  O53  1  0.03645800  0.61360100  0.00550300  1
  O  O54  1  0.53645800  0.11360100  0.49449700  1
  O  O55  1  0.46354200  0.61360100  0.50550300  1
  O  O56  1  0.18021200  0.72887500  0.38828800  1
  O  O57  1  0.81978800  0.22887500  0.61171200  1
  O  O58  1  0.31978800  0.72887500  0.88828800  1
  O  O59  1  0.68021200  0.22887500  0.11171200  1
  O  O60  1  0.67654100  0.27071100  0.89838100  1
  O  O61  1  0.32345900  0.77071100  0.10161900  1
  O  O62  1  0.82345900  0.27071100  0.39838100  1
  O  O63  1  0.28481300  0.02611000  0.89132200  1
