# generated using pymatgen
data_Ti2Ni
_symmetry_space_group_name_H-M   'P 1'
_cell_length_a   7.97261199
_cell_length_b   7.97261199
_cell_length_c   7.97261199
_cell_angle_alpha   60.00000000
_cell_angle_beta   60.00000000
_cell_angle_gamma   60.00000000
_symmetry_Int_Tables_number   1
_chemical_formula_structural   Ti2Ni
_chemical_formula_sum   'Ti16 Ni8'
_cell_volume   358.33306721
_cell_formula_units_Z   8
loop_
 _symmetry_equiv_pos_site_id
 _symmetry_equiv_pos_as_xyz
  1  'x, y, z'
loop_
 _atom_site_type_symbol
 _atom_site_label
 _atom_site_symmetry_multiplicity
 _atom_site_fract_x
 _atom_site_fract_y
 _atom_site_fract_z
 _atom_site_occupancy
  Ti  Ti0  1  0.12500000  0.62500000  0.62500000  1
  Ti  Ti1  1  0.62500000  0.12500000  0.62500000  1
  Ti  Ti2  1  0.62500000  0.62500000  0.12500000  1
  Ti  Ti3  1  0.62500000  0.62500000  0.62500000  1
  Ti  Ti4  1  0.81262100  0.81262100  0.18737900  1
  Ti  Ti5  1  0.18737900  0.18737900  0.81262100  1
  Ti  Ti6  1  0.81262100  0.18737900  0.81262100  1
  Ti  Ti7  1  0.18737900  0.81262100  0.18737900  1
  Ti  Ti8  1  0.18737900  0.81262100  0.81262100  1
  Ti  Ti9  1  0.81262100  0.18737900  0.18737900  1
  Ti  Ti10  1  0.43737900  0.43737900  0.06262100  1
  Ti  Ti11  1  0.06262100  0.06262100  0.43737900  1
  Ti  Ti12  1  0.43737900  0.06262100  0.43737900  1
  Ti  Ti13  1  0.06262100  0.43737900  0.06262100  1
  Ti  Ti14  1  0.06262100  0.43737900  0.43737900  1
  Ti  Ti15  1  0.43737900  0.06262100  0.06262100  1
  Ni  Ni16  1  0.76544400  0.41151900  0.41151900  1
  Ni  Ni17  1  0.41151900  0.76544400  0.41151900  1
  Ni  Ni18  1  0.41151900  0.41151900  0.76544400  1
  Ni  Ni19  1  0.41151900  0.41151900  0.41151900  1
  Ni  Ni20  1  0.48455600  0.83848100  0.83848100  1
  Ni  Ni21  1  0.83848100  0.48455600  0.83848100  1
  Ni  Ni22  1  0.83848100  0.83848100  0.48455600  1
  Ni  Ni23  1  0.83848100  0.83848100  0.83848100  1
