# generated using pymatgen
data_LaAl
_symmetry_space_group_name_H-M   'P 1'
_cell_length_a   6.12466442
_cell_length_b   6.12466442
_cell_length_c   5.77126700
_cell_angle_alpha   90.00000000
_cell_angle_beta   90.00000000
_cell_angle_gamma   101.34015400
_symmetry_Int_Tables_number   1
_chemical_formula_structural   LaAl
_chemical_formula_sum   'La4 Al4'
_cell_volume   212.26247099
_cell_formula_units_Z   4
loop_
 _symmetry_equiv_pos_site_id
 _symmetry_equiv_pos_as_xyz
  1  'x, y, z'
loop_
 _atom_site_type_symbol
 _atom_site_label
 _atom_site_symmetry_multiplicity
 _atom_site_fract_x
 _atom_site_fract_y
 _atom_site_fract_z
 _atom_site_occupancy
  La  La0  1  0.84188600  0.48597900  0.25000000  1
  La  La1  1  0.15811400  0.51402100  0.75000000  1
  La  La2  1  0.48597900  0.84188600  0.25000000  1
  La  La3  1  0.51402100  0.15811400  0.75000000  1
  Al  Al4  1  0.30352900  0.30352900  0.25000000  1
  Al  Al5  1  0.69647100  0.69647100  0.75000000  1
  Al  Al6  1  0.00000000  0.00000000  0.50000000  1
  Al  Al7  1  0.00000000  0.00000000  0.00000000  1
