# generated using pymatgen
data_NdAu
_symmetry_space_group_name_H-M   'P 1'
_cell_length_a   4.79323600
_cell_length_b   5.85846100
_cell_length_c   7.57531800
_cell_angle_alpha   90.00000000
_cell_angle_beta   90.00000000
_cell_angle_gamma   90.00000000
_symmetry_Int_Tables_number   1
_chemical_formula_structural   NdAu
_chemical_formula_sum   'Nd4 Au4'
_cell_volume   212.72239999
_cell_formula_units_Z   4
loop_
 _symmetry_equiv_pos_site_id
 _symmetry_equiv_pos_as_xyz
  1  'x, y, z'
loop_
 _atom_site_type_symbol
 _atom_site_label
 _atom_site_symmetry_multiplicity
 _atom_site_fract_x
 _atom_site_fract_y
 _atom_site_fract_z
 _atom_site_occupancy
  Nd  Nd0  1  0.25000000  0.35060500  0.68853300  1
  Nd  Nd1  1  0.25000000  0.14939500  0.18853300  1
  Nd  Nd2  1  0.75000000  0.64939500  0.31146700  1
  Nd  Nd3  1  0.75000000  0.85060500  0.81146700  1
  Au  Au4  1  0.25000000  0.84568200  0.54195400  1
  Au  Au5  1  0.25000000  0.65431800  0.04195400  1
  Au  Au6  1  0.75000000  0.15431800  0.45804600  1
  Au  Au7  1  0.75000000  0.34568200  0.95804600  1
