# generated using pymatgen
data_Pu2Zn17
_symmetry_space_group_name_H-M   'P 1'
_cell_length_a   6.82510488
_cell_length_b   6.82510488
_cell_length_c   6.82510470
_cell_angle_alpha   82.64297794
_cell_angle_beta   82.64297794
_cell_angle_gamma   82.64296995
_symmetry_Int_Tables_number   1
_chemical_formula_structural   Pu2Zn17
_chemical_formula_sum   'Pu2 Zn17'
_cell_volume   310.69295124
_cell_formula_units_Z   1
loop_
 _symmetry_equiv_pos_site_id
 _symmetry_equiv_pos_as_xyz
  1  'x, y, z'
loop_
 _atom_site_type_symbol
 _atom_site_label
 _atom_site_symmetry_multiplicity
 _atom_site_fract_x
 _atom_site_fract_y
 _atom_site_fract_z
 _atom_site_occupancy
  Pu  Pu0  1  0.66506800  0.66506800  0.66506800  1
  Pu  Pu1  1  0.33493200  0.33493200  0.33493200  1
  Zn  Zn2  1  0.00000000  0.00000000  0.50000000  1
  Zn  Zn3  1  0.50000000  0.00000000  0.00000000  1
  Zn  Zn4  1  0.00000000  0.50000000  0.00000000  1
  Zn  Zn5  1  0.69938300  0.30061700  0.00000000  1
  Zn  Zn6  1  0.00000000  0.69938300  0.30061700  1
  Zn  Zn7  1  0.30061700  0.00000000  0.69938300  1
  Zn  Zn8  1  0.00000000  0.30061700  0.69938300  1
  Zn  Zn9  1  0.69938300  0.00000000  0.30061700  1
  Zn  Zn10  1  0.30061700  0.69938300  0.00000000  1
  Zn  Zn11  1  0.35218900  0.35218900  0.83780800  1
  Zn  Zn12  1  0.83780800  0.35218900  0.35218900  1
  Zn  Zn13  1  0.35218900  0.83780800  0.35218900  1
  Zn  Zn14  1  0.64781100  0.64781100  0.16219200  1
  Zn  Zn15  1  0.16219200  0.64781100  0.64781100  1
  Zn  Zn16  1  0.64781100  0.16219200  0.64781100  1
  Zn  Zn17  1  0.89845200  0.89845200  0.89845200  1
  Zn  Zn18  1  0.10154800  0.10154800  0.10154800  1
