# generated using pymatgen
data_PrNi
_symmetry_space_group_name_H-M   'P 1'
_cell_length_a   5.68195419
_cell_length_b   5.68195419
_cell_length_c   4.33911900
_cell_angle_alpha   90.00000000
_cell_angle_beta   90.00000000
_cell_angle_gamma   140.31106180
_symmetry_Int_Tables_number   1
_chemical_formula_structural   PrNi
_chemical_formula_sum   'Pr2 Ni2'
_cell_volume   89.46208795
_cell_formula_units_Z   2
loop_
 _symmetry_equiv_pos_site_id
 _symmetry_equiv_pos_as_xyz
  1  'x, y, z'
loop_
 _atom_site_type_symbol
 _atom_site_label
 _atom_site_symmetry_multiplicity
 _atom_site_fract_x
 _atom_site_fract_y
 _atom_site_fract_z
 _atom_site_occupancy
  Pr  Pr0  1  0.63744700  0.36255300  0.75000000  1
  Pr  Pr1  1  0.36255300  0.63744700  0.25000000  1
  Ni  Ni2  1  0.92912500  0.07087500  0.75000000  1
  Ni  Ni3  1  0.07087500  0.92912500  0.25000000  1
