# generated using pymatgen
data_CaTiN2
_symmetry_space_group_name_H-M   'P 1'
_cell_length_a   4.99694000
_cell_length_b   10.06523100
_cell_length_c   17.15265800
_cell_angle_alpha   90.00000000
_cell_angle_beta   90.00000000
_cell_angle_gamma   90.00000000
_symmetry_Int_Tables_number   1
_chemical_formula_structural   CaTiN2
_chemical_formula_sum   'Ca16 Ti16 N32'
_cell_volume   862.69903005
_cell_formula_units_Z   16
loop_
 _symmetry_equiv_pos_site_id
 _symmetry_equiv_pos_as_xyz
  1  'x, y, z'
loop_
 _atom_site_type_symbol
 _atom_site_label
 _atom_site_symmetry_multiplicity
 _atom_site_fract_x
 _atom_site_fract_y
 _atom_site_fract_z
 _atom_site_occupancy
  Ca  Ca0  1  0.74075300  0.99662500  0.43741600  1
  Ca  Ca1  1  0.24075300  0.50337500  0.56258400  1
  Ca  Ca2  1  0.25924700  0.49662500  0.06258400  1
  Ca  Ca3  1  0.75924700  0.00337500  0.93741600  1
  Ca  Ca4  1  0.25924700  0.00337500  0.56258400  1
  Ca  Ca5  1  0.75924700  0.49662500  0.43741600  1
  Ca  Ca6  1  0.74075300  0.50337500  0.93741600  1
  Ca  Ca7  1  0.24075300  0.99662500  0.06258400  1
  Ca  Ca8  1  0.75165500  0.25263200  0.31256900  1
  Ca  Ca9  1  0.25165500  0.24736800  0.68743100  1
  Ca  Ca10  1  0.24834500  0.75263200  0.18743100  1
  Ca  Ca11  1  0.74834500  0.74736800  0.81256900  1
  Ca  Ca12  1  0.24834500  0.74736800  0.68743100  1
  Ca  Ca13  1  0.74834500  0.75263200  0.31256900  1
  Ca  Ca14  1  0.75165500  0.24736800  0.81256900  1
  Ca  Ca15  1  0.25165500  0.25263200  0.18743100  1
  Ti  Ti16  1  0.70143700  0.02272800  0.18741900  1
  Ti  Ti17  1  0.20143700  0.47727200  0.81258100  1
  Ti  Ti18  1  0.29856300  0.52272800  0.31258100  1
  Ti  Ti19  1  0.79856300  0.97727200  0.68741900  1
  Ti  Ti20  1  0.29856300  0.97727200  0.81258100  1
  Ti  Ti21  1  0.79856300  0.52272800  0.18741900  1
  Ti  Ti22  1  0.70143700  0.47727200  0.68741900  1
  Ti  Ti23  1  0.20143700  0.02272800  0.31258100  1
  Ti  Ti24  1  0.78927200  0.27274800  0.06213000  1
  Ti  Ti25  1  0.28927200  0.22725200  0.93787000  1
  Ti  Ti26  1  0.21072800  0.77274800  0.43787000  1
  Ti  Ti27  1  0.71072800  0.72725200  0.56213000  1
  Ti  Ti28  1  0.21072800  0.72725200  0.93787000  1
  Ti  Ti29  1  0.71072800  0.77274800  0.06213000  1
  Ti  Ti30  1  0.78927200  0.22725200  0.56213000  1
  Ti  Ti31  1  0.28927200  0.27274800  0.43787000  1
  N  N32  1  0.67489900  0.49887100  0.29825900  1
  N  N33  1  0.17489900  0.00112900  0.70174100  1
  N  N34  1  0.32510100  0.99887100  0.20174100  1
  N  N35  1  0.82510100  0.50112900  0.79825900  1
  N  N36  1  0.32510100  0.50112900  0.70174100  1
  N  N37  1  0.82510100  0.99887100  0.29825900  1
  N  N38  1  0.67489900  0.00112900  0.79825900  1
  N  N39  1  0.17489900  0.49887100  0.20174100  1
  N  N40  1  0.66829800  0.25588200  0.45191200  1
  N  N41  1  0.16829800  0.24411800  0.54808800  1
  N  N42  1  0.33170200  0.75588200  0.04808800  1
  N  N43  1  0.83170200  0.74411800  0.95191200  1
  N  N44  1  0.33170200  0.74411800  0.54808800  1
  N  N45  1  0.83170200  0.75588200  0.45191200  1
  N  N46  1  0.66829800  0.24411800  0.95191200  1
  N  N47  1  0.16829800  0.25588200  0.04808800  1
  N  N48  1  0.74625900  0.45970600  0.07691000  1
  N  N49  1  0.24625900  0.04029400  0.92309000  1
  N  N50  1  0.25374100  0.95970600  0.42309000  1
  N  N51  1  0.75374100  0.54029400  0.57691000  1
  N  N52  1  0.25374100  0.54029400  0.92309000  1
  N  N53  1  0.75374100  0.95970600  0.07691000  1
  N  N54  1  0.74625900  0.04029400  0.57691000  1
  N  N55  1  0.24625900  0.45970600  0.42309000  1
  N  N56  1  0.73341600  0.21000600  0.17261200  1
  N  N57  1  0.23341600  0.28999400  0.82738800  1
  N  N58  1  0.26658400  0.71000600  0.32738800  1
  N  N59  1  0.76658400  0.78999400  0.67261200  1
  N  N60  1  0.26658400  0.78999400  0.82738800  1
  N  N61  1  0.76658400  0.71000600  0.17261200  1
  N  N62  1  0.73341600  0.28999400  0.67261200  1
  N  N63  1  0.23341600  0.21000600  0.32738800  1
