# generated using pymatgen
data_Eu2N
_symmetry_space_group_name_H-M   'P 1'
_cell_length_a   7.49919127
_cell_length_b   7.49919127
_cell_length_c   7.49919127
_cell_angle_alpha   60.00000000
_cell_angle_beta   60.00000000
_cell_angle_gamma   60.00000000
_symmetry_Int_Tables_number   1
_chemical_formula_structural   Eu2N
_chemical_formula_sum   'Eu8 N4'
_cell_volume   298.21418253
_cell_formula_units_Z   4
loop_
 _symmetry_equiv_pos_site_id
 _symmetry_equiv_pos_as_xyz
  1  'x, y, z'
loop_
 _atom_site_type_symbol
 _atom_site_label
 _atom_site_symmetry_multiplicity
 _atom_site_fract_x
 _atom_site_fract_y
 _atom_site_fract_z
 _atom_site_occupancy
  Eu  Eu0  1  0.38565800  0.84302600  0.38565800  1
  Eu  Eu1  1  0.84302600  0.38565800  0.38565800  1
  Eu  Eu2  1  0.86434200  0.86434200  0.86434200  1
  Eu  Eu3  1  0.40697400  0.86434200  0.86434200  1
  Eu  Eu4  1  0.86434200  0.40697400  0.86434200  1
  Eu  Eu5  1  0.86434200  0.86434200  0.40697400  1
  Eu  Eu6  1  0.38565800  0.38565800  0.38565800  1
  Eu  Eu7  1  0.38565800  0.38565800  0.84302600  1
  N  N8  1  0.12500000  0.62500000  0.62500000  1
  N  N9  1  0.62500000  0.12500000  0.62500000  1
  N  N10  1  0.62500000  0.62500000  0.12500000  1
  N  N11  1  0.62500000  0.62500000  0.62500000  1
