# generated using pymatgen
data_Ba2Na2U(S2O)2
_symmetry_space_group_name_H-M   'P 1'
_cell_length_a   6.44813734
_cell_length_b   6.82573937
_cell_length_c   6.88011008
_cell_angle_alpha   81.18773571
_cell_angle_beta   66.77046553
_cell_angle_gamma   71.84876920
_symmetry_Int_Tables_number   1
_chemical_formula_structural   Ba2Na2U(S2O)2
_chemical_formula_sum   'Ba2 Na2 U1 S4 O2'
_cell_volume   264.26091141
_cell_formula_units_Z   1
loop_
 _symmetry_equiv_pos_site_id
 _symmetry_equiv_pos_as_xyz
  1  'x, y, z'
loop_
 _atom_site_type_symbol
 _atom_site_label
 _atom_site_symmetry_multiplicity
 _atom_site_fract_x
 _atom_site_fract_y
 _atom_site_fract_z
 _atom_site_occupancy
  Ba  Ba0  1  0.41891200  0.81143900  0.32640400  1
  Ba  Ba1  1  0.58108800  0.18856100  0.67359600  1
  Na  Na2  1  0.86319700  0.59306800  0.78977200  1
  Na  Na3  1  0.13680300  0.40693200  0.21022800  1
  U  U4  1  0.00000000  0.00000000  0.00000000  1
  S  S5  1  0.90100000  0.80351600  0.37807600  1
  S  S6  1  0.09900000  0.19648400  0.62192400  1
  S  S7  1  0.32326300  0.65877300  0.81681200  1
  S  S8  1  0.67673700  0.34122700  0.18318800  1
  O  O9  1  0.76371600  0.91599000  0.95595900  1
  O  O10  1  0.23628400  0.08401000  0.04404100  1
