# generated using pymatgen
data_TbCo3P2
_symmetry_space_group_name_H-M   'P 1'
_cell_length_a   3.70107700
_cell_length_b   10.54028800
_cell_length_c   12.20555000
_cell_angle_alpha   90.00000000
_cell_angle_beta   90.00000000
_cell_angle_gamma   90.00000000
_symmetry_Int_Tables_number   1
_chemical_formula_structural   TbCo3P2
_chemical_formula_sum   'Tb6 Co18 P12'
_cell_volume   476.14360120
_cell_formula_units_Z   6
loop_
 _symmetry_equiv_pos_site_id
 _symmetry_equiv_pos_as_xyz
  1  'x, y, z'
loop_
 _atom_site_type_symbol
 _atom_site_label
 _atom_site_symmetry_multiplicity
 _atom_site_fract_x
 _atom_site_fract_y
 _atom_site_fract_z
 _atom_site_occupancy
  Tb  Tb0  1  0.00000000  0.50000000  0.52269500  1
  Tb  Tb1  1  0.50000000  0.00000000  0.47730500  1
  Tb  Tb2  1  0.50000000  0.81667000  0.20575000  1
  Tb  Tb3  1  0.50000000  0.18333000  0.20575000  1
  Tb  Tb4  1  0.00000000  0.68333000  0.79425000  1
  Tb  Tb5  1  0.00000000  0.31667000  0.79425000  1
  Co  Co6  1  0.50000000  0.50000000  0.15901900  1
  Co  Co7  1  0.00000000  0.00000000  0.84098100  1
  Co  Co8  1  0.50000000  0.50000000  0.70349900  1
  Co  Co9  1  0.00000000  0.00000000  0.29650100  1
  Co  Co10  1  0.00000000  0.50000000  0.98581700  1
  Co  Co11  1  0.50000000  0.00000000  0.01418300  1
  Co  Co12  1  0.50000000  0.33318300  0.99464100  1
  Co  Co13  1  0.50000000  0.66681700  0.99464100  1
  Co  Co14  1  0.00000000  0.16681700  0.00535900  1
  Co  Co15  1  0.00000000  0.83318300  0.00535900  1
  Co  Co16  1  0.50000000  0.29700300  0.43076600  1
  Co  Co17  1  0.50000000  0.70299700  0.43076600  1
  Co  Co18  1  0.00000000  0.20299700  0.56923400  1
  Co  Co19  1  0.00000000  0.79700300  0.56923400  1
  Co  Co20  1  0.50000000  0.87977600  0.70935600  1
  Co  Co21  1  0.50000000  0.12022400  0.70935600  1
  Co  Co22  1  0.00000000  0.62022400  0.29064400  1
  Co  Co23  1  0.00000000  0.37977600  0.29064400  1
  P  P24  1  0.50000000  0.50000000  0.88287400  1
  P  P25  1  0.00000000  0.00000000  0.11712600  1
  P  P26  1  0.50000000  0.50000000  0.34374200  1
  P  P27  1  0.00000000  0.00000000  0.65625800  1
  P  P28  1  0.50000000  0.31013100  0.61616500  1
  P  P29  1  0.50000000  0.68986900  0.61616500  1
  P  P30  1  0.00000000  0.18986900  0.38383500  1
  P  P31  1  0.00000000  0.81013100  0.38383500  1
  P  P32  1  0.50000000  0.84810800  0.89322200  1
  P  P33  1  0.50000000  0.15189200  0.89322200  1
  P  P34  1  0.00000000  0.65189200  0.10677800  1
  P  P35  1  0.00000000  0.34810800  0.10677800  1
