# generated using pymatgen
data_KZr6NCl15
_symmetry_space_group_name_H-M   'P 1'
_cell_length_a   9.75028100
_cell_length_b   14.01689100
_cell_length_c   18.60394400
_cell_angle_alpha   90.00000000
_cell_angle_beta   90.00000000
_cell_angle_gamma   90.00000000
_symmetry_Int_Tables_number   1
_chemical_formula_structural   KZr6NCl15
_chemical_formula_sum   'K4 Zr24 N4 Cl60'
_cell_volume   2542.57546459
_cell_formula_units_Z   4
loop_
 _symmetry_equiv_pos_site_id
 _symmetry_equiv_pos_as_xyz
  1  'x, y, z'
loop_
 _atom_site_type_symbol
 _atom_site_label
 _atom_site_symmetry_multiplicity
 _atom_site_fract_x
 _atom_site_fract_y
 _atom_site_fract_z
 _atom_site_occupancy
  K  K0  1  0.83076100  0.24717600  0.75000000  1
  K  K1  1  0.16923900  0.75282400  0.25000000  1
  K  K2  1  0.83076100  0.75282400  0.75000000  1
  K  K3  1  0.16923900  0.24717600  0.25000000  1
  Zr  Zr4  1  0.11553800  0.50000000  0.75000000  1
  Zr  Zr5  1  0.88446200  0.50000000  0.25000000  1
  Zr  Zr6  1  0.08078000  0.00000000  0.11271900  1
  Zr  Zr7  1  0.91922000  0.00000000  0.88728100  1
  Zr  Zr8  1  0.08078000  0.00000000  0.38728100  1
  Zr  Zr9  1  0.91922000  0.00000000  0.61271900  1
  Zr  Zr10  1  0.34247500  0.38463600  0.66303600  1
  Zr  Zr11  1  0.65752500  0.61536400  0.33696400  1
  Zr  Zr12  1  0.34247500  0.61536400  0.83696400  1
  Zr  Zr13  1  0.65752500  0.38463600  0.33696400  1
  Zr  Zr14  1  0.65752500  0.38463600  0.16303600  1
  Zr  Zr15  1  0.34247500  0.61536400  0.66303600  1
  Zr  Zr16  1  0.65752500  0.61536400  0.16303600  1
  Zr  Zr17  1  0.34247500  0.38463600  0.83696400  1
  Zr  Zr18  1  0.57153100  0.50000000  0.75000000  1
  Zr  Zr19  1  0.42846900  0.50000000  0.25000000  1
  Zr  Zr20  1  0.15605400  0.11494800  0.52951900  1
  Zr  Zr21  1  0.84394600  0.88505200  0.47048100  1
  Zr  Zr22  1  0.15605400  0.88505200  0.97048100  1
  Zr  Zr23  1  0.84394600  0.11494800  0.47048100  1
  Zr  Zr24  1  0.84394600  0.11494800  0.02951900  1
  Zr  Zr25  1  0.15605400  0.88505200  0.52951900  1
  Zr  Zr26  1  0.84394600  0.88505200  0.02951900  1
  Zr  Zr27  1  0.15605400  0.11494800  0.97048100  1
  N  N28  1  0.00000000  0.00000000  0.50000000  1
  N  N29  1  0.00000000  0.00000000  0.00000000  1
  N  N30  1  0.34384800  0.50000000  0.75000000  1
  N  N31  1  0.65615200  0.50000000  0.25000000  1
  Cl  Cl32  1  0.81606300  0.00000000  0.75000000  1
  Cl  Cl33  1  0.18393700  0.00000000  0.25000000  1
  Cl  Cl34  1  0.84276600  0.50000000  0.75000000  1
  Cl  Cl35  1  0.15723400  0.50000000  0.25000000  1
  Cl  Cl36  1  0.34234900  0.50000000  0.55720200  1
  Cl  Cl37  1  0.65765100  0.50000000  0.44279800  1
  Cl  Cl38  1  0.34234900  0.50000000  0.94279800  1
  Cl  Cl39  1  0.65765100  0.50000000  0.05720200  1
  Cl  Cl40  1  0.00000000  0.25515100  0.50000000  1
  Cl  Cl41  1  0.00000000  0.74484900  0.50000000  1
  Cl  Cl42  1  0.00000000  0.74484900  0.00000000  1
  Cl  Cl43  1  0.00000000  0.25515100  0.00000000  1
  Cl  Cl44  1  0.34994500  0.24406000  0.75000000  1
  Cl  Cl45  1  0.65005500  0.75594000  0.25000000  1
  Cl  Cl46  1  0.34994500  0.75594000  0.75000000  1
  Cl  Cl47  1  0.65005500  0.24406000  0.25000000  1
  Cl  Cl48  1  0.34140800  0.24924600  0.56200400  1
  Cl  Cl49  1  0.65859200  0.75075400  0.43799600  1
  Cl  Cl50  1  0.34140800  0.75075400  0.93799600  1
  Cl  Cl51  1  0.65859200  0.24924600  0.43799600  1
  Cl  Cl52  1  0.65859200  0.24924600  0.06200400  1
  Cl  Cl53  1  0.34140800  0.75075400  0.56200400  1
  Cl  Cl54  1  0.65859200  0.75075400  0.06200400  1
  Cl  Cl55  1  0.34140800  0.24924600  0.93799600  1
  Cl  Cl56  1  0.08205600  0.12616100  0.66063100  1
  Cl  Cl57  1  0.91794400  0.87383900  0.33936900  1
  Cl  Cl58  1  0.08205600  0.87383900  0.83936900  1
  Cl  Cl59  1  0.91794400  0.12616100  0.33936900  1
  Cl  Cl60  1  0.91794400  0.12616100  0.16063100  1
  Cl  Cl61  1  0.08205600  0.87383900  0.66063100  1
  Cl  Cl62  1  0.91794400  0.87383900  0.16063100  1
  Cl  Cl63  1  0.08205600  0.12616100  0.83936900  1
  Cl  Cl64  1  0.08152500  0.37309800  0.65426300  1
  Cl  Cl65  1  0.91847500  0.62690200  0.34573700  1
  Cl  Cl66  1  0.08152500  0.62690200  0.84573700  1
  Cl  Cl67  1  0.91847500  0.37309800  0.34573700  1
  Cl  Cl68  1  0.91847500  0.37309800  0.15426300  1
  Cl  Cl69  1  0.08152500  0.62690200  0.65426300  1
  Cl  Cl70  1  0.91847500  0.62690200  0.15426300  1
  Cl  Cl71  1  0.08152500  0.37309800  0.84573700  1
  Cl  Cl72  1  0.34570900  0.00000000  0.56626800  1
  Cl  Cl73  1  0.65429100  0.00000000  0.43373200  1
  Cl  Cl74  1  0.34570900  0.00000000  0.93373200  1
  Cl  Cl75  1  0.65429100  0.00000000  0.06626800  1
  Cl  Cl76  1  0.60439500  0.37210000  0.65268900  1
  Cl  Cl77  1  0.39560500  0.62790000  0.34731100  1
  Cl  Cl78  1  0.60439500  0.62790000  0.84731100  1
  Cl  Cl79  1  0.39560500  0.37210000  0.34731100  1
  Cl  Cl80  1  0.39560500  0.37210000  0.15268900  1
  Cl  Cl81  1  0.60439500  0.62790000  0.65268900  1
  Cl  Cl82  1  0.39560500  0.62790000  0.15268900  1
  Cl  Cl83  1  0.60439500  0.37210000  0.84731100  1
  Cl  Cl84  1  0.26419700  0.12871200  0.09609900  1
  Cl  Cl85  1  0.73580300  0.87128800  0.90390100  1
  Cl  Cl86  1  0.26419700  0.87128800  0.40390100  1
  Cl  Cl87  1  0.73580300  0.12871200  0.90390100  1
  Cl  Cl88  1  0.73580300  0.12871200  0.59609900  1
  Cl  Cl89  1  0.26419700  0.87128800  0.09609900  1
  Cl  Cl90  1  0.73580300  0.87128800  0.59609900  1
  Cl  Cl91  1  0.26419700  0.12871200  0.40390100  1
