# generated using pymatgen
data_TbFeB4
_symmetry_space_group_name_H-M   'P 1'
_cell_length_a   3.39312900
_cell_length_b   5.90281500
_cell_length_c   11.41812800
_cell_angle_alpha   90.00000000
_cell_angle_beta   90.00000000
_cell_angle_gamma   90.00000000
_symmetry_Int_Tables_number   1
_chemical_formula_structural   TbFeB4
_chemical_formula_sum   'Tb4 Fe4 B16'
_cell_volume   228.69383139
_cell_formula_units_Z   4
loop_
 _symmetry_equiv_pos_site_id
 _symmetry_equiv_pos_as_xyz
  1  'x, y, z'
loop_
 _atom_site_type_symbol
 _atom_site_label
 _atom_site_symmetry_multiplicity
 _atom_site_fract_x
 _atom_site_fract_y
 _atom_site_fract_z
 _atom_site_occupancy
  Tb  Tb0  1  0.50000000  0.37420600  0.15012800  1
  Tb  Tb1  1  0.50000000  0.62579400  0.84987200  1
  Tb  Tb2  1  0.50000000  0.12579400  0.65012800  1
  Tb  Tb3  1  0.50000000  0.87420600  0.34987200  1
  Fe  Fe4  1  0.50000000  0.36708300  0.41150300  1
  Fe  Fe5  1  0.50000000  0.63291700  0.58849700  1
  Fe  Fe6  1  0.50000000  0.13291700  0.91150300  1
  Fe  Fe7  1  0.50000000  0.86708300  0.08849700  1
  B  B8  1  0.00000000  0.11106800  0.04569200  1
  B  B9  1  0.00000000  0.88893200  0.95430800  1
  B  B10  1  0.00000000  0.38893200  0.54569200  1
  B  B11  1  0.00000000  0.61106800  0.45430800  1
  B  B12  1  0.00000000  0.14011800  0.46796300  1
  B  B13  1  0.00000000  0.85988200  0.53203700  1
  B  B14  1  0.00000000  0.35988200  0.96796300  1
  B  B15  1  0.00000000  0.64011800  0.03203700  1
  B  B16  1  0.00000000  0.02443900  0.18960400  1
  B  B17  1  0.00000000  0.97556100  0.81039600  1
  B  B18  1  0.00000000  0.47556100  0.68960400  1
  B  B19  1  0.00000000  0.52443900  0.31039600  1
  B  B20  1  0.00000000  0.21904100  0.31640000  1
  B  B21  1  0.00000000  0.78095900  0.68360000  1
  B  B22  1  0.00000000  0.28095900  0.81640000  1
  B  B23  1  0.00000000  0.71904100  0.18360000  1
