# generated using pymatgen
data_Yb2Cu3Te4(ClO3)4
_symmetry_space_group_name_H-M   'P 1'
_cell_length_a   5.56939800
_cell_length_b   8.12196699
_cell_length_c   9.72528121
_cell_angle_alpha   99.99621359
_cell_angle_beta   88.06406829
_cell_angle_gamma   104.88019594
_symmetry_Int_Tables_number   1
_chemical_formula_structural   Yb2Cu3Te4(ClO3)4
_chemical_formula_sum   'Yb2 Cu3 Te4 Cl4 O12'
_cell_volume   418.68395396
_cell_formula_units_Z   1
loop_
 _symmetry_equiv_pos_site_id
 _symmetry_equiv_pos_as_xyz
  1  'x, y, z'
loop_
 _atom_site_type_symbol
 _atom_site_label
 _atom_site_symmetry_multiplicity
 _atom_site_fract_x
 _atom_site_fract_y
 _atom_site_fract_z
 _atom_site_occupancy
  Yb  Yb0  1  0.68950000  0.82951900  0.99014000  1
  Yb  Yb1  1  0.31050000  0.17048100  0.00986000  1
  Cu  Cu2  1  0.60364100  0.59637600  0.30104600  1
  Cu  Cu3  1  0.39635900  0.40362400  0.69895400  1
  Cu  Cu4  1  0.00000000  0.50000000  0.00000000  1
  Te  Te5  1  0.82801300  0.16328700  0.76469400  1
  Te  Te6  1  0.17198700  0.83671300  0.23530600  1
  Te  Te7  1  0.19814200  0.75726900  0.75592200  1
  Te  Te8  1  0.80185800  0.24273100  0.24407800  1
  Cl  Cl9  1  0.25326000  0.54533800  0.41870600  1
  Cl  Cl10  1  0.74674000  0.45466200  0.58129400  1
  Cl  Cl11  1  0.72144500  0.85622900  0.42524200  1
  Cl  Cl12  1  0.27855500  0.14377100  0.57475800  1
  O  O13  1  0.57390800  0.05097200  0.14151200  1
  O  O14  1  0.42609200  0.94902800  0.85848800  1
  O  O15  1  0.86815000  0.64530200  0.17896100  1
  O  O16  1  0.13185000  0.35469800  0.82103900  1
  O  O17  1  0.94742000  0.01969400  0.86273900  1
  O  O18  1  0.05258000  0.98030600  0.13726100  1
  O  O19  1  0.32485700  0.69475100  0.10150400  1
  O  O20  1  0.67514300  0.30524900  0.89849600  1
  O  O21  1  0.97030000  0.67466800  0.89463000  1
  O  O22  1  0.02970000  0.32533200  0.10537000  1
  O  O23  1  0.44679800  0.63598700  0.78059200  1
  O  O24  1  0.55320200  0.36401300  0.21940800  1
