# generated using pymatgen
data_Ce2AlRu
_symmetry_space_group_name_H-M   'P 1'
_cell_length_a   7.85342700
_cell_length_b   7.85342650
_cell_length_c   9.70601000
_cell_angle_alpha   90.00000000
_cell_angle_beta   90.00000000
_cell_angle_gamma   119.99999789
_symmetry_Int_Tables_number   1
_chemical_formula_structural   Ce2AlRu
_chemical_formula_sum   'Ce12 Al6 Ru6'
_cell_volume   518.42957641
_cell_formula_units_Z   6
loop_
 _symmetry_equiv_pos_site_id
 _symmetry_equiv_pos_as_xyz
  1  'x, y, z'
loop_
 _atom_site_type_symbol
 _atom_site_label
 _atom_site_symmetry_multiplicity
 _atom_site_fract_x
 _atom_site_fract_y
 _atom_site_fract_z
 _atom_site_occupancy
  Ce  Ce0  1  0.00000000  0.58613900  0.50246400  1
  Ce  Ce1  1  0.58613900  0.00000000  0.50246400  1
  Ce  Ce2  1  0.41386100  0.41386100  0.50246400  1
  Ce  Ce3  1  0.00000000  0.41386100  0.00246400  1
  Ce  Ce4  1  0.41386100  0.00000000  0.00246400  1
  Ce  Ce5  1  0.58613900  0.58613900  0.00246400  1
  Ce  Ce6  1  0.00000000  0.73753400  0.17598500  1
  Ce  Ce7  1  0.73753400  0.00000000  0.17598500  1
  Ce  Ce8  1  0.26246600  0.26246600  0.17598500  1
  Ce  Ce9  1  0.00000000  0.26246600  0.67598500  1
  Ce  Ce10  1  0.26246600  0.00000000  0.67598500  1
  Ce  Ce11  1  0.73753400  0.73753400  0.67598500  1
  Al  Al12  1  0.66666700  0.33333300  0.26708000  1
  Al  Al13  1  0.33333300  0.66666700  0.26708000  1
  Al  Al14  1  0.33333300  0.66666700  0.76708000  1
  Al  Al15  1  0.66666700  0.33333300  0.76708000  1
  Al  Al16  1  0.00000000  0.00000000  0.42413700  1
  Al  Al17  1  0.00000000  0.00000000  0.92413700  1
  Ru  Ru18  1  0.00000000  0.34211100  0.34032700  1
  Ru  Ru19  1  0.34211100  0.00000000  0.34032700  1
  Ru  Ru20  1  0.65788900  0.65788900  0.34032700  1
  Ru  Ru21  1  0.00000000  0.65788900  0.84032700  1
  Ru  Ru22  1  0.65788900  0.00000000  0.84032700  1
  Ru  Ru23  1  0.34211100  0.34211100  0.84032700  1
