# generated using pymatgen
data_CuAs2H3OF13
_symmetry_space_group_name_H-M   'P 1'
_cell_length_a   14.63996800
_cell_length_b   7.01679500
_cell_length_c   10.70513800
_cell_angle_alpha   90.00000000
_cell_angle_beta   90.00000000
_cell_angle_gamma   90.00000000
_symmetry_Int_Tables_number   1
_chemical_formula_structural   CuAs2H3OF13
_chemical_formula_sum   'Cu4 As8 H12 O4 F52'
_cell_volume   1099.69230502
_cell_formula_units_Z   4
loop_
 _symmetry_equiv_pos_site_id
 _symmetry_equiv_pos_as_xyz
  1  'x, y, z'
loop_
 _atom_site_type_symbol
 _atom_site_label
 _atom_site_symmetry_multiplicity
 _atom_site_fract_x
 _atom_site_fract_y
 _atom_site_fract_z
 _atom_site_occupancy
  Cu  Cu0  1  0.00000000  0.00000000  0.00000000  1
  Cu  Cu1  1  0.50000000  0.50000000  0.50000000  1
  Cu  Cu2  1  0.00000000  0.50000000  0.00000000  1
  Cu  Cu3  1  0.50000000  0.00000000  0.50000000  1
  As  As4  1  0.14659600  0.25000000  0.74950700  1
  As  As5  1  0.64659600  0.25000000  0.75049300  1
  As  As6  1  0.85340400  0.75000000  0.25049300  1
  As  As7  1  0.35340400  0.75000000  0.24950700  1
  As  As8  1  0.90166100  0.75000000  0.73818700  1
  As  As9  1  0.40166100  0.75000000  0.76181300  1
  As  As10  1  0.09833900  0.25000000  0.26181300  1
  As  As11  1  0.59833900  0.25000000  0.23818700  1
  H  H12  1  0.15413100  0.62892900  0.58263600  1
  H  H13  1  0.65413100  0.87107100  0.91736400  1
  H  H14  1  0.84586900  0.12892900  0.41736400  1
  H  H15  1  0.34586900  0.37107100  0.08263600  1
  H  H16  1  0.84586900  0.37107100  0.41736400  1
  H  H17  1  0.34586900  0.12892900  0.08263600  1
  H  H18  1  0.15413100  0.87107100  0.58263600  1
  H  H19  1  0.65413100  0.62892900  0.91736400  1
  H  H20  1  0.08503400  0.75000000  0.49225700  1
  H  H21  1  0.58503400  0.75000000  0.00774300  1
  H  H22  1  0.91496600  0.25000000  0.50774300  1
  H  H23  1  0.41496600  0.25000000  0.99225700  1
  O  O24  1  0.14511300  0.75000000  0.53217900  1
  O  O25  1  0.64511300  0.75000000  0.96782100  1
  O  O26  1  0.85488700  0.25000000  0.46782100  1
  O  O27  1  0.35488700  0.25000000  0.03217900  1
  F  F28  1  0.90840900  0.93060100  0.86256900  1
  F  F29  1  0.40840900  0.56939900  0.63743100  1
  F  F30  1  0.09159100  0.43060100  0.13743100  1
  F  F31  1  0.59159100  0.06939900  0.36256900  1
  F  F32  1  0.09159100  0.06939900  0.13743100  1
  F  F33  1  0.59159100  0.43060100  0.36256900  1
  F  F34  1  0.90840900  0.56939900  0.86256900  1
  F  F35  1  0.40840900  0.93060100  0.63743100  1
  F  F36  1  0.12277600  0.06957200  0.86213500  1
  F  F37  1  0.62277600  0.43042800  0.63786500  1
  F  F38  1  0.87722400  0.56957200  0.13786500  1
  F  F39  1  0.37722400  0.93042800  0.36213500  1
  F  F40  1  0.87722400  0.93042800  0.13786500  1
  F  F41  1  0.37722400  0.56957200  0.36213500  1
  F  F42  1  0.12277600  0.43042800  0.86213500  1
  F  F43  1  0.62277600  0.06957200  0.63786500  1
  F  F44  1  0.04522800  0.75000000  0.01130100  1
  F  F45  1  0.54522800  0.75000000  0.48869900  1
  F  F46  1  0.95477200  0.25000000  0.98869900  1
  F  F47  1  0.45477200  0.25000000  0.51130100  1
  F  F48  1  0.26132000  0.25000000  0.79019000  1
  F  F49  1  0.76132000  0.25000000  0.70981000  1
  F  F50  1  0.73868000  0.75000000  0.20981000  1
  F  F51  1  0.23868000  0.75000000  0.29019000  1
  F  F52  1  0.17012600  0.42793100  0.63278600  1
  F  F53  1  0.67012600  0.07206900  0.86721400  1
  F  F54  1  0.82987400  0.92793100  0.36721400  1
  F  F55  1  0.32987400  0.57206900  0.13278600  1
  F  F56  1  0.82987400  0.57206900  0.36721400  1
  F  F57  1  0.32987400  0.92793100  0.13278600  1
  F  F58  1  0.17012600  0.07206900  0.63278600  1
  F  F59  1  0.67012600  0.42793100  0.86721400  1
  F  F60  1  0.03142200  0.25000000  0.70279000  1
  F  F61  1  0.53142200  0.25000000  0.79721000  1
  F  F62  1  0.96857800  0.75000000  0.29721000  1
  F  F63  1  0.46857800  0.75000000  0.20279000  1
  F  F64  1  0.89711500  0.56905700  0.62614400  1
  F  F65  1  0.39711500  0.93094300  0.87385600  1
  F  F66  1  0.10288500  0.06905700  0.37385600  1
  F  F67  1  0.60288500  0.43094300  0.12614400  1
  F  F68  1  0.10288500  0.43094300  0.37385600  1
  F  F69  1  0.60288500  0.06905700  0.12614400  1
  F  F70  1  0.89711500  0.93094300  0.62614400  1
  F  F71  1  0.39711500  0.56905700  0.87385600  1
  F  F72  1  0.02177400  0.75000000  0.73324800  1
  F  F73  1  0.52177400  0.75000000  0.76675200  1
  F  F74  1  0.97822600  0.25000000  0.26675200  1
  F  F75  1  0.47822600  0.25000000  0.23324800  1
  F  F76  1  0.78348400  0.75000000  0.75909100  1
  F  F77  1  0.28348400  0.75000000  0.74090900  1
  F  F78  1  0.21651600  0.25000000  0.24090900  1
  F  F79  1  0.71651600  0.25000000  0.25909100  1
