# generated using pymatgen
data_Tb3SbO7
_symmetry_space_group_name_H-M   'P 1'
_cell_length_a   6.50508041
_cell_length_b   6.50508041
_cell_length_c   7.55823200
_cell_angle_alpha   90.00000000
_cell_angle_beta   90.00000000
_cell_angle_gamma   109.33431263
_symmetry_Int_Tables_number   1
_chemical_formula_structural   Tb3SbO7
_chemical_formula_sum   'Tb6 Sb2 O14'
_cell_volume   301.79691797
_cell_formula_units_Z   2
loop_
 _symmetry_equiv_pos_site_id
 _symmetry_equiv_pos_as_xyz
  1  'x, y, z'
loop_
 _atom_site_type_symbol
 _atom_site_label
 _atom_site_symmetry_multiplicity
 _atom_site_fract_x
 _atom_site_fract_y
 _atom_site_fract_z
 _atom_site_occupancy
  Tb  Tb0  1  0.50000000  0.50000000  0.50000000  1
  Tb  Tb1  1  0.50000000  0.50000000  0.00000000  1
  Tb  Tb2  1  0.53210700  0.00017000  0.75000000  1
  Tb  Tb3  1  0.00017000  0.53210700  0.25000000  1
  Tb  Tb4  1  0.46789300  0.99983000  0.25000000  1
  Tb  Tb5  1  0.99983000  0.46789300  0.75000000  1
  Sb  Sb6  1  0.00000000  0.00000000  0.50000000  1
  Sb  Sb7  1  0.00000000  0.00000000  0.00000000  1
  O  O8  1  0.67890800  0.92793000  0.47074000  1
  O  O9  1  0.92793000  0.67890800  0.52926000  1
  O  O10  1  0.67890800  0.92793000  0.02926000  1
  O  O11  1  0.92793000  0.67890800  0.97074000  1
  O  O12  1  0.32109200  0.07207000  0.52926000  1
  O  O13  1  0.07207000  0.32109200  0.47074000  1
  O  O14  1  0.32109200  0.07207000  0.97074000  1
  O  O15  1  0.07207000  0.32109200  0.02926000  1
  O  O16  1  0.93071300  0.06928700  0.75000000  1
  O  O17  1  0.06928700  0.93071300  0.25000000  1
  O  O18  1  0.36980800  0.63019200  0.75000000  1
  O  O19  1  0.63019200  0.36980800  0.25000000  1
  O  O20  1  0.63687500  0.36312500  0.75000000  1
  O  O21  1  0.36312500  0.63687500  0.25000000  1
