# generated using pymatgen
data_Ni3(BO3)2
_symmetry_space_group_name_H-M   'P 1'
_cell_length_a   4.50213900
_cell_length_b   5.44502300
_cell_length_c   8.39975400
_cell_angle_alpha   90.00000000
_cell_angle_beta   90.00000000
_cell_angle_gamma   89.99978244
_symmetry_Int_Tables_number   1
_chemical_formula_structural   Ni3(BO3)2
_chemical_formula_sum   'Ni6 B4 O12'
_cell_volume   205.91367289
_cell_formula_units_Z   2
loop_
 _symmetry_equiv_pos_site_id
 _symmetry_equiv_pos_as_xyz
  1  'x, y, z'
loop_
 _atom_site_type_symbol
 _atom_site_label
 _atom_site_symmetry_multiplicity
 _atom_site_fract_x
 _atom_site_fract_y
 _atom_site_fract_z
 _atom_site_occupancy
  Ni  Ni0  1  0.00000000  0.00000100  0.99970600  1
  Ni  Ni1  1  0.00000100  0.50000000  0.81565200  1
  Ni  Ni2  1  0.50000100  0.99999900  0.68445500  1
  Ni  Ni3  1  0.49999900  0.50000000  0.49970100  1
  Ni  Ni4  1  0.99999900  0.50000000  0.18448000  1
  Ni  Ni5  1  0.50000000  0.00000100  0.31562100  1
  B  B6  1  0.04326100  0.24533000  0.50004600  1
  B  B7  1  0.95673900  0.75467000  0.50004600  1
  B  B8  1  0.45680100  0.74535700  0.00004300  1
  B  B9  1  0.54319800  0.25464300  0.00004300  1
  O  O10  1  0.74805200  0.17541400  0.50002400  1
  O  O11  1  0.25194800  0.82458600  0.50002400  1
  O  O12  1  0.75201700  0.67545100  0.00001400  1
  O  O13  1  0.24798300  0.32454900  0.00001400  1
  O  O14  1  0.20109500  0.29817700  0.36016300  1
  O  O15  1  0.79890400  0.70182300  0.36016300  1
  O  O16  1  0.29891400  0.79826500  0.13986400  1
  O  O17  1  0.70108600  0.20173500  0.13986400  1
  O  O18  1  0.79881500  0.70170000  0.63985400  1
  O  O19  1  0.20118500  0.29830000  0.63985400  1
  O  O20  1  0.70110600  0.20176700  0.86018400  1
  O  O21  1  0.29889400  0.79823300  0.86018400  1
