# generated using pymatgen
data_RbHg5Cl11
_symmetry_space_group_name_H-M   'P 1'
_cell_length_a   9.67953430
_cell_length_b   9.67953430
_cell_length_c   6.72294095
_cell_angle_alpha   71.46434399
_cell_angle_beta   71.46434399
_cell_angle_gamma   99.97559138
_symmetry_Int_Tables_number   1
_chemical_formula_structural   RbHg5Cl11
_chemical_formula_sum   'Rb1 Hg5 Cl11'
_cell_volume   539.23793143
_cell_formula_units_Z   1
loop_
 _symmetry_equiv_pos_site_id
 _symmetry_equiv_pos_as_xyz
  1  'x, y, z'
loop_
 _atom_site_type_symbol
 _atom_site_label
 _atom_site_symmetry_multiplicity
 _atom_site_fract_x
 _atom_site_fract_y
 _atom_site_fract_z
 _atom_site_occupancy
  Rb  Rb0  1  0.00000000  0.00000000  0.00000000  1
  Hg  Hg1  1  0.35225000  0.01535600  0.31402700  1
  Hg  Hg2  1  0.64775000  0.98464400  0.68597300  1
  Hg  Hg3  1  0.98464400  0.64775000  0.68597300  1
  Hg  Hg4  1  0.01535600  0.35225000  0.31402700  1
  Hg  Hg5  1  0.50000000  0.50000000  0.00000000  1
  Cl  Cl6  1  0.64909400  0.64909400  0.61114700  1
  Cl  Cl7  1  0.35090600  0.35090600  0.38885300  1
  Cl  Cl8  1  0.70201700  0.13936800  0.30596000  1
  Cl  Cl9  1  0.29798300  0.86063200  0.69404000  1
  Cl  Cl10  1  0.86063200  0.29798300  0.69404000  1
  Cl  Cl11  1  0.13936800  0.70201700  0.30596000  1
  Cl  Cl12  1  0.00000000  0.00000000  0.50000000  1
  Cl  Cl13  1  0.58245500  0.83205800  0.07030200  1
  Cl  Cl14  1  0.41754500  0.16794200  0.92969800  1
  Cl  Cl15  1  0.16794200  0.41754500  0.92969800  1
  Cl  Cl16  1  0.83205800  0.58245500  0.07030200  1
