# generated using pymatgen
data_Sr4TiAs4
_symmetry_space_group_name_H-M   'P 1'
_cell_length_a   12.98476400
_cell_length_b   12.98476400
_cell_length_c   12.98476400
_cell_angle_alpha   90.00000000
_cell_angle_beta   90.00000000
_cell_angle_gamma   90.00000000
_symmetry_Int_Tables_number   1
_chemical_formula_structural   Sr4TiAs4
_chemical_formula_sum   'Sr32 Ti8 As32'
_cell_volume   2189.28439776
_cell_formula_units_Z   8
loop_
 _symmetry_equiv_pos_site_id
 _symmetry_equiv_pos_as_xyz
  1  'x, y, z'
loop_
 _atom_site_type_symbol
 _atom_site_label
 _atom_site_symmetry_multiplicity
 _atom_site_fract_x
 _atom_site_fract_y
 _atom_site_fract_z
 _atom_site_occupancy
  Sr  Sr0  1  0.14741400  0.14741400  0.14741400  1
  Sr  Sr1  1  0.35258600  0.64741400  0.35258600  1
  Sr  Sr2  1  0.64741400  0.35258600  0.35258600  1
  Sr  Sr3  1  0.35258600  0.35258600  0.64741400  1
  Sr  Sr4  1  0.14741400  0.85258600  0.85258600  1
  Sr  Sr5  1  0.85258600  0.85258600  0.14741400  1
  Sr  Sr6  1  0.85258600  0.14741400  0.85258600  1
  Sr  Sr7  1  0.64741400  0.64741400  0.64741400  1
  Sr  Sr8  1  0.90477200  0.86261900  0.64722500  1
  Sr  Sr9  1  0.90477200  0.13738100  0.35277500  1
  Sr  Sr10  1  0.86261900  0.64722500  0.90477200  1
  Sr  Sr11  1  0.13738100  0.64722500  0.09522800  1
  Sr  Sr12  1  0.64722500  0.90477200  0.86261900  1
  Sr  Sr13  1  0.35277500  0.09522800  0.86261900  1
  Sr  Sr14  1  0.59522800  0.85277500  0.36261900  1
  Sr  Sr15  1  0.59522800  0.14722500  0.63738100  1
  Sr  Sr16  1  0.40477200  0.85277500  0.63738100  1
  Sr  Sr17  1  0.14722500  0.63738100  0.59522800  1
  Sr  Sr18  1  0.63738100  0.40477200  0.85277500  1
  Sr  Sr19  1  0.63738100  0.59522800  0.14722500  1
  Sr  Sr20  1  0.85277500  0.36261900  0.59522800  1
  Sr  Sr21  1  0.36261900  0.59522800  0.85277500  1
  Sr  Sr22  1  0.85277500  0.63738100  0.40477200  1
  Sr  Sr23  1  0.14722500  0.36261900  0.40477200  1
  Sr  Sr24  1  0.36261900  0.40477200  0.14722500  1
  Sr  Sr25  1  0.35277500  0.90477200  0.13738100  1
  Sr  Sr26  1  0.64722500  0.09522800  0.13738100  1
  Sr  Sr27  1  0.86261900  0.35277500  0.09522800  1
  Sr  Sr28  1  0.13738100  0.35277500  0.90477200  1
  Sr  Sr29  1  0.09522800  0.13738100  0.64722500  1
  Sr  Sr30  1  0.09522800  0.86261900  0.35277500  1
  Sr  Sr31  1  0.40477200  0.14722500  0.36261900  1
  Ti  Ti32  1  0.00000000  0.00000000  0.00000000  1
  Ti  Ti33  1  0.75000000  0.00000000  0.50000000  1
  Ti  Ti34  1  0.50000000  0.75000000  0.00000000  1
  Ti  Ti35  1  0.50000000  0.25000000  0.00000000  1
  Ti  Ti36  1  0.00000000  0.50000000  0.25000000  1
  Ti  Ti37  1  0.00000000  0.50000000  0.75000000  1
  Ti  Ti38  1  0.25000000  0.00000000  0.50000000  1
  Ti  Ti39  1  0.50000000  0.50000000  0.50000000  1
  As  As40  1  0.60854000  0.85554800  0.11547500  1
  As  As41  1  0.64445200  0.10854000  0.38452500  1
  As  As42  1  0.89146000  0.61547500  0.64445200  1
  As  As43  1  0.10854000  0.61547500  0.35554800  1
  As  As44  1  0.61547500  0.64445200  0.89146000  1
  As  As45  1  0.38452500  0.35554800  0.89146000  1
  As  As46  1  0.85554800  0.88452500  0.39146000  1
  As  As47  1  0.85554800  0.11547500  0.60854000  1
  As  As48  1  0.14445200  0.88452500  0.60854000  1
  As  As49  1  0.39025700  0.39025700  0.39025700  1
  As  As50  1  0.60854000  0.14445200  0.88452500  1
  As  As51  1  0.64445200  0.89146000  0.61547500  1
  As  As52  1  0.88452500  0.39146000  0.85554800  1
  As  As53  1  0.39146000  0.85554800  0.88452500  1
  As  As54  1  0.88452500  0.60854000  0.14445200  1
  As  As55  1  0.11547500  0.39146000  0.14445200  1
  As  As56  1  0.39146000  0.14445200  0.11547500  1
  As  As57  1  0.38452500  0.64445200  0.10854000  1
  As  As58  1  0.61547500  0.35554800  0.10854000  1
  As  As59  1  0.89146000  0.38452500  0.35554800  1
  As  As60  1  0.10854000  0.38452500  0.64445200  1
  As  As61  1  0.35554800  0.10854000  0.61547500  1
  As  As62  1  0.35554800  0.89146000  0.38452500  1
  As  As63  1  0.14445200  0.11547500  0.39146000  1
  As  As64  1  0.10974300  0.89025700  0.10974300  1
  As  As65  1  0.10974300  0.10974300  0.89025700  1
  As  As66  1  0.89025700  0.10974300  0.10974300  1
  As  As67  1  0.60974300  0.60974300  0.39025700  1
  As  As68  1  0.39025700  0.60974300  0.60974300  1
  As  As69  1  0.60974300  0.39025700  0.60974300  1
  As  As70  1  0.89025700  0.89025700  0.89025700  1
  As  As71  1  0.11547500  0.60854000  0.85554800  1
