# generated using pymatgen
data_DyFe5P3
_symmetry_space_group_name_H-M   'P 1'
_cell_length_a   3.64700400
_cell_length_b   10.30505400
_cell_length_c   11.80760600
_cell_angle_alpha   90.00000000
_cell_angle_beta   90.00000000
_cell_angle_gamma   90.00000000
_symmetry_Int_Tables_number   1
_chemical_formula_structural   DyFe5P3
_chemical_formula_sum   'Dy4 Fe20 P12'
_cell_volume   443.76021632
_cell_formula_units_Z   4
loop_
 _symmetry_equiv_pos_site_id
 _symmetry_equiv_pos_as_xyz
  1  'x, y, z'
loop_
 _atom_site_type_symbol
 _atom_site_label
 _atom_site_symmetry_multiplicity
 _atom_site_fract_x
 _atom_site_fract_y
 _atom_site_fract_z
 _atom_site_occupancy
  Dy  Dy0  1  0.25000000  0.58151900  0.70496400  1
  Dy  Dy1  1  0.25000000  0.91848100  0.20496400  1
  Dy  Dy2  1  0.75000000  0.41848100  0.29503600  1
  Dy  Dy3  1  0.75000000  0.08151900  0.79503600  1
  Fe  Fe4  1  0.25000000  0.70727400  0.98758300  1
  Fe  Fe5  1  0.25000000  0.79272600  0.48758300  1
  Fe  Fe6  1  0.75000000  0.29272600  0.01241700  1
  Fe  Fe7  1  0.75000000  0.20727400  0.51241700  1
  Fe  Fe8  1  0.25000000  0.40557800  0.49060900  1
  Fe  Fe9  1  0.25000000  0.09442200  0.99060900  1
  Fe  Fe10  1  0.75000000  0.59442200  0.50939100  1
  Fe  Fe11  1  0.75000000  0.90557800  0.00939100  1
  Fe  Fe12  1  0.25000000  0.21891500  0.17683900  1
  Fe  Fe13  1  0.25000000  0.28108500  0.67683900  1
  Fe  Fe14  1  0.75000000  0.78108500  0.82316100  1
  Fe  Fe15  1  0.75000000  0.71891500  0.32316100  1
  Fe  Fe16  1  0.25000000  0.87707400  0.69982700  1
  Fe  Fe17  1  0.25000000  0.62292600  0.19982700  1
  Fe  Fe18  1  0.75000000  0.12292600  0.30017300  1
  Fe  Fe19  1  0.75000000  0.37707400  0.80017300  1
  Fe  Fe20  1  0.25000000  0.46299700  0.93253400  1
  Fe  Fe21  1  0.25000000  0.03700300  0.43253400  1
  Fe  Fe22  1  0.75000000  0.53700300  0.06746600  1
  Fe  Fe23  1  0.75000000  0.96299700  0.56746600  1
  P  P24  1  0.25000000  0.42178000  0.11266200  1
  P  P25  1  0.25000000  0.07822000  0.61266200  1
  P  P26  1  0.75000000  0.57822000  0.88733800  1
  P  P27  1  0.75000000  0.92178000  0.38733800  1
  P  P28  1  0.25000000  0.26717200  0.87086500  1
  P  P29  1  0.25000000  0.23282800  0.37086500  1
  P  P30  1  0.75000000  0.73282800  0.12913500  1
  P  P31  1  0.75000000  0.76717200  0.62913500  1
  P  P32  1  0.25000000  0.60137800  0.39528500  1
  P  P33  1  0.25000000  0.89862200  0.89528500  1
  P  P34  1  0.75000000  0.39862200  0.60471500  1
  P  P35  1  0.75000000  0.10137800  0.10471500  1
