# generated using pymatgen
data_Nd6Ta4Al43
_symmetry_space_group_name_H-M   'P 1'
_cell_length_a   11.21350595
_cell_length_b   11.21350595
_cell_length_c   17.96388600
_cell_angle_alpha   90.00000000
_cell_angle_beta   90.00000000
_cell_angle_gamma   119.99999969
_symmetry_Int_Tables_number   1
_chemical_formula_structural   Nd6Ta4Al43
_chemical_formula_sum   'Nd12 Ta8 Al86'
_cell_volume   1956.20227129
_cell_formula_units_Z   2
loop_
 _symmetry_equiv_pos_site_id
 _symmetry_equiv_pos_as_xyz
  1  'x, y, z'
loop_
 _atom_site_type_symbol
 _atom_site_label
 _atom_site_symmetry_multiplicity
 _atom_site_fract_x
 _atom_site_fract_y
 _atom_site_fract_z
 _atom_site_occupancy
  Nd  Nd0  1  0.52835700  0.00000000  0.59595200  1
  Nd  Nd1  1  0.47164300  0.00000000  0.40404800  1
  Nd  Nd2  1  0.00000000  0.52835700  0.59595200  1
  Nd  Nd3  1  0.47164300  0.00000000  0.09595200  1
  Nd  Nd4  1  0.00000000  0.52835700  0.90404800  1
  Nd  Nd5  1  0.00000000  0.47164300  0.40404800  1
  Nd  Nd6  1  0.52835700  0.00000000  0.90404800  1
  Nd  Nd7  1  0.00000000  0.47164300  0.09595200  1
  Nd  Nd8  1  0.47164300  0.47164300  0.59595200  1
  Nd  Nd9  1  0.52835700  0.52835700  0.40404800  1
  Nd  Nd10  1  0.52835700  0.52835700  0.09595200  1
  Nd  Nd11  1  0.47164300  0.47164300  0.90404800  1
  Ta  Ta12  1  0.00000000  0.00000000  0.50000000  1
  Ta  Ta13  1  0.00000000  0.00000000  0.00000000  1
  Ta  Ta14  1  0.72768100  0.00000000  0.75000000  1
  Ta  Ta15  1  0.27231900  0.00000000  0.25000000  1
  Ta  Ta16  1  0.00000000  0.72768100  0.75000000  1
  Ta  Ta17  1  0.00000000  0.27231900  0.25000000  1
  Ta  Ta18  1  0.27231900  0.27231900  0.75000000  1
  Ta  Ta19  1  0.72768100  0.72768100  0.25000000  1
  Al  Al20  1  0.14988700  0.59548000  0.75000000  1
  Al  Al21  1  0.85011300  0.40452000  0.25000000  1
  Al  Al22  1  0.40452000  0.55440700  0.75000000  1
  Al  Al23  1  0.59548000  0.14988700  0.75000000  1
  Al  Al24  1  0.59548000  0.44559300  0.25000000  1
  Al  Al25  1  0.40452000  0.85011300  0.25000000  1
  Al  Al26  1  0.44559300  0.85011300  0.75000000  1
  Al  Al27  1  0.55440700  0.40452000  0.75000000  1
  Al  Al28  1  0.55440700  0.14988700  0.25000000  1
  Al  Al29  1  0.44559300  0.59548000  0.25000000  1
  Al  Al30  1  0.85011300  0.44559300  0.75000000  1
  Al  Al31  1  0.14988700  0.55440700  0.25000000  1
  Al  Al32  1  0.15796200  0.00000000  0.11569100  1
  Al  Al33  1  0.84203800  0.00000000  0.88430900  1
  Al  Al34  1  0.00000000  0.15796200  0.11569100  1
  Al  Al35  1  0.84203800  0.00000000  0.61569100  1
  Al  Al36  1  0.00000000  0.15796200  0.38430900  1
  Al  Al37  1  0.00000000  0.84203800  0.88430900  1
  Al  Al38  1  0.15796200  0.00000000  0.38430900  1
  Al  Al39  1  0.00000000  0.84203800  0.61569100  1
  Al  Al40  1  0.84203800  0.84203800  0.11569100  1
  Al  Al41  1  0.15796200  0.15796200  0.88430900  1
  Al  Al42  1  0.15796200  0.15796200  0.61569100  1
  Al  Al43  1  0.84203800  0.84203800  0.38430900  1
  Al  Al44  1  0.24731100  0.49462200  0.50000000  1
  Al  Al45  1  0.75268900  0.50537800  0.50000000  1
  Al  Al46  1  0.50537800  0.75268900  0.50000000  1
  Al  Al47  1  0.75268900  0.50537800  0.00000000  1
  Al  Al48  1  0.49462200  0.24731100  0.00000000  1
  Al  Al49  1  0.49462200  0.24731100  0.50000000  1
  Al  Al50  1  0.24731100  0.49462200  0.00000000  1
  Al  Al51  1  0.50537800  0.75268900  0.00000000  1
  Al  Al52  1  0.24731100  0.75268900  0.50000000  1
  Al  Al53  1  0.75268900  0.24731100  0.50000000  1
  Al  Al54  1  0.75268900  0.24731100  0.00000000  1
  Al  Al55  1  0.24731100  0.75268900  0.00000000  1
  Al  Al56  1  0.14625900  0.00000000  0.75000000  1
  Al  Al57  1  0.85374100  0.00000000  0.25000000  1
  Al  Al58  1  0.00000000  0.14625900  0.75000000  1
  Al  Al59  1  0.00000000  0.85374100  0.25000000  1
  Al  Al60  1  0.85374100  0.85374100  0.75000000  1
  Al  Al61  1  0.14625900  0.14625900  0.25000000  1
  Al  Al62  1  0.33333300  0.66666700  0.62717700  1
  Al  Al63  1  0.66666700  0.33333300  0.37282300  1
  Al  Al64  1  0.66666700  0.33333300  0.12717700  1
  Al  Al65  1  0.66666700  0.33333300  0.87282300  1
  Al  Al66  1  0.33333300  0.66666700  0.87282300  1
  Al  Al67  1  0.33333300  0.66666700  0.12717700  1
  Al  Al68  1  0.33333300  0.66666700  0.37282300  1
  Al  Al69  1  0.66666700  0.33333300  0.62717700  1
  Al  Al70  1  0.25355600  0.00000000  0.53017000  1
  Al  Al71  1  0.74644400  0.00000000  0.46983000  1
  Al  Al72  1  0.00000000  0.25355600  0.53017000  1
  Al  Al73  1  0.74644400  0.00000000  0.03017000  1
  Al  Al74  1  0.00000000  0.25355600  0.96983000  1
  Al  Al75  1  0.00000000  0.74644400  0.46983000  1
  Al  Al76  1  0.25355600  0.00000000  0.96983000  1
  Al  Al77  1  0.00000000  0.74644400  0.03017000  1
  Al  Al78  1  0.74644400  0.74644400  0.53017000  1
  Al  Al79  1  0.25355600  0.25355600  0.46983000  1
  Al  Al80  1  0.25355600  0.25355600  0.03017000  1
  Al  Al81  1  0.74644400  0.74644400  0.96983000  1
  Al  Al82  1  0.15721700  0.39367100  0.66506000  1
  Al  Al83  1  0.84278300  0.60632900  0.33494000  1
  Al  Al84  1  0.60632900  0.76354700  0.66506000  1
  Al  Al85  1  0.84278300  0.60632900  0.16506000  1
  Al  Al86  1  0.39367100  0.15721700  0.83494000  1
  Al  Al87  1  0.39367100  0.23645300  0.33494000  1
  Al  Al88  1  0.15721700  0.39367100  0.83494000  1
  Al  Al89  1  0.60632900  0.84278300  0.16506000  1
  Al  Al90  1  0.23645300  0.84278300  0.66506000  1
  Al  Al91  1  0.39367100  0.23645300  0.16506000  1
  Al  Al92  1  0.76354700  0.60632900  0.83494000  1
  Al  Al93  1  0.76354700  0.15721700  0.33494000  1
  Al  Al94  1  0.60632900  0.76354700  0.83494000  1
  Al  Al95  1  0.23645300  0.39367100  0.16506000  1
  Al  Al96  1  0.60632900  0.84278300  0.33494000  1
  Al  Al97  1  0.39367100  0.15721700  0.66506000  1
  Al  Al98  1  0.76354700  0.15721700  0.16506000  1
  Al  Al99  1  0.23645300  0.39367100  0.33494000  1
  Al  Al100  1  0.23645300  0.84278300  0.83494000  1
  Al  Al101  1  0.76354700  0.60632900  0.66506000  1
  Al  Al102  1  0.84278300  0.23645300  0.83494000  1
  Al  Al103  1  0.15721700  0.76354700  0.16506000  1
  Al  Al104  1  0.15721700  0.76354700  0.33494000  1
  Al  Al105  1  0.84278300  0.23645300  0.66506000  1
