# generated using pymatgen
data_Sr2NbN3
_symmetry_space_group_name_H-M   'P 1'
_cell_length_a   6.42264675
_cell_length_b   6.42264675
_cell_length_c   12.65584547
_cell_angle_alpha   88.81984773
_cell_angle_beta   88.81984773
_cell_angle_gamma   123.35831524
_symmetry_Int_Tables_number   1
_chemical_formula_structural   Sr2NbN3
_chemical_formula_sum   'Sr8 Nb4 N12'
_cell_volume   435.63732911
_cell_formula_units_Z   4
loop_
 _symmetry_equiv_pos_site_id
 _symmetry_equiv_pos_as_xyz
  1  'x, y, z'
loop_
 _atom_site_type_symbol
 _atom_site_label
 _atom_site_symmetry_multiplicity
 _atom_site_fract_x
 _atom_site_fract_y
 _atom_site_fract_z
 _atom_site_occupancy
  Sr  Sr0  1  0.61137200  0.84241600  0.57746300  1
  Sr  Sr1  1  0.05585300  0.45870400  0.35887100  1
  Sr  Sr2  1  0.45870400  0.05585300  0.85887100  1
  Sr  Sr3  1  0.94414700  0.54129600  0.64112900  1
  Sr  Sr4  1  0.38862800  0.15758400  0.42253700  1
  Sr  Sr5  1  0.84241600  0.61137200  0.07746300  1
  Sr  Sr6  1  0.15758400  0.38862800  0.92253700  1
  Sr  Sr7  1  0.54129600  0.94414700  0.14112900  1
  Nb  Nb8  1  0.23104200  0.23401600  0.16347200  1
  Nb  Nb9  1  0.76598400  0.76895800  0.33652800  1
  Nb  Nb10  1  0.76895800  0.76598400  0.83652800  1
  Nb  Nb11  1  0.23401600  0.23104200  0.66347200  1
  N  N12  1  0.49558400  0.50441600  0.25000000  1
  N  N13  1  0.50441600  0.49558400  0.75000000  1
  N  N14  1  0.08893400  0.91106600  0.25000000  1
  N  N15  1  0.91106600  0.08893400  0.75000000  1
  N  N16  1  0.67518200  0.99941700  0.37682700  1
  N  N17  1  0.00058300  0.32481800  0.12317300  1
  N  N18  1  0.32481800  0.00058300  0.62317300  1
  N  N19  1  0.99941700  0.67518200  0.87682700  1
  N  N20  1  0.38713400  0.20005800  0.04059600  1
  N  N21  1  0.20005800  0.38713400  0.54059600  1
  N  N22  1  0.61286600  0.79994200  0.95940400  1
  N  N23  1  0.79994200  0.61286600  0.45940400  1
