# generated using pymatgen
data_La7CoI12
_symmetry_space_group_name_H-M   'P 1'
_cell_length_a   10.09590871
_cell_length_b   10.09590871
_cell_length_c   10.09590946
_cell_angle_alpha   107.42806248
_cell_angle_beta   107.42806248
_cell_angle_gamma   107.42806603
_symmetry_Int_Tables_number   1
_chemical_formula_structural   La7CoI12
_chemical_formula_sum   'La7 Co1 I12'
_cell_volume   846.79570556
_cell_formula_units_Z   1
loop_
 _symmetry_equiv_pos_site_id
 _symmetry_equiv_pos_as_xyz
  1  'x, y, z'
loop_
 _atom_site_type_symbol
 _atom_site_label
 _atom_site_symmetry_multiplicity
 _atom_site_fract_x
 _atom_site_fract_y
 _atom_site_fract_z
 _atom_site_occupancy
  La  La0  1  0.53424900  0.60411400  0.80456500  1
  La  La1  1  0.80456500  0.53424900  0.60411400  1
  La  La2  1  0.60411400  0.80456500  0.53424900  1
  La  La3  1  0.46666700  0.39616900  0.19388100  1
  La  La4  1  0.19388100  0.46666700  0.39616900  1
  La  La5  1  0.39616900  0.19388100  0.46666700  1
  La  La6  1  0.98687300  0.98687300  0.98687300  1
  Co  Co7  1  0.49774200  0.49774200  0.49774200  1
  I  I8  1  0.27092800  0.81602300  0.42485600  1
  I  I9  1  0.42485600  0.27092800  0.81602300  1
  I  I10  1  0.81602300  0.42485600  0.27092800  1
  I  I11  1  0.72888500  0.18369800  0.57526700  1
  I  I12  1  0.57526700  0.72888500  0.18369800  1
  I  I13  1  0.18369800  0.57526700  0.72888500  1
  I  I14  1  0.02483600  0.10582900  0.34062800  1
  I  I15  1  0.34062800  0.02483600  0.10582900  1
  I  I16  1  0.10582900  0.34062800  0.02483600  1
  I  I17  1  0.97672900  0.89291700  0.65051300  1
  I  I18  1  0.65051300  0.97672900  0.89291700  1
  I  I19  1  0.89291700  0.65051300  0.97672900  1
