# generated using pymatgen
data_Na3V3Cr2O12
_symmetry_space_group_name_H-M   'P 1'
_cell_length_a   10.80670147
_cell_length_b   10.80670147
_cell_length_c   10.80670147
_cell_angle_alpha   109.47122063
_cell_angle_beta   109.47122063
_cell_angle_gamma   109.47122063
_symmetry_Int_Tables_number   1
_chemical_formula_structural   Na3V3Cr2O12
_chemical_formula_sum   'Na12 V12 Cr8 O48'
_cell_volume   971.53303400
_cell_formula_units_Z   4
loop_
 _symmetry_equiv_pos_site_id
 _symmetry_equiv_pos_as_xyz
  1  'x, y, z'
loop_
 _atom_site_type_symbol
 _atom_site_label
 _atom_site_symmetry_multiplicity
 _atom_site_fract_x
 _atom_site_fract_y
 _atom_site_fract_z
 _atom_site_occupancy
  Na  Na0  1  0.12500000  0.37500000  0.75000000  1
  Na  Na1  1  0.37500000  0.12500000  0.25000000  1
  Na  Na2  1  0.37500000  0.75000000  0.12500000  1
  Na  Na3  1  0.12500000  0.25000000  0.37500000  1
  Na  Na4  1  0.75000000  0.12500000  0.37500000  1
  Na  Na5  1  0.25000000  0.37500000  0.12500000  1
  Na  Na6  1  0.87500000  0.62500000  0.25000000  1
  Na  Na7  1  0.62500000  0.87500000  0.75000000  1
  Na  Na8  1  0.62500000  0.25000000  0.87500000  1
  Na  Na9  1  0.87500000  0.75000000  0.62500000  1
  Na  Na10  1  0.25000000  0.87500000  0.62500000  1
  Na  Na11  1  0.75000000  0.62500000  0.87500000  1
  V  V12  1  0.37500000  0.62500000  0.75000000  1
  V  V13  1  0.12500000  0.87500000  0.25000000  1
  V  V14  1  0.62500000  0.75000000  0.37500000  1
  V  V15  1  0.87500000  0.25000000  0.12500000  1
  V  V16  1  0.75000000  0.37500000  0.62500000  1
  V  V17  1  0.25000000  0.12500000  0.87500000  1
  V  V18  1  0.62500000  0.37500000  0.25000000  1
  V  V19  1  0.87500000  0.12500000  0.75000000  1
  V  V20  1  0.37500000  0.25000000  0.62500000  1
  V  V21  1  0.12500000  0.75000000  0.87500000  1
  V  V22  1  0.25000000  0.62500000  0.37500000  1
  V  V23  1  0.75000000  0.87500000  0.12500000  1
  Cr  Cr24  1  0.00000000  0.50000000  0.00000000  1
  Cr  Cr25  1  0.00000000  0.00000000  0.50000000  1
  Cr  Cr26  1  0.50000000  0.00000000  0.00000000  1
  Cr  Cr27  1  0.50000000  0.50000000  0.50000000  1
  Cr  Cr28  1  0.50000000  0.50000000  0.00000000  1
  Cr  Cr29  1  0.50000000  0.00000000  0.50000000  1
  Cr  Cr30  1  0.00000000  0.50000000  0.50000000  1
  Cr  Cr31  1  0.00000000  0.00000000  0.00000000  1
  O  O32  1  0.08542300  0.88875500  0.39666700  1
  O  O33  1  0.99208800  0.68875600  0.10333300  1
  O  O34  1  0.50791200  0.61124500  0.69666800  1
  O  O35  1  0.41457700  0.81124400  0.80333200  1
  O  O36  1  0.88875500  0.39666700  0.08542300  1
  O  O37  1  0.68875600  0.10333300  0.99208800  1
  O  O38  1  0.61124500  0.69666800  0.50791200  1
  O  O39  1  0.81124400  0.80333200  0.41457700  1
  O  O40  1  0.39666700  0.08542300  0.88875500  1
  O  O41  1  0.10333300  0.99208800  0.68875600  1
  O  O42  1  0.69666800  0.50791200  0.61124500  1
  O  O43  1  0.80333200  0.41457700  0.81124400  1
  O  O44  1  0.91457700  0.11124500  0.60333300  1
  O  O45  1  0.00791200  0.31124400  0.89666700  1
  O  O46  1  0.49208800  0.38875500  0.30333200  1
  O  O47  1  0.58542300  0.18875600  0.19666800  1
  O  O48  1  0.11124500  0.60333300  0.91457700  1
  O  O49  1  0.31124400  0.89666700  0.00791200  1
  O  O50  1  0.38875500  0.30333200  0.49208800  1
  O  O51  1  0.18875600  0.19666800  0.58542300  1
  O  O52  1  0.60333300  0.91457700  0.11124500  1
  O  O53  1  0.89666700  0.00791200  0.31124400  1
  O  O54  1  0.30333200  0.49208800  0.38875500  1
  O  O55  1  0.19666800  0.58542300  0.18875600  1
  O  O56  1  0.58542300  0.89666700  0.38875500  1
  O  O57  1  0.49208800  0.60333300  0.18875600  1
  O  O58  1  0.00791200  0.19666800  0.11124500  1
  O  O59  1  0.91457700  0.30333200  0.31124400  1
  O  O60  1  0.38875500  0.58542300  0.89666700  1
  O  O61  1  0.18875600  0.49208800  0.60333300  1
  O  O62  1  0.11124500  0.00791200  0.19666800  1
  O  O63  1  0.31124400  0.91457700  0.30333200  1
  O  O64  1  0.89666700  0.38875500  0.58542300  1
  O  O65  1  0.60333300  0.18875600  0.49208800  1
  O  O66  1  0.19666800  0.11124500  0.00791200  1
  O  O67  1  0.30333200  0.31124400  0.91457700  1
  O  O68  1  0.41457700  0.10333300  0.61124500  1
  O  O69  1  0.50791200  0.39666700  0.81124400  1
  O  O70  1  0.99208800  0.80333200  0.88875500  1
  O  O71  1  0.08542300  0.69666800  0.68875600  1
  O  O72  1  0.61124500  0.41457700  0.10333300  1
  O  O73  1  0.81124400  0.50791200  0.39666700  1
  O  O74  1  0.88875500  0.99208800  0.80333200  1
  O  O75  1  0.68875600  0.08542300  0.69666800  1
  O  O76  1  0.10333300  0.61124500  0.41457700  1
  O  O77  1  0.39666700  0.81124400  0.50791200  1
  O  O78  1  0.80333200  0.88875500  0.99208800  1
  O  O79  1  0.69666800  0.68875600  0.08542300  1
