# generated using pymatgen
data_Th(AlC)4
_symmetry_space_group_name_H-M   'P 1'
_cell_length_a   6.06658666
_cell_length_b   6.06658666
_cell_length_c   6.06658666
_cell_angle_alpha   94.35245644
_cell_angle_beta   94.35245644
_cell_angle_gamma   148.01823313
_symmetry_Int_Tables_number   1
_chemical_formula_structural   Th(AlC)4
_chemical_formula_sum   'Th1 Al4 C4'
_cell_volume   113.67975263
_cell_formula_units_Z   1
loop_
 _symmetry_equiv_pos_site_id
 _symmetry_equiv_pos_as_xyz
  1  'x, y, z'
loop_
 _atom_site_type_symbol
 _atom_site_label
 _atom_site_symmetry_multiplicity
 _atom_site_fract_x
 _atom_site_fract_y
 _atom_site_fract_z
 _atom_site_occupancy
  Th  Th0  1  0.00000000  0.00000000  0.00000000  1
  Al  Al1  1  0.64148600  0.82097200  0.46245800  1
  Al  Al2  1  0.35851400  0.17902800  0.53754200  1
  Al  Al3  1  0.82097200  0.35851400  0.17948500  1
  Al  Al4  1  0.17902800  0.64148600  0.82051500  1
  C  C5  1  0.24834200  0.41102700  0.65936900  1
  C  C6  1  0.75165800  0.58897300  0.34063100  1
  C  C7  1  0.41102700  0.75165800  0.16268500  1
  C  C8  1  0.58897300  0.24834200  0.83731500  1
