# generated using pymatgen
data_Er7Co6Sn23
_symmetry_space_group_name_H-M   'P 1'
_cell_length_a   9.68407255
_cell_length_b   9.68407255
_cell_length_c   9.95159400
_cell_angle_alpha   90.00000000
_cell_angle_beta   90.00000000
_cell_angle_gamma   120.00000376
_symmetry_Int_Tables_number   1
_chemical_formula_structural   Er7Co6Sn23
_chemical_formula_sum   'Er7 Co6 Sn23'
_cell_volume   808.23812716
_cell_formula_units_Z   1
loop_
 _symmetry_equiv_pos_site_id
 _symmetry_equiv_pos_as_xyz
  1  'x, y, z'
loop_
 _atom_site_type_symbol
 _atom_site_label
 _atom_site_symmetry_multiplicity
 _atom_site_fract_x
 _atom_site_fract_y
 _atom_site_fract_z
 _atom_site_occupancy
  Er  Er0  1  0.47909400  0.52090600  0.30586300  1
  Er  Er1  1  0.52090600  0.47909400  0.69413700  1
  Er  Er2  1  0.47909400  0.95818900  0.30586300  1
  Er  Er3  1  0.52090600  0.04181100  0.69413700  1
  Er  Er4  1  0.04181100  0.52090600  0.30586300  1
  Er  Er5  1  0.95818900  0.47909400  0.69413700  1
  Er  Er6  1  0.00000000  0.00000000  0.00000000  1
  Co  Co7  1  0.83235800  0.16764200  0.19772900  1
  Co  Co8  1  0.16764200  0.83235800  0.80227100  1
  Co  Co9  1  0.83235800  0.66471700  0.19772900  1
  Co  Co10  1  0.16764200  0.33528300  0.80227100  1
  Co  Co11  1  0.33528300  0.16764200  0.19772900  1
  Co  Co12  1  0.66471700  0.83235800  0.80227100  1
  Sn  Sn13  1  0.11830400  0.88169600  0.27488800  1
  Sn  Sn14  1  0.88169600  0.11830400  0.72511200  1
  Sn  Sn15  1  0.11830400  0.23660800  0.27488800  1
  Sn  Sn16  1  0.88169600  0.76339200  0.72511200  1
  Sn  Sn17  1  0.76339200  0.88169600  0.27488800  1
  Sn  Sn18  1  0.23660800  0.11830400  0.72511200  1
  Sn  Sn19  1  0.78084600  0.21915400  0.45263400  1
  Sn  Sn20  1  0.21915400  0.78084600  0.54736600  1
  Sn  Sn21  1  0.78084600  0.56169200  0.45263400  1
  Sn  Sn22  1  0.21915400  0.43830800  0.54736600  1
  Sn  Sn23  1  0.43830800  0.21915400  0.45263400  1
  Sn  Sn24  1  0.56169200  0.78084600  0.54736600  1
  Sn  Sn25  1  0.34585000  0.00000000  0.00000000  1
  Sn  Sn26  1  0.65415000  0.00000000  0.00000000  1
  Sn  Sn27  1  0.00000000  0.34585000  0.00000000  1
  Sn  Sn28  1  0.00000000  0.65415000  0.00000000  1
  Sn  Sn29  1  0.65415000  0.65415000  0.00000000  1
  Sn  Sn30  1  0.34585000  0.34585000  0.00000000  1
  Sn  Sn31  1  0.33333300  0.66666700  0.11836900  1
  Sn  Sn32  1  0.66666700  0.33333300  0.88163100  1
  Sn  Sn33  1  0.33333300  0.66666700  0.81777400  1
  Sn  Sn34  1  0.66666700  0.33333300  0.18222600  1
  Sn  Sn35  1  0.00000000  0.00000000  0.50000000  1
