# generated using pymatgen
data_Ho2CoGe2
_symmetry_space_group_name_H-M   'P 1'
_cell_length_a   5.63709889
_cell_length_b   5.63709889
_cell_length_c   10.15363069
_cell_angle_alpha   64.02520730
_cell_angle_beta   64.02520730
_cell_angle_gamma   43.77327171
_symmetry_Int_Tables_number   1
_chemical_formula_structural   Ho2CoGe2
_chemical_formula_sum   'Ho4 Co2 Ge4'
_cell_volume   196.78376858
_cell_formula_units_Z   2
loop_
 _symmetry_equiv_pos_site_id
 _symmetry_equiv_pos_as_xyz
  1  'x, y, z'
loop_
 _atom_site_type_symbol
 _atom_site_label
 _atom_site_symmetry_multiplicity
 _atom_site_fract_x
 _atom_site_fract_y
 _atom_site_fract_z
 _atom_site_occupancy
  Ho  Ho0  1  0.81306900  0.81306900  0.11068500  1
  Ho  Ho1  1  0.18693100  0.18693100  0.88931500  1
  Ho  Ho2  1  0.99397400  0.99397400  0.33246600  1
  Ho  Ho3  1  0.00602600  0.00602600  0.66753400  1
  Co  Co4  1  0.72462700  0.72462700  0.64056700  1
  Co  Co5  1  0.27537300  0.27537300  0.35943300  1
  Ge  Ge6  1  0.51234100  0.51234100  0.12530000  1
  Ge  Ge7  1  0.48765900  0.48765900  0.87470000  1
  Ge  Ge8  1  0.65251700  0.65251700  0.43380100  1
  Ge  Ge9  1  0.34748300  0.34748300  0.56619900  1
