# generated using pymatgen
data_Rb2Cu2Sb2S5
_symmetry_space_group_name_H-M   'P 1'
_cell_length_a   10.46244800
_cell_length_b   6.68386500
_cell_length_c   16.76607479
_cell_angle_alpha   80.20983222
_cell_angle_beta   90.00000000
_cell_angle_gamma   90.00000000
_symmetry_Int_Tables_number   1
_chemical_formula_structural   Rb2Cu2Sb2S5
_chemical_formula_sum   'Rb8 Cu8 Sb8 S20'
_cell_volume   1155.37053220
_cell_formula_units_Z   4
loop_
 _symmetry_equiv_pos_site_id
 _symmetry_equiv_pos_as_xyz
  1  'x, y, z'
loop_
 _atom_site_type_symbol
 _atom_site_label
 _atom_site_symmetry_multiplicity
 _atom_site_fract_x
 _atom_site_fract_y
 _atom_site_fract_z
 _atom_site_occupancy
  Rb  Rb0  1  0.35888900  0.23941000  0.46206300  1
  Rb  Rb1  1  0.85888900  0.26059000  0.53793700  1
  Rb  Rb2  1  0.64111100  0.76059000  0.53793700  1
  Rb  Rb3  1  0.14111100  0.73941000  0.46206300  1
  Rb  Rb4  1  0.11668700  0.73483000  0.06710500  1
  Rb  Rb5  1  0.61668700  0.76517000  0.93289500  1
  Rb  Rb6  1  0.88331300  0.26517000  0.93289500  1
  Rb  Rb7  1  0.38331300  0.23483000  0.06710500  1
  Cu  Cu8  1  0.36072700  0.57683000  0.25398000  1
  Cu  Cu9  1  0.86072700  0.92317000  0.74602000  1
  Cu  Cu10  1  0.63927300  0.42317000  0.74602000  1
  Cu  Cu11  1  0.13927300  0.07683000  0.25398000  1
  Cu  Cu12  1  0.64826700  0.52222200  0.35391900  1
  Cu  Cu13  1  0.14826700  0.97777800  0.64608100  1
  Cu  Cu14  1  0.35173300  0.47777800  0.64608100  1
  Cu  Cu15  1  0.85173300  0.02222200  0.35391900  1
  Sb  Sb16  1  0.53676700  0.01088100  0.28335600  1
  Sb  Sb17  1  0.03676700  0.48911900  0.71664400  1
  Sb  Sb18  1  0.46323300  0.98911900  0.71664400  1
  Sb  Sb19  1  0.96323300  0.51088100  0.28335600  1
  Sb  Sb20  1  0.64991400  0.61909200  0.18253400  1
  Sb  Sb21  1  0.14991400  0.88090800  0.81746600  1
  Sb  Sb22  1  0.35008600  0.38090800  0.81746600  1
  Sb  Sb23  1  0.85008600  0.11909200  0.18253400  1
  S  S24  1  0.65910200  0.17429300  0.38437000  1
  S  S25  1  0.15910200  0.32570700  0.61563000  1
  S  S26  1  0.34089800  0.82570700  0.61563000  1
  S  S27  1  0.84089800  0.67429300  0.38437000  1
  S  S28  1  0.46242300  0.69289300  0.36837300  1
  S  S29  1  0.96242300  0.80710700  0.63162700  1
  S  S30  1  0.53757700  0.30710700  0.63162700  1
  S  S31  1  0.03757700  0.19289300  0.36837300  1
  S  S32  1  0.44545000  0.71891300  0.12394100  1
  S  S33  1  0.94545000  0.78108700  0.87605900  1
  S  S34  1  0.55455000  0.28108700  0.87605900  1
  S  S35  1  0.05455000  0.21891300  0.12394100  1
  S  S36  1  0.34316100  0.22019800  0.26752900  1
  S  S37  1  0.84316100  0.27980200  0.73247100  1
  S  S38  1  0.65683900  0.77980200  0.73247100  1
  S  S39  1  0.15683900  0.72019800  0.26752900  1
  S  S40  1  0.80673200  0.85603600  0.09684200  1
  S  S41  1  0.30673200  0.64396400  0.90315800  1
  S  S42  1  0.19326800  0.14396400  0.90315800  1
  S  S43  1  0.69326800  0.35603600  0.09684200  1
