# generated using pymatgen
data_LiTcH6O7
_symmetry_space_group_name_H-M   'P 1'
_cell_length_a   7.95206200
_cell_length_b   7.95206139
_cell_length_c   5.75632700
_cell_angle_alpha   90.00000000
_cell_angle_beta   90.00000000
_cell_angle_gamma   120.00000254
_symmetry_Int_Tables_number   1
_chemical_formula_structural   LiTcH6O7
_chemical_formula_sum   'Li2 Tc2 H12 O14'
_cell_volume   315.23581928
_cell_formula_units_Z   2
loop_
 _symmetry_equiv_pos_site_id
 _symmetry_equiv_pos_as_xyz
  1  'x, y, z'
loop_
 _atom_site_type_symbol
 _atom_site_label
 _atom_site_symmetry_multiplicity
 _atom_site_fract_x
 _atom_site_fract_y
 _atom_site_fract_z
 _atom_site_occupancy
  Li  Li0  1  0.00000000  0.00000000  0.10569500  1
  Li  Li1  1  0.00000000  0.00000000  0.60569500  1
  Tc  Tc2  1  0.66666700  0.33333300  0.40533100  1
  Tc  Tc3  1  0.33333300  0.66666700  0.90533100  1
  H  H4  1  0.26070500  0.32534500  0.34861500  1
  H  H5  1  0.06464000  0.73929500  0.34861500  1
  H  H6  1  0.67465500  0.93536000  0.34861500  1
  H  H7  1  0.06464000  0.32534500  0.34861500  1
  H  H8  1  0.67465500  0.73929500  0.34861500  1
  H  H9  1  0.26070500  0.93536000  0.34861500  1
  H  H10  1  0.73929500  0.67465500  0.84861500  1
  H  H11  1  0.93536000  0.26070500  0.84861500  1
  H  H12  1  0.32534500  0.06464000  0.84861500  1
  H  H13  1  0.93536000  0.67465500  0.84861500  1
  H  H14  1  0.32534500  0.26070500  0.84861500  1
  H  H15  1  0.73929500  0.06464000  0.84861500  1
  O  O16  1  0.66666700  0.33333300  0.70547700  1
  O  O17  1  0.33333300  0.66666700  0.20547700  1
  O  O18  1  0.54657300  0.09314600  0.30759700  1
  O  O19  1  0.54657300  0.45342700  0.30759700  1
  O  O20  1  0.90685400  0.45342700  0.30759700  1
  O  O21  1  0.45342700  0.90685400  0.80759700  1
  O  O22  1  0.45342700  0.54657300  0.80759700  1
  O  O23  1  0.09314600  0.54657300  0.80759700  1
  O  O24  1  0.11908600  0.23817200  0.35560600  1
  O  O25  1  0.11908600  0.88091400  0.35560600  1
  O  O26  1  0.76182800  0.88091400  0.35560600  1
  O  O27  1  0.88091400  0.76182800  0.85560600  1
  O  O28  1  0.88091400  0.11908600  0.85560600  1
  O  O29  1  0.23817200  0.11908600  0.85560600  1
