# generated using pymatgen
data_K2CoI4
_symmetry_space_group_name_H-M   'P 1'
_cell_length_a   8.18371300
_cell_length_b   7.88800000
_cell_length_c   9.82743598
_cell_angle_alpha   71.78319803
_cell_angle_beta   90.00000000
_cell_angle_gamma   90.00000000
_symmetry_Int_Tables_number   1
_chemical_formula_structural   K2CoI4
_chemical_formula_sum   'K4 Co2 I8'
_cell_volume   602.59628583
_cell_formula_units_Z   2
loop_
 _symmetry_equiv_pos_site_id
 _symmetry_equiv_pos_as_xyz
  1  'x, y, z'
loop_
 _atom_site_type_symbol
 _atom_site_label
 _atom_site_symmetry_multiplicity
 _atom_site_fract_x
 _atom_site_fract_y
 _atom_site_fract_z
 _atom_site_occupancy
  K  K0  1  0.75000000  0.78201400  0.55156100  1
  K  K1  1  0.25000000  0.21798600  0.44843900  1
  K  K2  1  0.75000000  0.73373200  0.06815200  1
  K  K3  1  0.25000000  0.26626800  0.93184800  1
  Co  Co4  1  0.75000000  0.22231900  0.70070500  1
  Co  Co5  1  0.25000000  0.77768100  0.29929500  1
  I  I6  1  0.75000000  0.39624000  0.42956300  1
  I  I7  1  0.25000000  0.60376000  0.57043700  1
  I  I8  1  0.00155800  0.99237200  0.24012300  1
  I  I9  1  0.99844200  0.00762800  0.75987700  1
  I  I10  1  0.50155800  0.00762800  0.75987700  1
  I  I11  1  0.49844200  0.99237200  0.24012300  1
  I  I12  1  0.75000000  0.41646100  0.87057200  1
  I  I13  1  0.25000000  0.58353900  0.12942800  1
