# generated using pymatgen
data_K2ZrGe2O7
_symmetry_space_group_name_H-M   'P 1'
_cell_length_a   5.79360147
_cell_length_b   5.79360147
_cell_length_c   13.19888981
_cell_angle_alpha   77.15075612
_cell_angle_beta   77.15075612
_cell_angle_gamma   58.33508417
_symmetry_Int_Tables_number   1
_chemical_formula_structural   K2ZrGe2O7
_chemical_formula_sum   'K4 Zr2 Ge4 O14'
_cell_volume   364.64456520
_cell_formula_units_Z   2
loop_
 _symmetry_equiv_pos_site_id
 _symmetry_equiv_pos_as_xyz
  1  'x, y, z'
loop_
 _atom_site_type_symbol
 _atom_site_label
 _atom_site_symmetry_multiplicity
 _atom_site_fract_x
 _atom_site_fract_y
 _atom_site_fract_z
 _atom_site_occupancy
  K  K0  1  0.64062600  0.06513300  0.17775900  1
  K  K1  1  0.93486700  0.35937400  0.32224100  1
  K  K2  1  0.35937400  0.93486700  0.82224100  1
  K  K3  1  0.06513300  0.64062600  0.67775900  1
  Zr  Zr4  1  0.50000000  0.00000000  0.50000000  1
  Zr  Zr5  1  0.00000000  0.50000000  0.00000000  1
  Ge  Ge6  1  0.75796900  0.31659200  0.62215300  1
  Ge  Ge7  1  0.31659200  0.75796900  0.12215300  1
  Ge  Ge8  1  0.24203100  0.68340800  0.37784700  1
  Ge  Ge9  1  0.68340800  0.24203100  0.87784700  1
  O  O10  1  0.81210200  0.92409600  0.95578900  1
  O  O11  1  0.32805400  0.42313200  0.87285600  1
  O  O12  1  0.42313200  0.32805400  0.37285600  1
  O  O13  1  0.67194600  0.57686800  0.12714400  1
  O  O14  1  0.86040300  0.13959700  0.75000000  1
  O  O15  1  0.13959700  0.86040300  0.25000000  1
  O  O16  1  0.21328300  0.53681800  0.10101500  1
  O  O17  1  0.46318200  0.78671700  0.39898500  1
  O  O18  1  0.07590400  0.18789800  0.54421100  1
  O  O19  1  0.53681800  0.21328300  0.60101500  1
  O  O20  1  0.18789800  0.07590400  0.04421100  1
  O  O21  1  0.92409600  0.81210200  0.45578900  1
  O  O22  1  0.78671700  0.46318200  0.89898500  1
  O  O23  1  0.57686800  0.67194600  0.62714400  1
