# generated using pymatgen
data_AgMo6Cl13
_symmetry_space_group_name_H-M   'P 1'
_cell_length_a   9.10534400
_cell_length_b   9.20250107
_cell_length_c   14.18336435
_cell_angle_alpha   96.19103030
_cell_angle_beta   102.40780341
_cell_angle_gamma   114.43172675
_symmetry_Int_Tables_number   1
_chemical_formula_structural   AgMo6Cl13
_chemical_formula_sum   'Ag2 Mo12 Cl26'
_cell_volume   1030.57377402
_cell_formula_units_Z   2
loop_
 _symmetry_equiv_pos_site_id
 _symmetry_equiv_pos_as_xyz
  1  'x, y, z'
loop_
 _atom_site_type_symbol
 _atom_site_label
 _atom_site_symmetry_multiplicity
 _atom_site_fract_x
 _atom_site_fract_y
 _atom_site_fract_z
 _atom_site_occupancy
  Ag  Ag0  1  0.01799600  0.25251300  0.77263400  1
  Ag  Ag1  1  0.98200400  0.74748700  0.22736600  1
  Mo  Mo2  1  0.31426800  0.38193600  0.54257800  1
  Mo  Mo3  1  0.68573200  0.61806400  0.45742200  1
  Mo  Mo4  1  0.36311100  0.54453900  0.40144000  1
  Mo  Mo5  1  0.63688900  0.45546100  0.59856000  1
  Mo  Mo6  1  0.70249600  0.00290900  0.06417100  1
  Mo  Mo7  1  0.29750400  0.99709100  0.93582900  1
  Mo  Mo8  1  0.60490100  0.22752500  0.02556600  1
  Mo  Mo9  1  0.39509900  0.77247500  0.97443400  1
  Mo  Mo10  1  0.45596600  0.31026500  0.41307500  1
  Mo  Mo11  1  0.54403400  0.68973500  0.58692500  1
  Mo  Mo12  1  0.44733100  0.01015300  0.11978300  1
  Mo  Mo13  1  0.55266900  0.98984700  0.88021700  1
  Cl  Cl14  1  0.06707400  0.22291400  0.59722500  1
  Cl  Cl15  1  0.93292600  0.77708600  0.40277500  1
  Cl  Cl16  1  0.23696700  0.61124900  0.52853900  1
  Cl  Cl17  1  0.76303300  0.38875100  0.47146100  1
  Cl  Cl18  1  0.74577000  0.52696100  0.06621400  1
  Cl  Cl19  1  0.25423000  0.47303900  0.93378600  1
  Cl  Cl20  1  0.16053900  0.78861300  0.02895900  1
  Cl  Cl21  1  0.83946100  0.21138700  0.97104100  1
  Cl  Cl22  1  0.41237600  0.16686100  0.55132200  1
  Cl  Cl23  1  0.58762400  0.83313900  0.44867800  1
  Cl  Cl24  1  0.50806600  0.47620200  0.28610700  1
  Cl  Cl25  1  0.49193400  0.52379800  0.71389300  1
  Cl  Cl26  1  0.35406900  0.21625700  0.07415200  1
  Cl  Cl27  1  0.64593100  0.78374300  0.92584800  1
  Cl  Cl28  1  0.54145600  0.79653100  0.14980500  1
  Cl  Cl29  1  0.45854400  0.20346900  0.85019500  1
  Cl  Cl30  1  0.38985000  0.04722700  0.29072400  1
  Cl  Cl31  1  0.61015000  0.95277300  0.70927600  1
  Cl  Cl32  1  0.74136500  0.22669400  0.19731200  1
  Cl  Cl33  1  0.25863500  0.77330600  0.80268800  1
  Cl  Cl34  1  0.96422600  0.99446200  0.14698400  1
  Cl  Cl35  1  0.03577400  0.00553800  0.85301600  1
  Cl  Cl36  1  0.15430600  0.25159500  0.36743300  1
  Cl  Cl37  1  0.84569400  0.74840500  0.63256700  1
  Cl  Cl38  1  0.17997600  0.59108100  0.26623700  1
  Cl  Cl39  1  0.82002400  0.40891900  0.73376300  1
