# generated using pymatgen
data_Dy4Mg3Co2
_symmetry_space_group_name_H-M   'P 1'
_cell_length_a   3.69913900
_cell_length_b   7.44197300
_cell_length_c   8.13911767
_cell_angle_alpha   70.22835972
_cell_angle_beta   90.00000000
_cell_angle_gamma   90.00000000
_symmetry_Int_Tables_number   1
_chemical_formula_structural   Dy4Mg3Co2
_chemical_formula_sum   'Dy4 Mg3 Co2'
_cell_volume   210.85212938
_cell_formula_units_Z   1
loop_
 _symmetry_equiv_pos_site_id
 _symmetry_equiv_pos_as_xyz
  1  'x, y, z'
loop_
 _atom_site_type_symbol
 _atom_site_label
 _atom_site_symmetry_multiplicity
 _atom_site_fract_x
 _atom_site_fract_y
 _atom_site_fract_z
 _atom_site_occupancy
  Dy  Dy0  1  0.50000000  0.90187300  0.22587900  1
  Dy  Dy1  1  0.50000000  0.09812700  0.77412100  1
  Dy  Dy2  1  0.50000000  0.39724100  0.31976100  1
  Dy  Dy3  1  0.50000000  0.60275900  0.68023900  1
  Mg  Mg4  1  0.00000000  0.70704600  0.00130600  1
  Mg  Mg5  1  0.00000000  0.29295400  0.99869400  1
  Mg  Mg6  1  0.00000000  0.00000000  0.50000000  1
  Co  Co7  1  0.00000000  0.64766500  0.39533300  1
  Co  Co8  1  0.00000000  0.35233500  0.60466700  1
