# generated using pymatgen
data_AsClOF8
_symmetry_space_group_name_H-M   'P 1'
_cell_length_a   5.37591400
_cell_length_b   8.29472500
_cell_length_c   15.03897400
_cell_angle_alpha   90.00000000
_cell_angle_beta   90.00000000
_cell_angle_gamma   90.00000000
_symmetry_Int_Tables_number   1
_chemical_formula_structural   AsClOF8
_chemical_formula_sum   'As4 Cl4 O4 F32'
_cell_volume   670.61384182
_cell_formula_units_Z   4
loop_
 _symmetry_equiv_pos_site_id
 _symmetry_equiv_pos_as_xyz
  1  'x, y, z'
loop_
 _atom_site_type_symbol
 _atom_site_label
 _atom_site_symmetry_multiplicity
 _atom_site_fract_x
 _atom_site_fract_y
 _atom_site_fract_z
 _atom_site_occupancy
  As  As0  1  0.38818300  0.94197200  0.40206800  1
  As  As1  1  0.61181700  0.44197200  0.59793200  1
  As  As2  1  0.88818300  0.44197200  0.09793200  1
  As  As3  1  0.11181700  0.94197200  0.90206800  1
  Cl  Cl4  1  0.12574800  0.48813600  0.38680000  1
  Cl  Cl5  1  0.87425200  0.98813600  0.61320000  1
  Cl  Cl6  1  0.62574800  0.98813600  0.11320000  1
  Cl  Cl7  1  0.37425200  0.48813600  0.88680000  1
  O  O8  1  0.33791900  0.47233700  0.33419300  1
  O  O9  1  0.66208100  0.97233700  0.66580700  1
  O  O10  1  0.83791900  0.97233700  0.16580700  1
  O  O11  1  0.16208100  0.47233700  0.83419300  1
  F  F12  1  0.12287500  0.97810700  0.33676800  1
  F  F13  1  0.87712500  0.47810700  0.66323200  1
  F  F14  1  0.62287500  0.47810700  0.16323200  1
  F  F15  1  0.37712500  0.97810700  0.83676800  1
  F  F16  1  0.52924900  0.83336200  0.31515800  1
  F  F17  1  0.47075100  0.33336200  0.68484200  1
  F  F18  1  0.02924900  0.33336200  0.18484200  1
  F  F19  1  0.97075100  0.83336200  0.81515800  1
  F  F20  1  0.52601100  0.12269800  0.36688700  1
  F  F21  1  0.47398900  0.62269800  0.63311300  1
  F  F22  1  0.02601100  0.62269800  0.13311300  1
  F  F23  1  0.97398900  0.12269800  0.86688700  1
  F  F24  1  0.24856100  0.75626400  0.44131100  1
  F  F25  1  0.75143900  0.25626400  0.55868900  1
  F  F26  1  0.74856100  0.25626400  0.05868900  1
  F  F27  1  0.25143900  0.75626400  0.94131100  1
  F  F28  1  0.24733700  0.04059000  0.49412600  1
  F  F29  1  0.75266300  0.54059000  0.50587400  1
  F  F30  1  0.74733700  0.54059000  0.00587400  1
  F  F31  1  0.25266300  0.04059000  0.99412600  1
  F  F32  1  0.65413200  0.90003300  0.47117900  1
  F  F33  1  0.34586800  0.40003300  0.52882100  1
  F  F34  1  0.15413200  0.40003300  0.02882100  1
  F  F35  1  0.84586800  0.90003300  0.97117900  1
  F  F36  1  0.91568800  0.58103100  0.32746500  1
  F  F37  1  0.08431200  0.08103100  0.67253500  1
  F  F38  1  0.41568800  0.08103100  0.17253500  1
  F  F39  1  0.58431200  0.58103100  0.82746500  1
  F  F40  1  0.98072300  0.31544000  0.38047200  1
  F  F41  1  0.01927700  0.81544000  0.61952800  1
  F  F42  1  0.48072300  0.81544000  0.11952800  1
  F  F43  1  0.51927700  0.31544000  0.88047200  1
