# generated using pymatgen
data_RbNbN2
_symmetry_space_group_name_H-M   'P 1'
_cell_length_a   6.11399400
_cell_length_b   12.30540000
_cell_length_c   17.19611400
_cell_angle_alpha   90.00000000
_cell_angle_beta   90.00000000
_cell_angle_gamma   90.00000000
_symmetry_Int_Tables_number   1
_chemical_formula_structural   RbNbN2
_chemical_formula_sum   'Rb16 Nb16 N32'
_cell_volume   1293.75207464
_cell_formula_units_Z   16
loop_
 _symmetry_equiv_pos_site_id
 _symmetry_equiv_pos_as_xyz
  1  'x, y, z'
loop_
 _atom_site_type_symbol
 _atom_site_label
 _atom_site_symmetry_multiplicity
 _atom_site_fract_x
 _atom_site_fract_y
 _atom_site_fract_z
 _atom_site_occupancy
  Rb  Rb0  1  0.24703300  0.99909900  0.43770000  1
  Rb  Rb1  1  0.74703300  0.50090100  0.56230000  1
  Rb  Rb2  1  0.75296700  0.49909900  0.06230000  1
  Rb  Rb3  1  0.25296700  0.00090100  0.93770000  1
  Rb  Rb4  1  0.75296700  0.00090100  0.56230000  1
  Rb  Rb5  1  0.25296700  0.49909900  0.43770000  1
  Rb  Rb6  1  0.24703300  0.50090100  0.93770000  1
  Rb  Rb7  1  0.74703300  0.99909900  0.06230000  1
  Rb  Rb8  1  0.30112900  0.25706800  0.31330100  1
  Rb  Rb9  1  0.80112900  0.24293200  0.68669900  1
  Rb  Rb10  1  0.69887100  0.75706800  0.18669900  1
  Rb  Rb11  1  0.19887100  0.74293200  0.81330100  1
  Rb  Rb12  1  0.69887100  0.74293200  0.68669900  1
  Rb  Rb13  1  0.19887100  0.75706800  0.31330100  1
  Rb  Rb14  1  0.30112900  0.24293200  0.81330100  1
  Rb  Rb15  1  0.80112900  0.25706800  0.18669900  1
  Nb  Nb16  1  0.74327300  0.00746200  0.31200100  1
  Nb  Nb17  1  0.24327300  0.49253800  0.68799900  1
  Nb  Nb18  1  0.25672700  0.50746200  0.18799900  1
  Nb  Nb19  1  0.75672700  0.99253800  0.81200100  1
  Nb  Nb20  1  0.25672700  0.99253800  0.68799900  1
  Nb  Nb21  1  0.75672700  0.50746200  0.31200100  1
  Nb  Nb22  1  0.74327300  0.49253800  0.81200100  1
  Nb  Nb23  1  0.24327300  0.00746200  0.18799900  1
  Nb  Nb24  1  0.78375300  0.26235100  0.43747900  1
  Nb  Nb25  1  0.28375300  0.23764900  0.56252100  1
  Nb  Nb26  1  0.21624700  0.76235100  0.06252100  1
  Nb  Nb27  1  0.71624700  0.73764900  0.93747900  1
  Nb  Nb28  1  0.21624700  0.73764900  0.56252100  1
  Nb  Nb29  1  0.71624700  0.76235100  0.43747900  1
  Nb  Nb30  1  0.78375300  0.23764900  0.93747900  1
  Nb  Nb31  1  0.28375300  0.26235100  0.06252100  1
  N  N32  1  0.08177700  0.27619100  0.47821400  1
  N  N33  1  0.58177700  0.22380900  0.52178600  1
  N  N34  1  0.91822300  0.77619100  0.02178600  1
  N  N35  1  0.41822300  0.72380900  0.97821400  1
  N  N36  1  0.91822300  0.72380900  0.52178600  1
  N  N37  1  0.41822300  0.77619100  0.47821400  1
  N  N38  1  0.08177700  0.22380900  0.97821400  1
  N  N39  1  0.58177700  0.27619100  0.02178600  1
  N  N40  1  0.69251900  0.40231600  0.39459300  1
  N  N41  1  0.19251900  0.09768400  0.60540700  1
  N  N42  1  0.30748100  0.90231600  0.10540700  1
  N  N43  1  0.80748100  0.59768400  0.89459300  1
  N  N44  1  0.30748100  0.59768400  0.60540700  1
  N  N45  1  0.80748100  0.90231600  0.39459300  1
  N  N46  1  0.69251900  0.09768400  0.89459300  1
  N  N47  1  0.19251900  0.40231600  0.10540700  1
  N  N48  1  0.77626400  0.15449500  0.35356200  1
  N  N49  1  0.27626400  0.34550500  0.64643800  1
  N  N50  1  0.22373600  0.65449500  0.14643800  1
  N  N51  1  0.72373600  0.84550500  0.85356200  1
  N  N52  1  0.22373600  0.84550500  0.64643800  1
  N  N53  1  0.72373600  0.65449500  0.35356200  1
  N  N54  1  0.77626400  0.34550500  0.85356200  1
  N  N55  1  0.27626400  0.15449500  0.14643800  1
  N  N56  1  0.55682800  0.48602400  0.22440800  1
  N  N57  1  0.05682800  0.01397600  0.77559200  1
  N  N58  1  0.44317200  0.98602400  0.27559200  1
  N  N59  1  0.94317200  0.51397600  0.72440800  1
  N  N60  1  0.44317200  0.51397600  0.77559200  1
  N  N61  1  0.94317200  0.98602400  0.22440800  1
  N  N62  1  0.55682800  0.01397600  0.72440800  1
  N  N63  1  0.05682800  0.48602400  0.27559200  1
