# generated using pymatgen
data_RbDy2Ag3Te5
_symmetry_space_group_name_H-M   'P 1'
_cell_length_a   4.57828400
_cell_length_b   8.47498744
_cell_length_c   18.50149200
_cell_angle_alpha   90.00000000
_cell_angle_beta   90.00000000
_cell_angle_gamma   105.67055380
_symmetry_Int_Tables_number   1
_chemical_formula_structural   RbDy2Ag3Te5
_chemical_formula_sum   'Rb2 Dy4 Ag6 Te10'
_cell_volume   691.19162845
_cell_formula_units_Z   2
loop_
 _symmetry_equiv_pos_site_id
 _symmetry_equiv_pos_as_xyz
  1  'x, y, z'
loop_
 _atom_site_type_symbol
 _atom_site_label
 _atom_site_symmetry_multiplicity
 _atom_site_fract_x
 _atom_site_fract_y
 _atom_site_fract_z
 _atom_site_occupancy
  Rb  Rb0  1  0.44252000  0.88504000  0.25000000  1
  Rb  Rb1  1  0.55748000  0.11496000  0.75000000  1
  Dy  Dy2  1  0.30891500  0.61783000  0.90542700  1
  Dy  Dy3  1  0.69108500  0.38217000  0.09457300  1
  Dy  Dy4  1  0.30891500  0.61783000  0.59457300  1
  Dy  Dy5  1  0.69108500  0.38217000  0.40542700  1
  Ag  Ag6  1  0.16376400  0.32752800  0.25000000  1
  Ag  Ag7  1  0.83623600  0.67247200  0.75000000  1
  Ag  Ag8  1  0.91577000  0.83154000  0.46808100  1
  Ag  Ag9  1  0.08423000  0.16846000  0.53191900  1
  Ag  Ag10  1  0.91577000  0.83154000  0.03191900  1
  Ag  Ag11  1  0.08423000  0.16846000  0.96808100  1
  Te  Te12  1  0.93695800  0.87391600  0.87867600  1
  Te  Te13  1  0.06304200  0.12608400  0.12132400  1
  Te  Te14  1  0.93695800  0.87391600  0.62132400  1
  Te  Te15  1  0.06304200  0.12608400  0.37867600  1
  Te  Te16  1  0.67679500  0.35359000  0.92796500  1
  Te  Te17  1  0.32320500  0.64641000  0.07203500  1
  Te  Te18  1  0.67679500  0.35359000  0.57203500  1
  Te  Te19  1  0.32320500  0.64641000  0.42796500  1
  Te  Te20  1  0.76070300  0.52140500  0.25000000  1
  Te  Te21  1  0.23929700  0.47859500  0.75000000  1
