# generated using pymatgen
data_SrNi5As3
_symmetry_space_group_name_H-M   'P 1'
_cell_length_a   6.40162643
_cell_length_b   6.40162643
_cell_length_c   11.94685200
_cell_angle_alpha   90.00000000
_cell_angle_beta   90.00000000
_cell_angle_gamma   145.82510103
_symmetry_Int_Tables_number   1
_chemical_formula_structural   SrNi5As3
_chemical_formula_sum   'Sr2 Ni10 As6'
_cell_volume   275.01398898
_cell_formula_units_Z   2
loop_
 _symmetry_equiv_pos_site_id
 _symmetry_equiv_pos_as_xyz
  1  'x, y, z'
loop_
 _atom_site_type_symbol
 _atom_site_label
 _atom_site_symmetry_multiplicity
 _atom_site_fract_x
 _atom_site_fract_y
 _atom_site_fract_z
 _atom_site_occupancy
  Sr  Sr0  1  0.16424300  0.83575700  0.25000000  1
  Sr  Sr1  1  0.83575700  0.16424300  0.75000000  1
  Ni  Ni2  1  0.19316500  0.80683500  0.93299900  1
  Ni  Ni3  1  0.80683500  0.19316500  0.43299900  1
  Ni  Ni4  1  0.00000000  0.00000000  0.00000000  1
  Ni  Ni5  1  0.00000000  0.00000000  0.50000000  1
  Ni  Ni6  1  0.54833600  0.45166400  0.64476200  1
  Ni  Ni7  1  0.45166400  0.54833600  0.35523800  1
  Ni  Ni8  1  0.45166400  0.54833600  0.14476200  1
  Ni  Ni9  1  0.19316500  0.80683500  0.56700100  1
  Ni  Ni10  1  0.80683500  0.19316500  0.06700100  1
  Ni  Ni11  1  0.54833600  0.45166400  0.85523800  1
  As  As12  1  0.62092900  0.37907100  0.45923000  1
  As  As13  1  0.11342800  0.88657200  0.75000000  1
  As  As14  1  0.62092900  0.37907100  0.04077000  1
  As  As15  1  0.37907100  0.62092900  0.95923000  1
  As  As16  1  0.88657200  0.11342800  0.25000000  1
  As  As17  1  0.37907100  0.62092900  0.54077000  1
