# generated using pymatgen
data_BaSi3SnO9
_symmetry_space_group_name_H-M   'P 1'
_cell_length_a   6.83229745
_cell_length_b   6.83229745
_cell_length_c   9.99143800
_cell_angle_alpha   90.00000000
_cell_angle_beta   90.00000000
_cell_angle_gamma   119.99999468
_symmetry_Int_Tables_number   1
_chemical_formula_structural   BaSi3SnO9
_chemical_formula_sum   'Ba2 Si6 Sn2 O18'
_cell_volume   403.91704812
_cell_formula_units_Z   2
loop_
 _symmetry_equiv_pos_site_id
 _symmetry_equiv_pos_as_xyz
  1  'x, y, z'
loop_
 _atom_site_type_symbol
 _atom_site_label
 _atom_site_symmetry_multiplicity
 _atom_site_fract_x
 _atom_site_fract_y
 _atom_site_fract_z
 _atom_site_occupancy
  Ba  Ba0  1  0.33333300  0.66666700  0.50000000  1
  Ba  Ba1  1  0.33333300  0.66666700  0.00000000  1
  Si  Si2  1  0.73123100  0.11552700  0.75000000  1
  Si  Si3  1  0.88447300  0.61570400  0.75000000  1
  Si  Si4  1  0.38429600  0.26876900  0.75000000  1
  Si  Si5  1  0.38429600  0.11552700  0.25000000  1
  Si  Si6  1  0.88447300  0.26876900  0.25000000  1
  Si  Si7  1  0.73123100  0.61570400  0.25000000  1
  Sn  Sn8  1  0.00000000  0.00000000  0.50000000  1
  Sn  Sn9  1  0.00000000  0.00000000  0.00000000  1
  O  O10  1  0.24750200  0.25773300  0.61428900  1
  O  O11  1  0.74226700  0.75249800  0.38571100  1
  O  O12  1  0.74226700  0.98976900  0.61428900  1
  O  O13  1  0.01023100  0.75249800  0.61428900  1
  O  O14  1  0.74226700  0.98976900  0.88571100  1
  O  O15  1  0.01023100  0.75249800  0.88571100  1
  O  O16  1  0.24750200  0.25773300  0.88571100  1
  O  O17  1  0.01023100  0.25773300  0.11428900  1
  O  O18  1  0.24750200  0.98976900  0.11428900  1
  O  O19  1  0.24750200  0.98976900  0.38571100  1
  O  O20  1  0.91576400  0.52625700  0.25000000  1
  O  O21  1  0.61049300  0.08423600  0.25000000  1
  O  O22  1  0.47374300  0.38950700  0.25000000  1
  O  O23  1  0.47374300  0.08423600  0.75000000  1
  O  O24  1  0.61049300  0.52625700  0.75000000  1
  O  O25  1  0.91576400  0.38950700  0.75000000  1
  O  O26  1  0.74226700  0.75249800  0.11428900  1
  O  O27  1  0.01023100  0.25773300  0.38571100  1
