# generated using pymatgen
data_K2HgCl4
_symmetry_space_group_name_H-M   'P 1'
_cell_length_a   7.89248000
_cell_length_b   9.07845700
_cell_length_c   12.00475300
_cell_angle_alpha   90.00000000
_cell_angle_beta   90.00000000
_cell_angle_gamma   90.00000000
_symmetry_Int_Tables_number   1
_chemical_formula_structural   K2HgCl4
_chemical_formula_sum   'K8 Hg4 Cl16'
_cell_volume   860.15904341
_cell_formula_units_Z   4
loop_
 _symmetry_equiv_pos_site_id
 _symmetry_equiv_pos_as_xyz
  1  'x, y, z'
loop_
 _atom_site_type_symbol
 _atom_site_label
 _atom_site_symmetry_multiplicity
 _atom_site_fract_x
 _atom_site_fract_y
 _atom_site_fract_z
 _atom_site_occupancy
  K  K0  1  0.90530900  0.00000000  0.32481000  1
  K  K1  1  0.09469100  0.00000000  0.67519000  1
  K  K2  1  0.40530900  0.00000000  0.17519000  1
  K  K3  1  0.59469100  0.00000000  0.82481000  1
  K  K4  1  0.90350400  0.50000000  0.31398200  1
  K  K5  1  0.09649600  0.50000000  0.68601800  1
  K  K6  1  0.40350400  0.50000000  0.18601800  1
  K  K7  1  0.59649600  0.50000000  0.81398200  1
  Hg  Hg8  1  0.50000000  0.24989700  0.50000000  1
  Hg  Hg9  1  0.00000000  0.75010300  0.00000000  1
  Hg  Hg10  1  0.50000000  0.75010300  0.50000000  1
  Hg  Hg11  1  0.00000000  0.24989700  0.00000000  1
  Cl  Cl12  1  0.27357200  0.00000000  0.43883900  1
  Cl  Cl13  1  0.72642800  0.00000000  0.56116100  1
  Cl  Cl14  1  0.77357200  0.00000000  0.06116100  1
  Cl  Cl15  1  0.22642800  0.00000000  0.93883900  1
  Cl  Cl16  1  0.26899200  0.50000000  0.44556100  1
  Cl  Cl17  1  0.73100800  0.50000000  0.55443900  1
  Cl  Cl18  1  0.76899200  0.50000000  0.05443900  1
  Cl  Cl19  1  0.23100800  0.50000000  0.94556100  1
  Cl  Cl20  1  0.61736400  0.24800400  0.30800400  1
  Cl  Cl21  1  0.38263600  0.24800400  0.69199600  1
  Cl  Cl22  1  0.11736400  0.75199600  0.19199600  1
  Cl  Cl23  1  0.88263600  0.75199600  0.80800400  1
  Cl  Cl24  1  0.38263600  0.75199600  0.69199600  1
  Cl  Cl25  1  0.61736400  0.75199600  0.30800400  1
  Cl  Cl26  1  0.88263600  0.24800400  0.80800400  1
  Cl  Cl27  1  0.11736400  0.24800400  0.19199600  1
