# generated using pymatgen
data_Y3Ga9Cu2
_symmetry_space_group_name_H-M   'P 1'
_cell_length_a   8.15454085
_cell_length_b   8.15454085
_cell_length_c   8.15454085
_cell_angle_alpha   150.13919605
_cell_angle_beta   104.23297350
_cell_angle_gamma   83.50578939
_symmetry_Int_Tables_number   1
_chemical_formula_structural   Y3Ga9Cu2
_chemical_formula_sum   'Y3 Ga9 Cu2'
_cell_volume   256.00194297
_cell_formula_units_Z   1
loop_
 _symmetry_equiv_pos_site_id
 _symmetry_equiv_pos_as_xyz
  1  'x, y, z'
loop_
 _atom_site_type_symbol
 _atom_site_label
 _atom_site_symmetry_multiplicity
 _atom_site_fract_x
 _atom_site_fract_y
 _atom_site_fract_z
 _atom_site_occupancy
  Y  Y0  1  0.31623000  0.31623000  0.00000000  1
  Y  Y1  1  0.68377000  0.68377000  0.00000000  1
  Y  Y2  1  0.00000000  0.00000000  0.00000000  1
  Ga  Ga3  1  0.71278600  0.34143100  0.37135500  1
  Ga  Ga4  1  0.28721400  0.65856900  0.62864500  1
  Ga  Ga5  1  0.97007700  0.34143100  0.62864500  1
  Ga  Ga6  1  0.02992300  0.65856900  0.37135500  1
  Ga  Ga7  1  0.41116600  0.13252500  0.27864100  1
  Ga  Ga8  1  0.58883400  0.86747500  0.72135900  1
  Ga  Ga9  1  0.85388400  0.13252500  0.72135900  1
  Ga  Ga10  1  0.14611600  0.86747500  0.27864100  1
  Ga  Ga11  1  0.50000000  0.00000000  0.50000000  1
  Cu  Cu12  1  0.71189200  0.50000000  0.21189200  1
  Cu  Cu13  1  0.28810800  0.50000000  0.78810800  1
