# generated using pymatgen
data_Er5Ge4
_symmetry_space_group_name_H-M   'P 1'
_cell_length_a   7.54194700
_cell_length_b   7.68013200
_cell_length_c   14.57470400
_cell_angle_alpha   90.00000000
_cell_angle_beta   90.00000000
_cell_angle_gamma   90.00000000
_symmetry_Int_Tables_number   1
_chemical_formula_structural   Er5Ge4
_chemical_formula_sum   'Er20 Ge16'
_cell_volume   844.21274409
_cell_formula_units_Z   4
loop_
 _symmetry_equiv_pos_site_id
 _symmetry_equiv_pos_as_xyz
  1  'x, y, z'
loop_
 _atom_site_type_symbol
 _atom_site_label
 _atom_site_symmetry_multiplicity
 _atom_site_fract_x
 _atom_site_fract_y
 _atom_site_fract_z
 _atom_site_occupancy
  Er  Er0  1  0.63155100  0.16176800  0.61935500  1
  Er  Er1  1  0.13155100  0.33823200  0.88064500  1
  Er  Er2  1  0.36844900  0.83823200  0.11935500  1
  Er  Er3  1  0.86844900  0.66176800  0.38064500  1
  Er  Er4  1  0.36844900  0.83823200  0.38064500  1
  Er  Er5  1  0.86844900  0.66176800  0.11935500  1
  Er  Er6  1  0.63155100  0.16176800  0.88064500  1
  Er  Er7  1  0.13155100  0.33823200  0.61935500  1
  Er  Er8  1  0.48310400  0.68256100  0.59664000  1
  Er  Er9  1  0.98310400  0.81743900  0.90336000  1
  Er  Er10  1  0.51689600  0.31743900  0.09664000  1
  Er  Er11  1  0.01689600  0.18256100  0.40336000  1
  Er  Er12  1  0.51689600  0.31743900  0.40336000  1
  Er  Er13  1  0.01689600  0.18256100  0.09664000  1
  Er  Er14  1  0.48310400  0.68256100  0.90336000  1
  Er  Er15  1  0.98310400  0.81743900  0.59664000  1
  Er  Er16  1  0.79369500  0.50102500  0.75000000  1
  Er  Er17  1  0.29369500  0.99897500  0.75000000  1
  Er  Er18  1  0.20630500  0.49897500  0.25000000  1
  Er  Er19  1  0.70630500  0.00102500  0.25000000  1
  Ge  Ge20  1  0.71237200  0.96474600  0.45634700  1
  Ge  Ge21  1  0.21237200  0.53525400  0.04365300  1
  Ge  Ge22  1  0.28762800  0.03525400  0.95634700  1
  Ge  Ge23  1  0.78762800  0.46474600  0.54365300  1
  Ge  Ge24  1  0.28762800  0.03525400  0.54365300  1
  Ge  Ge25  1  0.78762800  0.46474600  0.95634700  1
  Ge  Ge26  1  0.71237200  0.96474600  0.04365300  1
  Ge  Ge27  1  0.21237200  0.53525400  0.45634700  1
  Ge  Ge28  1  0.42839200  0.38266300  0.75000000  1
  Ge  Ge29  1  0.92839200  0.11733700  0.75000000  1
  Ge  Ge30  1  0.57160800  0.61733700  0.25000000  1
  Ge  Ge31  1  0.07160800  0.88266300  0.25000000  1
  Ge  Ge32  1  0.67542400  0.85992100  0.75000000  1
  Ge  Ge33  1  0.17542400  0.64007900  0.75000000  1
  Ge  Ge34  1  0.32457600  0.14007900  0.25000000  1
  Ge  Ge35  1  0.82457600  0.35992100  0.25000000  1
