# generated using pymatgen
data_Mg3Au13
_symmetry_space_group_name_H-M   'P 1'
_cell_length_a   4.13761000
_cell_length_b   4.13761000
_cell_length_c   16.73984800
_cell_angle_alpha   90.00000000
_cell_angle_beta   90.00000000
_cell_angle_gamma   90.00000000
_symmetry_Int_Tables_number   1
_chemical_formula_structural   Mg3Au13
_chemical_formula_sum   'Mg3 Au13'
_cell_volume   286.58312620
_cell_formula_units_Z   1
loop_
 _symmetry_equiv_pos_site_id
 _symmetry_equiv_pos_as_xyz
  1  'x, y, z'
loop_
 _atom_site_type_symbol
 _atom_site_label
 _atom_site_symmetry_multiplicity
 _atom_site_fract_x
 _atom_site_fract_y
 _atom_site_fract_z
 _atom_site_occupancy
  Mg  Mg0  1  0.00000000  0.00000000  0.87417500  1
  Mg  Mg1  1  0.00000000  0.00000000  0.12552100  1
  Mg  Mg2  1  0.50000000  0.50000000  0.62434300  1
  Au  Au3  1  0.50000000  0.00000000  0.00032500  1
  Au  Au4  1  0.00000000  0.50000000  0.50321500  1
  Au  Au5  1  0.50000000  0.00000000  0.50321500  1
  Au  Au6  1  0.00000000  0.50000000  0.00032500  1
  Au  Au7  1  0.50000000  0.50000000  0.12455000  1
  Au  Au8  1  0.00000000  0.00000000  0.62520600  1
  Au  Au9  1  0.00000000  0.00000000  0.37595300  1
  Au  Au10  1  0.50000000  0.50000000  0.87647300  1
  Au  Au11  1  0.00000000  0.50000000  0.24704500  1
  Au  Au12  1  0.50000000  0.00000000  0.74976200  1
  Au  Au13  1  0.50000000  0.00000000  0.24704500  1
  Au  Au14  1  0.00000000  0.50000000  0.74976200  1
  Au  Au15  1  0.50000000  0.50000000  0.37308400  1
