# generated using pymatgen
data_CeAu6
_symmetry_space_group_name_H-M   'P 1'
_cell_length_a   5.55226887
_cell_length_b   5.55226887
_cell_length_c   9.31448253
_cell_angle_alpha   82.34611800
_cell_angle_beta   82.34611800
_cell_angle_gamma   89.65814071
_symmetry_Int_Tables_number   1
_chemical_formula_structural   CeAu6
_chemical_formula_sum   'Ce2 Au12'
_cell_volume   282.03002114
_cell_formula_units_Z   2
loop_
 _symmetry_equiv_pos_site_id
 _symmetry_equiv_pos_as_xyz
  1  'x, y, z'
loop_
 _atom_site_type_symbol
 _atom_site_label
 _atom_site_symmetry_multiplicity
 _atom_site_fract_x
 _atom_site_fract_y
 _atom_site_fract_z
 _atom_site_occupancy
  Ce  Ce0  1  0.31518200  0.68481800  0.75000000  1
  Ce  Ce1  1  0.68481800  0.31518200  0.25000000  1
  Au  Au2  1  0.04161200  0.15611300  0.86415800  1
  Au  Au3  1  0.84388700  0.95838800  0.63584200  1
  Au  Au4  1  0.95838800  0.84388700  0.13584200  1
  Au  Au5  1  0.15611300  0.04161200  0.36415800  1
  Au  Au6  1  0.77819200  0.61762300  0.91872700  1
  Au  Au7  1  0.38237700  0.22180800  0.58127300  1
  Au  Au8  1  0.22180800  0.38237700  0.08127300  1
  Au  Au9  1  0.61762300  0.77819200  0.41872700  1
  Au  Au10  1  0.83502200  0.45847300  0.62839300  1
  Au  Au11  1  0.54152700  0.16497800  0.87160700  1
  Au  Au12  1  0.16497800  0.54152700  0.37160700  1
  Au  Au13  1  0.45847300  0.83502200  0.12839300  1
