# generated using pymatgen
data_Mg2GeB2Ir5
_symmetry_space_group_name_H-M   'P 1'
_cell_length_a   2.95725800
_cell_length_b   9.47132900
_cell_length_c   9.47132900
_cell_angle_alpha   90.00000000
_cell_angle_beta   90.00000000
_cell_angle_gamma   90.00000000
_symmetry_Int_Tables_number   1
_chemical_formula_structural   Mg2GeB2Ir5
_chemical_formula_sum   'Mg4 Ge2 B4 Ir10'
_cell_volume   265.28400211
_cell_formula_units_Z   2
loop_
 _symmetry_equiv_pos_site_id
 _symmetry_equiv_pos_as_xyz
  1  'x, y, z'
loop_
 _atom_site_type_symbol
 _atom_site_label
 _atom_site_symmetry_multiplicity
 _atom_site_fract_x
 _atom_site_fract_y
 _atom_site_fract_z
 _atom_site_occupancy
  Mg  Mg0  1  0.00000000  0.32565600  0.82565600  1
  Mg  Mg1  1  0.00000000  0.67434400  0.17434400  1
  Mg  Mg2  1  0.00000000  0.17434400  0.32565600  1
  Mg  Mg3  1  0.00000000  0.82565600  0.67434400  1
  Ge  Ge4  1  0.00000000  0.50000000  0.50000000  1
  Ge  Ge5  1  0.00000000  0.00000000  0.00000000  1
  B  B6  1  0.00000000  0.12555600  0.62555600  1
  B  B7  1  0.00000000  0.87444400  0.37444400  1
  B  B8  1  0.00000000  0.37444400  0.12555600  1
  B  B9  1  0.00000000  0.62555600  0.87444400  1
  Ir  Ir10  1  0.50000000  0.00000000  0.50000000  1
  Ir  Ir11  1  0.50000000  0.50000000  0.00000000  1
  Ir  Ir12  1  0.50000000  0.57310400  0.71333700  1
  Ir  Ir13  1  0.50000000  0.42689600  0.28666300  1
  Ir  Ir14  1  0.50000000  0.92689600  0.21333700  1
  Ir  Ir15  1  0.50000000  0.07310400  0.78666300  1
  Ir  Ir16  1  0.50000000  0.71333700  0.42689600  1
  Ir  Ir17  1  0.50000000  0.28666300  0.57310400  1
  Ir  Ir18  1  0.50000000  0.21333700  0.07310400  1
  Ir  Ir19  1  0.50000000  0.78666300  0.92689600  1
