# generated using pymatgen
data_CsSnPS4
_symmetry_space_group_name_H-M   'P 1'
_cell_length_a   6.32534300
_cell_length_b   6.92179500
_cell_length_c   18.45750500
_cell_angle_alpha   90.00000000
_cell_angle_beta   90.00000000
_cell_angle_gamma   90.00000000
_symmetry_Int_Tables_number   1
_chemical_formula_structural   CsSnPS4
_chemical_formula_sum   'Cs4 Sn4 P4 S16'
_cell_volume   808.11991268
_cell_formula_units_Z   4
loop_
 _symmetry_equiv_pos_site_id
 _symmetry_equiv_pos_as_xyz
  1  'x, y, z'
loop_
 _atom_site_type_symbol
 _atom_site_label
 _atom_site_symmetry_multiplicity
 _atom_site_fract_x
 _atom_site_fract_y
 _atom_site_fract_z
 _atom_site_occupancy
  Cs  Cs0  1  0.42742800  0.25000000  0.70093000  1
  Cs  Cs1  1  0.57257200  0.75000000  0.29907000  1
  Cs  Cs2  1  0.92742800  0.75000000  0.79907000  1
  Cs  Cs3  1  0.07257200  0.25000000  0.20093000  1
  Sn  Sn4  1  0.71569900  0.25000000  0.97857800  1
  Sn  Sn5  1  0.28430100  0.75000000  0.02142200  1
  Sn  Sn6  1  0.21569900  0.75000000  0.52142200  1
  Sn  Sn7  1  0.78430100  0.25000000  0.47857800  1
  P  P8  1  0.71920500  0.75000000  0.59475300  1
  P  P9  1  0.28079500  0.25000000  0.40524700  1
  P  P10  1  0.78079500  0.75000000  0.09475300  1
  P  P11  1  0.21920500  0.25000000  0.90524700  1
  S  S12  1  0.64880700  0.75000000  0.48531600  1
  S  S13  1  0.35119300  0.25000000  0.51468400  1
  S  S14  1  0.89363900  0.50932800  0.61809200  1
  S  S15  1  0.10636100  0.00932800  0.38190800  1
  S  S16  1  0.10636100  0.49067200  0.38190800  1
  S  S17  1  0.89363900  0.99067200  0.61809200  1
  S  S18  1  0.85119300  0.75000000  0.98531600  1
  S  S19  1  0.14880700  0.25000000  0.01468400  1
  S  S20  1  0.43670900  0.75000000  0.65063900  1
  S  S21  1  0.56329100  0.25000000  0.34936100  1
  S  S22  1  0.06329100  0.75000000  0.15063900  1
  S  S23  1  0.93670900  0.25000000  0.84936100  1
  S  S24  1  0.60636100  0.50932800  0.11809200  1
  S  S25  1  0.39363900  0.00932800  0.88190800  1
  S  S26  1  0.39363900  0.49067200  0.88190800  1
  S  S27  1  0.60636100  0.99067200  0.11809200  1
