# generated using pymatgen
data_Sr2P7I
_symmetry_space_group_name_H-M   'P 1'
_cell_length_a   10.05334400
_cell_length_b   10.05334400
_cell_length_c   10.05334400
_cell_angle_alpha   90.00000000
_cell_angle_beta   90.00000000
_cell_angle_gamma   90.00000000
_symmetry_Int_Tables_number   1
_chemical_formula_structural   Sr2P7I
_chemical_formula_sum   'Sr8 P28 I4'
_cell_volume   1016.08871926
_cell_formula_units_Z   4
loop_
 _symmetry_equiv_pos_site_id
 _symmetry_equiv_pos_as_xyz
  1  'x, y, z'
loop_
 _atom_site_type_symbol
 _atom_site_label
 _atom_site_symmetry_multiplicity
 _atom_site_fract_x
 _atom_site_fract_y
 _atom_site_fract_z
 _atom_site_occupancy
  Sr  Sr0  1  0.15399200  0.65399200  0.84600800  1
  Sr  Sr1  1  0.65399200  0.84600800  0.15399200  1
  Sr  Sr2  1  0.84600800  0.15399200  0.65399200  1
  Sr  Sr3  1  0.34600800  0.34600800  0.34600800  1
  Sr  Sr4  1  0.90191500  0.40191500  0.09808500  1
  Sr  Sr5  1  0.40191500  0.09808500  0.90191500  1
  Sr  Sr6  1  0.09808500  0.90191500  0.40191500  1
  Sr  Sr7  1  0.59808500  0.59808500  0.59808500  1
  P  P8  1  0.71953800  0.21953800  0.28046200  1
  P  P9  1  0.21953800  0.28046200  0.71953800  1
  P  P10  1  0.28046200  0.71953800  0.21953800  1
  P  P11  1  0.78046200  0.78046200  0.78046200  1
  P  P12  1  0.30820600  0.46436800  0.64270200  1
  P  P13  1  0.35729800  0.80820600  0.03563200  1
  P  P14  1  0.96436800  0.85729800  0.69179400  1
  P  P15  1  0.80820600  0.03563200  0.35729800  1
  P  P16  1  0.85729800  0.69179400  0.96436800  1
  P  P17  1  0.46436800  0.64270200  0.30820600  1
  P  P18  1  0.69179400  0.96436800  0.85729800  1
  P  P19  1  0.64270200  0.30820600  0.46436800  1
  P  P20  1  0.03563200  0.35729800  0.80820600  1
  P  P21  1  0.19179400  0.53563200  0.14270200  1
  P  P22  1  0.14270200  0.19179400  0.53563200  1
  P  P23  1  0.53563200  0.14270200  0.19179400  1
  P  P24  1  0.35793700  0.45733100  0.02923100  1
  P  P25  1  0.97076900  0.85793700  0.04266900  1
  P  P26  1  0.95733100  0.47076900  0.64206300  1
  P  P27  1  0.85793700  0.04266900  0.97076900  1
  P  P28  1  0.47076900  0.64206300  0.95733100  1
  P  P29  1  0.45733100  0.02923100  0.35793700  1
  P  P30  1  0.64206300  0.95733100  0.47076900  1
  P  P31  1  0.02923100  0.35793700  0.45733100  1
  P  P32  1  0.04266900  0.97076900  0.85793700  1
  P  P33  1  0.14206300  0.54266900  0.52923100  1
  P  P34  1  0.52923100  0.14206300  0.54266900  1
  P  P35  1  0.54266900  0.52923100  0.14206300  1
  I  I36  1  0.34881100  0.84881100  0.65118900  1
  I  I37  1  0.84881100  0.65118900  0.34881100  1
  I  I38  1  0.65118900  0.34881100  0.84881100  1
  I  I39  1  0.15118900  0.15118900  0.15118900  1
