# generated using pymatgen
data_Sm4Au2O9
_symmetry_space_group_name_H-M   'P 1'
_cell_length_a   6.10067900
_cell_length_b   11.94805500
_cell_length_c   11.95746900
_cell_angle_alpha   90.00000000
_cell_angle_beta   90.00000000
_cell_angle_gamma   90.00000000
_symmetry_Int_Tables_number   1
_chemical_formula_structural   Sm4Au2O9
_chemical_formula_sum   'Sm16 Au8 O36'
_cell_volume   871.59484107
_cell_formula_units_Z   4
loop_
 _symmetry_equiv_pos_site_id
 _symmetry_equiv_pos_as_xyz
  1  'x, y, z'
loop_
 _atom_site_type_symbol
 _atom_site_label
 _atom_site_symmetry_multiplicity
 _atom_site_fract_x
 _atom_site_fract_y
 _atom_site_fract_z
 _atom_site_occupancy
  Sm  Sm0  1  0.25869500  0.98871400  0.08989000  1
  Sm  Sm1  1  0.25869500  0.01128600  0.41011000  1
  Sm  Sm2  1  0.24130500  0.51128600  0.58989000  1
  Sm  Sm3  1  0.24130500  0.48871400  0.91011000  1
  Sm  Sm4  1  0.74130500  0.01128600  0.91011000  1
  Sm  Sm5  1  0.74130500  0.98871400  0.58989000  1
  Sm  Sm6  1  0.75869500  0.48871400  0.41011000  1
  Sm  Sm7  1  0.75869500  0.51128600  0.08989000  1
  Sm  Sm8  1  0.19616700  0.65943000  0.26400200  1
  Sm  Sm9  1  0.19616700  0.34057000  0.23599800  1
  Sm  Sm10  1  0.30383300  0.84057000  0.76400200  1
  Sm  Sm11  1  0.30383300  0.15943000  0.73599800  1
  Sm  Sm12  1  0.80383300  0.34057000  0.73599800  1
  Sm  Sm13  1  0.80383300  0.65943000  0.76400200  1
  Sm  Sm14  1  0.69616700  0.15943000  0.23599800  1
  Sm  Sm15  1  0.69616700  0.84057000  0.26400200  1
  Au  Au16  1  0.41972800  0.72868800  0.01069000  1
  Au  Au17  1  0.41972800  0.27131200  0.48931000  1
  Au  Au18  1  0.08027200  0.77131200  0.51069000  1
  Au  Au19  1  0.08027200  0.22868800  0.98931000  1
  Au  Au20  1  0.58027200  0.27131200  0.98931000  1
  Au  Au21  1  0.58027200  0.72868800  0.51069000  1
  Au  Au22  1  0.91972800  0.22868800  0.48931000  1
  Au  Au23  1  0.91972800  0.77131200  0.01069000  1
  O  O24  1  0.06328200  0.61363600  0.44549900  1
  O  O25  1  0.06328200  0.38636400  0.05450100  1
  O  O26  1  0.43671800  0.88636400  0.94549900  1
  O  O27  1  0.43671800  0.11363600  0.55450100  1
  O  O28  1  0.93671800  0.38636400  0.55450100  1
  O  O29  1  0.93671800  0.61363600  0.94549900  1
  O  O30  1  0.56328200  0.11363600  0.05450100  1
  O  O31  1  0.56328200  0.88636400  0.44549900  1
  O  O32  1  0.06043500  0.83677400  0.35054900  1
  O  O33  1  0.06043500  0.16322600  0.14945100  1
  O  O34  1  0.43956500  0.66322600  0.85054900  1
  O  O35  1  0.43956500  0.33677400  0.64945100  1
  O  O36  1  0.93956500  0.16322600  0.64945100  1
  O  O37  1  0.93956500  0.83677400  0.85054900  1
  O  O38  1  0.37273700  0.80347400  0.15941700  1
  O  O39  1  0.56043500  0.33677400  0.14945100  1
  O  O40  1  0.38842900  0.57607800  0.08879700  1
  O  O41  1  0.38842900  0.42392200  0.41120300  1
  O  O42  1  0.11157100  0.92392200  0.58879700  1
  O  O43  1  0.11157100  0.07607800  0.91120300  1
  O  O44  1  0.61157100  0.42392200  0.91120300  1
  O  O45  1  0.61157100  0.57607800  0.58879700  1
  O  O46  1  0.88842900  0.07607800  0.41120300  1
  O  O47  1  0.88842900  0.92392200  0.08879700  1
  O  O48  1  0.97656800  0.50000000  0.25000000  1
  O  O49  1  0.52343200  0.00000000  0.75000000  1
  O  O50  1  0.02343200  0.50000000  0.75000000  1
  O  O51  1  0.47656800  0.00000000  0.25000000  1
  O  O52  1  0.87273700  0.69652600  0.15941700  1
  O  O53  1  0.87273700  0.30347400  0.34058300  1
  O  O54  1  0.62726300  0.80347400  0.65941700  1
  O  O55  1  0.62726300  0.19652600  0.84058300  1
  O  O56  1  0.12726300  0.30347400  0.84058300  1
  O  O57  1  0.12726300  0.69652600  0.65941700  1
  O  O58  1  0.37273700  0.19652600  0.34058300  1
  O  O59  1  0.56043500  0.66322600  0.35054900  1
