# generated using pymatgen
data_YGaRh
_symmetry_space_group_name_H-M   'P 1'
_cell_length_a   4.36436900
_cell_length_b   6.81179100
_cell_length_c   7.75335500
_cell_angle_alpha   90.00000000
_cell_angle_beta   90.00000000
_cell_angle_gamma   90.00000000
_symmetry_Int_Tables_number   1
_chemical_formula_structural   YGaRh
_chemical_formula_sum   'Y4 Ga4 Rh4'
_cell_volume   230.50080479
_cell_formula_units_Z   4
loop_
 _symmetry_equiv_pos_site_id
 _symmetry_equiv_pos_as_xyz
  1  'x, y, z'
loop_
 _atom_site_type_symbol
 _atom_site_label
 _atom_site_symmetry_multiplicity
 _atom_site_fract_x
 _atom_site_fract_y
 _atom_site_fract_z
 _atom_site_occupancy
  Y  Y0  1  0.25000000  0.98146500  0.30491700  1
  Y  Y1  1  0.25000000  0.48146500  0.19508300  1
  Y  Y2  1  0.75000000  0.01853500  0.69508300  1
  Y  Y3  1  0.75000000  0.51853500  0.80491700  1
  Ga  Ga4  1  0.25000000  0.33373100  0.57436300  1
  Ga  Ga5  1  0.25000000  0.83373100  0.92563700  1
  Ga  Ga6  1  0.75000000  0.66626900  0.42563700  1
  Ga  Ga7  1  0.75000000  0.16626900  0.07436300  1
  Rh  Rh8  1  0.25000000  0.22568700  0.89878800  1
  Rh  Rh9  1  0.25000000  0.72568700  0.60121200  1
  Rh  Rh10  1  0.75000000  0.77431300  0.10121200  1
  Rh  Rh11  1  0.75000000  0.27431300  0.39878800  1
