# generated using pymatgen
data_TlAsH2F10
_symmetry_space_group_name_H-M   'P 1'
_cell_length_a   6.04236700
_cell_length_b   5.69203400
_cell_length_c   22.37287230
_cell_angle_alpha   84.61947320
_cell_angle_beta   90.00000000
_cell_angle_gamma   90.00000000
_symmetry_Int_Tables_number   1
_chemical_formula_structural   TlAsH2F10
_chemical_formula_sum   'Tl4 As4 H8 F40'
_cell_volume   766.08781114
_cell_formula_units_Z   4
loop_
 _symmetry_equiv_pos_site_id
 _symmetry_equiv_pos_as_xyz
  1  'x, y, z'
loop_
 _atom_site_type_symbol
 _atom_site_label
 _atom_site_symmetry_multiplicity
 _atom_site_fract_x
 _atom_site_fract_y
 _atom_site_fract_z
 _atom_site_occupancy
  Tl  Tl0  1  0.60677100  0.24695200  0.26858500  1
  Tl  Tl1  1  0.10677100  0.75304800  0.23141500  1
  Tl  Tl2  1  0.39322900  0.75304800  0.73141500  1
  Tl  Tl3  1  0.89322900  0.24695200  0.76858500  1
  As  As4  1  0.72837700  0.51409900  0.10259000  1
  As  As5  1  0.22837700  0.48590100  0.39741000  1
  As  As6  1  0.27162300  0.48590100  0.89741000  1
  As  As7  1  0.77162300  0.51409900  0.60259000  1
  H  H8  1  0.71179700  0.02091900  0.39679900  1
  H  H9  1  0.21179700  0.97908100  0.10320100  1
  H  H10  1  0.28820300  0.97908100  0.60320100  1
  H  H11  1  0.78820300  0.02091900  0.89679900  1
  H  H12  1  0.75619300  0.90610900  0.98738600  1
  H  H13  1  0.25619300  0.09389100  0.51261400  1
  H  H14  1  0.24380700  0.09389100  0.01261400  1
  H  H15  1  0.74380700  0.90610900  0.48738600  1
  F  F16  1  0.65456200  0.28487400  0.16128800  1
  F  F17  1  0.15456200  0.71512600  0.33871200  1
  F  F18  1  0.34543800  0.71512600  0.83871200  1
  F  F19  1  0.84543800  0.28487400  0.66128800  1
  F  F20  1  0.60671500  0.72492900  0.14480900  1
  F  F21  1  0.10671500  0.27507100  0.35519100  1
  F  F22  1  0.39328500  0.27507100  0.85519100  1
  F  F23  1  0.89328500  0.72492900  0.64480900  1
  F  F24  1  0.81368600  0.74167200  0.04692500  1
  F  F25  1  0.31368600  0.25832800  0.45307500  1
  F  F26  1  0.18631400  0.25832800  0.95307500  1
  F  F27  1  0.68631400  0.74167200  0.54692500  1
  F  F28  1  0.86995500  0.30507300  0.06536900  1
  F  F29  1  0.36995500  0.69492700  0.43463100  1
  F  F30  1  0.13004500  0.69492700  0.93463100  1
  F  F31  1  0.63004500  0.30507300  0.56536900  1
  F  F32  1  0.48093700  0.46683400  0.06606300  1
  F  F33  1  0.98093700  0.53316600  0.43393700  1
  F  F34  1  0.51906300  0.53316600  0.93393700  1
  F  F35  1  0.01906300  0.46683400  0.56606300  1
  F  F36  1  0.98387600  0.55876900  0.14429600  1
  F  F37  1  0.48387600  0.44123100  0.35570400  1
  F  F38  1  0.01612400  0.44123100  0.85570400  1
  F  F39  1  0.51612400  0.55876900  0.64429600  1
  F  F40  1  0.30451900  0.44417100  0.23300600  1
  F  F41  1  0.80451900  0.55582900  0.26699400  1
  F  F42  1  0.69548100  0.55582900  0.76699400  1
  F  F43  1  0.19548100  0.44417100  0.73300600  1
  F  F44  1  0.92007600  0.05575000  0.24758100  1
  F  F45  1  0.42007600  0.94425000  0.25241900  1
  F  F46  1  0.07992400  0.94425000  0.75241900  1
  F  F47  1  0.57992400  0.05575000  0.74758100  1
  F  F48  1  0.67307800  0.99519000  0.35429700  1
  F  F49  1  0.17307800  0.00481000  0.14570300  1
  F  F50  1  0.32692200  0.00481000  0.64570300  1
  F  F51  1  0.82692200  0.99519000  0.85429700  1
  F  F52  1  0.73123100  0.03968200  0.95772300  1
  F  F53  1  0.23123100  0.96031800  0.54227700  1
  F  F54  1  0.26876900  0.96031800  0.04227700  1
  F  F55  1  0.76876900  0.03968200  0.45772300  1
