# generated using pymatgen
data_CaGa3Pt
_symmetry_space_group_name_H-M   'P 1'
_cell_length_a   6.31715380
_cell_length_b   6.31715380
_cell_length_c   6.31715380
_cell_angle_alpha   140.83978234
_cell_angle_beta   140.83978234
_cell_angle_gamma   56.58040105
_symmetry_Int_Tables_number   1
_chemical_formula_structural   CaGa3Pt
_chemical_formula_sum   'Ca1 Ga3 Pt1'
_cell_volume   99.72289415
_cell_formula_units_Z   1
loop_
 _symmetry_equiv_pos_site_id
 _symmetry_equiv_pos_as_xyz
  1  'x, y, z'
loop_
 _atom_site_type_symbol
 _atom_site_label
 _atom_site_symmetry_multiplicity
 _atom_site_fract_x
 _atom_site_fract_y
 _atom_site_fract_z
 _atom_site_occupancy
  Ca  Ca0  1  0.00035000  0.00035000  0.00000000  1
  Ga  Ga1  1  0.75485600  0.25485600  0.50000000  1
  Ga  Ga2  1  0.25485600  0.75485600  0.50000000  1
  Ga  Ga3  1  0.60693300  0.60693300  0.00000000  1
  Pt  Pt4  1  0.38300500  0.38300500  0.00000000  1
