# generated using pymatgen
data_Eu2TiO5
_symmetry_space_group_name_H-M   'P 1'
_cell_length_a   3.80069200
_cell_length_b   10.70309500
_cell_length_c   11.49474600
_cell_angle_alpha   90.00000000
_cell_angle_beta   90.00000000
_cell_angle_gamma   90.00000000
_symmetry_Int_Tables_number   1
_chemical_formula_structural   Eu2TiO5
_chemical_formula_sum   'Eu8 Ti4 O20'
_cell_volume   467.59669838
_cell_formula_units_Z   4
loop_
 _symmetry_equiv_pos_site_id
 _symmetry_equiv_pos_as_xyz
  1  'x, y, z'
loop_
 _atom_site_type_symbol
 _atom_site_label
 _atom_site_symmetry_multiplicity
 _atom_site_fract_x
 _atom_site_fract_y
 _atom_site_fract_z
 _atom_site_occupancy
  Eu  Eu0  1  0.25000000  0.63608900  0.56053900  1
  Eu  Eu1  1  0.25000000  0.13608900  0.93946100  1
  Eu  Eu2  1  0.75000000  0.36391100  0.43946100  1
  Eu  Eu3  1  0.75000000  0.86391100  0.06053900  1
  Eu  Eu4  1  0.75000000  0.89202400  0.71984400  1
  Eu  Eu5  1  0.75000000  0.39202400  0.78015600  1
  Eu  Eu6  1  0.25000000  0.10797600  0.28015600  1
  Eu  Eu7  1  0.25000000  0.60797600  0.21984400  1
  Ti  Ti8  1  0.25000000  0.68034000  0.87693400  1
  Ti  Ti9  1  0.25000000  0.18034000  0.62306600  1
  Ti  Ti10  1  0.75000000  0.31966000  0.12306600  1
  Ti  Ti11  1  0.75000000  0.81966000  0.37693400  1
  O  O12  1  0.75000000  0.50677600  0.60292500  1
  O  O13  1  0.75000000  0.00677600  0.89707500  1
  O  O14  1  0.25000000  0.49322400  0.39707500  1
  O  O15  1  0.25000000  0.99322400  0.10292500  1
  O  O16  1  0.75000000  0.77336300  0.54014500  1
  O  O17  1  0.75000000  0.27336300  0.95985500  1
  O  O18  1  0.25000000  0.22663700  0.45985500  1
  O  O19  1  0.25000000  0.72663700  0.04014500  1
  O  O20  1  0.75000000  0.73234900  0.88237600  1
  O  O21  1  0.75000000  0.23234900  0.61762400  1
  O  O22  1  0.25000000  0.26765100  0.11762400  1
  O  O23  1  0.25000000  0.76765100  0.38237600  1
  O  O24  1  0.25000000  0.76345700  0.73093900  1
  O  O25  1  0.25000000  0.26345700  0.76906100  1
  O  O26  1  0.75000000  0.23654300  0.26906100  1
  O  O27  1  0.75000000  0.73654300  0.23093900  1
  O  O28  1  0.25000000  0.51880600  0.84137500  1
  O  O29  1  0.25000000  0.01880600  0.65862500  1
  O  O30  1  0.75000000  0.48119400  0.15862500  1
  O  O31  1  0.75000000  0.98119400  0.34137500  1
