# generated using pymatgen
data_TmSi3Rh5
_symmetry_space_group_name_H-M   'P 1'
_cell_length_a   15.61521263
_cell_length_b   15.61521263
_cell_length_c   3.86986000
_cell_angle_alpha   90.00000000
_cell_angle_beta   90.00000000
_cell_angle_gamma   120.00000265
_symmetry_Int_Tables_number   1
_chemical_formula_structural   TmSi3Rh5
_chemical_formula_sum   'Tm6 Si18 Rh30'
_cell_volume   817.18743123
_cell_formula_units_Z   6
loop_
 _symmetry_equiv_pos_site_id
 _symmetry_equiv_pos_as_xyz
  1  'x, y, z'
loop_
 _atom_site_type_symbol
 _atom_site_label
 _atom_site_symmetry_multiplicity
 _atom_site_fract_x
 _atom_site_fract_y
 _atom_site_fract_z
 _atom_site_occupancy
  Tm  Tm0  1  0.60572300  0.89991200  0.25000000  1
  Tm  Tm1  1  0.70581100  0.60572300  0.75000000  1
  Tm  Tm2  1  0.89991200  0.29418900  0.75000000  1
  Tm  Tm3  1  0.10008800  0.70581100  0.25000000  1
  Tm  Tm4  1  0.29418900  0.39427700  0.25000000  1
  Tm  Tm5  1  0.39427700  0.10008800  0.75000000  1
  Si  Si6  1  0.44206500  0.76077300  0.75000000  1
  Si  Si7  1  0.68129200  0.44206500  0.25000000  1
  Si  Si8  1  0.76077300  0.31870800  0.25000000  1
  Si  Si9  1  0.23922700  0.68129200  0.75000000  1
  Si  Si10  1  0.31870800  0.55793500  0.75000000  1
  Si  Si11  1  0.55793500  0.23922700  0.25000000  1
  Si  Si12  1  0.88095700  0.13148100  0.25000000  1
  Si  Si13  1  0.11904300  0.86851900  0.75000000  1
  Si  Si14  1  0.13148100  0.25052400  0.75000000  1
  Si  Si15  1  0.25052400  0.11904300  0.25000000  1
  Si  Si16  1  0.37060300  0.93868000  0.25000000  1
  Si  Si17  1  0.43192300  0.37060300  0.75000000  1
  Si  Si18  1  0.93868000  0.56807700  0.75000000  1
  Si  Si19  1  0.06132000  0.43192300  0.25000000  1
  Si  Si20  1  0.56807700  0.62939700  0.25000000  1
  Si  Si21  1  0.62939700  0.06132000  0.75000000  1
  Si  Si22  1  0.74947600  0.88095700  0.75000000  1
  Si  Si23  1  0.86851900  0.74947600  0.25000000  1
  Rh  Rh24  1  0.46381700  0.92485800  0.75000000  1
  Rh  Rh25  1  0.15408500  0.41410400  0.75000000  1
  Rh  Rh26  1  0.26001800  0.84591500  0.75000000  1
  Rh  Rh27  1  0.73998200  0.15408500  0.25000000  1
  Rh  Rh28  1  0.84591500  0.58589600  0.25000000  1
  Rh  Rh29  1  0.41410400  0.26001800  0.25000000  1
  Rh  Rh30  1  0.65247300  0.22338800  0.75000000  1
  Rh  Rh31  1  0.42908500  0.65247300  0.25000000  1
  Rh  Rh32  1  0.22338800  0.57091500  0.25000000  1
  Rh  Rh33  1  0.77661200  0.42908500  0.75000000  1
  Rh  Rh34  1  0.57091500  0.34752700  0.75000000  1
  Rh  Rh35  1  0.34752700  0.77661200  0.25000000  1
  Rh  Rh36  1  0.14071000  0.02828900  0.75000000  1
  Rh  Rh37  1  0.11242100  0.14071000  0.25000000  1
  Rh  Rh38  1  0.02828900  0.88757900  0.25000000  1
  Rh  Rh39  1  0.97171100  0.11242100  0.75000000  1
  Rh  Rh40  1  0.88757900  0.85929000  0.75000000  1
  Rh  Rh41  1  0.85929000  0.97171100  0.25000000  1
  Rh  Rh42  1  0.92485800  0.46104100  0.25000000  1
  Rh  Rh43  1  0.07514200  0.53895900  0.75000000  1
  Rh  Rh44  1  0.46104100  0.53618300  0.75000000  1
  Rh  Rh45  1  0.53618300  0.07514200  0.25000000  1
  Rh  Rh46  1  0.72896000  0.77285200  0.25000000  1
  Rh  Rh47  1  0.95610700  0.72896000  0.75000000  1
  Rh  Rh48  1  0.77285200  0.04389300  0.75000000  1
  Rh  Rh49  1  0.22714800  0.95610700  0.25000000  1
  Rh  Rh50  1  0.04389300  0.27104000  0.25000000  1
  Rh  Rh51  1  0.27104000  0.22714800  0.75000000  1
  Rh  Rh52  1  0.58589600  0.73998200  0.75000000  1
  Rh  Rh53  1  0.53895900  0.46381700  0.25000000  1
