# generated using pymatgen
data_Rb2EuF5
_symmetry_space_group_name_H-M   'P 1'
_cell_length_a   7.01999300
_cell_length_b   7.75779000
_cell_length_c   11.71826300
_cell_angle_alpha   90.00000000
_cell_angle_beta   90.00000000
_cell_angle_gamma   90.00000000
_symmetry_Int_Tables_number   1
_chemical_formula_structural   Rb2EuF5
_chemical_formula_sum   'Rb8 Eu4 F20'
_cell_volume   638.17228475
_cell_formula_units_Z   4
loop_
 _symmetry_equiv_pos_site_id
 _symmetry_equiv_pos_as_xyz
  1  'x, y, z'
loop_
 _atom_site_type_symbol
 _atom_site_label
 _atom_site_symmetry_multiplicity
 _atom_site_fract_x
 _atom_site_fract_y
 _atom_site_fract_z
 _atom_site_occupancy
  Rb  Rb0  1  0.53659800  0.02423400  0.16909800  1
  Rb  Rb1  1  0.46340200  0.52423400  0.83090200  1
  Rb  Rb2  1  0.96340200  0.02423400  0.66909800  1
  Rb  Rb3  1  0.03659800  0.52423400  0.33090200  1
  Rb  Rb4  1  0.02635300  0.01867200  0.32967500  1
  Rb  Rb5  1  0.97364700  0.51867200  0.67032500  1
  Rb  Rb6  1  0.47364700  0.01867200  0.82967500  1
  Rb  Rb7  1  0.52635300  0.51867200  0.17032500  1
  Eu  Eu8  1  0.44260500  0.27187200  0.49914400  1
  Eu  Eu9  1  0.55739500  0.77187200  0.50085600  1
  Eu  Eu10  1  0.05739500  0.27187200  0.99914400  1
  Eu  Eu11  1  0.94260500  0.77187200  0.00085600  1
  F  F12  1  0.14346600  0.98712500  0.07447500  1
  F  F13  1  0.85653400  0.48712500  0.92552500  1
  F  F14  1  0.35653400  0.98712500  0.57447500  1
  F  F15  1  0.64346600  0.48712500  0.42552500  1
  F  F16  1  0.38740700  0.26775000  0.01156100  1
  F  F17  1  0.61259300  0.76775000  0.98843900  1
  F  F18  1  0.11259300  0.26775000  0.51156100  1
  F  F19  1  0.88740700  0.76775000  0.48843900  1
  F  F20  1  0.14267900  0.55064300  0.07402100  1
  F  F21  1  0.85732100  0.05064300  0.92597900  1
  F  F22  1  0.35732100  0.55064300  0.57402100  1
  F  F23  1  0.64267900  0.05064300  0.42597900  1
  F  F24  1  0.33931100  0.26886000  0.31442200  1
  F  F25  1  0.66068900  0.76886000  0.68557800  1
  F  F26  1  0.16068900  0.26886000  0.81442200  1
  F  F27  1  0.83931100  0.76886000  0.18557800  1
  F  F28  1  0.37908300  0.75784300  0.34055900  1
  F  F29  1  0.62091700  0.25784300  0.65944100  1
  F  F30  1  0.12091700  0.75784300  0.84055900  1
  F  F31  1  0.87908300  0.25784300  0.15944100  1
