# generated using pymatgen
data_Nd3Zn22
_symmetry_space_group_name_H-M   'P 1'
_cell_length_a   12.33111622
_cell_length_b   12.33111622
_cell_length_c   12.33111622
_cell_angle_alpha   137.63633507
_cell_angle_beta   137.63633507
_cell_angle_gamma   61.46042718
_symmetry_Int_Tables_number   1
_chemical_formula_structural   Nd3Zn22
_chemical_formula_sum   'Nd6 Zn44'
_cell_volume   841.70597580
_cell_formula_units_Z   2
loop_
 _symmetry_equiv_pos_site_id
 _symmetry_equiv_pos_as_xyz
  1  'x, y, z'
loop_
 _atom_site_type_symbol
 _atom_site_label
 _atom_site_symmetry_multiplicity
 _atom_site_fract_x
 _atom_site_fract_y
 _atom_site_fract_z
 _atom_site_occupancy
  Nd  Nd0  1  0.11994200  0.11994200  0.00000000  1
  Nd  Nd1  1  0.86994200  0.36994200  0.50000000  1
  Nd  Nd2  1  0.63005800  0.13005800  0.50000000  1
  Nd  Nd3  1  0.88005800  0.88005800  0.00000000  1
  Nd  Nd4  1  0.25000000  0.75000000  0.50000000  1
  Nd  Nd5  1  0.50000000  0.50000000  0.00000000  1
  Zn  Zn6  1  0.57128300  0.04572500  0.98922100  1
  Zn  Zn7  1  0.05650500  0.04572500  0.47444300  1
  Zn  Zn8  1  0.79572500  0.82128300  0.48922100  1
  Zn  Zn9  1  0.33206200  0.82128300  0.02555700  1
  Zn  Zn10  1  0.57128300  0.58206200  0.52555700  1
  Zn  Zn11  1  0.05650500  0.58206200  0.01077900  1
  Zn  Zn12  1  0.79572500  0.30650500  0.97444300  1
  Zn  Zn13  1  0.33206200  0.30650500  0.51077900  1
  Zn  Zn14  1  0.17871700  0.20427500  0.51077900  1
  Zn  Zn15  1  0.69349500  0.20427500  0.02555700  1
  Zn  Zn16  1  0.95427500  0.42871700  0.01077900  1
  Zn  Zn17  1  0.41793800  0.42871700  0.47444300  1
  Zn  Zn18  1  0.17871700  0.66793800  0.97444300  1
  Zn  Zn19  1  0.69349500  0.66793800  0.48922100  1
  Zn  Zn20  1  0.95427500  0.94349500  0.52555700  1
  Zn  Zn21  1  0.41793800  0.94349500  0.98922100  1
  Zn  Zn22  1  0.99829700  0.77433300  0.77603700  1
  Zn  Zn23  1  0.52433300  0.24829700  0.27603700  1
  Zn  Zn24  1  0.97226000  0.24829700  0.72396300  1
  Zn  Zn25  1  0.99829700  0.22226000  0.22396300  1
  Zn  Zn26  1  0.75170300  0.47566700  0.72396300  1
  Zn  Zn27  1  0.22566700  0.00170300  0.22396300  1
  Zn  Zn28  1  0.77774000  0.00170300  0.77603700  1
  Zn  Zn29  1  0.75170300  0.02774000  0.27603700  1
  Zn  Zn30  1  0.25714900  0.11024800  0.85309900  1
  Zn  Zn31  1  0.86024800  0.50714900  0.35309900  1
  Zn  Zn32  1  0.15405000  0.50714900  0.64690100  1
  Zn  Zn33  1  0.25714900  0.40405000  0.14690100  1
  Zn  Zn34  1  0.49285100  0.13975200  0.64690100  1
  Zn  Zn35  1  0.88975200  0.74285100  0.14690100  1
  Zn  Zn36  1  0.59595000  0.74285100  0.85309900  1
  Zn  Zn37  1  0.49285100  0.84595000  0.35309900  1
  Zn  Zn38  1  0.11250000  0.46207700  0.34957700  1
  Zn  Zn39  1  0.21207700  0.36250000  0.84957700  1
  Zn  Zn40  1  0.51292300  0.36250000  0.15042300  1
  Zn  Zn41  1  0.11250000  0.76292300  0.65042300  1
  Zn  Zn42  1  0.63750000  0.78792300  0.15042300  1
  Zn  Zn43  1  0.53792300  0.88750000  0.65042300  1
  Zn  Zn44  1  0.23707700  0.88750000  0.34957700  1
  Zn  Zn45  1  0.63750000  0.48707700  0.84957700  1
  Zn  Zn46  1  0.37500000  0.12500000  0.75000000  1
  Zn  Zn47  1  0.87500000  0.62500000  0.25000000  1
  Zn  Zn48  1  0.37500000  0.62500000  0.75000000  1
  Zn  Zn49  1  0.37500000  0.62500000  0.25000000  1
