# generated using pymatgen
data_Tm4MgCo
_symmetry_space_group_name_H-M   'P 1'
_cell_length_a   9.43855041
_cell_length_b   9.43855041
_cell_length_c   9.43855041
_cell_angle_alpha   60.00000000
_cell_angle_beta   60.00000000
_cell_angle_gamma   60.00000000
_symmetry_Int_Tables_number   1
_chemical_formula_structural   Tm4MgCo
_chemical_formula_sum   'Tm16 Mg4 Co4'
_cell_volume   594.56713719
_cell_formula_units_Z   4
loop_
 _symmetry_equiv_pos_site_id
 _symmetry_equiv_pos_as_xyz
  1  'x, y, z'
loop_
 _atom_site_type_symbol
 _atom_site_label
 _atom_site_symmetry_multiplicity
 _atom_site_fract_x
 _atom_site_fract_y
 _atom_site_fract_z
 _atom_site_occupancy
  Tm  Tm0  1  0.34427300  0.34427300  0.34427300  1
  Tm  Tm1  1  0.34427300  0.34427300  0.96718200  1
  Tm  Tm2  1  0.34427300  0.96718200  0.34427300  1
  Tm  Tm3  1  0.96718200  0.34427300  0.34427300  1
  Tm  Tm4  1  0.81404900  0.18595100  0.18595100  1
  Tm  Tm5  1  0.18595100  0.81404900  0.81404900  1
  Tm  Tm6  1  0.18595100  0.81404900  0.18595100  1
  Tm  Tm7  1  0.81404900  0.18595100  0.81404900  1
  Tm  Tm8  1  0.18595100  0.18595100  0.81404900  1
  Tm  Tm9  1  0.81404900  0.81404900  0.18595100  1
  Tm  Tm10  1  0.93757700  0.56242300  0.56242300  1
  Tm  Tm11  1  0.56242300  0.93757700  0.93757700  1
  Tm  Tm12  1  0.56242300  0.93757700  0.56242300  1
  Tm  Tm13  1  0.93757700  0.56242300  0.93757700  1
  Tm  Tm14  1  0.56242300  0.56242300  0.93757700  1
  Tm  Tm15  1  0.93757700  0.93757700  0.56242300  1
  Mg  Mg16  1  0.57934900  0.57934900  0.57934900  1
  Mg  Mg17  1  0.57934900  0.57934900  0.26195200  1
  Mg  Mg18  1  0.57934900  0.26195200  0.57934900  1
  Mg  Mg19  1  0.26195200  0.57934900  0.57934900  1
  Co  Co20  1  0.14090500  0.14090500  0.14090500  1
  Co  Co21  1  0.14090500  0.14090500  0.57728500  1
  Co  Co22  1  0.14090500  0.57728500  0.14090500  1
  Co  Co23  1  0.57728500  0.14090500  0.14090500  1
