# generated using pymatgen
data_V3Si2Mo3
_symmetry_space_group_name_H-M   'P 1'
_cell_length_a   4.80952539
_cell_length_b   4.80952539
_cell_length_c   4.80952539
_cell_angle_alpha   89.89049130
_cell_angle_beta   90.10950870
_cell_angle_gamma   90.10950870
_symmetry_Int_Tables_number   1
_chemical_formula_structural   V3Si2Mo3
_chemical_formula_sum   'V3 Si2 Mo3'
_cell_volume   111.25109342
_cell_formula_units_Z   1
loop_
 _symmetry_equiv_pos_site_id
 _symmetry_equiv_pos_as_xyz
  1  'x, y, z'
loop_
 _atom_site_type_symbol
 _atom_site_label
 _atom_site_symmetry_multiplicity
 _atom_site_fract_x
 _atom_site_fract_y
 _atom_site_fract_z
 _atom_site_occupancy
  V  V0  1  0.49929200  0.25000000  0.99929200  1
  V  V1  1  0.75000000  0.99929200  0.50070800  1
  V  V2  1  0.00070800  0.50070800  0.25000000  1
  Si  Si3  1  0.50550300  0.49449700  0.49449700  1
  Si  Si4  1  0.99449700  0.00550300  0.00550300  1
  Mo  Mo5  1  0.50014600  0.75000000  0.00014600  1
  Mo  Mo6  1  0.25000000  0.00014600  0.49985400  1
  Mo  Mo7  1  0.99985400  0.49985400  0.75000000  1
