# generated using pymatgen
data_Eu6Sb6S17
_symmetry_space_group_name_H-M   'P 1'
_cell_length_a   8.30603600
_cell_length_b   15.40663600
_cell_length_c   22.91590700
_cell_angle_alpha   90.00000000
_cell_angle_beta   90.00000000
_cell_angle_gamma   90.00000000
_symmetry_Int_Tables_number   1
_chemical_formula_structural   Eu6Sb6S17
_chemical_formula_sum   'Eu24 Sb24 S68'
_cell_volume   2932.50446568
_cell_formula_units_Z   4
loop_
 _symmetry_equiv_pos_site_id
 _symmetry_equiv_pos_as_xyz
  1  'x, y, z'
loop_
 _atom_site_type_symbol
 _atom_site_label
 _atom_site_symmetry_multiplicity
 _atom_site_fract_x
 _atom_site_fract_y
 _atom_site_fract_z
 _atom_site_occupancy
  Eu  Eu0  1  0.24889700  0.05036500  0.28715900  1
  Eu  Eu1  1  0.25110300  0.94963500  0.78715900  1
  Eu  Eu2  1  0.74889700  0.44963500  0.71284100  1
  Eu  Eu3  1  0.75110300  0.55036500  0.21284100  1
  Eu  Eu4  1  0.74644600  0.05552000  0.28871000  1
  Eu  Eu5  1  0.75355400  0.94448000  0.78871000  1
  Eu  Eu6  1  0.24644600  0.44448000  0.71129000  1
  Eu  Eu7  1  0.25355400  0.55552000  0.21129000  1
  Eu  Eu8  1  0.74266700  0.94180100  0.45617900  1
  Eu  Eu9  1  0.75733300  0.05819900  0.95617900  1
  Eu  Eu10  1  0.24266700  0.55819900  0.54382100  1
  Eu  Eu11  1  0.25733300  0.44180100  0.04382100  1
  Eu  Eu12  1  0.24940900  0.93900200  0.45478100  1
  Eu  Eu13  1  0.25059100  0.06099800  0.95478100  1
  Eu  Eu14  1  0.74940900  0.56099800  0.54521900  1
  Eu  Eu15  1  0.75059100  0.43900200  0.04521900  1
  Eu  Eu16  1  0.24397400  0.83392600  0.62274000  1
  Eu  Eu17  1  0.25602600  0.16607400  0.12274000  1
  Eu  Eu18  1  0.74397400  0.66607400  0.37726000  1
  Eu  Eu19  1  0.75602600  0.33392600  0.87726000  1
  Eu  Eu20  1  0.75036500  0.83337500  0.62385900  1
  Eu  Eu21  1  0.74963500  0.16662500  0.12385900  1
  Eu  Eu22  1  0.25036500  0.66662500  0.37614100  1
  Eu  Eu23  1  0.24963500  0.33337500  0.87614100  1
  Sb  Sb24  1  0.02249000  0.29391800  0.26795500  1
  Sb  Sb25  1  0.47751000  0.70608200  0.76795500  1
  Sb  Sb26  1  0.52249000  0.20608200  0.73204500  1
  Sb  Sb27  1  0.97751000  0.79391800  0.23204500  1
  Sb  Sb28  1  0.98822100  0.18262200  0.41512100  1
  Sb  Sb29  1  0.51177900  0.81737800  0.91512100  1
  Sb  Sb30  1  0.48822100  0.31737800  0.58487900  1
  Sb  Sb31  1  0.01177900  0.68262200  0.08487900  1
  Sb  Sb32  1  0.50600600  0.17561300  0.44024100  1
  Sb  Sb33  1  0.99399400  0.82438700  0.94024100  1
  Sb  Sb34  1  0.00600600  0.32438700  0.55975900  1
  Sb  Sb35  1  0.49399400  0.67561300  0.05975900  1
  Sb  Sb36  1  0.46672000  0.07815700  0.59253400  1
  Sb  Sb37  1  0.03328000  0.92184300  0.09253400  1
  Sb  Sb38  1  0.96672000  0.42184300  0.40746600  1
  Sb  Sb39  1  0.53328000  0.57815700  0.90746600  1
  Sb  Sb40  1  0.98063100  0.07295900  0.60815300  1
  Sb  Sb41  1  0.51936900  0.92704100  0.10815300  1
  Sb  Sb42  1  0.48063100  0.42704100  0.39184700  1
  Sb  Sb43  1  0.01936900  0.57295900  0.89184700  1
  Sb  Sb44  1  0.00002800  0.69093900  0.75057000  1
  Sb  Sb45  1  0.49997200  0.30906100  0.25057000  1
  Sb  Sb46  1  0.50002800  0.80906100  0.24943000  1
  Sb  Sb47  1  0.99997200  0.19093900  0.74943000  1
  S  S48  1  0.49857600  0.70376800  0.57223000  1
  S  S49  1  0.00142400  0.29623200  0.07223000  1
  S  S50  1  0.99857600  0.79623200  0.42777000  1
  S  S51  1  0.50142400  0.20376800  0.92777000  1
  S  S52  1  0.64154400  0.74864500  0.50156100  1
  S  S53  1  0.85845600  0.25135500  0.00156100  1
  S  S54  1  0.14154400  0.75135500  0.49843900  1
  S  S55  1  0.35845600  0.24864500  0.99843900  1
  S  S56  1  0.50341500  0.79409100  0.42990800  1
  S  S57  1  0.99658500  0.20590900  0.92990800  1
  S  S58  1  0.00341500  0.70590900  0.57009200  1
  S  S59  1  0.49658500  0.29409100  0.07009200  1
  S  S60  1  0.99967800  0.15014400  0.21822800  1
  S  S61  1  0.50032200  0.84985600  0.71822800  1
  S  S62  1  0.49967800  0.34985600  0.78177200  1
  S  S63  1  0.00032200  0.65014400  0.28177200  1
  S  S64  1  0.21642200  0.23118000  0.34289800  1
  S  S65  1  0.28357800  0.76882000  0.84289800  1
  S  S66  1  0.71642200  0.26882000  0.65710200  1
  S  S67  1  0.78357800  0.73118000  0.15710200  1
  S  S68  1  0.76935800  0.22951400  0.34960900  1
  S  S69  1  0.73064200  0.77048600  0.84960900  1
  S  S70  1  0.26935800  0.27048600  0.65039100  1
  S  S71  1  0.23064200  0.72951400  0.15039100  1
  S  S72  1  0.99721600  0.02815200  0.38025400  1
  S  S73  1  0.50278400  0.97184800  0.88025400  1
  S  S74  1  0.49721600  0.47184800  0.61974600  1
  S  S75  1  0.00278400  0.52815200  0.11974600  1
  S  S76  1  0.49602400  0.03690500  0.38232000  1
  S  S77  1  0.00397600  0.96309500  0.88232000  1
  S  S78  1  0.99602400  0.46309500  0.61768000  1
  S  S79  1  0.50397600  0.53690500  0.11768000  1
  S  S80  1  0.72501100  0.12564800  0.50495400  1
  S  S81  1  0.77498900  0.87435200  0.00495400  1
  S  S82  1  0.22501100  0.37435200  0.49504600  1
  S  S83  1  0.27498900  0.62564800  0.99504600  1
  S  S84  1  0.27529500  0.12294300  0.50925700  1
  S  S85  1  0.22470500  0.87705700  0.00925700  1
  S  S86  1  0.77529500  0.37705700  0.49074300  1
  S  S87  1  0.72470500  0.62294300  0.99074300  1
  S  S88  1  0.49276300  0.93026400  0.55313700  1
  S  S89  1  0.00723700  0.06973600  0.05313700  1
  S  S90  1  0.99276300  0.56973600  0.44686300  1
  S  S91  1  0.50723700  0.43026400  0.94686300  1
  S  S92  1  0.99083400  0.93655500  0.55032000  1
  S  S93  1  0.50916600  0.06344500  0.05032000  1
  S  S94  1  0.49083400  0.56344500  0.44968000  1
  S  S95  1  0.00916600  0.43655500  0.94968000  1
  S  S96  1  0.23314200  0.02525600  0.66427100  1
  S  S97  1  0.26685800  0.97474400  0.16427100  1
  S  S98  1  0.73314200  0.47474400  0.33572900  1
  S  S99  1  0.76685800  0.52525600  0.83572900  1
  S  S100  1  0.75660900  0.02148400  0.67030100  1
  S  S101  1  0.74339100  0.97851600  0.17030100  1
  S  S102  1  0.25660900  0.47851600  0.32969900  1
  S  S103  1  0.24339100  0.52148400  0.82969900  1
  S  S104  1  0.25162200  0.65338400  0.69179900  1
  S  S105  1  0.24837800  0.34661600  0.19179900  1
  S  S106  1  0.75162200  0.84661600  0.30820100  1
  S  S107  1  0.74837800  0.15338400  0.80820100  1
  S  S108  1  0.78714900  0.64552300  0.68195500  1
  S  S109  1  0.71285100  0.35447700  0.18195500  1
  S  S110  1  0.28714900  0.85447700  0.31804500  1
  S  S111  1  0.21285100  0.14552300  0.81804500  1
  S  S112  1  0.00168700  0.84654000  0.71999900  1
  S  S113  1  0.49831300  0.15346000  0.21999900  1
  S  S114  1  0.50168700  0.65346000  0.28000100  1
  S  S115  1  0.99831300  0.34654000  0.78000100  1
