# generated using pymatgen
data_Na2OsO4
_symmetry_space_group_name_H-M   'P 1'
_cell_length_a   9.66655595
_cell_length_b   9.66655595
_cell_length_c   3.20240500
_cell_angle_alpha   90.00000000
_cell_angle_beta   90.00000000
_cell_angle_gamma   119.99999963
_symmetry_Int_Tables_number   1
_chemical_formula_structural   Na2OsO4
_chemical_formula_sum   'Na6 Os3 O12'
_cell_volume   259.14953031
_cell_formula_units_Z   3
loop_
 _symmetry_equiv_pos_site_id
 _symmetry_equiv_pos_as_xyz
  1  'x, y, z'
loop_
 _atom_site_type_symbol
 _atom_site_label
 _atom_site_symmetry_multiplicity
 _atom_site_fract_x
 _atom_site_fract_y
 _atom_site_fract_z
 _atom_site_occupancy
  Na  Na0  1  0.00000000  0.00000000  0.00000000  1
  Na  Na1  1  0.66666700  0.33333300  0.50000000  1
  Na  Na2  1  0.33333300  0.66666700  0.50000000  1
  Na  Na3  1  0.30563200  0.30563200  0.50000000  1
  Na  Na4  1  0.69436800  0.00000000  0.50000000  1
  Na  Na5  1  0.00000000  0.69436800  0.50000000  1
  Os  Os6  1  0.67052500  0.67052500  0.00000000  1
  Os  Os7  1  0.32947500  0.00000000  0.00000000  1
  Os  Os8  1  0.00000000  0.32947500  0.00000000  1
  O  O9  1  0.80589700  0.80589700  0.50000000  1
  O  O10  1  0.19410300  0.00000000  0.50000000  1
  O  O11  1  0.00000000  0.19410300  0.50000000  1
  O  O12  1  0.54317700  0.54317700  0.50000000  1
  O  O13  1  0.45682300  0.00000000  0.50000000  1
  O  O14  1  0.00000000  0.45682300  0.50000000  1
  O  O15  1  0.56731900  0.78339800  0.00000000  1
  O  O16  1  0.21660200  0.78392100  0.00000000  1
  O  O17  1  0.21607900  0.43268100  0.00000000  1
  O  O18  1  0.78339800  0.56731900  0.00000000  1
  O  O19  1  0.78392100  0.21660200  0.00000000  1
  O  O20  1  0.43268100  0.21607900  0.00000000  1
