# generated using pymatgen
data_LiZnAsO4
_symmetry_space_group_name_H-M   'P 1'
_cell_length_a   8.86543341
_cell_length_b   8.86543341
_cell_length_c   8.86543301
_cell_angle_alpha   107.85188036
_cell_angle_beta   107.85188036
_cell_angle_gamma   107.85188779
_symmetry_Int_Tables_number   1
_chemical_formula_structural   LiZnAsO4
_chemical_formula_sum   'Li6 Zn6 As6 O24'
_cell_volume   566.26469051
_cell_formula_units_Z   6
loop_
 _symmetry_equiv_pos_site_id
 _symmetry_equiv_pos_as_xyz
  1  'x, y, z'
loop_
 _atom_site_type_symbol
 _atom_site_label
 _atom_site_symmetry_multiplicity
 _atom_site_fract_x
 _atom_site_fract_y
 _atom_site_fract_z
 _atom_site_occupancy
  Li  Li0  1  0.06651200  0.66550100  0.84140600  1
  Li  Li1  1  0.38052200  0.14650800  0.55136300  1
  Li  Li2  1  0.14650800  0.55136300  0.38052200  1
  Li  Li3  1  0.55136300  0.38052200  0.14650800  1
  Li  Li4  1  0.66550100  0.84140600  0.06651200  1
  Li  Li5  1  0.84140600  0.06651200  0.66550100  1
  Zn  Zn6  1  0.73973500  0.33485300  0.50516300  1
  Zn  Zn7  1  0.33485300  0.50516300  0.73973500  1
  Zn  Zn8  1  0.50516300  0.73973500  0.33485300  1
  Zn  Zn9  1  0.04320700  0.81792100  0.21948400  1
  Zn  Zn10  1  0.81792100  0.21948400  0.04320700  1
  Zn  Zn11  1  0.21948400  0.04320700  0.81792100  1
  As  As12  1  0.88818900  0.70867000  0.47998300  1
  As  As13  1  0.70867000  0.47998300  0.88818900  1
  As  As14  1  0.47998300  0.88818900  0.70867000  1
  As  As15  1  0.40305800  0.99441800  0.17789500  1
  As  As16  1  0.99441800  0.17789500  0.40305800  1
  As  As17  1  0.17789500  0.40305800  0.99441800  1
  O  O18  1  0.90684000  0.58184800  0.59186600  1
  O  O19  1  0.58184800  0.59186600  0.90684000  1
  O  O20  1  0.59186600  0.90684000  0.58184800  1
  O  O21  1  0.91380000  0.96433400  0.24844400  1
  O  O22  1  0.96433400  0.24844400  0.91380000  1
  O  O23  1  0.24844400  0.91380000  0.96433400  1
  O  O24  1  0.30745700  0.29399900  0.97505000  1
  O  O25  1  0.97505000  0.30745700  0.29399900  1
  O  O26  1  0.01246200  0.69193800  0.36543900  1
  O  O27  1  0.29399900  0.97505000  0.30745700  1
  O  O28  1  0.36543900  0.01246200  0.69193800  1
  O  O29  1  0.69193800  0.36543900  0.01246200  1
  O  O30  1  0.33567100  0.66969800  0.62813700  1
  O  O31  1  0.62813700  0.33567100  0.66969800  1
  O  O32  1  0.66969800  0.62813700  0.33567100  1
  O  O33  1  0.63489400  0.97076200  0.92356900  1
  O  O34  1  0.92356900  0.63489400  0.97076200  1
  O  O35  1  0.97076200  0.92356900  0.63489400  1
  O  O36  1  0.51946200  0.87133700  0.19013900  1
  O  O37  1  0.19013900  0.51946200  0.87133700  1
  O  O38  1  0.87133700  0.19013900  0.51946200  1
  O  O39  1  0.25918100  0.54651200  0.21407300  1
  O  O40  1  0.21407300  0.25918100  0.54651200  1
  O  O41  1  0.54651200  0.21407300  0.25918100  1
