# generated using pymatgen
data_Tb3RuO7
_symmetry_space_group_name_H-M   'P 1'
_cell_length_a   6.42908518
_cell_length_b   6.42908518
_cell_length_c   7.42967000
_cell_angle_alpha   90.00000000
_cell_angle_beta   90.00000000
_cell_angle_gamma   110.47504557
_symmetry_Int_Tables_number   1
_chemical_formula_structural   Tb3RuO7
_chemical_formula_sum   'Tb6 Ru2 O14'
_cell_volume   287.69093879
_cell_formula_units_Z   2
loop_
 _symmetry_equiv_pos_site_id
 _symmetry_equiv_pos_as_xyz
  1  'x, y, z'
loop_
 _atom_site_type_symbol
 _atom_site_label
 _atom_site_symmetry_multiplicity
 _atom_site_fract_x
 _atom_site_fract_y
 _atom_site_fract_z
 _atom_site_occupancy
  Tb  Tb0  1  0.00000000  0.00000000  0.50000000  1
  Tb  Tb1  1  0.00000000  0.00000000  0.00000000  1
  Tb  Tb2  1  0.52141200  0.07394200  0.25000000  1
  Tb  Tb3  1  0.92605800  0.47858800  0.75000000  1
  Tb  Tb4  1  0.47858800  0.92605800  0.75000000  1
  Tb  Tb5  1  0.07394200  0.52141200  0.25000000  1
  Ru  Ru6  1  0.50000000  0.50000000  0.50000000  1
  Ru  Ru7  1  0.50000000  0.50000000  0.00000000  1
  O  O8  1  0.43695300  0.18077100  0.53879000  1
  O  O9  1  0.81922900  0.56304700  0.46121000  1
  O  O10  1  0.43695300  0.18077100  0.96121000  1
  O  O11  1  0.81922900  0.56304700  0.03879000  1
  O  O12  1  0.56304700  0.81922900  0.46121000  1
  O  O13  1  0.18077100  0.43695300  0.53879000  1
  O  O14  1  0.56304700  0.81922900  0.03879000  1
  O  O15  1  0.18077100  0.43695300  0.96121000  1
  O  O16  1  0.15704900  0.89122400  0.25000000  1
  O  O17  1  0.10877600  0.84295100  0.75000000  1
  O  O18  1  0.84295100  0.10877600  0.75000000  1
  O  O19  1  0.89122400  0.15704900  0.25000000  1
  O  O20  1  0.41067700  0.41067700  0.25000000  1
  O  O21  1  0.58932300  0.58932300  0.75000000  1
