# generated using pymatgen
data_SrIn3Hg
_symmetry_space_group_name_H-M   'P 1'
_cell_length_a   7.13473080
_cell_length_b   7.13473080
_cell_length_c   7.13473080
_cell_angle_alpha   140.37302567
_cell_angle_beta   140.37302567
_cell_angle_gamma   57.28734806
_symmetry_Int_Tables_number   1
_chemical_formula_structural   SrIn3Hg
_chemical_formula_sum   'Sr1 In3 Hg1'
_cell_volume   146.48513144
_cell_formula_units_Z   1
loop_
 _symmetry_equiv_pos_site_id
 _symmetry_equiv_pos_as_xyz
  1  'x, y, z'
loop_
 _atom_site_type_symbol
 _atom_site_label
 _atom_site_symmetry_multiplicity
 _atom_site_fract_x
 _atom_site_fract_y
 _atom_site_fract_z
 _atom_site_occupancy
  Sr  Sr0  1  0.00097100  0.00097100  0.00000000  1
  In  In1  1  0.74910300  0.24910300  0.50000000  1
  In  In2  1  0.24910300  0.74910300  0.50000000  1
  In  In3  1  0.38996300  0.38996300  0.00000000  1
  Hg  Hg4  1  0.61086100  0.61086100  0.00000000  1
