# generated using pymatgen
data_GdPtF7
_symmetry_space_group_name_H-M   'P 1'
_cell_length_a   5.60576300
_cell_length_b   9.01833400
_cell_length_c   12.13947565
_cell_angle_alpha   62.25348853
_cell_angle_beta   90.00000000
_cell_angle_gamma   90.00000000
_symmetry_Int_Tables_number   1
_chemical_formula_structural   GdPtF7
_chemical_formula_sum   'Gd4 Pt4 F28'
_cell_volume   543.14037981
_cell_formula_units_Z   4
loop_
 _symmetry_equiv_pos_site_id
 _symmetry_equiv_pos_as_xyz
  1  'x, y, z'
loop_
 _atom_site_type_symbol
 _atom_site_label
 _atom_site_symmetry_multiplicity
 _atom_site_fract_x
 _atom_site_fract_y
 _atom_site_fract_z
 _atom_site_occupancy
  Gd  Gd0  1  0.76098400  0.81277900  0.76427700  1
  Gd  Gd1  1  0.26098400  0.18722100  0.73572300  1
  Gd  Gd2  1  0.23901600  0.18722100  0.23572300  1
  Gd  Gd3  1  0.73901600  0.81277900  0.26427700  1
  Pt  Pt4  1  0.75809900  0.27272900  0.95709200  1
  Pt  Pt5  1  0.25809900  0.72727100  0.54290800  1
  Pt  Pt6  1  0.24190100  0.72727100  0.04290800  1
  Pt  Pt7  1  0.74190100  0.27272900  0.45709200  1
  F  F8  1  0.43352600  0.70456500  0.91582600  1
  F  F9  1  0.93352600  0.29543500  0.58417400  1
  F  F10  1  0.56647400  0.29543500  0.08417400  1
  F  F11  1  0.06647400  0.70456500  0.41582600  1
  F  F12  1  0.44364800  0.27884100  0.54124900  1
  F  F13  1  0.94364800  0.72115900  0.95875100  1
  F  F14  1  0.55635200  0.72115900  0.45875100  1
  F  F15  1  0.05635200  0.27884100  0.04124900  1
  F  F16  1  0.77212700  0.51873100  0.85981700  1
  F  F17  1  0.27212700  0.48126900  0.64018300  1
  F  F18  1  0.22787300  0.48126900  0.14018300  1
  F  F19  1  0.72787300  0.51873100  0.35981700  1
  F  F20  1  0.75490100  0.02673800  0.04960100  1
  F  F21  1  0.25490100  0.97326200  0.45039900  1
  F  F22  1  0.24509900  0.97326200  0.95039900  1
  F  F23  1  0.74509900  0.02673800  0.54960100  1
  F  F24  1  0.96639100  0.72594400  0.63349000  1
  F  F25  1  0.46639100  0.27405600  0.86651000  1
  F  F26  1  0.03360900  0.27405600  0.36651000  1
  F  F27  1  0.53360900  0.72594400  0.13349000  1
  F  F28  1  0.05540500  0.74451200  0.17419200  1
  F  F29  1  0.55540500  0.25548800  0.32580800  1
  F  F30  1  0.94459500  0.25548800  0.82580800  1
  F  F31  1  0.44459500  0.74451200  0.67419200  1
  F  F32  1  0.41123500  0.96872400  0.23188100  1
  F  F33  1  0.91123500  0.03127600  0.26811900  1
  F  F34  1  0.58876500  0.03127600  0.76811900  1
  F  F35  1  0.08876500  0.96872400  0.73188100  1
