# generated using pymatgen
data_KPr(SeO4)2
_symmetry_space_group_name_H-M   'P 1'
_cell_length_a   7.50014600
_cell_length_b   9.02257500
_cell_length_c   11.25197558
_cell_angle_alpha   88.32383027
_cell_angle_beta   90.00000000
_cell_angle_gamma   90.00000000
_symmetry_Int_Tables_number   1
_chemical_formula_structural   KPr(SeO4)2
_chemical_formula_sum   'K4 Pr4 Se8 O32'
_cell_volume   761.10246829
_cell_formula_units_Z   4
loop_
 _symmetry_equiv_pos_site_id
 _symmetry_equiv_pos_as_xyz
  1  'x, y, z'
loop_
 _atom_site_type_symbol
 _atom_site_label
 _atom_site_symmetry_multiplicity
 _atom_site_fract_x
 _atom_site_fract_y
 _atom_site_fract_z
 _atom_site_occupancy
  K  K0  1  0.85381800  0.43743000  0.34303300  1
  K  K1  1  0.64618200  0.43743000  0.84303300  1
  K  K2  1  0.14618200  0.56257000  0.65696700  1
  K  K3  1  0.35381800  0.56257000  0.15696700  1
  Pr  Pr4  1  0.66594500  0.94338900  0.34835000  1
  Pr  Pr5  1  0.16594500  0.05661100  0.15165000  1
  Pr  Pr6  1  0.33405500  0.05661100  0.65165000  1
  Pr  Pr7  1  0.83405500  0.94338900  0.84835000  1
  Se  Se8  1  0.16440700  0.81293100  0.39214900  1
  Se  Se9  1  0.84186200  0.72209200  0.08992500  1
  Se  Se10  1  0.33559300  0.81293100  0.89214900  1
  Se  Se11  1  0.83559300  0.18706900  0.60785100  1
  Se  Se12  1  0.15813800  0.27790800  0.91007600  1
  Se  Se13  1  0.65813800  0.72209200  0.58992400  1
  Se  Se14  1  0.34186200  0.27790800  0.41007500  1
  Se  Se15  1  0.66440700  0.18706900  0.10785100  1
  O  O16  1  0.47939600  0.40806500  0.36298000  1
  O  O17  1  0.97939600  0.59193500  0.13702000  1
  O  O18  1  0.52060400  0.59193500  0.63702000  1
  O  O19  1  0.02060400  0.40806500  0.86298000  1
  O  O20  1  0.75205800  0.69760900  0.45617600  1
  O  O21  1  0.25205800  0.30239100  0.04382400  1
  O  O22  1  0.24794200  0.30239100  0.54382400  1
  O  O23  1  0.74794200  0.69760900  0.95617600  1
  O  O24  1  0.68227000  0.75393900  0.19098300  1
  O  O25  1  0.18227000  0.24606100  0.30901700  1
  O  O26  1  0.31773000  0.24606100  0.80901700  1
  O  O27  1  0.81773000  0.75393900  0.69098300  1
  O  O28  1  0.45083500  0.11643300  0.44454000  1
  O  O29  1  0.95083500  0.88356700  0.05546000  1
  O  O30  1  0.54916500  0.88356700  0.55546000  1
  O  O31  1  0.04916500  0.11643300  0.94454000  1
  O  O32  1  0.66878100  0.12058300  0.97137300  1
  O  O33  1  0.16878100  0.87941700  0.52862700  1
  O  O34  1  0.33121900  0.87941700  0.02862700  1
  O  O35  1  0.83121900  0.12058300  0.47137300  1
  O  O36  1  0.85219000  0.36849800  0.60196200  1
  O  O37  1  0.35219000  0.63150200  0.89803800  1
  O  O38  1  0.14781000  0.63150200  0.39803800  1
  O  O39  1  0.64781000  0.36849800  0.10196200  1
  O  O40  1  0.65967700  0.13428800  0.69530800  1
  O  O41  1  0.15967700  0.86571200  0.80469200  1
  O  O42  1  0.34032300  0.86571200  0.30469200  1
  O  O43  1  0.84032300  0.13428800  0.19530800  1
  O  O44  1  0.00021400  0.09928500  0.68691200  1
  O  O45  1  0.50021400  0.90071500  0.81308800  1
  O  O46  1  0.99978600  0.90071500  0.31308800  1
  O  O47  1  0.49978600  0.09928500  0.18691200  1
