# generated using pymatgen
data_Zn2Pd
_symmetry_space_group_name_H-M   'P 1'
_cell_length_a   5.32793667
_cell_length_b   5.32793667
_cell_length_c   12.32529300
_cell_angle_alpha   90.00000000
_cell_angle_beta   90.00000000
_cell_angle_gamma   90.86625363
_symmetry_Int_Tables_number   1
_chemical_formula_structural   Zn2Pd
_chemical_formula_sum   'Zn16 Pd8'
_cell_volume   349.83698485
_cell_formula_units_Z   8
loop_
 _symmetry_equiv_pos_site_id
 _symmetry_equiv_pos_as_xyz
  1  'x, y, z'
loop_
 _atom_site_type_symbol
 _atom_site_label
 _atom_site_symmetry_multiplicity
 _atom_site_fract_x
 _atom_site_fract_y
 _atom_site_fract_z
 _atom_site_occupancy
  Zn  Zn0  1  0.72172700  0.27827300  0.99223400  1
  Zn  Zn1  1  0.27827300  0.72172700  0.99223400  1
  Zn  Zn2  1  0.50000000  0.00000000  0.83325900  1
  Zn  Zn3  1  0.00000000  0.50000000  0.16679700  1
  Zn  Zn4  1  0.50000000  0.00000000  0.16679700  1
  Zn  Zn5  1  0.00000000  0.50000000  0.83325900  1
  Zn  Zn6  1  0.00000000  0.00000000  0.83337100  1
  Zn  Zn7  1  0.00000000  0.00000000  0.17101300  1
  Zn  Zn8  1  0.72195300  0.72195300  0.33515400  1
  Zn  Zn9  1  0.27804700  0.27804700  0.33515400  1
  Zn  Zn10  1  0.28191000  0.28191000  0.67017300  1
  Zn  Zn11  1  0.71809000  0.71809000  0.67017300  1
  Zn  Zn12  1  0.00000000  0.00000000  0.49726500  1
  Zn  Zn13  1  0.50000000  0.00000000  0.50010200  1
  Zn  Zn14  1  0.00000000  0.50000000  0.50010200  1
  Zn  Zn15  1  0.50000000  0.50000000  0.16327000  1
  Pd  Pd16  1  0.78665500  0.21334500  0.66164800  1
  Pd  Pd17  1  0.21334500  0.78665500  0.66164800  1
  Pd  Pd18  1  0.77632000  0.22368000  0.33372200  1
  Pd  Pd19  1  0.22368000  0.77632000  0.33372200  1
  Pd  Pd20  1  0.50000000  0.50000000  0.50282300  1
  Pd  Pd21  1  0.50000000  0.50000000  0.83107400  1
  Pd  Pd22  1  0.78051800  0.78051800  0.00750200  1
  Pd  Pd23  1  0.21948200  0.21948200  0.00750200  1
