# generated using pymatgen
data_CsSc(SeO3)2
_symmetry_space_group_name_H-M   'P 1'
_cell_length_a   5.71313200
_cell_length_b   7.25171400
_cell_length_c   17.77480600
_cell_angle_alpha   90.00000000
_cell_angle_beta   90.00000000
_cell_angle_gamma   90.00000000
_symmetry_Int_Tables_number   1
_chemical_formula_structural   CsSc(SeO3)2
_chemical_formula_sum   'Cs4 Sc4 Se8 O24'
_cell_volume   736.41020028
_cell_formula_units_Z   4
loop_
 _symmetry_equiv_pos_site_id
 _symmetry_equiv_pos_as_xyz
  1  'x, y, z'
loop_
 _atom_site_type_symbol
 _atom_site_label
 _atom_site_symmetry_multiplicity
 _atom_site_fract_x
 _atom_site_fract_y
 _atom_site_fract_z
 _atom_site_occupancy
  Cs  Cs0  1  0.75000000  0.12895600  0.10347100  1
  Cs  Cs1  1  0.75000000  0.37104400  0.60347100  1
  Cs  Cs2  1  0.25000000  0.87104400  0.89652900  1
  Cs  Cs3  1  0.25000000  0.62895600  0.39652900  1
  Sc  Sc4  1  0.75000000  0.35276800  0.87012400  1
  Sc  Sc5  1  0.75000000  0.14723200  0.37012400  1
  Sc  Sc6  1  0.25000000  0.64723200  0.12987600  1
  Sc  Sc7  1  0.25000000  0.85276800  0.62987600  1
  Se  Se8  1  0.25000000  0.42071200  0.74797300  1
  Se  Se9  1  0.25000000  0.07928800  0.24797300  1
  Se  Se10  1  0.75000000  0.57928800  0.25202700  1
  Se  Se11  1  0.75000000  0.92071200  0.75202700  1
  Se  Se12  1  0.25000000  0.39379000  0.96733700  1
  Se  Se13  1  0.25000000  0.10621000  0.46733700  1
  Se  Se14  1  0.75000000  0.60621000  0.03266300  1
  Se  Se15  1  0.75000000  0.89379000  0.53266300  1
  O  O16  1  0.25000000  0.60362800  0.68598700  1
  O  O17  1  0.25000000  0.89637200  0.18598700  1
  O  O18  1  0.75000000  0.39637200  0.31401300  1
  O  O19  1  0.75000000  0.10362800  0.81401300  1
  O  O20  1  0.48477200  0.47564400  0.80444100  1
  O  O21  1  0.01522800  0.02435600  0.30444100  1
  O  O22  1  0.98477200  0.52435600  0.19555900  1
  O  O23  1  0.51522800  0.97564400  0.69555900  1
  O  O24  1  0.51522800  0.52435600  0.19555900  1
  O  O25  1  0.98477200  0.97564400  0.69555900  1
  O  O26  1  0.01522800  0.47564400  0.80444100  1
  O  O27  1  0.48477200  0.02435600  0.30444100  1
  O  O28  1  0.25000000  0.39205500  0.06479700  1
  O  O29  1  0.25000000  0.10794500  0.56479700  1
  O  O30  1  0.75000000  0.60794500  0.93520300  1
  O  O31  1  0.75000000  0.89205500  0.43520300  1
  O  O32  1  0.48630800  0.25130100  0.94752700  1
  O  O33  1  0.01369200  0.24869900  0.44752700  1
  O  O34  1  0.98630800  0.74869900  0.05247300  1
  O  O35  1  0.51369200  0.75130100  0.55247300  1
  O  O36  1  0.51369200  0.74869900  0.05247300  1
  O  O37  1  0.98630800  0.75130100  0.55247300  1
  O  O38  1  0.01369200  0.25130100  0.94752700  1
  O  O39  1  0.48630800  0.24869900  0.44752700  1
