# generated using pymatgen
data_Mg149Pd
_symmetry_space_group_name_H-M   'P 1'
_cell_length_a   15.88232609
_cell_length_b   15.88233132
_cell_length_c   15.61148482
_cell_angle_alpha   90.00000000
_cell_angle_beta   90.00000000
_cell_angle_gamma   120.00001297
_symmetry_Int_Tables_number   1
_chemical_formula_structural   Mg149Pd
_chemical_formula_sum   'Mg149 Pd1'
_cell_volume   3410.38293279
_cell_formula_units_Z   1
loop_
 _symmetry_equiv_pos_site_id
 _symmetry_equiv_pos_as_xyz
  1  'x, y, z'
loop_
 _atom_site_type_symbol
 _atom_site_label
 _atom_site_symmetry_multiplicity
 _atom_site_fract_x
 _atom_site_fract_y
 _atom_site_fract_z
 _atom_site_occupancy
  Mg  Mg0  1  0.39855809  0.00011387  0.00000000  1
  Mg  Mg1  1  0.60155578  0.00011387  0.00000000  1
  Mg  Mg2  1  0.19312111  0.00162080  0.00000000  1
  Mg  Mg3  1  0.80850068  0.00162180  0.00000000  1
  Mg  Mg4  1  0.99837920  0.19149932  0.00000000  1
  Mg  Mg5  1  0.19312111  0.19150032  0.00000000  1
  Mg  Mg6  1  0.39817057  0.19908479  0.00000000  1
  Mg  Mg7  1  0.80091521  0.19908479  0.00000000  1
  Mg  Mg8  1  0.59980695  0.19961289  0.00000000  1
  Mg  Mg9  1  0.19854379  0.39708757  0.00000000  1
  Mg  Mg10  1  0.99988613  0.39844322  0.00000000  1
  Mg  Mg11  1  0.39855809  0.39844422  0.00000000  1
  Mg  Mg12  1  0.80038711  0.40019405  0.00000000  1
  Mg  Mg13  1  0.59980695  0.40019405  0.00000000  1
  Mg  Mg14  1  0.40013601  0.59986399  0.00000000  1
  Mg  Mg15  1  0.19972798  0.59986399  0.00000000  1
  Mg  Mg16  1  0.99988613  0.60144191  0.00000000  1
  Mg  Mg17  1  0.60155578  0.60144191  0.00000000  1
  Mg  Mg18  1  0.80091521  0.60183043  0.00000000  1
  Mg  Mg19  1  0.40013601  0.80027102  0.00000000  1
  Mg  Mg20  1  0.19854379  0.80145621  0.00000000  1
  Mg  Mg21  1  0.60291243  0.80145621  0.00000000  1
  Mg  Mg22  1  0.99837920  0.80687889  0.00000000  1
  Mg  Mg23  1  0.80850068  0.80687889  0.00000000  1
  Mg  Mg24  1  0.06416466  0.12832931  0.15984538  1
  Mg  Mg25  1  0.06416466  0.93583534  0.15984538  1
  Mg  Mg26  1  0.87167069  0.93583534  0.15984538  1
  Mg  Mg27  1  0.06594645  0.33107760  0.16560311  1
  Mg  Mg28  1  0.26513014  0.33107760  0.16560311  1
  Mg  Mg29  1  0.06594645  0.73486886  0.16560311  1
  Mg  Mg30  1  0.66892240  0.73486986  0.16560311  1
  Mg  Mg31  1  0.66892240  0.93405355  0.16560311  1
  Mg  Mg32  1  0.26513014  0.93405355  0.16560311  1
  Mg  Mg33  1  0.46672343  0.53327757  0.16610145  1
  Mg  Mg34  1  0.06655513  0.53327757  0.16610145  1
  Mg  Mg35  1  0.46672343  0.93344587  0.16610145  1
  Mg  Mg36  1  0.26624935  0.53250070  0.16605108  1
  Mg  Mg37  1  0.26624935  0.73374965  0.16605108  1
  Mg  Mg38  1  0.46749930  0.73374965  0.16605108  1
  Mg  Mg39  1  0.66648769  0.13363526  0.16661022  1
  Mg  Mg40  1  0.46714857  0.13363626  0.16661022  1
  Mg  Mg41  1  0.86636474  0.33351231  0.16661022  1
  Mg  Mg42  1  0.46714857  0.33351231  0.16661022  1
  Mg  Mg43  1  0.66648769  0.53285243  0.16661022  1
  Mg  Mg44  1  0.86636474  0.53285243  0.16661022  1
  Mg  Mg45  1  0.66666700  0.33333300  0.16665081  1
  Mg  Mg46  1  0.26816675  0.13408338  0.16728737  1
  Mg  Mg47  1  0.86591662  0.13408338  0.16728737  1
  Mg  Mg48  1  0.86591662  0.73183325  0.16728737  1
  Mg  Mg49  1  0.00000000  0.00000000  0.33134613  1
  Mg  Mg50  1  0.80080433  0.99969926  0.33188335  1
  Mg  Mg51  1  0.19889494  0.99969926  0.33188335  1
  Mg  Mg52  1  0.19889494  0.19919567  0.33188335  1
  Mg  Mg53  1  0.00030074  0.19919567  0.33188335  1
  Mg  Mg54  1  0.00030074  0.80110506  0.33188335  1
  Mg  Mg55  1  0.80080433  0.80110506  0.33188335  1
  Mg  Mg56  1  0.39949712  0.99981933  0.33276713  1
  Mg  Mg57  1  0.60032221  0.99981933  0.33276713  1
  Mg  Mg58  1  0.39949712  0.39967779  0.33276713  1
  Mg  Mg59  1  0.00018067  0.39967779  0.33276713  1
  Mg  Mg60  1  0.60032221  0.60050188  0.33276713  1
  Mg  Mg61  1  0.00018067  0.60050288  0.33276713  1
  Mg  Mg62  1  0.19988619  0.39977239  0.33288790  1
  Mg  Mg63  1  0.19988619  0.80011381  0.33288790  1
  Mg  Mg64  1  0.60022761  0.80011381  0.33288790  1
  Mg  Mg65  1  0.20002160  0.60001080  0.33314990  1
  Mg  Mg66  1  0.39998920  0.60001080  0.33314990  1
  Mg  Mg67  1  0.39998920  0.79997940  0.33314990  1
  Mg  Mg68  1  0.59986097  0.19972294  0.33344267  1
  Mg  Mg69  1  0.59986097  0.40013803  0.33344267  1
  Mg  Mg70  1  0.80027706  0.40013903  0.33344267  1
  Mg  Mg71  1  0.39979272  0.19989636  0.33360800  1
  Mg  Mg72  1  0.80010364  0.19989636  0.33360800  1
  Mg  Mg73  1  0.80010364  0.60020728  0.33360800  1
  Mg  Mg74  1  0.06655535  0.13311070  0.50000000  1
  Mg  Mg75  1  0.86688796  0.13311204  0.50000000  1
  Mg  Mg76  1  0.26622507  0.13311204  0.50000000  1
  Mg  Mg77  1  0.46672570  0.13329394  0.50000000  1
  Mg  Mg78  1  0.66656924  0.13329394  0.50000000  1
  Mg  Mg79  1  0.06638622  0.33277008  0.50000000  1
  Mg  Mg80  1  0.26638386  0.33277108  0.50000000  1
  Mg  Mg81  1  0.66666700  0.33333300  0.50000000  1
  Mg  Mg82  1  0.86670506  0.33343076  0.50000000  1
  Mg  Mg83  1  0.46672570  0.33343076  0.50000000  1
  Mg  Mg84  1  0.26649146  0.53298192  0.50000000  1
  Mg  Mg85  1  0.46674272  0.53325728  0.50000000  1
  Mg  Mg86  1  0.06651557  0.53325828  0.50000000  1
  Mg  Mg87  1  0.86670506  0.53327430  0.50000000  1
  Mg  Mg88  1  0.66656924  0.53327430  0.50000000  1
  Mg  Mg89  1  0.46701808  0.73350954  0.50000000  1
  Mg  Mg90  1  0.26649146  0.73350954  0.50000000  1
  Mg  Mg91  1  0.06638622  0.73361614  0.50000000  1
  Mg  Mg92  1  0.66722992  0.73361614  0.50000000  1
  Mg  Mg93  1  0.86688796  0.73377593  0.50000000  1
  Mg  Mg94  1  0.46674272  0.93348443  0.50000000  1
  Mg  Mg95  1  0.06655535  0.93344465  0.50000000  1
  Mg  Mg96  1  0.86688930  0.93344465  0.50000000  1
  Mg  Mg97  1  0.66722992  0.93361378  0.50000000  1
  Mg  Mg98  1  0.26638386  0.93361378  0.50000000  1
  Mg  Mg99  1  0.39979272  0.19989636  0.66639200  1
  Mg  Mg100  1  0.80010364  0.19989636  0.66639200  1
  Mg  Mg101  1  0.80010364  0.60020728  0.66639200  1
  Mg  Mg102  1  0.59986097  0.19972294  0.66655833  1
  Mg  Mg103  1  0.59986097  0.40013803  0.66655833  1
  Mg  Mg104  1  0.80027706  0.40013903  0.66655833  1
  Mg  Mg105  1  0.20002160  0.60001080  0.66685010  1
  Mg  Mg106  1  0.39998920  0.60001080  0.66685010  1
  Mg  Mg107  1  0.39998920  0.79997940  0.66685010  1
  Mg  Mg108  1  0.19988619  0.39977239  0.66711210  1
  Mg  Mg109  1  0.19988619  0.80011381  0.66711210  1
  Mg  Mg110  1  0.60022761  0.80011381  0.66711210  1
  Mg  Mg111  1  0.39949712  0.99981933  0.66723287  1
  Mg  Mg112  1  0.60032221  0.99981933  0.66723287  1
  Mg  Mg113  1  0.39949712  0.39967779  0.66723287  1
  Mg  Mg114  1  0.00018067  0.39967779  0.66723287  1
  Mg  Mg115  1  0.60032221  0.60050188  0.66723287  1
  Mg  Mg116  1  0.00018067  0.60050288  0.66723287  1
  Mg  Mg117  1  0.80080433  0.99969926  0.66811665  1
  Mg  Mg118  1  0.19889494  0.99969926  0.66811665  1
  Mg  Mg119  1  0.19889494  0.19919567  0.66811665  1
  Mg  Mg120  1  0.00030074  0.19919567  0.66811665  1
  Mg  Mg121  1  0.00030074  0.80110506  0.66811665  1
  Mg  Mg122  1  0.80080433  0.80110506  0.66811665  1
  Mg  Mg123  1  0.00000000  0.00000000  0.66865387  1
  Mg  Mg124  1  0.26816675  0.13408338  0.83271263  1
  Mg  Mg125  1  0.86591662  0.13408338  0.83271263  1
  Mg  Mg126  1  0.86591662  0.73183325  0.83271263  1
  Mg  Mg127  1  0.66666700  0.33333300  0.83335019  1
  Mg  Mg128  1  0.66648769  0.13363526  0.83338978  1
  Mg  Mg129  1  0.46714857  0.13363626  0.83338978  1
  Mg  Mg130  1  0.86636474  0.33351231  0.83338978  1
  Mg  Mg131  1  0.46714857  0.33351231  0.83338978  1
  Mg  Mg132  1  0.66648769  0.53285243  0.83338978  1
  Mg  Mg133  1  0.86636474  0.53285243  0.83338978  1
  Mg  Mg134  1  0.26624935  0.53250070  0.83394892  1
  Mg  Mg135  1  0.26624935  0.73374965  0.83394892  1
  Mg  Mg136  1  0.46749930  0.73374965  0.83394892  1
  Mg  Mg137  1  0.46672343  0.53327757  0.83389855  1
  Mg  Mg138  1  0.06655513  0.53327757  0.83389855  1
  Mg  Mg139  1  0.46672343  0.93344587  0.83389855  1
  Mg  Mg140  1  0.06594645  0.33107760  0.83439689  1
  Mg  Mg141  1  0.26513014  0.33107760  0.83439689  1
  Mg  Mg142  1  0.06594645  0.73486886  0.83439689  1
  Mg  Mg143  1  0.66892240  0.73486986  0.83439689  1
  Mg  Mg144  1  0.66892240  0.93405355  0.83439689  1
  Mg  Mg145  1  0.26513014  0.93405355  0.83439689  1
  Mg  Mg146  1  0.06416466  0.12832931  0.84015362  1
  Mg  Mg147  1  0.06416466  0.93583534  0.84015362  1
  Mg  Mg148  1  0.87167069  0.93583534  0.84015362  1
  Pd  Pd149  1  0.00000000  0.00000000  0.00000000  1
