# generated using pymatgen
data_Al13Fe4
_symmetry_space_group_name_H-M   'P 1'
_cell_length_a   8.03957500
_cell_length_b   8.70013443
_cell_length_c   12.44174312
_cell_angle_alpha   105.66650043
_cell_angle_beta   90.00000000
_cell_angle_gamma   117.51865189
_symmetry_Int_Tables_number   1
_chemical_formula_structural   Al13Fe4
_chemical_formula_sum   'Al39 Fe12'
_cell_volume   735.13665417
_cell_formula_units_Z   3
loop_
 _symmetry_equiv_pos_site_id
 _symmetry_equiv_pos_as_xyz
  1  'x, y, z'
loop_
 _atom_site_type_symbol
 _atom_site_label
 _atom_site_symmetry_multiplicity
 _atom_site_fract_x
 _atom_site_fract_y
 _atom_site_fract_z
 _atom_site_occupancy
  Al  Al0  1  0.06586300  0.13172500  0.17337200  1
  Al  Al1  1  0.93413700  0.86827500  0.82662800  1
  Al  Al2  1  0.32290500  0.64581000  0.28150100  1
  Al  Al3  1  0.67709500  0.35419000  0.71849900  1
  Al  Al4  1  0.23742500  0.47485000  0.53439600  1
  Al  Al5  1  0.76257500  0.52515000  0.46560400  1
  Al  Al6  1  0.07383300  0.14766600  0.58043500  1
  Al  Al7  1  0.92616700  0.85233400  0.41956500  1
  Al  Al8  1  0.24090000  0.48180000  0.96166600  1
  Al  Al9  1  0.75910000  0.51820000  0.03833400  1
  Al  Al10  1  0.47917900  0.95835800  0.82952900  1
  Al  Al11  1  0.52082100  0.04164200  0.17047100  1
  Al  Al12  1  0.50000000  0.00000000  0.50000000  1
  Al  Al13  1  0.30474800  0.60949500  0.77276800  1
  Al  Al14  1  0.69525200  0.39050500  0.22723200  1
  Al  Al15  1  0.08696500  0.17393100  0.78845800  1
  Al  Al16  1  0.91303500  0.82606900  0.21154200  1
  Al  Al17  1  0.96784600  0.37114000  0.11062000  1
  Al  Al18  1  0.40329400  0.37114000  0.11062000  1
  Al  Al19  1  0.03215400  0.62886000  0.88938000  1
  Al  Al20  1  0.59670600  0.62886000  0.88938000  1
  Al  Al21  1  0.15576400  0.73552600  0.10970900  1
  Al  Al22  1  0.57976200  0.73552600  0.10970900  1
  Al  Al23  1  0.84423600  0.26447400  0.89029100  1
  Al  Al24  1  0.42023800  0.26447400  0.89029100  1
  Al  Al25  1  0.95807200  0.35641400  0.33426200  1
  Al  Al26  1  0.39834100  0.35641400  0.33426200  1
  Al  Al27  1  0.04192800  0.64358600  0.66573800  1
  Al  Al28  1  0.60165900  0.64358600  0.66573800  1
  Al  Al29  1  0.25855800  0.98379900  0.32990700  1
  Al  Al30  1  0.72524100  0.98379900  0.32990700  1
  Al  Al31  1  0.74144200  0.01620100  0.67009300  1
  Al  Al32  1  0.27475900  0.01620100  0.67009300  1
  Al  Al33  1  0.14367100  0.72660000  0.47809500  1
  Al  Al34  1  0.58292900  0.72660000  0.47809500  1
  Al  Al35  1  0.85632900  0.27340000  0.52190500  1
  Al  Al36  1  0.41707100  0.27340000  0.52190500  1
  Al  Al37  1  0.74984800  0.00000000  0.00000000  1
  Al  Al38  1  0.25015200  0.00000000  0.00000000  1
  Fe  Fe39  1  0.08548600  0.17097200  0.38303500  1
  Fe  Fe40  1  0.91451400  0.82902800  0.61696500  1
  Fe  Fe41  1  0.40148000  0.80296100  0.62339800  1
  Fe  Fe42  1  0.59852000  0.19703900  0.37660200  1
  Fe  Fe43  1  0.09067800  0.18135500  0.98786700  1
  Fe  Fe44  1  0.90932200  0.81864500  0.01213300  1
  Fe  Fe45  1  0.40219300  0.80438600  0.98527400  1
  Fe  Fe46  1  0.59780700  0.19561400  0.01472600  1
  Fe  Fe47  1  0.02615700  0.63981600  0.27784600  1
  Fe  Fe48  1  0.61365900  0.63981600  0.27784600  1
  Fe  Fe49  1  0.97384300  0.36018400  0.72215400  1
  Fe  Fe50  1  0.38634100  0.36018400  0.72215400  1
