# generated using pymatgen
data_Si7Tc4
_symmetry_space_group_name_H-M   'P 1'
_cell_length_a   5.77020300
_cell_length_b   5.77020300
_cell_length_c   18.17889500
_cell_angle_alpha   90.00000000
_cell_angle_beta   90.00000000
_cell_angle_gamma   90.00000000
_symmetry_Int_Tables_number   1
_chemical_formula_structural   Si7Tc4
_chemical_formula_sum   'Si28 Tc16'
_cell_volume   605.27072034
_cell_formula_units_Z   4
loop_
 _symmetry_equiv_pos_site_id
 _symmetry_equiv_pos_as_xyz
  1  'x, y, z'
loop_
 _atom_site_type_symbol
 _atom_site_label
 _atom_site_symmetry_multiplicity
 _atom_site_fract_x
 _atom_site_fract_y
 _atom_site_fract_z
 _atom_site_occupancy
  Si  Si0  1  0.19368800  0.15072600  0.38561600  1
  Si  Si1  1  0.80631200  0.84927400  0.38561600  1
  Si  Si2  1  0.19368800  0.84927400  0.88561600  1
  Si  Si3  1  0.80631200  0.15072600  0.88561600  1
  Si  Si4  1  0.15072600  0.80631200  0.61438400  1
  Si  Si5  1  0.84927400  0.19368800  0.61438400  1
  Si  Si6  1  0.84927400  0.80631200  0.11438400  1
  Si  Si7  1  0.15072600  0.19368800  0.11438400  1
  Si  Si8  1  0.84697000  0.32802000  0.31652700  1
  Si  Si9  1  0.15303000  0.67198000  0.31652700  1
  Si  Si10  1  0.84697000  0.67198000  0.81652700  1
  Si  Si11  1  0.15303000  0.32802000  0.81652700  1
  Si  Si12  1  0.32802000  0.15303000  0.68347300  1
  Si  Si13  1  0.67198000  0.84697000  0.68347300  1
  Si  Si14  1  0.67198000  0.15303000  0.18347300  1
  Si  Si15  1  0.32802000  0.84697000  0.18347300  1
  Si  Si16  1  0.34017500  0.34017500  0.25000000  1
  Si  Si17  1  0.65982500  0.65982500  0.25000000  1
  Si  Si18  1  0.34017500  0.65982500  0.75000000  1
  Si  Si19  1  0.65982500  0.34017500  0.75000000  1
  Si  Si20  1  0.22864000  0.34852800  0.53963900  1
  Si  Si21  1  0.77136000  0.65147200  0.53963900  1
  Si  Si22  1  0.22864000  0.65147200  0.03963900  1
  Si  Si23  1  0.77136000  0.34852800  0.03963900  1
  Si  Si24  1  0.34852800  0.77136000  0.46036100  1
  Si  Si25  1  0.65147200  0.22864000  0.46036100  1
  Si  Si26  1  0.65147200  0.77136000  0.96036100  1
  Si  Si27  1  0.34852800  0.22864000  0.96036100  1
  Tc  Tc28  1  0.00000000  0.00000000  0.50000000  1
  Tc  Tc29  1  0.00000000  0.00000000  0.00000000  1
  Tc  Tc30  1  0.00000000  0.50000000  0.43518900  1
  Tc  Tc31  1  0.00000000  0.50000000  0.93518900  1
  Tc  Tc32  1  0.50000000  0.00000000  0.56481100  1
  Tc  Tc33  1  0.50000000  0.00000000  0.06481100  1
  Tc  Tc34  1  0.50000000  0.50000000  0.36963600  1
  Tc  Tc35  1  0.50000000  0.50000000  0.86963600  1
  Tc  Tc36  1  0.50000000  0.50000000  0.63036400  1
  Tc  Tc37  1  0.50000000  0.50000000  0.13036400  1
  Tc  Tc38  1  0.50000000  0.00000000  0.30752600  1
  Tc  Tc39  1  0.50000000  0.00000000  0.80752600  1
  Tc  Tc40  1  0.00000000  0.50000000  0.69247400  1
  Tc  Tc41  1  0.00000000  0.50000000  0.19247400  1
  Tc  Tc42  1  0.00000000  0.00000000  0.25000000  1
  Tc  Tc43  1  0.00000000  0.00000000  0.75000000  1
