# generated using pymatgen
data_K5TlO4
_symmetry_space_group_name_H-M   'P 1'
_cell_length_a   6.94911600
_cell_length_b   12.06691500
_cell_length_c   20.98697700
_cell_angle_alpha   90.00000000
_cell_angle_beta   90.00000000
_cell_angle_gamma   90.00000000
_symmetry_Int_Tables_number   1
_chemical_formula_structural   K5TlO4
_chemical_formula_sum   'K40 Tl8 O32'
_cell_volume   1759.85019829
_cell_formula_units_Z   8
loop_
 _symmetry_equiv_pos_site_id
 _symmetry_equiv_pos_as_xyz
  1  'x, y, z'
loop_
 _atom_site_type_symbol
 _atom_site_label
 _atom_site_symmetry_multiplicity
 _atom_site_fract_x
 _atom_site_fract_y
 _atom_site_fract_z
 _atom_site_occupancy
  K  K0  1  0.92510100  0.19955900  0.35903000  1
  K  K1  1  0.42510100  0.80044100  0.14097000  1
  K  K2  1  0.57489900  0.69955900  0.64097000  1
  K  K3  1  0.07489900  0.30044100  0.85903000  1
  K  K4  1  0.07489900  0.80044100  0.64097000  1
  K  K5  1  0.57489900  0.19955900  0.85903000  1
  K  K6  1  0.42510100  0.30044100  0.35903000  1
  K  K7  1  0.92510100  0.69955900  0.14097000  1
  K  K8  1  0.91427500  0.16176700  0.99627600  1
  K  K9  1  0.41427500  0.83823300  0.50372400  1
  K  K10  1  0.58572500  0.66176700  0.00372400  1
  K  K11  1  0.08572500  0.33823300  0.49627600  1
  K  K12  1  0.08572500  0.83823300  0.00372400  1
  K  K13  1  0.58572500  0.16176700  0.49627600  1
  K  K14  1  0.41427500  0.33823300  0.99627600  1
  K  K15  1  0.91427500  0.66176700  0.50372400  1
  K  K16  1  0.89912600  0.08039700  0.74878100  1
  K  K17  1  0.39912600  0.91960300  0.75121900  1
  K  K18  1  0.60087400  0.58039700  0.25121900  1
  K  K19  1  0.10087400  0.41960300  0.24878100  1
  K  K20  1  0.10087400  0.91960300  0.25121900  1
  K  K21  1  0.60087400  0.08039700  0.24878100  1
  K  K22  1  0.39912600  0.41960300  0.74878100  1
  K  K23  1  0.89912600  0.58039700  0.75121900  1
  K  K24  1  0.91619800  0.43754100  0.06502600  1
  K  K25  1  0.41619800  0.56245900  0.43497400  1
  K  K26  1  0.58380200  0.93754100  0.93497400  1
  K  K27  1  0.08380200  0.06245900  0.56502600  1
  K  K28  1  0.08380200  0.56245900  0.93497400  1
  K  K29  1  0.58380200  0.43754100  0.56502600  1
  K  K30  1  0.41619800  0.06245900  0.06502600  1
  K  K31  1  0.91619800  0.93754100  0.43497400  1
  K  K32  1  0.89650400  0.32760100  0.67127100  1
  K  K33  1  0.39650400  0.67239900  0.82872900  1
  K  K34  1  0.60349600  0.82760100  0.32872900  1
  K  K35  1  0.10349600  0.17239900  0.17127100  1
  K  K36  1  0.10349600  0.67239900  0.32872900  1
  K  K37  1  0.60349600  0.32760100  0.17127100  1
  K  K38  1  0.39650400  0.17239900  0.67127100  1
  K  K39  1  0.89650400  0.82760100  0.82872900  1
  Tl  Tl40  1  0.82399700  0.46209200  0.37698300  1
  Tl  Tl41  1  0.32399700  0.53790800  0.12301700  1
  Tl  Tl42  1  0.67600300  0.96209200  0.62301700  1
  Tl  Tl43  1  0.17600300  0.03790800  0.87698300  1
  Tl  Tl44  1  0.17600300  0.53790800  0.62301700  1
  Tl  Tl45  1  0.67600300  0.46209200  0.87698300  1
  Tl  Tl46  1  0.32399700  0.03790800  0.37698300  1
  Tl  Tl47  1  0.82399700  0.96209200  0.12301700  1
  O  O48  1  0.80814700  0.36530800  0.95429700  1
  O  O49  1  0.30814700  0.63469200  0.54570300  1
  O  O50  1  0.69185300  0.86530800  0.04570300  1
  O  O51  1  0.19185300  0.13469200  0.45429700  1
  O  O52  1  0.19185300  0.63469200  0.04570300  1
  O  O53  1  0.69185300  0.36530800  0.45429700  1
  O  O54  1  0.30814700  0.13469200  0.95429700  1
  O  O55  1  0.80814700  0.86530800  0.54570300  1
  O  O56  1  0.85984900  0.04799200  0.87953900  1
  O  O57  1  0.35984900  0.95200800  0.62046100  1
  O  O58  1  0.64015100  0.54799200  0.12046100  1
  O  O59  1  0.14015100  0.45200800  0.37953900  1
  O  O60  1  0.14015100  0.95200800  0.12046100  1
  O  O61  1  0.64015100  0.04799200  0.37953900  1
  O  O62  1  0.35984900  0.45200800  0.87953900  1
  O  O63  1  0.85984900  0.54799200  0.62046100  1
  O  O64  1  0.76202300  0.13931700  0.62486700  1
  O  O65  1  0.26202300  0.86068300  0.87513300  1
  O  O66  1  0.73797700  0.63931700  0.37513300  1
  O  O67  1  0.23797700  0.36068300  0.12486700  1
  O  O68  1  0.23797700  0.86068300  0.37513300  1
  O  O69  1  0.73797700  0.13931700  0.12486700  1
  O  O70  1  0.26202300  0.36068300  0.62486700  1
  O  O71  1  0.76202300  0.63931700  0.87513300  1
  O  O72  1  0.73159200  0.37654200  0.28708000  1
  O  O73  1  0.23159200  0.62345800  0.21292000  1
  O  O74  1  0.76840800  0.87654200  0.71292000  1
  O  O75  1  0.26840800  0.12345800  0.78708000  1
  O  O76  1  0.26840800  0.62345800  0.71292000  1
  O  O77  1  0.76840800  0.37654200  0.78708000  1
  O  O78  1  0.23159200  0.12345800  0.28708000  1
  O  O79  1  0.73159200  0.87654200  0.21292000  1
