# generated using pymatgen
data_GdAlSi
_symmetry_space_group_name_H-M   'P 1'
_cell_length_a   7.81779934
_cell_length_b   7.81779934
_cell_length_c   7.81779934
_cell_angle_alpha   149.21519489
_cell_angle_beta   149.21519489
_cell_angle_gamma   44.09464619
_symmetry_Int_Tables_number   1
_chemical_formula_structural   GdAlSi
_chemical_formula_sum   'Gd2 Al2 Si2'
_cell_volume   124.80405149
_cell_formula_units_Z   2
loop_
 _symmetry_equiv_pos_site_id
 _symmetry_equiv_pos_as_xyz
  1  'x, y, z'
loop_
 _atom_site_type_symbol
 _atom_site_label
 _atom_site_symmetry_multiplicity
 _atom_site_fract_x
 _atom_site_fract_y
 _atom_site_fract_z
 _atom_site_occupancy
  Gd  Gd0  1  0.12524400  0.62524400  0.50000000  1
  Gd  Gd1  1  0.37524400  0.37524400  0.00000000  1
  Al  Al2  1  0.79220100  0.79220100  0.00000000  1
  Al  Al3  1  0.54220100  0.04220100  0.50000000  1
  Si  Si4  1  0.70755500  0.20755500  0.50000000  1
  Si  Si5  1  0.95755500  0.95755500  0.00000000  1
