# generated using pymatgen
data_PrMg(BO2)5
_symmetry_space_group_name_H-M   'P 1'
_cell_length_a   7.69537800
_cell_length_b   8.77201400
_cell_length_c   12.66482675
_cell_angle_alpha   48.85712468
_cell_angle_beta   90.00000000
_cell_angle_gamma   90.00000000
_symmetry_Int_Tables_number   1
_chemical_formula_structural   PrMg(BO2)5
_chemical_formula_sum   'Pr4 Mg4 B20 O40'
_cell_volume   643.82019994
_cell_formula_units_Z   4
loop_
 _symmetry_equiv_pos_site_id
 _symmetry_equiv_pos_as_xyz
  1  'x, y, z'
loop_
 _atom_site_type_symbol
 _atom_site_label
 _atom_site_symmetry_multiplicity
 _atom_site_fract_x
 _atom_site_fract_y
 _atom_site_fract_z
 _atom_site_occupancy
  Pr  Pr0  1  0.18301500  0.94862500  0.23515600  1
  Pr  Pr1  1  0.81698500  0.05137500  0.76484400  1
  Pr  Pr2  1  0.68301500  0.05137500  0.26484400  1
  Pr  Pr3  1  0.31698500  0.94862500  0.73515600  1
  Mg  Mg4  1  0.90967000  0.51848600  0.37581000  1
  Mg  Mg5  1  0.09033000  0.48151400  0.62419000  1
  Mg  Mg6  1  0.40967000  0.48151400  0.12419000  1
  Mg  Mg7  1  0.59033000  0.51848600  0.87581000  1
  B  B8  1  0.82612200  0.90809200  0.10673300  1
  B  B9  1  0.17387800  0.09190800  0.89326700  1
  B  B10  1  0.32612200  0.09190800  0.39326700  1
  B  B11  1  0.67387800  0.90809200  0.60673300  1
  B  B12  1  0.57923000  0.65193100  0.26147600  1
  B  B13  1  0.42077000  0.34806900  0.73852400  1
  B  B14  1  0.07923000  0.34806900  0.23852400  1
  B  B15  1  0.92077000  0.65193100  0.76147600  1
  B  B16  1  0.81544900  0.48275600  0.08695000  1
  B  B17  1  0.18455100  0.51724400  0.91305000  1
  B  B18  1  0.31544900  0.51724400  0.41305000  1
  B  B19  1  0.68455100  0.48275600  0.58695000  1
  B  B20  1  0.46624600  0.72523400  0.55586300  1
  B  B21  1  0.53375400  0.27476600  0.44413700  1
  B  B22  1  0.96624600  0.27476600  0.94413700  1
  B  B23  1  0.03375400  0.72523400  0.05586300  1
  B  B24  1  0.59791800  0.84239100  0.00220700  1
  B  B25  1  0.40208200  0.15760900  0.99779300  1
  B  B26  1  0.09791800  0.15760900  0.49779300  1
  B  B27  1  0.90208200  0.84239100  0.50220700  1
  O  O28  1  0.91641200  0.31953100  0.19177200  1
  O  O29  1  0.08358800  0.68046900  0.80822800  1
  O  O30  1  0.41641200  0.68046900  0.30822800  1
  O  O31  1  0.58358800  0.31953100  0.69177200  1
  O  O32  1  0.87747300  0.67664200  0.01009300  1
  O  O33  1  0.12252700  0.32335800  0.98990700  1
  O  O34  1  0.37747300  0.32335800  0.48990700  1
  O  O35  1  0.62252700  0.67664200  0.51009300  1
  O  O36  1  0.39182700  0.91075600  0.41913300  1
  O  O37  1  0.60817300  0.08924400  0.58086700  1
  O  O38  1  0.89182700  0.08924400  0.08086700  1
  O  O39  1  0.10817300  0.91075600  0.91913300  1
  O  O40  1  0.71424200  0.79510100  0.23404700  1
  O  O41  1  0.28575800  0.20489900  0.76595300  1
  O  O42  1  0.21424200  0.20489900  0.26595300  1
  O  O43  1  0.78575800  0.79510100  0.73404700  1
  O  O44  1  0.65410200  0.43384900  0.06928900  1
  O  O45  1  0.34589800  0.56615100  0.93071100  1
  O  O46  1  0.15410200  0.56615100  0.43071100  1
  O  O47  1  0.84589800  0.43384900  0.56928900  1
  O  O48  1  0.77500200  0.96964700  0.48622100  1
  O  O49  1  0.22499800  0.03035300  0.51377900  1
  O  O50  1  0.27500200  0.03035300  0.01377900  1
  O  O51  1  0.72499800  0.96964700  0.98622100  1
  O  O52  1  0.65263500  0.44727400  0.36699200  1
  O  O53  1  0.34736500  0.55272600  0.63300800  1
  O  O54  1  0.15263500  0.55272600  0.13300800  1
  O  O55  1  0.84736500  0.44727400  0.86699200  1
  O  O56  1  0.53348700  0.68382200  0.13307000  1
  O  O57  1  0.46651300  0.31617800  0.86693000  1
  O  O58  1  0.03348700  0.31617800  0.36693000  1
  O  O59  1  0.96651300  0.68382200  0.63307000  1
  O  O60  1  0.95355700  0.87549400  0.38674700  1
  O  O61  1  0.04644300  0.12450600  0.61325300  1
  O  O62  1  0.45355700  0.12450600  0.11325300  1
  O  O63  1  0.54644300  0.87549400  0.88674700  1
  O  O64  1  0.97308600  0.76604200  0.14780300  1
  O  O65  1  0.02691400  0.23395800  0.85219700  1
  O  O66  1  0.47308600  0.23395800  0.35219700  1
  O  O67  1  0.52691400  0.76604200  0.64780300  1
