# generated using pymatgen
data_CaHo2(GeO3)4
_symmetry_space_group_name_H-M   'P 1'
_cell_length_a   10.09423266
_cell_length_b   10.09423266
_cell_length_c   5.09553000
_cell_angle_alpha   90.00000000
_cell_angle_beta   90.00000000
_cell_angle_gamma   90.13380550
_symmetry_Int_Tables_number   1
_chemical_formula_structural   CaHo2(GeO3)4
_chemical_formula_sum   'Ca2 Ho4 Ge8 O24'
_cell_volume   519.20013854
_cell_formula_units_Z   2
loop_
 _symmetry_equiv_pos_site_id
 _symmetry_equiv_pos_as_xyz
  1  'x, y, z'
loop_
 _atom_site_type_symbol
 _atom_site_label
 _atom_site_symmetry_multiplicity
 _atom_site_fract_x
 _atom_site_fract_y
 _atom_site_fract_z
 _atom_site_occupancy
  Ca  Ca0  1  0.50000000  0.50000000  0.50000000  1
  Ca  Ca1  1  0.00000000  0.00000000  0.50000000  1
  Ho  Ho2  1  0.00000000  0.50000000  0.50000000  1
  Ho  Ho3  1  0.50000000  0.00000000  0.50000000  1
  Ho  Ho4  1  0.75000000  0.75000000  0.50000000  1
  Ho  Ho5  1  0.25000000  0.25000000  0.50000000  1
  Ge  Ge6  1  0.75032800  0.02061400  0.99716100  1
  Ge  Ge7  1  0.24967200  0.97938600  0.00283900  1
  Ge  Ge8  1  0.25032800  0.52061400  0.00283900  1
  Ge  Ge9  1  0.74967200  0.47938600  0.99716100  1
  Ge  Ge10  1  0.02061400  0.75032800  0.00283900  1
  Ge  Ge11  1  0.97938600  0.24967200  0.99716100  1
  Ge  Ge12  1  0.52061400  0.25032800  0.99716100  1
  Ge  Ge13  1  0.47938600  0.74967200  0.00283900  1
  O  O14  1  0.87029200  0.12970800  0.15196100  1
  O  O15  1  0.37627100  0.87627100  0.16579400  1
  O  O16  1  0.12372900  0.62372900  0.16579400  1
  O  O17  1  0.62970800  0.37029200  0.15196100  1
  O  O18  1  0.12970800  0.87029200  0.84803900  1
  O  O19  1  0.62372900  0.12372900  0.83420600  1
  O  O20  1  0.87627100  0.37627100  0.83420600  1
  O  O21  1  0.37029200  0.62970800  0.84803900  1
  O  O22  1  0.56870200  0.67704300  0.25360000  1
  O  O23  1  0.05853700  0.32777400  0.26012500  1
  O  O24  1  0.44146300  0.17222600  0.26012500  1
  O  O25  1  0.93129800  0.82295700  0.25360000  1
  O  O26  1  0.43129800  0.32295700  0.74640000  1
  O  O27  1  0.94146300  0.67222600  0.73987500  1
  O  O28  1  0.55853700  0.82777400  0.73987500  1
  O  O29  1  0.06870200  0.17704300  0.74640000  1
  O  O30  1  0.67704300  0.56870200  0.74640000  1
  O  O31  1  0.32777400  0.05853700  0.73987500  1
  O  O32  1  0.17222600  0.44146300  0.73987500  1
  O  O33  1  0.82295700  0.93129800  0.74640000  1
  O  O34  1  0.32295700  0.43129800  0.25360000  1
  O  O35  1  0.67222600  0.94146300  0.26012500  1
  O  O36  1  0.82777400  0.55853700  0.26012500  1
  O  O37  1  0.17704300  0.06870200  0.25360000  1
