# generated using pymatgen
data_Ca4Be2Al2Si9(HO14)2
_symmetry_space_group_name_H-M   'P 1'
_cell_length_a   5.07088500
_cell_length_b   12.08959426
_cell_length_c   19.63681800
_cell_angle_alpha   90.00000000
_cell_angle_beta   90.00000000
_cell_angle_gamma   102.10600362
_symmetry_Int_Tables_number   1
_chemical_formula_structural   Ca4Be2Al2Si9(HO14)2
_chemical_formula_sum   'Ca8 Be4 Al4 Si18 H4 O56'
_cell_volume   1177.06224942
_cell_formula_units_Z   2
loop_
 _symmetry_equiv_pos_site_id
 _symmetry_equiv_pos_as_xyz
  1  'x, y, z'
loop_
 _atom_site_type_symbol
 _atom_site_label
 _atom_site_symmetry_multiplicity
 _atom_site_fract_x
 _atom_site_fract_y
 _atom_site_fract_z
 _atom_site_occupancy
  Ca  Ca0  1  0.31218400  0.16592300  0.84807700  1
  Ca  Ca1  1  0.68781600  0.83407700  0.15192300  1
  Ca  Ca2  1  0.68781600  0.83407700  0.34807700  1
  Ca  Ca3  1  0.14626100  0.83407700  0.65192300  1
  Ca  Ca4  1  0.31218400  0.16592300  0.65192300  1
  Ca  Ca5  1  0.85373900  0.16592300  0.34807700  1
  Ca  Ca6  1  0.85373900  0.16592300  0.15192300  1
  Ca  Ca7  1  0.14626100  0.83407700  0.84807700  1
  Be  Be8  1  0.67512800  0.75144400  0.75000000  1
  Be  Be9  1  0.32487200  0.24855600  0.25000000  1
  Be  Be10  1  0.92368400  0.24855600  0.75000000  1
  Be  Be11  1  0.07631600  0.75144400  0.25000000  1
  Al  Al12  1  0.59538300  0.19076600  0.00000000  1
  Al  Al13  1  0.40461700  0.80923400  0.00000000  1
  Al  Al14  1  0.40461700  0.80923400  0.50000000  1
  Al  Al15  1  0.59538300  0.19076600  0.50000000  1
  Si  Si16  1  0.83090100  0.66180100  0.00000000  1
  Si  Si17  1  0.16909900  0.33819900  0.00000000  1
  Si  Si18  1  0.16909900  0.33819900  0.50000000  1
  Si  Si19  1  0.83090100  0.66180100  0.50000000  1
  Si  Si20  1  0.77001300  0.00000000  0.75000000  1
  Si  Si21  1  0.22998700  0.00000000  0.25000000  1
  Si  Si22  1  0.71562900  0.00000000  0.89499600  1
  Si  Si23  1  0.28437100  0.00000000  0.10500400  1
  Si  Si24  1  0.28437100  0.00000000  0.39499600  1
  Si  Si25  1  0.71562900  0.00000000  0.60500400  1
  Si  Si26  1  0.64052500  0.57296400  0.85698200  1
  Si  Si27  1  0.35947500  0.42703600  0.14301800  1
  Si  Si28  1  0.35947500  0.42703600  0.35698200  1
  Si  Si29  1  0.06756100  0.42703600  0.64301800  1
  Si  Si30  1  0.64052500  0.57296400  0.64301800  1
  Si  Si31  1  0.93243900  0.57296400  0.35698200  1
  Si  Si32  1  0.93243900  0.57296400  0.14301800  1
  Si  Si33  1  0.06756100  0.42703600  0.85698200  1
  H  H34  1  0.55898500  0.31305600  0.75000000  1
  H  H35  1  0.44101500  0.68694400  0.25000000  1
  H  H36  1  0.24592900  0.68694400  0.75000000  1
  H  H37  1  0.75407100  0.31305600  0.25000000  1
  O  O38  1  0.59182900  0.23625400  0.75000000  1
  O  O39  1  0.40817100  0.76374600  0.25000000  1
  O  O40  1  0.35557500  0.76374600  0.75000000  1
  O  O41  1  0.64442500  0.23625400  0.25000000  1
  O  O42  1  0.56673400  0.00000000  0.81700400  1
  O  O43  1  0.43326600  0.00000000  0.18299600  1
  O  O44  1  0.43326600  0.00000000  0.31700400  1
  O  O45  1  0.56673400  0.00000000  0.68299600  1
  O  O46  1  0.32310800  0.52926100  0.83575000  1
  O  O47  1  0.67689200  0.47073900  0.16425000  1
  O  O48  1  0.67689200  0.47073900  0.33575000  1
  O  O49  1  0.79384700  0.47073900  0.66425000  1
  O  O50  1  0.32310800  0.52926100  0.66425000  1
  O  O51  1  0.20615300  0.52926100  0.33575000  1
  O  O52  1  0.20615300  0.52926100  0.16425000  1
  O  O53  1  0.79384700  0.47073900  0.83575000  1
  O  O54  1  0.53644400  0.88518000  0.92776200  1
  O  O55  1  0.46355600  0.11482000  0.07223800  1
  O  O56  1  0.46355600  0.11482000  0.42776200  1
  O  O57  1  0.65126400  0.11482000  0.57223800  1
  O  O58  1  0.53644400  0.88518000  0.57223800  1
  O  O59  1  0.34873600  0.88518000  0.42776200  1
  O  O60  1  0.34873600  0.88518000  0.07223800  1
  O  O61  1  0.65126400  0.11482000  0.92776200  1
  O  O62  1  0.88073800  0.88239300  0.75000000  1
  O  O63  1  0.11926200  0.11760700  0.25000000  1
  O  O64  1  0.99834400  0.11760700  0.75000000  1
  O  O65  1  0.00165600  0.88239300  0.25000000  1
  O  O66  1  0.76302200  0.69173700  0.81927800  1
  O  O67  1  0.23697800  0.30826300  0.18072200  1
  O  O68  1  0.23697800  0.30826300  0.31927800  1
  O  O69  1  0.07128500  0.30826300  0.68072200  1
  O  O70  1  0.76302200  0.69173700  0.68072200  1
  O  O71  1  0.92871500  0.69173700  0.31927800  1
  O  O72  1  0.92871500  0.69173700  0.18072200  1
  O  O73  1  0.07128500  0.30826300  0.81927800  1
  O  O74  1  0.35960600  0.26126500  0.96320700  1
  O  O75  1  0.64039400  0.73873500  0.03679300  1
  O  O76  1  0.64039400  0.73873500  0.46320700  1
  O  O77  1  0.09834100  0.73873500  0.53679300  1
  O  O78  1  0.35960600  0.26126500  0.53679300  1
  O  O79  1  0.90165900  0.26126500  0.46320700  1
  O  O80  1  0.90165900  0.26126500  0.03679300  1
  O  O81  1  0.09834100  0.73873500  0.96320700  1
  O  O82  1  0.97026500  0.00000000  0.38598600  1
  O  O83  1  0.02973500  0.00000000  0.61401400  1
  O  O84  1  0.02973500  0.00000000  0.88598600  1
  O  O85  1  0.97026500  0.00000000  0.11401400  1
  O  O86  1  0.65545700  0.58662200  0.94024400  1
  O  O87  1  0.34454300  0.41337800  0.05975600  1
  O  O88  1  0.34454300  0.41337800  0.44024400  1
  O  O89  1  0.06883500  0.41337800  0.55975600  1
  O  O90  1  0.65545700  0.58662200  0.55975600  1
  O  O91  1  0.93116500  0.58662200  0.44024400  1
  O  O92  1  0.93116500  0.58662200  0.05975600  1
  O  O93  1  0.06883500  0.41337800  0.94024400  1
