# generated using pymatgen
data_NaSr3SbO6
_symmetry_space_group_name_H-M   'P 1'
_cell_length_a   6.91926628
_cell_length_b   6.91926628
_cell_length_c   6.91926613
_cell_angle_alpha   91.18726168
_cell_angle_beta   91.18726168
_cell_angle_gamma   91.18727273
_symmetry_Int_Tables_number   1
_chemical_formula_structural   NaSr3SbO6
_chemical_formula_sum   'Na2 Sr6 Sb2 O12'
_cell_volume   331.05213503
_cell_formula_units_Z   2
loop_
 _symmetry_equiv_pos_site_id
 _symmetry_equiv_pos_as_xyz
  1  'x, y, z'
loop_
 _atom_site_type_symbol
 _atom_site_label
 _atom_site_symmetry_multiplicity
 _atom_site_fract_x
 _atom_site_fract_y
 _atom_site_fract_z
 _atom_site_occupancy
  Na  Na0  1  0.75000000  0.75000000  0.75000000  1
  Na  Na1  1  0.25000000  0.25000000  0.25000000  1
  Sr  Sr2  1  0.09966300  0.75000000  0.40033700  1
  Sr  Sr3  1  0.40033700  0.09966300  0.75000000  1
  Sr  Sr4  1  0.25000000  0.59966300  0.90033700  1
  Sr  Sr5  1  0.90033700  0.25000000  0.59966300  1
  Sr  Sr6  1  0.59966300  0.90033700  0.25000000  1
  Sr  Sr7  1  0.75000000  0.40033700  0.09966300  1
  Sb  Sb8  1  0.50000000  0.50000000  0.50000000  1
  Sb  Sb9  1  0.00000000  0.00000000  0.00000000  1
  O  O10  1  0.07295100  0.27992800  0.94584600  1
  O  O11  1  0.94584600  0.07295100  0.27992800  1
  O  O12  1  0.27992800  0.94584600  0.07295100  1
  O  O13  1  0.42704900  0.55415400  0.22007200  1
  O  O14  1  0.22007200  0.42704900  0.55415400  1
  O  O15  1  0.55415400  0.22007200  0.42704900  1
  O  O16  1  0.92704900  0.72007200  0.05415400  1
  O  O17  1  0.05415400  0.92704900  0.72007200  1
  O  O18  1  0.72007200  0.05415400  0.92704900  1
  O  O19  1  0.57295100  0.44584600  0.77992800  1
  O  O20  1  0.44584600  0.77992800  0.57295100  1
  O  O21  1  0.77992800  0.57295100  0.44584600  1
