# generated using pymatgen
data_NaAu(IO3)4
_symmetry_space_group_name_H-M   'P 1'
_cell_length_a   11.14905800
_cell_length_b   4.73999000
_cell_length_c   12.51052124
_cell_angle_alpha   90.00000000
_cell_angle_beta   116.71272516
_cell_angle_gamma   90.00000000
_symmetry_Int_Tables_number   1
_chemical_formula_structural   NaAu(IO3)4
_chemical_formula_sum   'Na2 Au2 I8 O24'
_cell_volume   590.57426583
_cell_formula_units_Z   2
loop_
 _symmetry_equiv_pos_site_id
 _symmetry_equiv_pos_as_xyz
  1  'x, y, z'
loop_
 _atom_site_type_symbol
 _atom_site_label
 _atom_site_symmetry_multiplicity
 _atom_site_fract_x
 _atom_site_fract_y
 _atom_site_fract_z
 _atom_site_occupancy
  Na  Na0  1  0.50000000  0.00000000  0.50000000  1
  Na  Na1  1  0.50000000  0.50000000  0.00000000  1
  Au  Au2  1  0.00000000  0.00000000  0.00000000  1
  Au  Au3  1  0.00000000  0.50000000  0.50000000  1
  I  I4  1  0.34215300  0.55344300  0.67954100  1
  I  I5  1  0.65784700  0.05344300  0.82045900  1
  I  I6  1  0.65784700  0.44655700  0.32045900  1
  I  I7  1  0.34215300  0.94655700  0.17954100  1
  I  I8  1  0.17970000  0.99774100  0.84791900  1
  I  I9  1  0.82030000  0.49774100  0.65208100  1
  I  I10  1  0.82030000  0.00225900  0.15208100  1
  I  I11  1  0.17970000  0.50225900  0.34791900  1
  O  O12  1  0.17549400  0.72004300  0.56447000  1
  O  O13  1  0.82450600  0.22004300  0.93553000  1
  O  O14  1  0.82450600  0.27995700  0.43553000  1
  O  O15  1  0.17549400  0.77995700  0.06447000  1
  O  O16  1  0.34842100  0.71833100  0.81468300  1
  O  O17  1  0.65157900  0.21833100  0.68531700  1
  O  O18  1  0.65157900  0.28166900  0.18531700  1
  O  O19  1  0.34842100  0.78166900  0.31468300  1
  O  O20  1  0.44353000  0.82093300  0.65352600  1
  O  O21  1  0.55647000  0.32093300  0.84647400  1
  O  O22  1  0.55647000  0.17906700  0.34647400  1
  O  O23  1  0.44353000  0.67906700  0.15352600  1
  O  O24  1  0.15956300  0.23713100  0.72925000  1
  O  O25  1  0.84043700  0.73713100  0.77075000  1
  O  O26  1  0.84043700  0.76286900  0.27075000  1
  O  O27  1  0.15956300  0.26286900  0.22925000  1
  O  O28  1  0.32820400  0.13754200  0.97514900  1
  O  O29  1  0.67179600  0.63754200  0.52485100  1
  O  O30  1  0.67179600  0.86245800  0.02485100  1
  O  O31  1  0.32820400  0.36245800  0.47514900  1
  O  O32  1  0.04770600  0.19757400  0.88011300  1
  O  O33  1  0.95229400  0.69757400  0.61988700  1
  O  O34  1  0.95229400  0.80242600  0.11988700  1
  O  O35  1  0.04770600  0.30242600  0.38011300  1
