# generated using pymatgen
data_KBaCeBiO6
_symmetry_space_group_name_H-M   'P 1'
_cell_length_a   8.72081064
_cell_length_b   8.73447917
_cell_length_c   8.71084578
_cell_angle_alpha   90.00000000
_cell_angle_beta   90.00000000
_cell_angle_gamma   90.00000000
_symmetry_Int_Tables_number   1
_chemical_formula_structural   KBaCeBiO6
_chemical_formula_sum   'K4 Ba4 Ce4 Bi4 O24'
_cell_volume   663.52027018
_cell_formula_units_Z   4
loop_
 _symmetry_equiv_pos_site_id
 _symmetry_equiv_pos_as_xyz
  1  'x, y, z'
loop_
 _atom_site_type_symbol
 _atom_site_label
 _atom_site_symmetry_multiplicity
 _atom_site_fract_x
 _atom_site_fract_y
 _atom_site_fract_z
 _atom_site_occupancy
  K  K0  1  0.50000000  -0.00000000  0.50000000  1
  K  K1  1  0.50000000  0.50000000  0.00000000  1
  K  K2  1  -0.00000000  0.50000000  -0.00000000  1
  K  K3  1  -0.00000000  -0.00000000  0.50000000  1
  Ba  Ba4  1  -0.00000000  0.50000000  0.50000000  1
  Ba  Ba5  1  0.50000000  -0.00000000  -0.00000000  1
  Ba  Ba6  1  -0.00000000  -0.00000000  -0.00000000  1
  Ba  Ba7  1  0.50000000  0.50000000  0.50000000  1
  Ce  Ce8  1  0.25000000  0.25000000  0.25000000  1
  Ce  Ce9  1  0.75000000  0.75000000  0.25000000  1
  Ce  Ce10  1  0.75000000  0.25000000  0.75000000  1
  Ce  Ce11  1  0.25000000  0.75000000  0.75000000  1
  Bi  Bi12  1  0.75000000  0.75000000  0.75000000  1
  Bi  Bi13  1  0.25000000  0.25000000  0.75000000  1
  Bi  Bi14  1  0.25000000  0.75000000  0.25000000  1
  Bi  Bi15  1  0.75000000  0.25000000  0.25000000  1
  O  O16  1  0.99493286  0.23544095  0.26609975  1
  O  O17  1  0.00506714  0.76455905  0.26609975  1
  O  O18  1  0.00506714  0.23544095  0.73390025  1
  O  O19  1  0.99493286  0.76455905  0.73390025  1
  O  O20  1  0.26295318  0.99474211  0.22552670  1
  O  O21  1  0.26295318  0.00525789  0.77447330  1
  O  O22  1  0.73704682  0.00525789  0.22552670  1
  O  O23  1  0.73704682  0.99474211  0.77447330  1
  O  O24  1  0.23233709  0.25633482  0.99512857  1
  O  O25  1  0.76766291  0.25633482  0.00487143  1
  O  O26  1  0.23233709  0.74366518  0.00487143  1
  O  O27  1  0.76766291  0.74366518  0.99512857  1
  O  O28  1  0.50506714  0.26455905  0.23390025  1
  O  O29  1  0.49493286  0.73544095  0.23390025  1
  O  O30  1  0.49493286  0.26455905  0.76609975  1
  O  O31  1  0.50506714  0.73544095  0.76609975  1
  O  O32  1  0.23704682  0.50525789  0.27447330  1
  O  O33  1  0.23704682  0.49474211  0.72552670  1
  O  O34  1  0.76295318  0.49474211  0.27447330  1
  O  O35  1  0.76295318  0.50525789  0.72552670  1
  O  O36  1  0.26766291  0.24366518  0.50487143  1
  O  O37  1  0.73233709  0.24366518  0.49512857  1
  O  O38  1  0.26766291  0.75633482  0.49512857  1
  O  O39  1  0.73233709  0.75633482  0.50487143  1
