# generated using pymatgen
data_Ba6Nd2Ga4O15
_symmetry_space_group_name_H-M   'P 1'
_cell_length_a   6.11287600
_cell_length_b   8.15525546
_cell_length_c   18.85184521
_cell_angle_alpha   91.05405567
_cell_angle_beta   90.00000000
_cell_angle_gamma   90.00000000
_symmetry_Int_Tables_number   1
_chemical_formula_structural   Ba6Nd2Ga4O15
_chemical_formula_sum   'Ba12 Nd4 Ga8 O30'
_cell_volume   939.64439122
_cell_formula_units_Z   2
loop_
 _symmetry_equiv_pos_site_id
 _symmetry_equiv_pos_as_xyz
  1  'x, y, z'
loop_
 _atom_site_type_symbol
 _atom_site_label
 _atom_site_symmetry_multiplicity
 _atom_site_fract_x
 _atom_site_fract_y
 _atom_site_fract_z
 _atom_site_occupancy
  Ba  Ba0  1  0.75558700  0.49929000  0.41993900  1
  Ba  Ba1  1  0.24441300  0.50071000  0.58006100  1
  Ba  Ba2  1  0.75558700  0.50071000  0.08006100  1
  Ba  Ba3  1  0.24441300  0.49929000  0.91993900  1
  Ba  Ba4  1  0.74099400  0.96768200  0.40869000  1
  Ba  Ba5  1  0.25900600  0.03231800  0.59131000  1
  Ba  Ba6  1  0.74099400  0.03231800  0.09131000  1
  Ba  Ba7  1  0.25900600  0.96768200  0.90869000  1
  Ba  Ba8  1  0.72519600  0.00000000  0.75000000  1
  Ba  Ba9  1  0.27480400  0.00000000  0.25000000  1
  Ba  Ba10  1  0.66537100  0.50000000  0.75000000  1
  Ba  Ba11  1  0.33462900  0.50000000  0.25000000  1
  Nd  Nd12  1  0.74497600  0.75236100  0.59039100  1
  Nd  Nd13  1  0.25502400  0.24763900  0.40960900  1
  Nd  Nd14  1  0.74497600  0.24763900  0.90960900  1
  Nd  Nd15  1  0.25502400  0.75236100  0.09039100  1
  Ga  Ga16  1  0.75444200  0.75328700  0.93940800  1
  Ga  Ga17  1  0.24555800  0.24671300  0.06059200  1
  Ga  Ga18  1  0.75444200  0.24671300  0.56059200  1
  Ga  Ga19  1  0.24555800  0.75328700  0.43940800  1
  Ga  Ga20  1  0.77755900  0.77147000  0.23638100  1
  Ga  Ga21  1  0.22244100  0.22853000  0.76361900  1
  Ga  Ga22  1  0.77755900  0.22853000  0.26361900  1
  Ga  Ga23  1  0.22244100  0.77147000  0.73638100  1
  O  O24  1  0.21098500  0.00000000  0.75000000  1
  O  O25  1  0.78901500  0.00000000  0.25000000  1
  O  O26  1  0.49313100  0.76536000  0.49874200  1
  O  O27  1  0.50686900  0.23464000  0.50125800  1
  O  O28  1  0.49313100  0.23464000  0.00125800  1
  O  O29  1  0.50686900  0.76536000  0.99874200  1
  O  O30  1  0.76007200  0.94947000  0.88855000  1
  O  O31  1  0.23992800  0.05053000  0.11145000  1
  O  O32  1  0.76007200  0.05053000  0.61145000  1
  O  O33  1  0.23992800  0.94947000  0.38855000  1
  O  O34  1  0.99808200  0.76291100  0.49986900  1
  O  O35  1  0.00191800  0.23708900  0.50013100  1
  O  O36  1  0.99808200  0.23708900  0.00013100  1
  O  O37  1  0.00191800  0.76291100  0.99986900  1
  O  O38  1  0.32331400  0.69158100  0.82007800  1
  O  O39  1  0.67668600  0.30841900  0.17992200  1
  O  O40  1  0.32331400  0.30841900  0.67992200  1
  O  O41  1  0.67668600  0.69158100  0.32007800  1
  O  O42  1  0.43978900  0.74581200  0.66601300  1
  O  O43  1  0.56021100  0.25418800  0.33398700  1
  O  O44  1  0.43978900  0.25418800  0.83398700  1
  O  O45  1  0.56021100  0.74581200  0.16601300  1
  O  O46  1  0.95221900  0.72695200  0.69610700  1
  O  O47  1  0.04778100  0.27304800  0.30389300  1
  O  O48  1  0.95221900  0.27304800  0.80389300  1
  O  O49  1  0.04778100  0.72695200  0.19610700  1
  O  O50  1  0.75754300  0.53727700  0.90484500  1
  O  O51  1  0.24245700  0.46272300  0.09515500  1
  O  O52  1  0.75754300  0.46272300  0.59515500  1
  O  O53  1  0.24245700  0.53727700  0.40484500  1
