# generated using pymatgen
data_Yb2Ge
_symmetry_space_group_name_H-M   'P 1'
_cell_length_a   4.81773000
_cell_length_b   7.46135000
_cell_length_c   8.95410800
_cell_angle_alpha   90.00000000
_cell_angle_beta   90.00000000
_cell_angle_gamma   90.00000000
_symmetry_Int_Tables_number   1
_chemical_formula_structural   Yb2Ge
_chemical_formula_sum   'Yb8 Ge4'
_cell_volume   321.87125846
_cell_formula_units_Z   4
loop_
 _symmetry_equiv_pos_site_id
 _symmetry_equiv_pos_as_xyz
  1  'x, y, z'
loop_
 _atom_site_type_symbol
 _atom_site_label
 _atom_site_symmetry_multiplicity
 _atom_site_fract_x
 _atom_site_fract_y
 _atom_site_fract_z
 _atom_site_occupancy
  Yb  Yb0  1  0.75000000  0.84351600  0.07600300  1
  Yb  Yb1  1  0.25000000  0.15648400  0.92399700  1
  Yb  Yb2  1  0.75000000  0.34351600  0.42399700  1
  Yb  Yb3  1  0.25000000  0.65648400  0.57600300  1
  Yb  Yb4  1  0.25000000  0.51937300  0.18093700  1
  Yb  Yb5  1  0.75000000  0.48062700  0.81906300  1
  Yb  Yb6  1  0.25000000  0.01937300  0.31906300  1
  Yb  Yb7  1  0.75000000  0.98062700  0.68093700  1
  Ge  Ge8  1  0.25000000  0.75138800  0.89669700  1
  Ge  Ge9  1  0.75000000  0.24861200  0.10330300  1
  Ge  Ge10  1  0.25000000  0.25138800  0.60330300  1
  Ge  Ge11  1  0.75000000  0.74861200  0.39669700  1
