# generated using pymatgen
data_KCr12Si8ClO28
_symmetry_space_group_name_H-M   'P 1'
_cell_length_a   9.95710004
_cell_length_b   9.95710004
_cell_length_c   9.95710004
_cell_angle_alpha   115.97090402
_cell_angle_beta   115.97090402
_cell_angle_gamma   97.13286565
_symmetry_Int_Tables_number   1
_chemical_formula_structural   KCr12Si8ClO28
_chemical_formula_sum   'K1 Cr12 Si8 Cl1 O28'
_cell_volume   734.38805861
_cell_formula_units_Z   1
loop_
 _symmetry_equiv_pos_site_id
 _symmetry_equiv_pos_as_xyz
  1  'x, y, z'
loop_
 _atom_site_type_symbol
 _atom_site_label
 _atom_site_symmetry_multiplicity
 _atom_site_fract_x
 _atom_site_fract_y
 _atom_site_fract_z
 _atom_site_occupancy
  K  K0  1  0.04308900  0.04308900  0.00000000  1
  Cr  Cr1  1  0.28317900  0.05685100  0.77367300  1
  Cr  Cr2  1  0.28317900  0.50950600  0.22632700  1
  Cr  Cr3  1  0.50950600  0.28317900  0.22632700  1
  Cr  Cr4  1  0.05685100  0.28317900  0.77367300  1
  Cr  Cr5  1  0.71960600  0.95006100  0.23045500  1
  Cr  Cr6  1  0.71960600  0.48915100  0.76954500  1
  Cr  Cr7  1  0.48915100  0.71960600  0.76954500  1
  Cr  Cr8  1  0.95006100  0.71960600  0.23045500  1
  Cr  Cr9  1  0.49975000  0.18128700  0.68153600  1
  Cr  Cr10  1  0.49975000  0.81821400  0.31846400  1
  Cr  Cr11  1  0.81821400  0.49975000  0.31846400  1
  Cr  Cr12  1  0.18128700  0.49975000  0.68153600  1
  Si  Si13  1  0.88936500  0.88936500  0.55506000  1
  Si  Si14  1  0.33430500  0.33430500  0.44494000  1
  Si  Si15  1  0.33430500  0.88936500  0.00000000  1
  Si  Si16  1  0.88936500  0.33430500  0.00000000  1
  Si  Si17  1  0.10917100  0.10917100  0.44247100  1
  Si  Si18  1  0.66670000  0.66670000  0.55752900  1
  Si  Si19  1  0.66670000  0.10917100  0.00000000  1
  Si  Si20  1  0.10917100  0.66670000  0.00000000  1
  Cl  Cl21  1  0.43108600  0.43108600  0.00000000  1
  O  O22  1  0.25485900  0.07124500  0.56331700  1
  O  O23  1  0.50792800  0.69154200  0.43668300  1
  O  O24  1  0.50792800  0.07124500  0.81638600  1
  O  O25  1  0.25485900  0.69154200  0.18361400  1
  O  O26  1  0.69154200  0.25485900  0.18361400  1
  O  O27  1  0.07124500  0.50792800  0.81638600  1
  O  O28  1  0.07124500  0.25485900  0.56331700  1
  O  O29  1  0.69154200  0.50792800  0.43668300  1
  O  O30  1  0.74352800  0.92627300  0.43325500  1
  O  O31  1  0.49301900  0.31027400  0.56674500  1
  O  O32  1  0.49301900  0.92627300  0.18274500  1
  O  O33  1  0.74352800  0.31027400  0.81725500  1
  O  O34  1  0.31027400  0.74352800  0.81725500  1
  O  O35  1  0.92627300  0.49301900  0.18274500  1
  O  O36  1  0.92627300  0.74352800  0.43325500  1
  O  O37  1  0.31027400  0.49301900  0.56674500  1
  O  O38  1  0.82836400  0.82836400  0.65618100  1
  O  O39  1  0.17218400  0.17218400  0.34381900  1
  O  O40  1  0.17218400  0.82836400  0.00000000  1
  O  O41  1  0.82836400  0.17218400  0.00000000  1
  O  O42  1  0.05460900  0.05460900  0.71094000  1
  O  O43  1  0.34366800  0.34366800  0.28906000  1
  O  O44  1  0.34366800  0.05460900  0.00000000  1
  O  O45  1  0.05460900  0.34366800  0.00000000  1
  O  O46  1  0.94382700  0.94382700  0.28969500  1
  O  O47  1  0.65413200  0.65413200  0.71030500  1
  O  O48  1  0.65413200  0.94382700  0.00000000  1
  O  O49  1  0.94382700  0.65413200  0.00000000  1
