# generated using pymatgen
data_As3Pb5O12F
_symmetry_space_group_name_H-M   'P 1'
_cell_length_a   10.30365973
_cell_length_b   10.30365973
_cell_length_c   7.60669900
_cell_angle_alpha   90.00000000
_cell_angle_beta   90.00000000
_cell_angle_gamma   119.99999827
_symmetry_Int_Tables_number   1
_chemical_formula_structural   As3Pb5O12F
_chemical_formula_sum   'As6 Pb10 O24 F2'
_cell_volume   699.37465032
_cell_formula_units_Z   2
loop_
 _symmetry_equiv_pos_site_id
 _symmetry_equiv_pos_as_xyz
  1  'x, y, z'
loop_
 _atom_site_type_symbol
 _atom_site_label
 _atom_site_symmetry_multiplicity
 _atom_site_fract_x
 _atom_site_fract_y
 _atom_site_fract_z
 _atom_site_occupancy
  As  As0  1  0.39831200  0.02758200  0.25000000  1
  As  As1  1  0.60168800  0.97241800  0.75000000  1
  As  As2  1  0.97241800  0.37073000  0.25000000  1
  As  As3  1  0.02758200  0.62927000  0.75000000  1
  As  As4  1  0.62927000  0.60168800  0.25000000  1
  As  As5  1  0.37073000  0.39831200  0.75000000  1
  Pb  Pb6  1  0.33333300  0.66666700  0.00272900  1
  Pb  Pb7  1  0.66666700  0.33333300  0.99727100  1
  Pb  Pb8  1  0.66666700  0.33333300  0.50272900  1
  Pb  Pb9  1  0.33333300  0.66666700  0.49727100  1
  Pb  Pb10  1  0.24593800  0.24342400  0.25000000  1
  Pb  Pb11  1  0.75406200  0.75657600  0.75000000  1
  Pb  Pb12  1  0.75657600  0.00251400  0.25000000  1
  Pb  Pb13  1  0.24342400  0.99748600  0.75000000  1
  Pb  Pb14  1  0.99748600  0.75406200  0.25000000  1
  Pb  Pb15  1  0.00251400  0.24593800  0.75000000  1
  O  O16  1  0.16390300  0.49000900  0.25000000  1
  O  O17  1  0.83609700  0.50999100  0.75000000  1
  O  O18  1  0.50999100  0.67389400  0.25000000  1
  O  O19  1  0.49000900  0.32610600  0.75000000  1
  O  O20  1  0.32610600  0.83609700  0.25000000  1
  O  O21  1  0.67389400  0.16390300  0.75000000  1
  O  O22  1  0.59350700  0.12190900  0.25000000  1
  O  O23  1  0.40649300  0.87809100  0.75000000  1
  O  O24  1  0.87809100  0.47159800  0.25000000  1
  O  O25  1  0.12190900  0.52840200  0.75000000  1
  O  O26  1  0.52840200  0.40649300  0.25000000  1
  O  O27  1  0.47159800  0.59350700  0.75000000  1
  O  O28  1  0.34219600  0.08992000  0.06997700  1
  O  O29  1  0.65780400  0.91008000  0.93002300  1
  O  O30  1  0.91008000  0.25227500  0.06997700  1
  O  O31  1  0.65780400  0.91008000  0.56997700  1
  O  O32  1  0.08992000  0.74772500  0.93002300  1
  O  O33  1  0.34219600  0.08992000  0.43002300  1
  O  O34  1  0.74772500  0.65780400  0.06997700  1
  O  O35  1  0.08992000  0.74772500  0.56997700  1
  O  O36  1  0.25227500  0.34219600  0.93002300  1
  O  O37  1  0.91008000  0.25227500  0.43002300  1
  O  O38  1  0.25227500  0.34219600  0.56997700  1
  O  O39  1  0.74772500  0.65780400  0.43002300  1
  F  F40  1  0.00000000  0.00000000  0.25000000  1
  F  F41  1  0.00000000  0.00000000  0.75000000  1
