# generated using pymatgen
data_Sr3Tm2(GeO4)3
_symmetry_space_group_name_H-M   'P 1'
_cell_length_a   11.40060090
_cell_length_b   11.40060090
_cell_length_c   11.40060090
_cell_angle_alpha   109.47122063
_cell_angle_beta   109.47122063
_cell_angle_gamma   109.47122063
_symmetry_Int_Tables_number   1
_chemical_formula_structural   Sr3Tm2(GeO4)3
_chemical_formula_sum   'Sr12 Tm8 Ge12 O48'
_cell_volume   1140.67346120
_cell_formula_units_Z   4
loop_
 _symmetry_equiv_pos_site_id
 _symmetry_equiv_pos_as_xyz
  1  'x, y, z'
loop_
 _atom_site_type_symbol
 _atom_site_label
 _atom_site_symmetry_multiplicity
 _atom_site_fract_x
 _atom_site_fract_y
 _atom_site_fract_z
 _atom_site_occupancy
  Sr  Sr0  1  0.25000000  0.37500000  0.12500000  1
  Sr  Sr1  1  0.75000000  0.62500000  0.87500000  1
  Sr  Sr2  1  0.75000000  0.12500000  0.37500000  1
  Sr  Sr3  1  0.12500000  0.25000000  0.37500000  1
  Sr  Sr4  1  0.37500000  0.75000000  0.12500000  1
  Sr  Sr5  1  0.25000000  0.87500000  0.62500000  1
  Sr  Sr6  1  0.87500000  0.75000000  0.62500000  1
  Sr  Sr7  1  0.62500000  0.25000000  0.87500000  1
  Sr  Sr8  1  0.37500000  0.12500000  0.25000000  1
  Sr  Sr9  1  0.62500000  0.87500000  0.75000000  1
  Sr  Sr10  1  0.12500000  0.37500000  0.75000000  1
  Sr  Sr11  1  0.87500000  0.62500000  0.25000000  1
  Tm  Tm12  1  0.00000000  0.00000000  0.00000000  1
  Tm  Tm13  1  0.50000000  0.00000000  0.50000000  1
  Tm  Tm14  1  0.00000000  0.50000000  0.50000000  1
  Tm  Tm15  1  0.50000000  0.00000000  0.00000000  1
  Tm  Tm16  1  0.50000000  0.50000000  0.00000000  1
  Tm  Tm17  1  0.50000000  0.50000000  0.50000000  1
  Tm  Tm18  1  0.00000000  0.00000000  0.50000000  1
  Tm  Tm19  1  0.00000000  0.50000000  0.00000000  1
  Ge  Ge20  1  0.25000000  0.62500000  0.37500000  1
  Ge  Ge21  1  0.75000000  0.37500000  0.62500000  1
  Ge  Ge22  1  0.75000000  0.87500000  0.12500000  1
  Ge  Ge23  1  0.37500000  0.25000000  0.62500000  1
  Ge  Ge24  1  0.62500000  0.75000000  0.37500000  1
  Ge  Ge25  1  0.25000000  0.12500000  0.87500000  1
  Ge  Ge26  1  0.12500000  0.75000000  0.87500000  1
  Ge  Ge27  1  0.87500000  0.25000000  0.12500000  1
  Ge  Ge28  1  0.62500000  0.37500000  0.25000000  1
  Ge  Ge29  1  0.37500000  0.62500000  0.75000000  1
  Ge  Ge30  1  0.87500000  0.12500000  0.75000000  1
  Ge  Ge31  1  0.12500000  0.87500000  0.25000000  1
  O  O32  1  0.48916000  0.38110500  0.29321600  1
  O  O33  1  0.51084000  0.61889500  0.70678400  1
  O  O34  1  0.58788900  0.19594400  0.20678400  1
  O  O35  1  0.91211100  0.11889500  0.60805500  1
  O  O36  1  0.29321600  0.48916000  0.38110500  1
  O  O37  1  0.30405600  0.91211100  0.29321600  1
  O  O38  1  0.41211100  0.80405600  0.79321600  1
  O  O39  1  0.08788900  0.88110500  0.39194500  1
  O  O40  1  0.70678400  0.51084000  0.61889500  1
  O  O41  1  0.69594400  0.08788900  0.70678400  1
  O  O42  1  0.01084000  0.30405600  0.89194500  1
  O  O43  1  0.20678400  0.58788900  0.19594400  1
  O  O44  1  0.11889500  0.01084000  0.20678400  1
  O  O45  1  0.98916000  0.69594400  0.10805500  1
  O  O46  1  0.79321600  0.41211100  0.80405600  1
  O  O47  1  0.88110500  0.98916000  0.79321600  1
  O  O48  1  0.60805500  0.91211100  0.11889500  1
  O  O49  1  0.19594400  0.48916000  0.60805500  1
  O  O50  1  0.39194500  0.08788900  0.88110500  1
  O  O51  1  0.80405600  0.51084000  0.39194500  1
  O  O52  1  0.89194500  0.01084000  0.30405600  1
  O  O53  1  0.38110500  0.58788900  0.89194500  1
  O  O54  1  0.10805500  0.98916000  0.69594400  1
  O  O55  1  0.61889500  0.41211100  0.10805500  1
  O  O56  1  0.38110500  0.29321600  0.48916000  1
  O  O57  1  0.58788900  0.89194500  0.38110500  1
  O  O58  1  0.61889500  0.70678400  0.51084000  1
  O  O59  1  0.41211100  0.10805500  0.61889500  1
  O  O60  1  0.11889500  0.60805500  0.91211100  1
  O  O61  1  0.01084000  0.20678400  0.11889500  1
  O  O62  1  0.88110500  0.39194500  0.08788900  1
  O  O63  1  0.98916000  0.79321600  0.88110500  1
  O  O64  1  0.30405600  0.89194500  0.01084000  1
  O  O65  1  0.91211100  0.29321600  0.30405600  1
  O  O66  1  0.69594400  0.10805500  0.98916000  1
  O  O67  1  0.08788900  0.70678400  0.69594400  1
  O  O68  1  0.19594400  0.20678400  0.58788900  1
  O  O69  1  0.48916000  0.60805500  0.19594400  1
  O  O70  1  0.80405600  0.79321600  0.41211100  1
  O  O71  1  0.51084000  0.39194500  0.80405600  1
  O  O72  1  0.29321600  0.30405600  0.91211100  1
  O  O73  1  0.70678400  0.69594400  0.08788900  1
  O  O74  1  0.20678400  0.11889500  0.01084000  1
  O  O75  1  0.79321600  0.88110500  0.98916000  1
  O  O76  1  0.89194500  0.38110500  0.58788900  1
  O  O77  1  0.10805500  0.61889500  0.41211100  1
  O  O78  1  0.60805500  0.19594400  0.48916000  1
  O  O79  1  0.39194500  0.80405600  0.51084000  1
