# generated using pymatgen
data_Co(SbO2)2
_symmetry_space_group_name_H-M   'P 1'
_cell_length_a   6.09945101
_cell_length_b   8.58780421
_cell_length_c   8.58762721
_cell_angle_alpha   89.97498058
_cell_angle_beta   90.00352108
_cell_angle_gamma   90.00340193
_symmetry_Int_Tables_number   1
_chemical_formula_structural   Co(SbO2)2
_chemical_formula_sum   'Co4 Sb8 O16'
_cell_volume   449.82752037
_cell_formula_units_Z   4
loop_
 _symmetry_equiv_pos_site_id
 _symmetry_equiv_pos_as_xyz
  1  'x, y, z'
loop_
 _atom_site_type_symbol
 _atom_site_label
 _atom_site_symmetry_multiplicity
 _atom_site_fract_x
 _atom_site_fract_y
 _atom_site_fract_z
 _atom_site_occupancy
  Co  Co0  1  0.24999600  0.49999800  0.00000000  1
  Co  Co1  1  0.74999000  0.49999900  0.99999900  1
  Co  Co2  1  0.75010100  0.00000500  0.49999400  1
  Co  Co3  1  0.24996600  0.00000000  0.50000200  1
  Sb  Sb4  1  0.49999900  0.33383300  0.32424700  1
  Sb  Sb5  1  0.99999400  0.32412400  0.66612600  1
  Sb  Sb6  1  0.49999700  0.16612600  0.82410800  1
  Sb  Sb7  1  0.00000000  0.82423700  0.83382600  1
  Sb  Sb8  1  0.50000300  0.66617000  0.67575300  1
  Sb  Sb9  1  0.99999600  0.67588300  0.33387700  1
  Sb  Sb10  1  0.49999900  0.83386900  0.17588800  1
  Sb  Sb11  1  0.00000400  0.17575800  0.16617400  1
  O  O12  1  0.49999400  0.86127000  0.40346500  1
  O  O13  1  0.00000200  0.40362500  0.13852900  1
  O  O14  1  0.50000400  0.63853100  0.90362700  1
  O  O15  1  0.99999600  0.90346100  0.36125200  1
  O  O16  1  0.49997100  0.13874200  0.59654800  1
  O  O17  1  0.00000500  0.59638100  0.86146600  1
  O  O18  1  0.50000400  0.36146300  0.09637900  1
  O  O19  1  0.99997400  0.09652600  0.63873600  1
  O  O20  1  0.75000300  0.32255800  0.82255600  1
  O  O21  1  0.25000300  0.82240200  0.67759400  1
  O  O22  1  0.74999900  0.17760100  0.32241100  1
  O  O23  1  0.24999600  0.32255800  0.82256000  1
  O  O24  1  0.75000200  0.82239100  0.67759600  1
  O  O25  1  0.24999600  0.17759900  0.32240400  1
  O  O26  1  0.25000500  0.67744400  0.17744100  1
  O  O27  1  0.75000100  0.67744500  0.17744500  1
