# generated using pymatgen
data_Pb2SeN2O9
_symmetry_space_group_name_H-M   'P 1'
_cell_length_a   5.58190700
_cell_length_b   7.42154700
_cell_length_c   10.51590500
_cell_angle_alpha   90.00000000
_cell_angle_beta   90.00000000
_cell_angle_gamma   90.00000000
_symmetry_Int_Tables_number   1
_chemical_formula_structural   Pb2SeN2O9
_chemical_formula_sum   'Pb4 Se2 N4 O18'
_cell_volume   435.63593073
_cell_formula_units_Z   2
loop_
 _symmetry_equiv_pos_site_id
 _symmetry_equiv_pos_as_xyz
  1  'x, y, z'
loop_
 _atom_site_type_symbol
 _atom_site_label
 _atom_site_symmetry_multiplicity
 _atom_site_fract_x
 _atom_site_fract_y
 _atom_site_fract_z
 _atom_site_occupancy
  Pb  Pb0  1  0.50000000  0.89128800  0.15585300  1
  Pb  Pb1  1  0.00000000  0.39128800  0.84414700  1
  Pb  Pb2  1  0.50000000  0.07133900  0.52255600  1
  Pb  Pb3  1  0.00000000  0.57133900  0.47744400  1
  Se  Se4  1  0.50000000  0.63555600  0.67979000  1
  Se  Se5  1  0.00000000  0.13555600  0.32021000  1
  N  N6  1  0.50000000  0.26508900  0.00007500  1
  N  N7  1  0.00000000  0.76508900  0.99992500  1
  N  N8  1  0.00000000  0.00675000  0.71888800  1
  N  N9  1  0.50000000  0.50675000  0.28111200  1
  O  O10  1  0.50000000  0.74350600  0.53395600  1
  O  O11  1  0.00000000  0.24350600  0.46604400  1
  O  O12  1  0.25761800  0.49015500  0.65767100  1
  O  O13  1  0.74238200  0.49015500  0.65767100  1
  O  O14  1  0.24238200  0.99015500  0.34232900  1
  O  O15  1  0.75761800  0.99015500  0.34232900  1
  O  O16  1  0.50000000  0.37318300  0.90682900  1
  O  O17  1  0.00000000  0.87318300  0.09317100  1
  O  O18  1  0.30288800  0.20987000  0.04606600  1
  O  O19  1  0.69711200  0.20987000  0.04606600  1
  O  O20  1  0.19711200  0.70987000  0.95393400  1
  O  O21  1  0.80288800  0.70987000  0.95393400  1
  O  O22  1  0.50000000  0.36914900  0.34978300  1
  O  O23  1  0.00000000  0.86914900  0.65021700  1
  O  O24  1  0.19693900  0.07907000  0.75356400  1
  O  O25  1  0.80306100  0.07907000  0.75356400  1
  O  O26  1  0.30306100  0.57907000  0.24643600  1
  O  O27  1  0.69693900  0.57907000  0.24643600  1
