# generated using pymatgen
data_CsRbZr6BCl15
_symmetry_space_group_name_H-M   'P 1'
_cell_length_a   10.01148600
_cell_length_b   14.34828200
_cell_length_c   19.16939100
_cell_angle_alpha   90.00000000
_cell_angle_beta   90.00000000
_cell_angle_gamma   90.00000000
_symmetry_Int_Tables_number   1
_chemical_formula_structural   CsRbZr6BCl15
_chemical_formula_sum   'Cs4 Rb4 Zr24 B4 Cl60'
_cell_volume   2753.63747771
_cell_formula_units_Z   4
loop_
 _symmetry_equiv_pos_site_id
 _symmetry_equiv_pos_as_xyz
  1  'x, y, z'
loop_
 _atom_site_type_symbol
 _atom_site_label
 _atom_site_symmetry_multiplicity
 _atom_site_fract_x
 _atom_site_fract_y
 _atom_site_fract_z
 _atom_site_occupancy
  Cs  Cs0  1  0.40689100  0.50000000  0.75000000  1
  Cs  Cs1  1  0.59310900  0.50000000  0.25000000  1
  Cs  Cs2  1  0.00000000  0.00000000  0.50000000  1
  Cs  Cs3  1  0.00000000  0.00000000  0.00000000  1
  Rb  Rb4  1  0.84226200  0.25131700  0.75000000  1
  Rb  Rb5  1  0.15773800  0.74868300  0.25000000  1
  Rb  Rb6  1  0.84226200  0.74868300  0.75000000  1
  Rb  Rb7  1  0.15773800  0.25131700  0.25000000  1
  Zr  Zr8  1  0.58241400  0.00000000  0.75000000  1
  Zr  Zr9  1  0.41758600  0.00000000  0.25000000  1
  Zr  Zr10  1  0.07846300  0.50000000  0.11286600  1
  Zr  Zr11  1  0.92153700  0.50000000  0.88713400  1
  Zr  Zr12  1  0.07846300  0.50000000  0.38713400  1
  Zr  Zr13  1  0.92153700  0.50000000  0.61286600  1
  Zr  Zr14  1  0.15594100  0.38510300  0.52893500  1
  Zr  Zr15  1  0.84405900  0.61489700  0.47106500  1
  Zr  Zr16  1  0.15594100  0.61489700  0.97106500  1
  Zr  Zr17  1  0.84405900  0.38510300  0.47106500  1
  Zr  Zr18  1  0.84405900  0.38510300  0.02893500  1
  Zr  Zr19  1  0.15594100  0.61489700  0.52893500  1
  Zr  Zr20  1  0.84405900  0.61489700  0.02893500  1
  Zr  Zr21  1  0.15594100  0.38510300  0.97106500  1
  Zr  Zr22  1  0.35217800  0.11521100  0.66368500  1
  Zr  Zr23  1  0.64782200  0.88478900  0.33631500  1
  Zr  Zr24  1  0.35217800  0.88478900  0.83631500  1
  Zr  Zr25  1  0.64782200  0.11521100  0.33631500  1
  Zr  Zr26  1  0.64782200  0.11521100  0.16368500  1
  Zr  Zr27  1  0.35217800  0.88478900  0.66368500  1
  Zr  Zr28  1  0.64782200  0.88478900  0.16368500  1
  Zr  Zr29  1  0.35217800  0.11521100  0.83631500  1
  Zr  Zr30  1  0.12413900  0.00000000  0.75000000  1
  Zr  Zr31  1  0.87586100  0.00000000  0.25000000  1
  B  B32  1  0.35399600  0.00000000  0.75000000  1
  B  B33  1  0.64600400  0.00000000  0.25000000  1
  B  B34  1  0.00000000  0.50000000  0.50000000  1
  B  B35  1  0.00000000  0.50000000  0.00000000  1
  Cl  Cl36  1  0.00000000  0.24860200  0.50000000  1
  Cl  Cl37  1  0.00000000  0.75139800  0.50000000  1
  Cl  Cl38  1  0.00000000  0.75139800  0.00000000  1
  Cl  Cl39  1  0.00000000  0.24860200  0.00000000  1
  Cl  Cl40  1  0.08527400  0.37638300  0.65785700  1
  Cl  Cl41  1  0.91472600  0.62361700  0.34214300  1
  Cl  Cl42  1  0.08527400  0.62361700  0.84214300  1
  Cl  Cl43  1  0.91472600  0.37638300  0.34214300  1
  Cl  Cl44  1  0.91472600  0.37638300  0.15785700  1
  Cl  Cl45  1  0.08527400  0.62361700  0.65785700  1
  Cl  Cl46  1  0.91472600  0.62361700  0.15785700  1
  Cl  Cl47  1  0.08527400  0.37638300  0.84214300  1
  Cl  Cl48  1  0.34204300  0.50000000  0.56290100  1
  Cl  Cl49  1  0.65795700  0.50000000  0.43709900  1
  Cl  Cl50  1  0.34204300  0.50000000  0.93709900  1
  Cl  Cl51  1  0.65795700  0.50000000  0.06290100  1
  Cl  Cl52  1  0.35842800  0.25226600  0.75000000  1
  Cl  Cl53  1  0.64157200  0.74773400  0.25000000  1
  Cl  Cl54  1  0.35842800  0.74773400  0.75000000  1
  Cl  Cl55  1  0.64157200  0.25226600  0.25000000  1
  Cl  Cl56  1  0.33641300  0.25099200  0.56531600  1
  Cl  Cl57  1  0.66358700  0.74900800  0.43468400  1
  Cl  Cl58  1  0.33641300  0.74900800  0.93468400  1
  Cl  Cl59  1  0.66358700  0.25099200  0.43468400  1
  Cl  Cl60  1  0.66358700  0.25099200  0.06531600  1
  Cl  Cl61  1  0.33641300  0.74900800  0.56531600  1
  Cl  Cl62  1  0.66358700  0.74900800  0.06531600  1
  Cl  Cl63  1  0.33641300  0.25099200  0.93468400  1
  Cl  Cl64  1  0.09474600  0.12557700  0.65636100  1
  Cl  Cl65  1  0.90525400  0.87442300  0.34363900  1
  Cl  Cl66  1  0.09474600  0.87442300  0.84363900  1
  Cl  Cl67  1  0.90525400  0.12557700  0.34363900  1
  Cl  Cl68  1  0.90525400  0.12557700  0.15636100  1
  Cl  Cl69  1  0.09474600  0.87442300  0.65636100  1
  Cl  Cl70  1  0.90525400  0.87442300  0.15636100  1
  Cl  Cl71  1  0.09474600  0.12557700  0.84363900  1
  Cl  Cl72  1  0.25641600  0.37322400  0.09488800  1
  Cl  Cl73  1  0.74358400  0.62677600  0.90511200  1
  Cl  Cl74  1  0.25641600  0.62677600  0.40511200  1
  Cl  Cl75  1  0.74358400  0.37322400  0.90511200  1
  Cl  Cl76  1  0.74358400  0.37322400  0.59488800  1
  Cl  Cl77  1  0.25641600  0.62677600  0.09488800  1
  Cl  Cl78  1  0.74358400  0.62677600  0.59488800  1
  Cl  Cl79  1  0.25641600  0.37322400  0.40511200  1
  Cl  Cl80  1  0.85340400  0.00000000  0.75000000  1
  Cl  Cl81  1  0.14659600  0.00000000  0.25000000  1
  Cl  Cl82  1  0.34936000  0.00000000  0.56115000  1
  Cl  Cl83  1  0.65064000  0.00000000  0.43885000  1
  Cl  Cl84  1  0.34936000  0.00000000  0.93885000  1
  Cl  Cl85  1  0.65064000  0.00000000  0.06115000  1
  Cl  Cl86  1  0.60861200  0.12552900  0.65474500  1
  Cl  Cl87  1  0.39138800  0.87447100  0.34525500  1
  Cl  Cl88  1  0.60861200  0.87447100  0.84525500  1
  Cl  Cl89  1  0.39138800  0.12552900  0.34525500  1
  Cl  Cl90  1  0.39138800  0.12552900  0.15474500  1
  Cl  Cl91  1  0.60861200  0.87447100  0.65474500  1
  Cl  Cl92  1  0.39138800  0.87447100  0.15474500  1
  Cl  Cl93  1  0.60861200  0.12552900  0.84525500  1
  Cl  Cl94  1  0.81780100  0.50000000  0.75000000  1
  Cl  Cl95  1  0.18219900  0.50000000  0.25000000  1
