# generated using pymatgen
data_TiGeRh
_symmetry_space_group_name_H-M   'P 1'
_cell_length_a   7.56590189
_cell_length_b   7.56590189
_cell_length_c   7.56590189
_cell_angle_alpha   127.49219521
_cell_angle_beta   123.48707280
_cell_angle_gamma   80.76975897
_symmetry_Int_Tables_number   1
_chemical_formula_structural   TiGeRh
_chemical_formula_sum   'Ti6 Ge6 Rh6'
_cell_volume   276.33946228
_cell_formula_units_Z   6
loop_
 _symmetry_equiv_pos_site_id
 _symmetry_equiv_pos_as_xyz
  1  'x, y, z'
loop_
 _atom_site_type_symbol
 _atom_site_label
 _atom_site_symmetry_multiplicity
 _atom_site_fract_x
 _atom_site_fract_y
 _atom_site_fract_z
 _atom_site_occupancy
  Ti  Ti0  1  0.97302900  0.74502000  0.27199000  1
  Ti  Ti1  1  0.02697100  0.29896100  0.77199000  1
  Ti  Ti2  1  0.24870800  0.16434200  0.41563400  1
  Ti  Ti3  1  0.75129200  0.16692700  0.91563400  1
  Ti  Ti4  1  0.55459400  0.35097700  0.29638200  1
  Ti  Ti5  1  0.44540600  0.74178800  0.79638200  1
  Ge  Ge6  1  0.78201300  0.78297300  0.50096000  1
  Ge  Ge7  1  0.21798700  0.71894700  0.00096000  1
  Ge  Ge8  1  0.33758000  0.07905700  0.75075400  1
  Ge  Ge9  1  0.66242000  0.41317400  0.74147700  1
  Ge  Ge10  1  0.17169700  0.41317400  0.25075400  1
  Ge  Ge11  1  0.82830300  0.07905700  0.24147700  1
  Rh  Rh12  1  0.50000000  0.48922900  0.98922900  1
  Rh  Rh13  1  0.00000000  0.48922900  0.48922900  1
  Rh  Rh14  1  0.16921700  0.00470200  0.91828900  1
  Rh  Rh15  1  0.83078300  0.74907200  0.83548500  1
  Rh  Rh16  1  0.41358700  0.74907200  0.41828900  1
  Rh  Rh17  1  0.58641300  0.00470200  0.33548500  1
