# generated using pymatgen
data_BaCdSnS4
_symmetry_space_group_name_H-M   'P 1'
_cell_length_a   15.69258219
_cell_length_b   13.01833819
_cell_length_c   12.87067566
_cell_angle_alpha   74.62059279
_cell_angle_beta   53.11851747
_cell_angle_gamma   52.26088974
_symmetry_Int_Tables_number   1
_chemical_formula_structural   BaCdSnS4
_chemical_formula_sum   'Ba8 Cd8 Sn8 S32'
_cell_volume   1641.38156109
_cell_formula_units_Z   8
loop_
 _symmetry_equiv_pos_site_id
 _symmetry_equiv_pos_as_xyz
  1  'x, y, z'
loop_
 _atom_site_type_symbol
 _atom_site_label
 _atom_site_symmetry_multiplicity
 _atom_site_fract_x
 _atom_site_fract_y
 _atom_site_fract_z
 _atom_site_occupancy
  Ba  Ba0  1  0.24891800  0.74668800  0.24817400  1
  Ba  Ba1  1  0.75622000  0.24817400  0.74668800  1
  Ba  Ba2  1  0.00182600  0.49378000  0.00108200  1
  Ba  Ba3  1  0.50331200  0.00108200  0.49378000  1
  Ba  Ba4  1  0.25452300  0.74547700  0.74547700  1
  Ba  Ba5  1  0.50452300  0.99547700  0.99547700  1
  Ba  Ba6  1  0.75044700  0.24955300  0.24955300  1
  Ba  Ba7  1  0.00044700  0.49955300  0.49955300  1
  Cd  Cd8  1  0.91906700  0.83040700  0.22926400  1
  Cd  Cd9  1  0.41959300  0.33093300  0.22873800  1
  Cd  Cd10  1  0.02073600  0.22873800  0.33093300  1
  Cd  Cd11  1  0.02126200  0.22926400  0.83040700  1
  Cd  Cd12  1  0.98650100  0.76200000  0.73613400  1
  Cd  Cd13  1  0.51536500  0.73613400  0.76200000  1
  Cd  Cd14  1  0.51386600  0.73463500  0.26349900  1
  Cd  Cd15  1  0.48800000  0.26349900  0.73463500  1
  Sn  Sn16  1  0.34685800  0.40305900  0.51587600  1
  Sn  Sn17  1  0.26412600  0.48525900  0.01280100  1
  Sn  Sn18  1  0.76474100  0.98587400  0.01218600  1
  Sn  Sn19  1  0.23719900  0.01218600  0.98587400  1
  Sn  Sn20  1  0.73420700  0.51587600  0.40305900  1
  Sn  Sn21  1  0.84694100  0.90314200  0.51579300  1
  Sn  Sn22  1  0.73412400  0.51579300  0.90314200  1
  Sn  Sn23  1  0.23781400  0.01280100  0.48525900  1
  S  S24  1  0.95429100  0.96355000  0.30272000  1
  S  S25  1  0.77943800  0.30272000  0.96355000  1
  S  S26  1  0.94728000  0.47056200  0.29570900  1
  S  S27  1  0.28645000  0.29570900  0.47056200  1
  S  S28  1  0.44424400  0.97362000  0.79540900  1
  S  S29  1  0.78672700  0.79540900  0.97362000  1
  S  S30  1  0.45459100  0.46327300  0.80575600  1
  S  S31  1  0.27638000  0.80575600  0.46327300  1
  S  S32  1  0.07110400  0.67769500  0.01869500  1
  S  S33  1  0.23250700  0.01869500  0.67769500  1
  S  S34  1  0.23130500  0.01749300  0.17889600  1
  S  S35  1  0.57230500  0.17889600  0.01749300  1
  S  S36  1  0.03210500  0.71653400  0.52472700  1
  S  S37  1  0.72663400  0.52472700  0.71653400  1
  S  S38  1  0.72527300  0.52336600  0.21789500  1
  S  S39  1  0.53346600  0.21789500  0.52336600  1
  S  S40  1  0.19743200  0.54997300  0.71880800  1
  S  S41  1  0.53378700  0.71880800  0.54997300  1
  S  S42  1  0.53119200  0.71621300  0.05256800  1
  S  S43  1  0.70002700  0.05256800  0.71621300  1
  S  S44  1  0.22129500  0.52621600  0.21591500  1
  S  S45  1  0.03657400  0.21591500  0.52621600  1
  S  S46  1  0.03408500  0.21342600  0.02870500  1
  S  S47  1  0.72378400  0.02870500  0.21342600  1
  S  S48  1  0.95592900  0.96104800  0.80359000  1
  S  S49  1  0.27943300  0.80359000  0.96104800  1
  S  S50  1  0.44641000  0.97056700  0.29407100  1
  S  S51  1  0.28895200  0.29407100  0.97056700  1
  S  S52  1  0.78419100  0.79717200  0.47283800  1
  S  S53  1  0.94579900  0.47283800  0.79717200  1
  S  S54  1  0.77716200  0.30420100  0.46580900  1
  S  S55  1  0.45282800  0.46580900  0.30420100  1
