# generated using pymatgen
data_Ba10Ce(Bi3O10)3
_symmetry_space_group_name_H-M   'P 1'
_cell_length_a   8.84802332
_cell_length_b   10.86164126
_cell_length_c   10.84960357
_cell_angle_alpha   100.01095137
_cell_angle_beta   65.67311766
_cell_angle_gamma   114.34280639
_symmetry_Int_Tables_number   1
_chemical_formula_structural   Ba10Ce(Bi3O10)3
_chemical_formula_sum   'Ba10 Ce1 Bi9 O30'
_cell_volume   865.63122387
_cell_formula_units_Z   1
loop_
 _symmetry_equiv_pos_site_id
 _symmetry_equiv_pos_as_xyz
  1  'x, y, z'
loop_
 _atom_site_type_symbol
 _atom_site_label
 _atom_site_symmetry_multiplicity
 _atom_site_fract_x
 _atom_site_fract_y
 _atom_site_fract_z
 _atom_site_occupancy
  Ba  Ba0  1  0.64574600  0.69990300  0.89756200  1
  Ba  Ba1  1  0.24831500  0.50168800  0.49872800  1
  Ba  Ba2  1  0.45323200  0.10322800  0.69601200  1
  Ba  Ba3  1  0.84759300  0.30423200  0.09987200  1
  Ba  Ba4  1  0.04899200  0.90121000  0.30020900  1
  Ba  Ba5  1  0.35425400  0.30009700  0.10243800  1
  Ba  Ba6  1  0.95100800  0.09879000  0.69979100  1
  Ba  Ba7  1  0.15240700  0.69576800  0.90012800  1
  Ba  Ba8  1  0.54676800  0.89677200  0.30398800  1
  Ba  Ba9  1  0.75168500  0.49831200  0.50127200  1
  Ce  Ce10  1  0.00000000  0.00000000  0.00000000  1
  Bi  Bi11  1  0.50000000  0.00000000  0.00000000  1
  Bi  Bi12  1  0.09936600  0.79972300  0.60134500  1
  Bi  Bi13  1  0.29969000  0.39902000  0.79955800  1
  Bi  Bi14  1  0.70031000  0.60098000  0.20044200  1
  Bi  Bi15  1  0.90063400  0.20027700  0.39865500  1
  Bi  Bi16  1  0.20023500  0.60099000  0.20042300  1
  Bi  Bi17  1  0.40087400  0.20033800  0.39903600  1
  Bi  Bi18  1  0.59912600  0.79966200  0.60096400  1
  Bi  Bi19  1  0.79976500  0.39901000  0.79957700  1
  O  O20  1  0.35935600  0.78923700  0.06946800  1
  O  O21  1  0.95961800  0.59005700  0.66953600  1
  O  O22  1  0.15790100  0.18720400  0.86990800  1
  O  O23  1  0.55985100  0.38972600  0.26821000  1
  O  O24  1  0.75976500  0.99038000  0.46731900  1
  O  O25  1  0.24245000  0.01376800  0.02883300  1
  O  O26  1  0.84748400  0.81311200  0.62935400  1
  O  O27  1  0.04778100  0.41285600  0.82872700  1
  O  O28  1  0.44817900  0.61401100  0.22940000  1
  O  O29  1  0.64837900  0.21397900  0.42843700  1
  O  O30  1  0.64064400  0.21076300  0.93053200  1
  O  O31  1  0.24023500  0.00962000  0.53268100  1
  O  O32  1  0.44014900  0.61027400  0.73179000  1
  O  O33  1  0.84209900  0.81279600  0.13009200  1
  O  O34  1  0.04038200  0.40994300  0.33046400  1
  O  O35  1  0.75755000  0.98623200  0.97116700  1
  O  O36  1  0.35162100  0.78602100  0.57156300  1
  O  O37  1  0.55182100  0.38598900  0.77060000  1
  O  O38  1  0.95221900  0.58714400  0.17127300  1
  O  O39  1  0.15251600  0.18688800  0.37064600  1
  O  O40  1  0.73653900  0.53064500  0.99210300  1
  O  O41  1  0.93613500  0.12783400  0.18821300  1
  O  O42  1  0.13602700  0.72922600  0.39092300  1
  O  O43  1  0.33396800  0.32825500  0.59213900  1
  O  O44  1  0.53566600  0.92835400  0.79053300  1
  O  O45  1  0.66603200  0.67174500  0.40786100  1
  O  O46  1  0.86397300  0.27077400  0.60907700  1
  O  O47  1  0.06386500  0.87216600  0.81178700  1
  O  O48  1  0.26346100  0.46935500  0.00789700  1
  O  O49  1  0.46433400  0.07164600  0.20946700  1
