# generated using pymatgen
data_NbRu3
_symmetry_space_group_name_H-M   'P 1'
_cell_length_a   3.90926600
_cell_length_b   3.90926600
_cell_length_c   3.90926600
_cell_angle_alpha   90.00000000
_cell_angle_beta   90.00000000
_cell_angle_gamma   90.00000000
_symmetry_Int_Tables_number   1
_chemical_formula_structural   NbRu3
_chemical_formula_sum   'Nb1 Ru3'
_cell_volume   59.74281292
_cell_formula_units_Z   1
loop_
 _symmetry_equiv_pos_site_id
 _symmetry_equiv_pos_as_xyz
  1  'x, y, z'
loop_
 _atom_site_type_symbol
 _atom_site_label
 _atom_site_symmetry_multiplicity
 _atom_site_fract_x
 _atom_site_fract_y
 _atom_site_fract_z
 _atom_site_occupancy
  Nb  Nb0  1  0.00000000  0.00000000  0.00000000  1
  Ru  Ru1  1  0.00000000  0.50000000  0.50000000  1
  Ru  Ru2  1  0.50000000  0.50000000  0.00000000  1
  Ru  Ru3  1  0.50000000  0.00000000  0.50000000  1
