# generated using pymatgen
data_CaCe4Si3O13
_symmetry_space_group_name_H-M   'P 1'
_cell_length_a   9.70429972
_cell_length_b   9.70429972
_cell_length_c   7.10294700
_cell_angle_alpha   90.00000000
_cell_angle_beta   90.00000000
_cell_angle_gamma   119.99999808
_symmetry_Int_Tables_number   1
_chemical_formula_structural   CaCe4Si3O13
_chemical_formula_sum   'Ca2 Ce8 Si6 O26'
_cell_volume   579.29211447
_cell_formula_units_Z   2
loop_
 _symmetry_equiv_pos_site_id
 _symmetry_equiv_pos_as_xyz
  1  'x, y, z'
loop_
 _atom_site_type_symbol
 _atom_site_label
 _atom_site_symmetry_multiplicity
 _atom_site_fract_x
 _atom_site_fract_y
 _atom_site_fract_z
 _atom_site_occupancy
  Ca  Ca0  1  0.33333300  0.66666700  0.49699000  1
  Ca  Ca1  1  0.66666700  0.33333300  0.99699000  1
  Ce  Ce2  1  0.66666700  0.33333300  0.50150200  1
  Ce  Ce3  1  0.33333300  0.66666700  0.00150200  1
  Ce  Ce4  1  0.76014100  0.76471300  0.25011100  1
  Ce  Ce5  1  0.00457200  0.23985900  0.25011100  1
  Ce  Ce6  1  0.23528700  0.99542800  0.25011100  1
  Ce  Ce7  1  0.23985900  0.23528700  0.75011100  1
  Ce  Ce8  1  0.99542800  0.76014100  0.75011100  1
  Ce  Ce9  1  0.76471300  0.00457200  0.75011100  1
  Si  Si10  1  0.97198700  0.60095100  0.24880300  1
  Si  Si11  1  0.62896500  0.02801300  0.24880300  1
  Si  Si12  1  0.39904900  0.37103500  0.24880300  1
  Si  Si13  1  0.02801300  0.39904900  0.74880300  1
  Si  Si14  1  0.37103500  0.97198700  0.74880300  1
  Si  Si15  1  0.60095100  0.62896500  0.74880300  1
  O  O16  1  0.16451800  0.67668700  0.24915700  1
  O  O17  1  0.51216900  0.83548200  0.24915700  1
  O  O18  1  0.32331300  0.48783100  0.24915700  1
  O  O19  1  0.83548200  0.32331300  0.74915700  1
  O  O20  1  0.48783100  0.16451800  0.74915700  1
  O  O21  1  0.67668700  0.51216900  0.74915700  1
  O  O22  1  0.90991800  0.65833800  0.43402700  1
  O  O23  1  0.74842000  0.09008200  0.43402700  1
  O  O24  1  0.34166200  0.25158000  0.43402700  1
  O  O25  1  0.09008200  0.34166200  0.93402700  1
  O  O26  1  0.25158000  0.90991800  0.93402700  1
  O  O27  1  0.65833800  0.74842000  0.93402700  1
  O  O28  1  0.08599200  0.33483200  0.56754400  1
  O  O29  1  0.24884000  0.91400800  0.56754400  1
  O  O30  1  0.66516800  0.75116000  0.56754400  1
  O  O31  1  0.91400800  0.66516800  0.06754400  1
  O  O32  1  0.75116000  0.08599200  0.06754400  1
  O  O33  1  0.33483200  0.24884000  0.06754400  1
  O  O34  1  0.00000000  0.00000000  0.25268700  1
  O  O35  1  0.00000000  0.00000000  0.75268700  1
  O  O36  1  0.87319800  0.40545500  0.24979400  1
  O  O37  1  0.53225700  0.12680200  0.24979400  1
  O  O38  1  0.59454500  0.46774300  0.24979400  1
  O  O39  1  0.12680200  0.59454500  0.74979400  1
  O  O40  1  0.46774300  0.87319800  0.74979400  1
  O  O41  1  0.40545500  0.53225700  0.74979400  1
