# generated using pymatgen
data_Cs2MnF4
_symmetry_space_group_name_H-M   'P 1'
_cell_length_a   8.08289499
_cell_length_b   8.08289499
_cell_length_c   8.08289499
_cell_angle_alpha   148.27829071
_cell_angle_beta   148.27829071
_cell_angle_gamma   45.47472001
_symmetry_Int_Tables_number   1
_chemical_formula_structural   Cs2MnF4
_chemical_formula_sum   'Cs2 Mn1 F4'
_cell_volume   145.51655656
_cell_formula_units_Z   1
loop_
 _symmetry_equiv_pos_site_id
 _symmetry_equiv_pos_as_xyz
  1  'x, y, z'
loop_
 _atom_site_type_symbol
 _atom_site_label
 _atom_site_symmetry_multiplicity
 _atom_site_fract_x
 _atom_site_fract_y
 _atom_site_fract_z
 _atom_site_occupancy
  Cs  Cs0  1  0.35225100  0.35225100  0.00000000  1
  Cs  Cs1  1  0.64774900  0.64774900  0.00000000  1
  Mn  Mn2  1  0.00000000  0.00000000  0.00000000  1
  F  F3  1  0.14311300  0.14311300  0.00000000  1
  F  F4  1  0.85688700  0.85688700  0.00000000  1
  F  F5  1  0.50000000  0.00000000  0.50000000  1
  F  F6  1  0.00000000  0.50000000  0.50000000  1
