# generated using pymatgen
data_Ba3Ho2MoO9
_symmetry_space_group_name_H-M   'P 1'
_cell_length_a   6.08619339
_cell_length_b   6.08619339
_cell_length_c   14.88961619
_cell_angle_alpha   89.68301528
_cell_angle_beta   89.68301528
_cell_angle_gamma   59.79120869
_symmetry_Int_Tables_number   1
_chemical_formula_structural   Ba3Ho2MoO9
_chemical_formula_sum   'Ba6 Ho4 Mo2 O18'
_cell_volume   476.62763127
_cell_formula_units_Z   2
loop_
 _symmetry_equiv_pos_site_id
 _symmetry_equiv_pos_as_xyz
  1  'x, y, z'
loop_
 _atom_site_type_symbol
 _atom_site_label
 _atom_site_symmetry_multiplicity
 _atom_site_fract_x
 _atom_site_fract_y
 _atom_site_fract_z
 _atom_site_occupancy
  Ba  Ba0  1  0.66772300  0.66578400  0.08596600  1
  Ba  Ba1  1  0.99843800  0.00156200  0.75000000  1
  Ba  Ba2  1  0.33421600  0.33227700  0.41403400  1
  Ba  Ba3  1  0.33227700  0.33421600  0.91403400  1
  Ba  Ba4  1  0.66578400  0.66772300  0.58596600  1
  Ba  Ba5  1  0.00156200  0.99843800  0.25000000  1
  Ho  Ho6  1  0.33288200  0.33353800  0.16795400  1
  Ho  Ho7  1  0.66711800  0.66646200  0.83204600  1
  Ho  Ho8  1  0.33353800  0.33288200  0.66795400  1
  Ho  Ho9  1  0.66646200  0.66711800  0.33204600  1
  Mo  Mo10  1  0.00000000  0.00000000  0.50000000  1
  Mo  Mo11  1  0.00000000  0.00000000  0.00000000  1
  O  O12  1  0.97796900  0.54388600  0.23890000  1
  O  O13  1  0.28616000  0.88506500  0.91570000  1
  O  O14  1  0.67677700  0.18956800  0.56546700  1
  O  O15  1  0.02203100  0.45611400  0.76110000  1
  O  O16  1  0.32322300  0.81043200  0.43453300  1
  O  O17  1  0.71384000  0.11493500  0.08430000  1
  O  O18  1  0.54388600  0.97796900  0.73890000  1
  O  O19  1  0.88506500  0.28616000  0.41570000  1
  O  O20  1  0.18956800  0.67677700  0.06546700  1
  O  O21  1  0.81043200  0.32322300  0.93453300  1
  O  O22  1  0.11493500  0.71384000  0.58430000  1
  O  O23  1  0.45611400  0.02203100  0.26110000  1
  O  O24  1  0.15293300  0.15222500  0.07506300  1
  O  O25  1  0.49916800  0.50083200  0.75000000  1
  O  O26  1  0.84777500  0.84706700  0.42493700  1
  O  O27  1  0.84706700  0.84777500  0.92493700  1
  O  O28  1  0.15222500  0.15293300  0.57506300  1
  O  O29  1  0.50083200  0.49916800  0.25000000  1
