# generated using pymatgen
data_La4Si2Se3O7
_symmetry_space_group_name_H-M   'P 1'
_cell_length_a   11.45046435
_cell_length_b   11.45046435
_cell_length_c   11.45046435
_cell_angle_alpha   114.67610153
_cell_angle_beta   114.67610153
_cell_angle_gamma   99.49861794
_symmetry_Int_Tables_number   1
_chemical_formula_structural   La4Si2Se3O7
_chemical_formula_sum   'La16 Si8 Se12 O28'
_cell_volume   1130.12412786
_cell_formula_units_Z   4
loop_
 _symmetry_equiv_pos_site_id
 _symmetry_equiv_pos_as_xyz
  1  'x, y, z'
loop_
 _atom_site_type_symbol
 _atom_site_label
 _atom_site_symmetry_multiplicity
 _atom_site_fract_x
 _atom_site_fract_y
 _atom_site_fract_z
 _atom_site_occupancy
  La  La0  1  0.82784500  0.17215500  0.00000000  1
  La  La1  1  0.17215500  0.82784500  0.00000000  1
  La  La2  1  0.92215500  0.42215500  0.84430900  1
  La  La3  1  0.57784500  0.07784500  0.15569100  1
  La  La4  1  0.82784500  0.82784500  0.65569100  1
  La  La5  1  0.57784500  0.42215500  0.50000000  1
  La  La6  1  0.92215500  0.07784500  0.50000000  1
  La  La7  1  0.17215500  0.17215500  0.34430900  1
  La  La8  1  0.20930600  0.94927800  0.73997300  1
  La  La9  1  0.20930600  0.46933300  0.26002700  1
  La  La10  1  0.05072200  0.79069400  0.26002700  1
  La  La11  1  0.21933300  0.45930600  0.76002700  1
  La  La12  1  0.69927800  0.45930600  0.23997300  1
  La  La13  1  0.54069400  0.78066700  0.23997300  1
  La  La14  1  0.54069400  0.30072200  0.76002700  1
  La  La15  1  0.53066700  0.79069400  0.73997300  1
  Si  Si16  1  0.96926800  0.34592000  0.37665200  1
  Si  Si17  1  0.96926800  0.59261500  0.62334800  1
  Si  Si18  1  0.65408000  0.03073200  0.62334800  1
  Si  Si19  1  0.34261500  0.21926800  0.12334800  1
  Si  Si20  1  0.09592000  0.21926800  0.87665200  1
  Si  Si21  1  0.78073200  0.65738500  0.87665200  1
  Si  Si22  1  0.78073200  0.90408000  0.12334800  1
  Si  Si23  1  0.40738500  0.03073200  0.37665200  1
  Se  Se24  1  0.87500000  0.47840900  0.10340900  1
  Se  Se25  1  0.22840900  0.62500000  0.10340900  1
  Se  Se26  1  0.52159100  0.12500000  0.89659100  1
  Se  Se27  1  0.37500000  0.77159100  0.89659100  1
  Se  Se28  1  0.87500000  0.77159100  0.39659100  1
  Se  Se29  1  0.52159100  0.62500000  0.39659100  1
  Se  Se30  1  0.22840900  0.12500000  0.60340900  1
  Se  Se31  1  0.37500000  0.47840900  0.60340900  1
  Se  Se32  1  0.25000000  0.75000000  0.50000000  1
  Se  Se33  1  0.50000000  0.50000000  0.00000000  1
  Se  Se34  1  0.75000000  0.25000000  0.50000000  1
  Se  Se35  1  0.00000000  0.00000000  0.00000000  1
  O  O36  1  0.04505600  0.32177200  0.27671600  1
  O  O37  1  0.04505600  0.76833900  0.72328400  1
  O  O38  1  0.67822800  0.95494400  0.72328400  1
  O  O39  1  0.51833900  0.29505600  0.22328400  1
  O  O40  1  0.07177200  0.29505600  0.77671600  1
  O  O41  1  0.70494400  0.48166100  0.77671600  1
  O  O42  1  0.70494400  0.92822800  0.22328400  1
  O  O43  1  0.23166100  0.95494400  0.27671600  1
  O  O44  1  0.26383700  0.26383700  0.00000000  1
  O  O45  1  0.01383700  0.51383700  0.50000000  1
  O  O46  1  0.48616300  0.98616300  0.50000000  1
  O  O47  1  0.73616300  0.73616300  0.00000000  1
  O  O48  1  0.71657500  0.97313200  0.02367900  1
  O  O49  1  0.94945300  0.69289500  0.97632100  1
  O  O50  1  0.02686800  0.28342500  0.97632100  1
  O  O51  1  0.44289500  0.96657500  0.24344200  1
  O  O52  1  0.44289500  0.19945300  0.47632100  1
  O  O53  1  0.30710500  0.05054700  0.02367900  1
  O  O54  1  0.71657500  0.69289500  0.74344200  1
  O  O55  1  0.02686800  0.05054700  0.74344200  1
  O  O56  1  0.30710500  0.28342500  0.25655800  1
  O  O57  1  0.72313200  0.96657500  0.52367900  1
  O  O58  1  0.80054700  0.55710500  0.52367900  1
  O  O59  1  0.03342500  0.27686800  0.47632100  1
  O  O60  1  0.72313200  0.19945300  0.75655800  1
  O  O61  1  0.03342500  0.55710500  0.75655800  1
  O  O62  1  0.80054700  0.27686800  0.24344200  1
  O  O63  1  0.94945300  0.97313200  0.25655800  1
