# generated using pymatgen
data_LaAlAu
_symmetry_space_group_name_H-M   'P 1'
_cell_length_a   4.66142400
_cell_length_b   7.73004100
_cell_length_c   7.77708900
_cell_angle_alpha   90.00000000
_cell_angle_beta   90.00000000
_cell_angle_gamma   90.00000000
_symmetry_Int_Tables_number   1
_chemical_formula_structural   LaAlAu
_chemical_formula_sum   'La4 Al4 Au4'
_cell_volume   280.23183735
_cell_formula_units_Z   4
loop_
 _symmetry_equiv_pos_site_id
 _symmetry_equiv_pos_as_xyz
  1  'x, y, z'
loop_
 _atom_site_type_symbol
 _atom_site_label
 _atom_site_symmetry_multiplicity
 _atom_site_fract_x
 _atom_site_fract_y
 _atom_site_fract_z
 _atom_site_occupancy
  La  La0  1  0.25000000  0.01038700  0.30939500  1
  La  La1  1  0.25000000  0.51038700  0.19060500  1
  La  La2  1  0.75000000  0.98961300  0.69060500  1
  La  La3  1  0.75000000  0.48961300  0.80939500  1
  Al  Al4  1  0.25000000  0.16479800  0.92169200  1
  Al  Al5  1  0.25000000  0.66479800  0.57830800  1
  Al  Al6  1  0.75000000  0.83520200  0.07830800  1
  Al  Al7  1  0.75000000  0.33520200  0.42169200  1
  Au  Au8  1  0.25000000  0.30016400  0.59577500  1
  Au  Au9  1  0.25000000  0.80016400  0.90422500  1
  Au  Au10  1  0.75000000  0.69983600  0.40422500  1
  Au  Au11  1  0.75000000  0.19983600  0.09577500  1
