# generated using pymatgen
data_PrTeAs
_symmetry_space_group_name_H-M   'P 1'
_cell_length_a   4.16837900
_cell_length_b   7.80410500
_cell_length_c   10.32462400
_cell_angle_alpha   90.00000000
_cell_angle_beta   90.00000000
_cell_angle_gamma   90.00000000
_symmetry_Int_Tables_number   1
_chemical_formula_structural   PrTeAs
_chemical_formula_sum   'Pr4 Te4 As4'
_cell_volume   335.86484441
_cell_formula_units_Z   4
loop_
 _symmetry_equiv_pos_site_id
 _symmetry_equiv_pos_as_xyz
  1  'x, y, z'
loop_
 _atom_site_type_symbol
 _atom_site_label
 _atom_site_symmetry_multiplicity
 _atom_site_fract_x
 _atom_site_fract_y
 _atom_site_fract_z
 _atom_site_occupancy
  Pr  Pr0  1  0.25000000  0.72560100  0.84264800  1
  Pr  Pr1  1  0.75000000  0.27439900  0.15735200  1
  Pr  Pr2  1  0.75000000  0.77439900  0.34264800  1
  Pr  Pr3  1  0.25000000  0.22560100  0.65735200  1
  Te  Te4  1  0.25000000  0.59095300  0.14903100  1
  Te  Te5  1  0.75000000  0.40904700  0.85096900  1
  Te  Te6  1  0.75000000  0.90904700  0.64903100  1
  Te  Te7  1  0.25000000  0.09095300  0.35096900  1
  As  As8  1  0.25000000  0.59187900  0.53873900  1
  As  As9  1  0.75000000  0.40812100  0.46126100  1
  As  As10  1  0.75000000  0.90812100  0.03873900  1
  As  As11  1  0.25000000  0.09187900  0.96126100  1
