# generated using pymatgen
data_Ho2Be2GeO7
_symmetry_space_group_name_H-M   'P 1'
_cell_length_a   7.43003500
_cell_length_b   7.43003500
_cell_length_c   4.80560700
_cell_angle_alpha   90.00000000
_cell_angle_beta   90.00000000
_cell_angle_gamma   90.00000000
_symmetry_Int_Tables_number   1
_chemical_formula_structural   Ho2Be2GeO7
_chemical_formula_sum   'Ho4 Be4 Ge2 O14'
_cell_volume   265.29555328
_cell_formula_units_Z   2
loop_
 _symmetry_equiv_pos_site_id
 _symmetry_equiv_pos_as_xyz
  1  'x, y, z'
loop_
 _atom_site_type_symbol
 _atom_site_label
 _atom_site_symmetry_multiplicity
 _atom_site_fract_x
 _atom_site_fract_y
 _atom_site_fract_z
 _atom_site_occupancy
  Ho  Ho0  1  0.15770100  0.34229900  0.50667500  1
  Ho  Ho1  1  0.84229900  0.65770100  0.50667500  1
  Ho  Ho2  1  0.65770100  0.15770100  0.49332500  1
  Ho  Ho3  1  0.34229900  0.84229900  0.49332500  1
  Be  Be4  1  0.63517400  0.86482600  0.95073200  1
  Be  Be5  1  0.36482600  0.13517400  0.95073200  1
  Be  Be6  1  0.13517400  0.63517400  0.04926800  1
  Be  Be7  1  0.86482600  0.36482600  0.04926800  1
  Ge  Ge8  1  0.00000000  0.00000000  0.00000000  1
  Ge  Ge9  1  0.50000000  0.50000000  0.00000000  1
  O  O10  1  0.00000000  0.50000000  0.18817800  1
  O  O11  1  0.50000000  0.00000000  0.81182200  1
  O  O12  1  0.64177700  0.85822300  0.28157600  1
  O  O13  1  0.35822300  0.14177700  0.28157600  1
  O  O14  1  0.14177700  0.64177700  0.71842400  1
  O  O15  1  0.85822300  0.35822300  0.71842400  1
  O  O16  1  0.08154900  0.82857000  0.21912500  1
  O  O17  1  0.91845100  0.17143000  0.21912500  1
  O  O18  1  0.17143000  0.08154900  0.78087500  1
  O  O19  1  0.41845100  0.32857000  0.78087500  1
  O  O20  1  0.82857000  0.91845100  0.78087500  1
  O  O21  1  0.58154900  0.67143000  0.78087500  1
  O  O22  1  0.32857000  0.58154900  0.21912500  1
  O  O23  1  0.67143000  0.41845100  0.21912500  1
