# generated using pymatgen
data_La8Sb14Pt17
_symmetry_space_group_name_H-M   'P 1'
_cell_length_a   14.11667160
_cell_length_b   14.11667160
_cell_length_c   14.11667160
_cell_angle_alpha   126.24561837
_cell_angle_beta   126.24561837
_cell_angle_gamma   79.48482433
_symmetry_Int_Tables_number   1
_chemical_formula_structural   La8Sb14Pt17
_chemical_formula_sum   'La16 Sb28 Pt34'
_cell_volume   1768.36406785
_cell_formula_units_Z   2
loop_
 _symmetry_equiv_pos_site_id
 _symmetry_equiv_pos_as_xyz
  1  'x, y, z'
loop_
 _atom_site_type_symbol
 _atom_site_label
 _atom_site_symmetry_multiplicity
 _atom_site_fract_x
 _atom_site_fract_y
 _atom_site_fract_z
 _atom_site_occupancy
  La  La0  1  0.92938600  0.42938600  0.99882700  1
  La  La1  1  0.43055800  0.93055900  0.00117300  1
  La  La2  1  0.42938600  0.43055900  0.50000000  1
  La  La3  1  0.93055900  0.92938600  0.50000000  1
  La  La4  1  0.17608900  0.17608900  0.00000000  1
  La  La5  1  0.67608900  0.67608900  0.00000000  1
  La  La6  1  0.17129900  0.67129900  0.50000000  1
  La  La7  1  0.67129900  0.17129900  0.50000000  1
  La  La8  1  0.67339200  0.43966400  0.26369900  1
  La  La9  1  0.17596500  0.40969400  0.73630100  1
  La  La10  1  0.43966400  0.17596500  0.76627100  1
  La  La11  1  0.67596500  0.93966400  0.76627100  1
  La  La12  1  0.40969400  0.67339200  0.23372900  1
  La  La13  1  0.17339200  0.90969400  0.23372900  1
  La  La14  1  0.90969400  0.67596500  0.73630100  1
  La  La15  1  0.93966400  0.17339200  0.26369900  1
  Sb  Sb16  1  0.24494200  0.49179200  0.26146600  1
  Sb  Sb17  1  0.23032600  0.98347600  0.73853400  1
  Sb  Sb18  1  0.49179200  0.23032600  0.24685100  1
  Sb  Sb19  1  0.73032600  0.99179200  0.24685100  1
  Sb  Sb20  1  0.98347600  0.24494200  0.75314900  1
  Sb  Sb21  1  0.74494200  0.48347600  0.75314900  1
  Sb  Sb22  1  0.48347600  0.73032600  0.73853400  1
  Sb  Sb23  1  0.99179200  0.74494200  0.26146600  1
  Sb  Sb24  1  0.17898500  0.20017400  0.27393500  1
  Sb  Sb25  1  0.92623900  0.90505000  0.72606500  1
  Sb  Sb26  1  0.20017400  0.92623900  0.02118900  1
  Sb  Sb27  1  0.42623900  0.70017400  0.02118900  1
  Sb  Sb28  1  0.90505000  0.17898500  0.97881100  1
  Sb  Sb29  1  0.67898500  0.40505000  0.97881100  1
  Sb  Sb30  1  0.40505000  0.42623900  0.72606500  1
  Sb  Sb31  1  0.70017400  0.67898500  0.27393500  1
  Sb  Sb32  1  0.37568400  0.37568400  0.00000000  1
  Sb  Sb33  1  0.87568400  0.87568400  0.00000000  1
  Sb  Sb34  1  0.13494100  0.63494100  0.69365500  1
  Sb  Sb35  1  0.94128600  0.44128600  0.30634500  1
  Sb  Sb36  1  0.63494100  0.94128600  0.50000000  1
  Sb  Sb37  1  0.44128600  0.13494100  0.50000000  1
  Sb  Sb38  1  0.40089700  0.90089700  0.50000000  1
  Sb  Sb39  1  0.90089700  0.40089700  0.50000000  1
  Sb  Sb40  1  0.07953500  0.57953500  0.94752500  1
  Sb  Sb41  1  0.63201000  0.13201000  0.05247500  1
  Sb  Sb42  1  0.57953500  0.63201000  0.50000000  1
  Sb  Sb43  1  0.13201000  0.07953500  0.50000000  1
  Pt  Pt44  1  0.37133200  0.13816800  0.27211300  1
  Pt  Pt45  1  0.86605500  0.09921900  0.72788700  1
  Pt  Pt46  1  0.13816800  0.86605500  0.76683600  1
  Pt  Pt47  1  0.36605500  0.63816800  0.76683600  1
  Pt  Pt48  1  0.09921900  0.37133200  0.23316400  1
  Pt  Pt49  1  0.87133200  0.59921900  0.23316400  1
  Pt  Pt50  1  0.59921900  0.36605500  0.72788700  1
  Pt  Pt51  1  0.63816800  0.87133200  0.27211300  1
  Pt  Pt52  1  0.88613600  0.38613600  0.67054000  1
  Pt  Pt53  1  0.71559600  0.21559600  0.32946000  1
  Pt  Pt54  1  0.38613600  0.71559600  0.50000000  1
  Pt  Pt55  1  0.21559600  0.88613600  0.50000000  1
  Pt  Pt56  1  0.66188600  0.16188600  0.74109900  1
  Pt  Pt57  1  0.42078700  0.92078700  0.25890100  1
  Pt  Pt58  1  0.16188600  0.42078700  0.50000000  1
  Pt  Pt59  1  0.92078700  0.66188600  0.50000000  1
  Pt  Pt60  1  0.21149700  0.71149700  0.96965200  1
  Pt  Pt61  1  0.74184600  0.24184600  0.03034800  1
  Pt  Pt62  1  0.71149700  0.74184600  0.50000000  1
  Pt  Pt63  1  0.24184600  0.21149700  0.50000000  1
  Pt  Pt64  1  0.42573500  0.41395600  0.23822600  1
  Pt  Pt65  1  0.17573000  0.18750900  0.76177400  1
  Pt  Pt66  1  0.41395600  0.17573000  0.98822100  1
  Pt  Pt67  1  0.67573000  0.91395600  0.98822100  1
  Pt  Pt68  1  0.18750900  0.42573500  0.01177900  1
  Pt  Pt69  1  0.92573500  0.68750900  0.01177900  1
  Pt  Pt70  1  0.68750900  0.67573000  0.76177400  1
  Pt  Pt71  1  0.91395600  0.92573500  0.23822600  1
  Pt  Pt72  1  0.44553900  0.94553900  0.78119200  1
  Pt  Pt73  1  0.16434800  0.66434800  0.21880800  1
  Pt  Pt74  1  0.94553900  0.16434800  0.50000000  1
  Pt  Pt75  1  0.66434800  0.44553900  0.50000000  1
  Pt  Pt76  1  0.00057600  0.00057600  0.00000000  1
  Pt  Pt77  1  0.50057600  0.50057600  0.00000000  1
