# generated using pymatgen
data_Ho11Cd45
_symmetry_space_group_name_H-M   'P 1'
_cell_length_a   15.34883314
_cell_length_b   15.34883314
_cell_length_c   15.34883314
_cell_angle_alpha   60.00000000
_cell_angle_beta   60.00000000
_cell_angle_gamma   60.00000000
_symmetry_Int_Tables_number   1
_chemical_formula_structural   Ho11Cd45
_chemical_formula_sum   'Ho22 Cd90'
_cell_volume   2556.88442107
_cell_formula_units_Z   2
loop_
 _symmetry_equiv_pos_site_id
 _symmetry_equiv_pos_as_xyz
  1  'x, y, z'
loop_
 _atom_site_type_symbol
 _atom_site_label
 _atom_site_symmetry_multiplicity
 _atom_site_fract_x
 _atom_site_fract_y
 _atom_site_fract_z
 _atom_site_occupancy
  Ho  Ho0  1  0.00000000  0.00000000  0.00000000  1
  Ho  Ho1  1  0.01378700  0.33389600  0.63853000  1
  Ho  Ho2  1  0.01378700  0.01378700  0.63853000  1
  Ho  Ho3  1  0.33389600  0.01378700  0.63853000  1
  Ho  Ho4  1  0.01378700  0.63853000  0.33389600  1
  Ho  Ho5  1  0.33389600  0.63853000  0.01378700  1
  Ho  Ho6  1  0.01378700  0.63853000  0.01378700  1
  Ho  Ho7  1  0.63853000  0.01378700  0.01378700  1
  Ho  Ho8  1  0.63853000  0.33389600  0.01378700  1
  Ho  Ho9  1  0.63853000  0.01378700  0.33389600  1
  Ho  Ho10  1  0.33389600  0.01378700  0.01378700  1
  Ho  Ho11  1  0.01378700  0.01378700  0.33389600  1
  Ho  Ho12  1  0.01378700  0.33389600  0.01378700  1
  Ho  Ho13  1  0.25000000  0.25000000  0.25000000  1
  Ho  Ho14  1  0.40625700  0.40625700  0.78123000  1
  Ho  Ho15  1  0.40625700  0.78123000  0.40625700  1
  Ho  Ho16  1  0.78123000  0.40625700  0.40625700  1
  Ho  Ho17  1  0.40625700  0.40625700  0.40625700  1
  Ho  Ho18  1  0.66195500  0.66195500  0.01413400  1
  Ho  Ho19  1  0.66195500  0.01413400  0.66195500  1
  Ho  Ho20  1  0.01413400  0.66195500  0.66195500  1
  Ho  Ho21  1  0.66195500  0.66195500  0.66195500  1
  Cd  Cd22  1  0.08324200  0.08324200  0.75027500  1
  Cd  Cd23  1  0.08324200  0.75027500  0.08324200  1
  Cd  Cd24  1  0.75027500  0.08324200  0.08324200  1
  Cd  Cd25  1  0.08324200  0.08324200  0.08324200  1
  Cd  Cd26  1  0.91325600  0.91325600  0.26023300  1
  Cd  Cd27  1  0.91325600  0.26023300  0.91325600  1
  Cd  Cd28  1  0.26023300  0.91325600  0.91325600  1
  Cd  Cd29  1  0.91325600  0.91325600  0.91325600  1
  Cd  Cd30  1  0.15633600  0.15633600  0.84366400  1
  Cd  Cd31  1  0.84366400  0.15633600  0.84366400  1
  Cd  Cd32  1  0.15633600  0.84366400  0.84366400  1
  Cd  Cd33  1  0.84366400  0.84366400  0.15633600  1
  Cd  Cd34  1  0.15633600  0.84366400  0.15633600  1
  Cd  Cd35  1  0.84366400  0.15633600  0.15633600  1
  Cd  Cd36  1  0.39057600  0.20112800  0.01771900  1
  Cd  Cd37  1  0.39057600  0.39057600  0.01771900  1
  Cd  Cd38  1  0.20112800  0.39057600  0.01771900  1
  Cd  Cd39  1  0.39057600  0.01771900  0.20112800  1
  Cd  Cd40  1  0.20112800  0.01771900  0.39057600  1
  Cd  Cd41  1  0.39057600  0.01771900  0.39057600  1
  Cd  Cd42  1  0.01771900  0.39057600  0.39057600  1
  Cd  Cd43  1  0.01771900  0.20112800  0.39057600  1
  Cd  Cd44  1  0.01771900  0.39057600  0.20112800  1
  Cd  Cd45  1  0.20112800  0.39057600  0.39057600  1
  Cd  Cd46  1  0.39057600  0.39057600  0.20112800  1
  Cd  Cd47  1  0.39057600  0.20112800  0.39057600  1
  Cd  Cd48  1  0.16351600  0.16351600  0.50945300  1
  Cd  Cd49  1  0.16351600  0.50945300  0.16351600  1
  Cd  Cd50  1  0.50945300  0.16351600  0.16351600  1
  Cd  Cd51  1  0.16351600  0.16351600  0.16351600  1
  Cd  Cd52  1  0.26319600  0.61189900  0.86170900  1
  Cd  Cd53  1  0.26319600  0.26319600  0.86170900  1
  Cd  Cd54  1  0.61189900  0.26319600  0.86170900  1
  Cd  Cd55  1  0.26319600  0.86170900  0.61189900  1
  Cd  Cd56  1  0.61189900  0.86170900  0.26319600  1
  Cd  Cd57  1  0.26319600  0.86170900  0.26319600  1
  Cd  Cd58  1  0.86170900  0.26319600  0.26319600  1
  Cd  Cd59  1  0.86170900  0.61189900  0.26319600  1
  Cd  Cd60  1  0.86170900  0.26319600  0.61189900  1
  Cd  Cd61  1  0.61189900  0.26319600  0.26319600  1
  Cd  Cd62  1  0.26319600  0.26319600  0.61189900  1
  Cd  Cd63  1  0.26319600  0.61189900  0.26319600  1
  Cd  Cd64  1  0.50000000  0.50000000  0.50000000  1
  Cd  Cd65  1  0.64042300  0.45041400  0.26874000  1
  Cd  Cd66  1  0.64042300  0.64042300  0.26874000  1
  Cd  Cd67  1  0.45041400  0.64042300  0.26874000  1
  Cd  Cd68  1  0.64042300  0.26874000  0.45041400  1
  Cd  Cd69  1  0.45041400  0.26874000  0.64042300  1
  Cd  Cd70  1  0.64042300  0.26874000  0.64042300  1
  Cd  Cd71  1  0.26874000  0.64042300  0.64042300  1
  Cd  Cd72  1  0.26874000  0.45041400  0.64042300  1
  Cd  Cd73  1  0.26874000  0.64042300  0.45041400  1
  Cd  Cd74  1  0.45041400  0.64042300  0.64042300  1
  Cd  Cd75  1  0.64042300  0.64042300  0.45041400  1
  Cd  Cd76  1  0.64042300  0.45041400  0.64042300  1
  Cd  Cd77  1  0.51235900  0.83380300  0.14147900  1
  Cd  Cd78  1  0.51235900  0.51235900  0.14147900  1
  Cd  Cd79  1  0.83380300  0.51235900  0.14147900  1
  Cd  Cd80  1  0.51235900  0.14147900  0.83380300  1
  Cd  Cd81  1  0.83380300  0.14147900  0.51235900  1
  Cd  Cd82  1  0.51235900  0.14147900  0.51235900  1
  Cd  Cd83  1  0.14147900  0.51235900  0.51235900  1
  Cd  Cd84  1  0.14147900  0.83380300  0.51235900  1
  Cd  Cd85  1  0.14147900  0.51235900  0.83380300  1
  Cd  Cd86  1  0.83380300  0.51235900  0.51235900  1
  Cd  Cd87  1  0.51235900  0.51235900  0.83380300  1
  Cd  Cd88  1  0.51235900  0.83380300  0.51235900  1
  Cd  Cd89  1  0.75000000  0.75000000  0.75000000  1
  Cd  Cd90  1  0.83002000  0.83002000  0.50993900  1
  Cd  Cd91  1  0.83002000  0.50993900  0.83002000  1
  Cd  Cd92  1  0.50993900  0.83002000  0.83002000  1
  Cd  Cd93  1  0.83002000  0.83002000  0.83002000  1
  Cd  Cd94  1  0.91099600  0.91099600  0.58900400  1
  Cd  Cd95  1  0.58900400  0.91099600  0.58900400  1
  Cd  Cd96  1  0.91099600  0.58900400  0.58900400  1
  Cd  Cd97  1  0.58900400  0.58900400  0.91099600  1
  Cd  Cd98  1  0.91099600  0.58900400  0.91099600  1
  Cd  Cd99  1  0.58900400  0.91099600  0.91099600  1
  Cd  Cd100  1  0.76393100  0.06750600  0.40463100  1
  Cd  Cd101  1  0.76393100  0.76393100  0.40463100  1
  Cd  Cd102  1  0.06750600  0.76393100  0.40463100  1
  Cd  Cd103  1  0.76393100  0.40463100  0.06750600  1
  Cd  Cd104  1  0.06750600  0.40463100  0.76393100  1
  Cd  Cd105  1  0.76393100  0.40463100  0.76393100  1
  Cd  Cd106  1  0.40463100  0.76393100  0.76393100  1
  Cd  Cd107  1  0.40463100  0.06750600  0.76393100  1
  Cd  Cd108  1  0.40463100  0.76393100  0.06750600  1
  Cd  Cd109  1  0.06750600  0.76393100  0.76393100  1
  Cd  Cd110  1  0.76393100  0.76393100  0.06750600  1
  Cd  Cd111  1  0.76393100  0.06750600  0.76393100  1
