# generated using pymatgen
data_NaCa(PO3)3
_symmetry_space_group_name_H-M   'P 1'
_cell_length_a   6.81058100
_cell_length_b   7.04241624
_cell_length_c   7.74133198
_cell_angle_alpha   83.53044579
_cell_angle_beta   81.29796510
_cell_angle_gamma   82.75149814
_symmetry_Int_Tables_number   1
_chemical_formula_structural   NaCa(PO3)3
_chemical_formula_sum   'Na2 Ca2 P6 O18'
_cell_volume   362.42780782
_cell_formula_units_Z   2
loop_
 _symmetry_equiv_pos_site_id
 _symmetry_equiv_pos_as_xyz
  1  'x, y, z'
loop_
 _atom_site_type_symbol
 _atom_site_label
 _atom_site_symmetry_multiplicity
 _atom_site_fract_x
 _atom_site_fract_y
 _atom_site_fract_z
 _atom_site_occupancy
  Na  Na0  1  0.46646000  0.37265000  0.33832600  1
  Na  Na1  1  0.53354000  0.62735000  0.66167400  1
  Ca  Ca2  1  0.01280400  0.72755700  0.63825100  1
  Ca  Ca3  1  0.98719600  0.27244300  0.36174900  1
  P  P4  1  0.83228600  0.79792700  0.27671200  1
  P  P5  1  0.16771400  0.20207300  0.72328800  1
  P  P6  1  0.81129000  0.33522400  0.94615300  1
  P  P7  1  0.18871000  0.66477600  0.05384700  1
  P  P8  1  0.61506500  0.11577800  0.72120300  1
  P  P9  1  0.38493500  0.88422200  0.27879700  1
  O  O10  1  0.08462900  0.04271100  0.65440300  1
  O  O11  1  0.91537100  0.95728900  0.34559700  1
  O  O12  1  0.37744000  0.13685800  0.78972500  1
  O  O13  1  0.62256000  0.86314200  0.21027500  1
  O  O14  1  0.17200400  0.38299300  0.59652100  1
  O  O15  1  0.82799600  0.61700700  0.40347900  1
  O  O16  1  0.04288200  0.24245800  0.91243800  1
  O  O17  1  0.95711800  0.75754200  0.08756200  1
  O  O18  1  0.76506200  0.34216300  0.14111100  1
  O  O19  1  0.23493800  0.65783700  0.85888900  1
  O  O20  1  0.78609500  0.51491600  0.82436100  1
  O  O21  1  0.21390500  0.48508400  0.17563900  1
  O  O22  1  0.68941900  0.17119000  0.89613600  1
  O  O23  1  0.31058100  0.82881000  0.10386400  1
  O  O24  1  0.65951800  0.26633600  0.56988400  1
  O  O25  1  0.34048200  0.73366400  0.43011600  1
  O  O26  1  0.68039400  0.90773200  0.70109700  1
  O  O27  1  0.31960600  0.09226800  0.29890300  1
