# generated using pymatgen
data_LuMg149
_symmetry_space_group_name_H-M   'P 1'
_cell_length_a   16.00946021
_cell_length_b   16.00946461
_cell_length_c   15.64416651
_cell_angle_alpha   90.00000000
_cell_angle_beta   90.00000000
_cell_angle_gamma   120.00001138
_symmetry_Int_Tables_number   1
_chemical_formula_structural   LuMg149
_chemical_formula_sum   'Lu1 Mg149'
_cell_volume   3472.45406230
_cell_formula_units_Z   1
loop_
 _symmetry_equiv_pos_site_id
 _symmetry_equiv_pos_as_xyz
  1  'x, y, z'
loop_
 _atom_site_type_symbol
 _atom_site_label
 _atom_site_symmetry_multiplicity
 _atom_site_fract_x
 _atom_site_fract_y
 _atom_site_fract_z
 _atom_site_occupancy
  Lu  Lu0  1  0.00000000  0.00000000  0.00000000  1
  Mg  Mg1  1  0.59994833  0.19989567  0.00000000  1
  Mg  Mg2  1  0.40094992  0.20047496  0.00000000  1
  Mg  Mg3  1  0.79952504  0.20047496  0.00000000  1
  Mg  Mg4  1  0.20126107  0.20362609  0.00000000  1
  Mg  Mg5  1  0.00236401  0.20362609  0.00000000  1
  Mg  Mg6  1  0.00012857  0.39997281  0.00000000  1
  Mg  Mg7  1  0.39984523  0.39997281  0.00000000  1
  Mg  Mg8  1  0.80010433  0.40005167  0.00000000  1
  Mg  Mg9  1  0.59994833  0.40005167  0.00000000  1
  Mg  Mg10  1  0.20128340  0.40256579  0.00000000  1
  Mg  Mg11  1  0.79952504  0.59905008  0.00000000  1
  Mg  Mg12  1  0.20034325  0.60017163  0.00000000  1
  Mg  Mg13  1  0.39982837  0.60017163  0.00000000  1
  Mg  Mg14  1  0.00012857  0.60015577  0.00000000  1
  Mg  Mg15  1  0.60002719  0.60015577  0.00000000  1
  Mg  Mg16  1  0.20128340  0.79871660  0.00000000  1
  Mg  Mg17  1  0.59743421  0.79871660  0.00000000  1
  Mg  Mg18  1  0.00236401  0.79873793  0.00000000  1
  Mg  Mg19  1  0.79637391  0.79873793  0.00000000  1
  Mg  Mg20  1  0.39982837  0.79965675  0.00000000  1
  Mg  Mg21  1  0.20126107  0.99763499  0.00000000  1
  Mg  Mg22  1  0.79637391  0.99763599  0.00000000  1
  Mg  Mg23  1  0.60002719  0.99987143  0.00000000  1
  Mg  Mg24  1  0.39984523  0.99987243  0.00000000  1
  Mg  Mg25  1  0.86784586  0.13215414  0.16501377  1
  Mg  Mg26  1  0.26430928  0.13215414  0.16501377  1
  Mg  Mg27  1  0.86784586  0.73569172  0.16501377  1
  Mg  Mg28  1  0.66666700  0.33333300  0.16619146  1
  Mg  Mg29  1  0.66721614  0.13294979  0.16651005  1
  Mg  Mg30  1  0.46573365  0.13294979  0.16651005  1
  Mg  Mg31  1  0.46573365  0.33278386  0.16651005  1
  Mg  Mg32  1  0.86705021  0.33278386  0.16651005  1
  Mg  Mg33  1  0.66721614  0.53426635  0.16651005  1
  Mg  Mg34  1  0.86705021  0.53426635  0.16651005  1
  Mg  Mg35  1  0.06665954  0.53332977  0.16713158  1
  Mg  Mg36  1  0.46667023  0.53333077  0.16713158  1
  Mg  Mg37  1  0.46667023  0.93333946  0.16713158  1
  Mg  Mg38  1  0.26705422  0.53410943  0.16729532  1
  Mg  Mg39  1  0.46589057  0.73294578  0.16729532  1
  Mg  Mg40  1  0.26705422  0.73294578  0.16729532  1
  Mg  Mg41  1  0.06777124  0.33521323  0.16748573  1
  Mg  Mg42  1  0.26744199  0.33521323  0.16748573  1
  Mg  Mg43  1  0.06777124  0.73255801  0.16748573  1
  Mg  Mg44  1  0.66478677  0.73255801  0.16748573  1
  Mg  Mg45  1  0.66478677  0.93222876  0.16748573  1
  Mg  Mg46  1  0.26744199  0.93222876  0.16748573  1
  Mg  Mg47  1  0.06753648  0.13507296  0.16867632  1
  Mg  Mg48  1  0.86492704  0.93246352  0.16867632  1
  Mg  Mg49  1  0.06753648  0.93246352  0.16867632  1
  Mg  Mg50  1  0.60001137  0.20002273  0.33285738  1
  Mg  Mg51  1  0.60001137  0.39998863  0.33285738  1
  Mg  Mg52  1  0.79997727  0.39998863  0.33285738  1
  Mg  Mg53  1  0.80010751  0.19989249  0.33292156  1
  Mg  Mg54  1  0.39978499  0.19989249  0.33292156  1
  Mg  Mg55  1  0.80010751  0.60021501  0.33292156  1
  Mg  Mg56  1  0.00001122  0.20036216  0.33332950  1
  Mg  Mg57  1  0.20035094  0.20036216  0.33332950  1
  Mg  Mg58  1  0.00001122  0.79964906  0.33332950  1
  Mg  Mg59  1  0.79963784  0.79964906  0.33332950  1
  Mg  Mg60  1  0.20035094  0.99998878  0.33332950  1
  Mg  Mg61  1  0.79963784  0.99998878  0.33332950  1
  Mg  Mg62  1  0.59983695  0.00017891  0.33364934  1
  Mg  Mg63  1  0.40034096  0.00017891  0.33364934  1
  Mg  Mg64  1  0.99982109  0.40016205  0.33364934  1
  Mg  Mg65  1  0.40034096  0.40016305  0.33364934  1
  Mg  Mg66  1  0.99982109  0.59965904  0.33364934  1
  Mg  Mg67  1  0.59983695  0.59965904  0.33364934  1
  Mg  Mg68  1  0.19988053  0.59994027  0.33370786  1
  Mg  Mg69  1  0.40005973  0.59994127  0.33370786  1
  Mg  Mg70  1  0.40005973  0.80011947  0.33370786  1
  Mg  Mg71  1  0.20020993  0.40041985  0.33403517  1
  Mg  Mg72  1  0.20020993  0.79979007  0.33403517  1
  Mg  Mg73  1  0.59958015  0.79979007  0.33403517  1
  Mg  Mg74  1  0.00000000  0.00000000  0.33457339  1
  Mg  Mg75  1  0.86652805  0.13347195  0.50000000  1
  Mg  Mg76  1  0.26694290  0.13347195  0.50000000  1
  Mg  Mg77  1  0.06677409  0.13354818  0.50000000  1
  Mg  Mg78  1  0.46700526  0.13403215  0.50000000  1
  Mg  Mg79  1  0.66702689  0.13403215  0.50000000  1
  Mg  Mg80  1  0.46700526  0.33297311  0.50000000  1
  Mg  Mg81  1  0.86596785  0.33297311  0.50000000  1
  Mg  Mg82  1  0.66666700  0.33333300  0.50000000  1
  Mg  Mg83  1  0.26677107  0.33349287  0.50000000  1
  Mg  Mg84  1  0.06672180  0.33349287  0.50000000  1
  Mg  Mg85  1  0.66702689  0.53299474  0.50000000  1
  Mg  Mg86  1  0.86596785  0.53299474  0.50000000  1
  Mg  Mg87  1  0.06619323  0.53309612  0.50000000  1
  Mg  Mg88  1  0.46690388  0.53309612  0.50000000  1
  Mg  Mg89  1  0.26672863  0.53345727  0.50000000  1
  Mg  Mg90  1  0.86652805  0.73305710  0.50000000  1
  Mg  Mg91  1  0.66650713  0.73322793  0.50000000  1
  Mg  Mg92  1  0.06672180  0.73322893  0.50000000  1
  Mg  Mg93  1  0.46654273  0.73327137  0.50000000  1
  Mg  Mg94  1  0.26672863  0.73327137  0.50000000  1
  Mg  Mg95  1  0.86645082  0.93322591  0.50000000  1
  Mg  Mg96  1  0.06677409  0.93322591  0.50000000  1
  Mg  Mg97  1  0.26677107  0.93327820  0.50000000  1
  Mg  Mg98  1  0.66650713  0.93327820  0.50000000  1
  Mg  Mg99  1  0.46690388  0.93380777  0.50000000  1
  Mg  Mg100  1  0.00000000  0.00000000  0.66542561  1
  Mg  Mg101  1  0.20020993  0.40041985  0.66596483  1
  Mg  Mg102  1  0.20020993  0.79979007  0.66596483  1
  Mg  Mg103  1  0.59958015  0.79979007  0.66596483  1
  Mg  Mg104  1  0.19988053  0.59994027  0.66629314  1
  Mg  Mg105  1  0.40005973  0.59994127  0.66629314  1
  Mg  Mg106  1  0.40005973  0.80011947  0.66629314  1
  Mg  Mg107  1  0.59983695  0.00017891  0.66635166  1
  Mg  Mg108  1  0.40034096  0.00017891  0.66635166  1
  Mg  Mg109  1  0.99982109  0.40016205  0.66635166  1
  Mg  Mg110  1  0.40034096  0.40016305  0.66635166  1
  Mg  Mg111  1  0.99982109  0.59965904  0.66635166  1
  Mg  Mg112  1  0.59983695  0.59965904  0.66635166  1
  Mg  Mg113  1  0.00001122  0.20036216  0.66667050  1
  Mg  Mg114  1  0.20035094  0.20036216  0.66667050  1
  Mg  Mg115  1  0.00001122  0.79964906  0.66667050  1
  Mg  Mg116  1  0.79963784  0.79964906  0.66667050  1
  Mg  Mg117  1  0.20035094  0.99998878  0.66667050  1
  Mg  Mg118  1  0.79963784  0.99998878  0.66667050  1
  Mg  Mg119  1  0.80010751  0.19989249  0.66707844  1
  Mg  Mg120  1  0.39978499  0.19989249  0.66707844  1
  Mg  Mg121  1  0.80010751  0.60021501  0.66707844  1
  Mg  Mg122  1  0.60001137  0.20002273  0.66714162  1
  Mg  Mg123  1  0.60001137  0.39998863  0.66714162  1
  Mg  Mg124  1  0.79997727  0.39998863  0.66714162  1
  Mg  Mg125  1  0.06753648  0.13507296  0.83132368  1
  Mg  Mg126  1  0.86492704  0.93246352  0.83132368  1
  Mg  Mg127  1  0.06753648  0.93246352  0.83132368  1
  Mg  Mg128  1  0.06777124  0.33521323  0.83251427  1
  Mg  Mg129  1  0.26744199  0.33521323  0.83251427  1
  Mg  Mg130  1  0.06777124  0.73255801  0.83251427  1
  Mg  Mg131  1  0.66478677  0.73255801  0.83251427  1
  Mg  Mg132  1  0.66478677  0.93222876  0.83251427  1
  Mg  Mg133  1  0.26744199  0.93222876  0.83251427  1
  Mg  Mg134  1  0.26705422  0.53410943  0.83270468  1
  Mg  Mg135  1  0.46589057  0.73294578  0.83270468  1
  Mg  Mg136  1  0.26705422  0.73294578  0.83270468  1
  Mg  Mg137  1  0.06665954  0.53332977  0.83286842  1
  Mg  Mg138  1  0.46667023  0.53333077  0.83286842  1
  Mg  Mg139  1  0.46667023  0.93333946  0.83286842  1
  Mg  Mg140  1  0.66721614  0.13294979  0.83348995  1
  Mg  Mg141  1  0.46573365  0.13294979  0.83348995  1
  Mg  Mg142  1  0.46573365  0.33278386  0.83348995  1
  Mg  Mg143  1  0.86705021  0.33278386  0.83348995  1
  Mg  Mg144  1  0.66721614  0.53426635  0.83348995  1
  Mg  Mg145  1  0.86705021  0.53426635  0.83348995  1
  Mg  Mg146  1  0.66666700  0.33333300  0.83380854  1
  Mg  Mg147  1  0.86784586  0.13215414  0.83498523  1
  Mg  Mg148  1  0.26430928  0.13215414  0.83498523  1
  Mg  Mg149  1  0.86784586  0.73569172  0.83498523  1
