# generated using pymatgen
data_MgFe(CO3)2
_symmetry_space_group_name_H-M   'P 1'
_cell_length_a   4.71419514
_cell_length_b   4.74660683
_cell_length_c   5.83431969
_cell_angle_alpha   65.73428412
_cell_angle_beta   114.16667909
_cell_angle_gamma   120.08887282
_symmetry_Int_Tables_number   1
_chemical_formula_structural   MgFe(CO3)2
_chemical_formula_sum   'Mg1 Fe1 C2 O6'
_cell_volume   99.49831665
_cell_formula_units_Z   1
loop_
 _symmetry_equiv_pos_site_id
 _symmetry_equiv_pos_as_xyz
  1  'x, y, z'
loop_
 _atom_site_type_symbol
 _atom_site_label
 _atom_site_symmetry_multiplicity
 _atom_site_fract_x
 _atom_site_fract_y
 _atom_site_fract_z
 _atom_site_occupancy
  Mg  Mg0  1  0.00000000  0.00000000  0.00000000  1
  Fe  Fe1  1  0.50000000  0.49999900  0.50000100  1
  C  C2  1  0.25114000  0.74918000  0.75430000  1
  C  C3  1  0.74886000  0.25082000  0.24569900  1
  O  O4  1  0.24342700  0.01824100  0.75480200  1
  O  O5  1  0.53031000  0.75659200  0.75533400  1
  O  O6  1  0.97809300  0.47131700  0.75339300  1
  O  O7  1  0.46969000  0.24340900  0.24466500  1
  O  O8  1  0.02190700  0.52868300  0.24660700  1
  O  O9  1  0.75657200  0.98175900  0.24519800  1
