# generated using pymatgen
data_Ba2LaC3O9F
_symmetry_space_group_name_H-M   'P 1'
_cell_length_a   5.17955700
_cell_length_b   6.72668300
_cell_length_c   13.33545654
_cell_angle_alpha   77.49898810
_cell_angle_beta   90.00000000
_cell_angle_gamma   90.00000000
_symmetry_Int_Tables_number   1
_chemical_formula_structural   Ba2LaC3O9F
_chemical_formula_sum   'Ba4 La2 C6 O18 F2'
_cell_volume   453.60859983
_cell_formula_units_Z   2
loop_
 _symmetry_equiv_pos_site_id
 _symmetry_equiv_pos_as_xyz
  1  'x, y, z'
loop_
 _atom_site_type_symbol
 _atom_site_label
 _atom_site_symmetry_multiplicity
 _atom_site_fract_x
 _atom_site_fract_y
 _atom_site_fract_z
 _atom_site_occupancy
  Ba  Ba0  1  0.25000000  0.27261600  0.41683500  1
  Ba  Ba1  1  0.75000000  0.78493700  0.92499600  1
  Ba  Ba2  1  0.75000000  0.72738400  0.58316500  1
  Ba  Ba3  1  0.25000000  0.21506300  0.07500400  1
  La  La4  1  0.25000000  0.22658100  0.76163400  1
  La  La5  1  0.75000000  0.77341900  0.23836600  1
  C  C6  1  0.25000000  0.74582500  0.42661900  1
  C  C7  1  0.25000000  0.66843400  0.12802600  1
  C  C8  1  0.75000000  0.33156600  0.87197400  1
  C  C9  1  0.75000000  0.25417500  0.57338100  1
  C  C10  1  0.25000000  0.78463400  0.72742800  1
  C  C11  1  0.75000000  0.21536600  0.27257200  1
  O  O12  1  0.53440800  0.12250400  0.26204100  1
  O  O13  1  0.03440800  0.87749600  0.73795900  1
  O  O14  1  0.96559200  0.12250400  0.26204100  1
  O  O15  1  0.46559200  0.87749600  0.73795900  1
  O  O16  1  0.03135600  0.59883500  0.10379400  1
  O  O17  1  0.46864400  0.59883500  0.10379400  1
  O  O18  1  0.53135600  0.40116500  0.89620600  1
  O  O19  1  0.96864400  0.40116500  0.89620600  1
  O  O20  1  0.75000000  0.19179600  0.81711900  1
  O  O21  1  0.25000000  0.80820400  0.18288100  1
  O  O22  1  0.75000000  0.39039300  0.29766000  1
  O  O23  1  0.25000000  0.60960700  0.70234000  1
  O  O24  1  0.75000000  0.13518300  0.50959800  1
  O  O25  1  0.25000000  0.86481700  0.49040200  1
  O  O26  1  0.96755700  0.32092300  0.60287900  1
  O  O27  1  0.46755700  0.67907700  0.39712100  1
  O  O28  1  0.03244300  0.67907700  0.39712100  1
  O  O29  1  0.53244300  0.32092300  0.60287900  1
  F  F30  1  0.25000000  0.98644700  0.92646800  1
  F  F31  1  0.75000000  0.01355300  0.07353200  1
