# generated using pymatgen
data_Ba2InSbSe5
_symmetry_space_group_name_H-M   'P 1'
_cell_length_a   9.93179405
_cell_length_b   9.93179405
_cell_length_c   13.38214400
_cell_angle_alpha   90.00000000
_cell_angle_beta   90.00000000
_cell_angle_gamma   154.70601072
_symmetry_Int_Tables_number   1
_chemical_formula_structural   Ba2InSbSe5
_chemical_formula_sum   'Ba4 In2 Sb2 Se10'
_cell_volume   563.99650387
_cell_formula_units_Z   2
loop_
 _symmetry_equiv_pos_site_id
 _symmetry_equiv_pos_as_xyz
  1  'x, y, z'
loop_
 _atom_site_type_symbol
 _atom_site_label
 _atom_site_symmetry_multiplicity
 _atom_site_fract_x
 _atom_site_fract_y
 _atom_site_fract_z
 _atom_site_occupancy
  Ba  Ba0  1  0.88604100  0.11395900  0.81307900  1
  Ba  Ba1  1  0.11395900  0.88604100  0.31307900  1
  Ba  Ba2  1  0.87185800  0.12814200  0.19176800  1
  Ba  Ba3  1  0.12814200  0.87185800  0.69176800  1
  In  In4  1  0.56163900  0.43836100  0.05236000  1
  In  In5  1  0.43836100  0.56163900  0.55236000  1
  Sb  Sb6  1  0.78129700  0.21870300  0.47752700  1
  Sb  Sb7  1  0.21870300  0.78129700  0.97752700  1
  Se  Se8  1  0.95427200  0.04572800  0.44096300  1
  Se  Se9  1  0.04572800  0.95427200  0.94096300  1
  Se  Se10  1  0.71749800  0.28250200  0.83669000  1
  Se  Se11  1  0.28250200  0.71749800  0.33669000  1
  Se  Se12  1  0.68996300  0.31003700  0.13008500  1
  Se  Se13  1  0.31003700  0.68996300  0.63008500  1
  Se  Se14  1  0.64504900  0.35495100  0.49965700  1
  Se  Se15  1  0.35495100  0.64504900  0.99965700  1
  Se  Se16  1  0.49799000  0.50201000  0.22303100  1
  Se  Se17  1  0.50201000  0.49799000  0.72303100  1
