# generated using pymatgen
data_PuMoC2
_symmetry_space_group_name_H-M   'P 1'
_cell_length_a   3.27627600
_cell_length_b   5.68840700
_cell_length_c   10.93064500
_cell_angle_alpha   90.00000000
_cell_angle_beta   90.00000000
_cell_angle_gamma   90.00000000
_symmetry_Int_Tables_number   1
_chemical_formula_structural   PuMoC2
_chemical_formula_sum   'Pu4 Mo4 C8'
_cell_volume   203.71214999
_cell_formula_units_Z   4
loop_
 _symmetry_equiv_pos_site_id
 _symmetry_equiv_pos_as_xyz
  1  'x, y, z'
loop_
 _atom_site_type_symbol
 _atom_site_label
 _atom_site_symmetry_multiplicity
 _atom_site_fract_x
 _atom_site_fract_y
 _atom_site_fract_z
 _atom_site_occupancy
  Pu  Pu0  1  0.25000000  0.58332300  0.85931200  1
  Pu  Pu1  1  0.75000000  0.41667700  0.14068800  1
  Pu  Pu2  1  0.75000000  0.91667700  0.35931200  1
  Pu  Pu3  1  0.25000000  0.08332300  0.64068800  1
  Mo  Mo4  1  0.25000000  0.91487000  0.10518300  1
  Mo  Mo5  1  0.75000000  0.08513000  0.89481700  1
  Mo  Mo6  1  0.75000000  0.58513000  0.60518300  1
  Mo  Mo7  1  0.25000000  0.41487000  0.39481700  1
  C  C8  1  0.25000000  0.66361500  0.24580700  1
  C  C9  1  0.75000000  0.33638500  0.75419300  1
  C  C10  1  0.75000000  0.83638500  0.74580700  1
  C  C11  1  0.25000000  0.16361500  0.25419300  1
  C  C12  1  0.25000000  0.73820600  0.51082700  1
  C  C13  1  0.75000000  0.26179400  0.48917300  1
  C  C14  1  0.75000000  0.76179400  0.01082700  1
  C  C15  1  0.25000000  0.23820600  0.98917300  1
