# generated using pymatgen
data_Er20Si12C
_symmetry_space_group_name_H-M   'P 1'
_cell_length_a   6.29623252
_cell_length_b   8.32902722
_cell_length_c   14.50291987
_cell_angle_alpha   90.00000405
_cell_angle_beta   89.99999866
_cell_angle_gamma   89.86102731
_symmetry_Int_Tables_number   1
_chemical_formula_structural   Er20Si12C
_chemical_formula_sum   'Er20 Si12 C1'
_cell_volume   760.55251957
_cell_formula_units_Z   1
loop_
 _symmetry_equiv_pos_site_id
 _symmetry_equiv_pos_as_xyz
  1  'x, y, z'
loop_
 _atom_site_type_symbol
 _atom_site_label
 _atom_site_symmetry_multiplicity
 _atom_site_fract_x
 _atom_site_fract_y
 _atom_site_fract_z
 _atom_site_occupancy
  Er  Er0  1  0.50000000  0.99999200  0.33468900  1
  Er  Er1  1  0.49999400  0.50000500  0.83183000  1
  Er  Er2  1  0.49999400  0.50000500  0.16817000  1
  Er  Er3  1  0.50000000  0.99999200  0.66531100  1
  Er  Er4  1  0.00000400  0.50000700  0.16287800  1
  Er  Er5  1  0.99999900  0.00000100  0.66937900  1
  Er  Er6  1  0.99999900  0.00000100  0.33062100  1
  Er  Er7  1  0.00000400  0.50000700  0.83712200  1
  Er  Er8  1  0.72514000  0.23564800  0.00000000  1
  Er  Er9  1  0.75038400  0.74762800  0.50000000  1
  Er  Er10  1  0.75128300  0.37685900  0.37799800  1
  Er  Er11  1  0.72706000  0.87934700  0.88152900  1
  Er  Er12  1  0.72706000  0.87934700  0.11847100  1
  Er  Er13  1  0.75128300  0.37685900  0.62200200  1
  Er  Er14  1  0.27485100  0.76434700  0.00000000  1
  Er  Er15  1  0.24958600  0.25237900  0.50000000  1
  Er  Er16  1  0.27294400  0.12064900  0.11847000  1
  Er  Er17  1  0.24872900  0.62315400  0.62200300  1
  Er  Er18  1  0.24872900  0.62315400  0.37799700  1
  Er  Er19  1  0.27294400  0.12064900  0.88153000  1
  Si  Si20  1  0.74271900  0.60041900  0.00000000  1
  Si  Si21  1  0.75131700  0.10552100  0.50000000  1
  Si  Si22  1  0.74619800  0.19917100  0.19890400  1
  Si  Si23  1  0.75178800  0.69755000  0.69714100  1
  Si  Si24  1  0.75178800  0.69755000  0.30285900  1
  Si  Si25  1  0.74619800  0.19917100  0.80109600  1
  Si  Si26  1  0.25727600  0.39958000  0.00000000  1
  Si  Si27  1  0.24868300  0.89447800  0.50000000  1
  Si  Si28  1  0.24822800  0.30244200  0.30285900  1
  Si  Si29  1  0.25380100  0.80082700  0.80110000  1
  Si  Si30  1  0.25380100  0.80082700  0.19890000  1
  Si  Si31  1  0.24822800  0.30244200  0.69714100  1
  C  C32  1  0.49999000  0.99999400  0.00000000  1
