# generated using pymatgen
data_NbF5
_symmetry_space_group_name_H-M   'P 1'
_cell_length_a   8.97122219
_cell_length_b   8.97122219
_cell_length_c   5.35852687
_cell_angle_alpha   87.19779440
_cell_angle_beta   87.19779440
_cell_angle_gamma   112.51470110
_symmetry_Int_Tables_number   1
_chemical_formula_structural   NbF5
_chemical_formula_sum   'Nb4 F20'
_cell_volume   396.85253908
_cell_formula_units_Z   4
loop_
 _symmetry_equiv_pos_site_id
 _symmetry_equiv_pos_as_xyz
  1  'x, y, z'
loop_
 _atom_site_type_symbol
 _atom_site_label
 _atom_site_symmetry_multiplicity
 _atom_site_fract_x
 _atom_site_fract_y
 _atom_site_fract_z
 _atom_site_occupancy
  Nb  Nb0  1  0.74275000  0.74275000  0.74991700  1
  Nb  Nb1  1  0.25725000  0.25725000  0.25008300  1
  Nb  Nb2  1  0.19971900  0.80028100  0.00000000  1
  Nb  Nb3  1  0.80028100  0.19971900  0.00000000  1
  F  F4  1  0.40043400  0.83440100  0.12387000  1
  F  F5  1  0.16559900  0.59956600  0.87613000  1
  F  F6  1  0.59956600  0.16559900  0.87613000  1
  F  F7  1  0.83440100  0.40043400  0.12387000  1
  F  F8  1  0.13419100  0.13419100  0.53776200  1
  F  F9  1  0.86580900  0.86580900  0.46223800  1
  F  F10  1  0.32860500  0.32860500  0.90913400  1
  F  F11  1  0.67139500  0.67139500  0.09086600  1
  F  F12  1  0.27094700  0.45883400  0.34754900  1
  F  F13  1  0.54116600  0.72905300  0.65245100  1
  F  F14  1  0.72905300  0.54116600  0.65245100  1
  F  F15  1  0.45883400  0.27094700  0.34754900  1
  F  F16  1  0.02645400  0.21632800  0.12060500  1
  F  F17  1  0.78367200  0.97354600  0.87939500  1
  F  F18  1  0.97354600  0.78367200  0.87939500  1
  F  F19  1  0.21632800  0.02645400  0.12060500  1
  F  F20  1  0.92210400  0.28303900  0.69011700  1
  F  F21  1  0.71696100  0.07789600  0.30988300  1
  F  F22  1  0.07789600  0.71696100  0.30988300  1
  F  F23  1  0.28303900  0.92210400  0.69011700  1
