# generated using pymatgen
data_Ba(ErSe2)2
_symmetry_space_group_name_H-M   'P 1'
_cell_length_a   4.19638300
_cell_length_b   12.82217500
_cell_length_c   15.11872800
_cell_angle_alpha   90.00000000
_cell_angle_beta   90.00000000
_cell_angle_gamma   90.00000000
_symmetry_Int_Tables_number   1
_chemical_formula_structural   Ba(ErSe2)2
_chemical_formula_sum   'Ba4 Er8 Se16'
_cell_volume   813.48972656
_cell_formula_units_Z   4
loop_
 _symmetry_equiv_pos_site_id
 _symmetry_equiv_pos_as_xyz
  1  'x, y, z'
loop_
 _atom_site_type_symbol
 _atom_site_label
 _atom_site_symmetry_multiplicity
 _atom_site_fract_x
 _atom_site_fract_y
 _atom_site_fract_z
 _atom_site_occupancy
  Ba  Ba0  1  0.25000000  0.75747100  0.33700900  1
  Ba  Ba1  1  0.25000000  0.25747100  0.16299100  1
  Ba  Ba2  1  0.75000000  0.24252900  0.66299100  1
  Ba  Ba3  1  0.75000000  0.74252900  0.83700900  1
  Er  Er4  1  0.25000000  0.43458300  0.39044900  1
  Er  Er5  1  0.25000000  0.93458300  0.10955100  1
  Er  Er6  1  0.75000000  0.56541700  0.60955100  1
  Er  Er7  1  0.75000000  0.06541700  0.89044900  1
  Er  Er8  1  0.25000000  0.42107700  0.90007100  1
  Er  Er9  1  0.25000000  0.92107700  0.59992900  1
  Er  Er10  1  0.75000000  0.57892300  0.09992900  1
  Er  Er11  1  0.75000000  0.07892300  0.40007100  1
  Se  Se12  1  0.25000000  0.20713600  0.83744500  1
  Se  Se13  1  0.25000000  0.70713600  0.66255500  1
  Se  Se14  1  0.75000000  0.79286400  0.16255500  1
  Se  Se15  1  0.75000000  0.29286400  0.33744500  1
  Se  Se16  1  0.25000000  0.12527800  0.52422100  1
  Se  Se17  1  0.25000000  0.62527800  0.97577900  1
  Se  Se18  1  0.75000000  0.87472200  0.47577900  1
  Se  Se19  1  0.75000000  0.37472200  0.02422100  1
  Se  Se20  1  0.25000000  0.52378800  0.21642900  1
  Se  Se21  1  0.25000000  0.02378800  0.28357100  1
  Se  Se22  1  0.75000000  0.47621200  0.78357100  1
  Se  Se23  1  0.75000000  0.97621200  0.71642900  1
  Se  Se24  1  0.25000000  0.41769900  0.57656300  1
  Se  Se25  1  0.25000000  0.91769900  0.92343700  1
  Se  Se26  1  0.75000000  0.58230100  0.42343700  1
  Se  Se27  1  0.75000000  0.08230100  0.07656300  1
