# generated using pymatgen
data_Ni8Bi8S
_symmetry_space_group_name_H-M   'P 1'
_cell_length_a   4.22803600
_cell_length_b   10.12843200
_cell_length_c   17.57637200
_cell_angle_alpha   90.00000000
_cell_angle_beta   90.00000000
_cell_angle_gamma   90.00000000
_symmetry_Int_Tables_number   1
_chemical_formula_structural   Ni8Bi8S
_chemical_formula_sum   'Ni16 Bi16 S2'
_cell_volume   752.67957140
_cell_formula_units_Z   2
loop_
 _symmetry_equiv_pos_site_id
 _symmetry_equiv_pos_as_xyz
  1  'x, y, z'
loop_
 _atom_site_type_symbol
 _atom_site_label
 _atom_site_symmetry_multiplicity
 _atom_site_fract_x
 _atom_site_fract_y
 _atom_site_fract_z
 _atom_site_occupancy
  Ni  Ni0  1  0.49786500  0.80973900  0.96825500  1
  Ni  Ni1  1  0.49786500  0.19026100  0.03174500  1
  Ni  Ni2  1  0.50213500  0.69026100  0.46825500  1
  Ni  Ni3  1  0.50213500  0.30973900  0.53174500  1
  Ni  Ni4  1  0.00175000  0.90988100  0.90363200  1
  Ni  Ni5  1  0.00175000  0.09011900  0.09636800  1
  Ni  Ni6  1  0.99825000  0.59011900  0.40363200  1
  Ni  Ni7  1  0.99825000  0.40988100  0.59636800  1
  Ni  Ni8  1  0.99839000  0.82062600  0.05462200  1
  Ni  Ni9  1  0.99839000  0.17937400  0.94537800  1
  Ni  Ni10  1  0.00161000  0.67937400  0.55462200  1
  Ni  Ni11  1  0.00161000  0.32062600  0.44537800  1
  Ni  Ni12  1  0.49643200  0.93879300  0.10778000  1
  Ni  Ni13  1  0.49643200  0.06120700  0.89222000  1
  Ni  Ni14  1  0.50356800  0.56120700  0.60778000  1
  Ni  Ni15  1  0.50356800  0.43879300  0.39222000  1
  Bi  Bi16  1  0.49848200  0.83216300  0.81349500  1
  Bi  Bi17  1  0.49848200  0.16783700  0.18650500  1
  Bi  Bi18  1  0.50151800  0.66783700  0.31349500  1
  Bi  Bi19  1  0.50151800  0.33216300  0.68650500  1
  Bi  Bi20  1  0.49971700  0.66999000  0.09949000  1
  Bi  Bi21  1  0.49971700  0.33001000  0.90051000  1
  Bi  Bi22  1  0.50028300  0.83001000  0.59949000  1
  Bi  Bi23  1  0.50028300  0.16999000  0.40051000  1
  Bi  Bi24  1  0.00036900  0.64716800  0.93582200  1
  Bi  Bi25  1  0.00036900  0.35283200  0.06417800  1
  Bi  Bi26  1  0.99963100  0.85283200  0.43582200  1
  Bi  Bi27  1  0.99963100  0.14716800  0.56417800  1
  Bi  Bi28  1  0.00066900  0.89779000  0.20336600  1
  Bi  Bi29  1  0.00066900  0.10221000  0.79663400  1
  Bi  Bi30  1  0.99933100  0.60221000  0.70336600  1
  Bi  Bi31  1  0.99933100  0.39779000  0.29663400  1
  S  S32  1  0.74272900  0.00000000  0.00000000  1
  S  S33  1  0.25727100  0.50000000  0.50000000  1
