# generated using pymatgen
data_Ba6Pr2Fe4O15
_symmetry_space_group_name_H-M   'P 1'
_cell_length_a   11.97293248
_cell_length_b   11.97293248
_cell_length_c   7.17554860
_cell_angle_alpha   89.81903917
_cell_angle_beta   89.81903917
_cell_angle_gamma   119.63732497
_symmetry_Int_Tables_number   1
_chemical_formula_structural   Ba6Pr2Fe4O15
_chemical_formula_sum   'Ba12 Pr4 Fe8 O30'
_cell_volume   894.03355384
_cell_formula_units_Z   2
loop_
 _symmetry_equiv_pos_site_id
 _symmetry_equiv_pos_as_xyz
  1  'x, y, z'
loop_
 _atom_site_type_symbol
 _atom_site_label
 _atom_site_symmetry_multiplicity
 _atom_site_fract_x
 _atom_site_fract_y
 _atom_site_fract_z
 _atom_site_occupancy
  Ba  Ba0  1  0.82327600  0.17240800  0.33463500  1
  Ba  Ba1  1  0.82613900  0.65134600  0.33555200  1
  Ba  Ba2  1  0.34749400  0.17180000  0.33619000  1
  Ba  Ba3  1  0.17240800  0.82327600  0.83463500  1
  Ba  Ba4  1  0.17180000  0.34749400  0.83619000  1
  Ba  Ba5  1  0.65134600  0.82613900  0.83555200  1
  Ba  Ba6  1  0.00104000  0.99998900  0.49695800  1
  Ba  Ba7  1  0.99998900  0.00104000  0.99695800  1
  Ba  Ba8  1  0.52153900  0.04551800  0.67066700  1
  Ba  Ba9  1  0.04551800  0.52153900  0.17066700  1
  Ba  Ba10  1  0.66805500  0.33468900  0.02148500  1
  Ba  Ba11  1  0.33468900  0.66805500  0.52148500  1
  Pr  Pr12  1  0.52056200  0.47855900  0.66348500  1
  Pr  Pr13  1  0.95546200  0.47775500  0.66850400  1
  Pr  Pr14  1  0.47855900  0.52056200  0.16348500  1
  Pr  Pr15  1  0.47775500  0.95546200  0.16850400  1
  Fe  Fe16  1  0.81861700  0.17530600  0.83385300  1
  Fe  Fe17  1  0.81697400  0.64452700  0.82966100  1
  Fe  Fe18  1  0.35822700  0.18139700  0.84261000  1
  Fe  Fe19  1  0.17530600  0.81861700  0.33385300  1
  Fe  Fe20  1  0.18139700  0.35822700  0.34261000  1
  Fe  Fe21  1  0.64452700  0.81697400  0.32966100  1
  Fe  Fe22  1  0.66288900  0.33323000  0.47449800  1
  Fe  Fe23  1  0.33323000  0.66288900  0.97449800  1
  O  O24  1  0.09006500  0.89756300  0.22763800  1
  O  O25  1  0.09818400  0.19557600  0.23331500  1
  O  O26  1  0.80953200  0.89827800  0.22963500  1
  O  O27  1  0.89756300  0.09006500  0.72763800  1
  O  O28  1  0.89827800  0.80953200  0.72963500  1
  O  O29  1  0.19557600  0.09818400  0.73331500  1
  O  O30  1  0.75867600  0.25917700  0.65888900  1
  O  O31  1  0.74610100  0.50334700  0.65491800  1
  O  O32  1  0.49678500  0.26083300  0.66022800  1
  O  O33  1  0.25917700  0.75867600  0.15888900  1
  O  O34  1  0.26083300  0.49678500  0.16022800  1
  O  O35  1  0.50334700  0.74610100  0.15491800  1
  O  O36  1  0.06479500  0.67594700  0.49032200  1
  O  O37  1  0.33417700  0.39686800  0.47352400  1
  O  O38  1  0.60584500  0.93252100  0.45088400  1
  O  O39  1  0.06898200  0.39105200  0.49196500  1
  O  O40  1  0.32651900  0.93569100  0.45570000  1
  O  O41  1  0.60313600  0.66454700  0.46742400  1
  O  O42  1  0.93569100  0.32651900  0.95570000  1
  O  O43  1  0.66454700  0.60313600  0.96742400  1
  O  O44  1  0.39105200  0.06898200  0.99196500  1
  O  O45  1  0.93252100  0.60584500  0.95088400  1
  O  O46  1  0.67594700  0.06479500  0.99032200  1
  O  O47  1  0.39686800  0.33417700  0.97352400  1
  O  O48  1  0.58149200  0.41815400  0.33059300  1
  O  O49  1  0.58438600  0.17404700  0.32135800  1
  O  O50  1  0.82501000  0.41591800  0.34052000  1
  O  O51  1  0.41815400  0.58149200  0.83059300  1
  O  O52  1  0.41591800  0.82501000  0.84052000  1
  O  O53  1  0.17404700  0.58438600  0.82135800  1
