# generated using pymatgen
data_CaLaTaFeO6
_symmetry_space_group_name_H-M   'P 1'
_cell_length_a   5.62090297
_cell_length_b   7.89175426
_cell_length_c   11.65206202
_cell_angle_alpha   89.99922949
_cell_angle_beta   89.99252336
_cell_angle_gamma   89.16773205
_symmetry_Int_Tables_number   1
_chemical_formula_structural   CaLaTaFeO6
_chemical_formula_sum   'Ca4 La4 Ta4 Fe4 O24'
_cell_volume   516.81678037
_cell_formula_units_Z   4
loop_
 _symmetry_equiv_pos_site_id
 _symmetry_equiv_pos_as_xyz
  1  'x, y, z'
loop_
 _atom_site_type_symbol
 _atom_site_label
 _atom_site_symmetry_multiplicity
 _atom_site_fract_x
 _atom_site_fract_y
 _atom_site_fract_z
 _atom_site_occupancy
  Ca  Ca0  1  0.51540800  0.25187600  0.27833600  1
  Ca  Ca1  1  0.51538200  0.25217100  0.77833500  1
  Ca  Ca2  1  0.01538900  0.75188100  0.47166500  1
  Ca  Ca3  1  0.01556600  0.75213600  0.97164900  1
  La  La4  1  0.98603900  0.24775400  0.02711300  1
  La  La5  1  0.98552600  0.24767600  0.52710300  1
  La  La6  1  0.48562200  0.74770700  0.22286600  1
  La  La7  1  0.48614500  0.74766600  0.72287500  1
  Ta  Ta8  1  0.00029600  0.49861600  0.25208700  1
  Ta  Ta9  1  0.00061700  0.49861000  0.75211000  1
  Ta  Ta10  1  0.50019600  0.99864500  0.49791900  1
  Ta  Ta11  1  0.50058800  0.99859600  0.99788300  1
  Fe  Fe12  1  0.00023200  0.00029400  0.75022800  1
  Fe  Fe13  1  0.50031800  0.50026900  0.99975500  1
  Fe  Fe14  1  0.00016600  0.00023400  0.25021400  1
  Fe  Fe15  1  0.50016700  0.50025600  0.49975700  1
  O  O16  1  0.60261600  0.75542100  0.01482400  1
  O  O17  1  0.60265600  0.75556200  0.51491500  1
  O  O18  1  0.10268100  0.25556400  0.23511100  1
  O  O19  1  0.10239000  0.25535500  0.73528200  1
  O  O20  1  0.21134600  0.95100500  0.09261800  1
  O  O21  1  0.21125700  0.95060200  0.59266100  1
  O  O22  1  0.71125500  0.45066000  0.15738400  1
  O  O23  1  0.71123800  0.45107500  0.65745400  1
  O  O24  1  0.18372000  0.55361100  0.10811200  1
  O  O25  1  0.18393900  0.55300400  0.60799900  1
  O  O26  1  0.68403000  0.05316800  0.14194300  1
  O  O27  1  0.68366800  0.05372600  0.64183500  1
  O  O28  1  0.90164700  0.74459000  0.26743100  1
  O  O29  1  0.90248400  0.74474100  0.76725700  1
  O  O30  1  0.40158800  0.24459300  0.48257200  1
  O  O31  1  0.40228300  0.24469500  0.98266700  1
  O  O32  1  0.28652200  0.54962400  0.34615800  1
  O  O33  1  0.28701900  0.54938200  0.84604900  1
  O  O34  1  0.78650100  0.04958400  0.40384500  1
  O  O35  1  0.78692900  0.04955800  0.90391400  1
  O  O36  1  0.31138900  0.94752800  0.35657600  1
  O  O37  1  0.31190500  0.94739200  0.85664400  1
  O  O38  1  0.81139600  0.44749100  0.39343500  1
  O  O39  1  0.81187400  0.44767600  0.89342000  1
