# generated using pymatgen
data_Pr6Cd(GeS7)2
_symmetry_space_group_name_H-M   'P 1'
_cell_length_a   10.33296955
_cell_length_b   10.33296955
_cell_length_c   5.84286300
_cell_angle_alpha   90.00000000
_cell_angle_beta   90.00000000
_cell_angle_gamma   119.99999714
_symmetry_Int_Tables_number   1
_chemical_formula_structural   Pr6Cd(GeS7)2
_chemical_formula_sum   'Pr6 Cd1 Ge2 S14'
_cell_volume   540.26476789
_cell_formula_units_Z   1
loop_
 _symmetry_equiv_pos_site_id
 _symmetry_equiv_pos_as_xyz
  1  'x, y, z'
loop_
 _atom_site_type_symbol
 _atom_site_label
 _atom_site_symmetry_multiplicity
 _atom_site_fract_x
 _atom_site_fract_y
 _atom_site_fract_z
 _atom_site_occupancy
  Pr  Pr0  1  0.64224200  0.76990700  0.75484200  1
  Pr  Pr1  1  0.12766500  0.35775800  0.75484200  1
  Pr  Pr2  1  0.23009300  0.87233500  0.75484200  1
  Pr  Pr3  1  0.35812900  0.23029500  0.24976300  1
  Pr  Pr4  1  0.87216600  0.64187100  0.24976300  1
  Pr  Pr5  1  0.76970500  0.12783400  0.24976300  1
  Cd  Cd6  1  0.00000000  0.00000000  0.51416300  1
  Ge  Ge7  1  0.33333300  0.66666700  0.16985400  1
  Ge  Ge8  1  0.66666700  0.33333300  0.66441400  1
  S  S9  1  0.74267800  0.83716400  0.28214800  1
  S  S10  1  0.09448600  0.25732200  0.28214800  1
  S  S11  1  0.16283600  0.90551400  0.28214800  1
  S  S12  1  0.25524500  0.16373000  0.76867200  1
  S  S13  1  0.90848500  0.74475500  0.76867200  1
  S  S14  1  0.83627000  0.09151500  0.76867200  1
  S  S15  1  0.33333300  0.66666700  0.54579600  1
  S  S16  1  0.66666700  0.33333300  0.04128200  1
  S  S17  1  0.47981300  0.89346400  0.01425200  1
  S  S18  1  0.41365100  0.52018700  0.01425200  1
  S  S19  1  0.10653600  0.58634900  0.01425200  1
  S  S20  1  0.52017600  0.10649700  0.51084400  1
  S  S21  1  0.58632100  0.47982400  0.51084400  1
  S  S22  1  0.89350300  0.41367900  0.51084400  1
