# generated using pymatgen
data_Sm2Si5Pt3
_symmetry_space_group_name_H-M   'P 1'
_cell_length_a   8.21935996
_cell_length_b   8.21935996
_cell_length_c   8.21935996
_cell_angle_alpha   136.49196887
_cell_angle_beta   105.11297530
_cell_angle_gamma   90.80210856
_symmetry_Int_Tables_number   1
_chemical_formula_structural   Sm2Si5Pt3
_chemical_formula_sum   'Sm4 Si10 Pt6'
_cell_volume   351.41318574
_cell_formula_units_Z   2
loop_
 _symmetry_equiv_pos_site_id
 _symmetry_equiv_pos_as_xyz
  1  'x, y, z'
loop_
 _atom_site_type_symbol
 _atom_site_label
 _atom_site_symmetry_multiplicity
 _atom_site_fract_x
 _atom_site_fract_y
 _atom_site_fract_z
 _atom_site_occupancy
  Sm  Sm0  1  0.63896200  0.36937400  0.26958800  1
  Sm  Sm1  1  0.36103800  0.63062600  0.73041200  1
  Sm  Sm2  1  0.09978600  0.86937400  0.23041200  1
  Sm  Sm3  1  0.90021400  0.13062600  0.76958800  1
  Si  Si4  1  0.27231800  0.52231800  0.25000000  1
  Si  Si5  1  0.72768200  0.47768200  0.75000000  1
  Si  Si6  1  0.72768200  0.97768200  0.25000000  1
  Si  Si7  1  0.27231800  0.02231800  0.75000000  1
  Si  Si8  1  0.46044700  0.11146500  0.34898200  1
  Si  Si9  1  0.53955300  0.88853500  0.65101800  1
  Si  Si10  1  0.76248300  0.61146500  0.15101800  1
  Si  Si11  1  0.23751700  0.38853500  0.84898200  1
  Si  Si12  1  0.00000000  0.25000000  0.25000000  1
  Si  Si13  1  0.00000000  0.75000000  0.75000000  1
  Pt  Pt14  1  0.24736500  0.13675500  0.11061000  1
  Pt  Pt15  1  0.75263500  0.86324500  0.88939000  1
  Pt  Pt16  1  0.02614500  0.63675500  0.38939000  1
  Pt  Pt17  1  0.97385500  0.36324500  0.61061000  1
  Pt  Pt18  1  0.50000000  0.25000000  0.75000000  1
  Pt  Pt19  1  0.50000000  0.75000000  0.25000000  1
