# generated using pymatgen
data_Rb3TbCl6
_symmetry_space_group_name_H-M   'P 1'
_cell_length_a   13.70377547
_cell_length_b   13.70377547
_cell_length_c   13.02944389
_cell_angle_alpha   80.99535745
_cell_angle_beta   80.99535745
_cell_angle_gamma   34.03023668
_symmetry_Int_Tables_number   1
_chemical_formula_structural   Rb3TbCl6
_chemical_formula_sum   'Rb12 Tb4 Cl24'
_cell_volume   1350.86106700
_cell_formula_units_Z   4
loop_
 _symmetry_equiv_pos_site_id
 _symmetry_equiv_pos_as_xyz
  1  'x, y, z'
loop_
 _atom_site_type_symbol
 _atom_site_label
 _atom_site_symmetry_multiplicity
 _atom_site_fract_x
 _atom_site_fract_y
 _atom_site_fract_z
 _atom_site_occupancy
  Rb  Rb0  1  0.30251500  0.79659100  0.06683400  1
  Rb  Rb1  1  0.69748500  0.20340900  0.93316600  1
  Rb  Rb2  1  0.20340900  0.69748500  0.43316600  1
  Rb  Rb3  1  0.79659100  0.30251500  0.56683400  1
  Rb  Rb4  1  0.46590000  0.84165700  0.35590400  1
  Rb  Rb5  1  0.53410000  0.15834300  0.64409600  1
  Rb  Rb6  1  0.15834300  0.53410000  0.14409600  1
  Rb  Rb7  1  0.84165700  0.46590000  0.85590400  1
  Rb  Rb8  1  0.65094700  0.02537900  0.29963500  1
  Rb  Rb9  1  0.34905300  0.97462100  0.70036500  1
  Rb  Rb10  1  0.97462100  0.34905300  0.20036500  1
  Rb  Rb11  1  0.02537900  0.65094700  0.79963500  1
  Tb  Tb12  1  0.78302900  0.21697100  0.25000000  1
  Tb  Tb13  1  0.21697100  0.78302900  0.75000000  1
  Tb  Tb14  1  0.50000000  0.00000000  0.00000000  1
  Tb  Tb15  1  0.00000000  0.50000000  0.50000000  1
  Cl  Cl16  1  0.62263700  0.72222100  0.08127800  1
  Cl  Cl17  1  0.37736300  0.27777900  0.91872200  1
  Cl  Cl18  1  0.27777900  0.37736300  0.41872200  1
  Cl  Cl19  1  0.72222100  0.62263700  0.58127800  1
  Cl  Cl20  1  0.49575800  0.38647900  0.17885300  1
  Cl  Cl21  1  0.50424200  0.61352100  0.82114700  1
  Cl  Cl22  1  0.61352100  0.50424200  0.32114700  1
  Cl  Cl23  1  0.38647900  0.49575800  0.67885300  1
  Cl  Cl24  1  0.78362900  0.86267600  0.03444200  1
  Cl  Cl25  1  0.21637100  0.13732400  0.96555800  1
  Cl  Cl26  1  0.13732400  0.21637100  0.46555800  1
  Cl  Cl27  1  0.86267600  0.78362900  0.53444200  1
  Cl  Cl28  1  0.91251700  0.96934400  0.69639800  1
  Cl  Cl29  1  0.08748300  0.03065600  0.30360200  1
  Cl  Cl30  1  0.03065600  0.08748300  0.80360200  1
  Cl  Cl31  1  0.96934400  0.91251700  0.19639800  1
  Cl  Cl32  1  0.71686900  0.16685100  0.43531500  1
  Cl  Cl33  1  0.28313100  0.83314900  0.56468500  1
  Cl  Cl34  1  0.83314900  0.28313100  0.06468500  1
  Cl  Cl35  1  0.16685100  0.71686900  0.93531500  1
  Cl  Cl36  1  0.35966600  0.14120800  0.18640800  1
  Cl  Cl37  1  0.64033400  0.85879200  0.81359200  1
  Cl  Cl38  1  0.85879200  0.64033400  0.31359200  1
  Cl  Cl39  1  0.14120800  0.35966600  0.68640800  1
