# generated using pymatgen
data_Sm6Mn(SiS7)2
_symmetry_space_group_name_H-M   'P 1'
_cell_length_a   10.10873945
_cell_length_b   10.10873945
_cell_length_c   5.68307400
_cell_angle_alpha   90.00000000
_cell_angle_beta   90.00000000
_cell_angle_gamma   119.99999637
_symmetry_Int_Tables_number   1
_chemical_formula_structural   Sm6Mn(SiS7)2
_chemical_formula_sum   'Sm6 Mn1 Si2 S14'
_cell_volume   502.93048841
_cell_formula_units_Z   1
loop_
 _symmetry_equiv_pos_site_id
 _symmetry_equiv_pos_as_xyz
  1  'x, y, z'
loop_
 _atom_site_type_symbol
 _atom_site_label
 _atom_site_symmetry_multiplicity
 _atom_site_fract_x
 _atom_site_fract_y
 _atom_site_fract_z
 _atom_site_occupancy
  Sm  Sm0  1  0.12329400  0.76595300  0.25008100  1
  Sm  Sm1  1  0.23404700  0.35734200  0.25008100  1
  Sm  Sm2  1  0.64265800  0.87670600  0.25008100  1
  Sm  Sm3  1  0.87618100  0.23225500  0.75138000  1
  Sm  Sm4  1  0.76774500  0.64392600  0.75138000  1
  Sm  Sm5  1  0.35607400  0.12381900  0.75138000  1
  Mn  Mn6  1  0.00000000  0.00000000  0.48740500  1
  Si  Si7  1  0.33333300  0.66666700  0.83531600  1
  Si  Si8  1  0.66666700  0.33333300  0.33758700  1
  S  S9  1  0.33333300  0.66666700  0.46569300  1
  S  S10  1  0.66666700  0.33333300  0.96755000  1
  S  S11  1  0.08586700  0.83889100  0.72905600  1
  S  S12  1  0.16110900  0.24697600  0.72905600  1
  S  S13  1  0.75302400  0.91413300  0.72905600  1
  S  S14  1  0.91600800  0.16285100  0.24448200  1
  S  S15  1  0.83714900  0.75315700  0.24448200  1
  S  S16  1  0.24684300  0.08399200  0.24448200  1
  S  S17  1  0.40985000  0.88873700  0.98175700  1
  S  S18  1  0.11126300  0.52111300  0.98175700  1
  S  S19  1  0.47888700  0.59015000  0.98175700  1
  S  S20  1  0.58874700  0.11068600  0.48401600  1
  S  S21  1  0.88931400  0.47806100  0.48401600  1
  S  S22  1  0.52193900  0.41125300  0.48401600  1
