# generated using pymatgen
data_La2ZnBi4
_symmetry_space_group_name_H-M   'P 1'
_cell_length_a   4.63893400
_cell_length_b   4.63893400
_cell_length_c   10.25013700
_cell_angle_alpha   90.00000000
_cell_angle_beta   90.00000000
_cell_angle_gamma   90.00000000
_symmetry_Int_Tables_number   1
_chemical_formula_structural   La2ZnBi4
_chemical_formula_sum   'La2 Zn1 Bi4'
_cell_volume   220.57996193
_cell_formula_units_Z   1
loop_
 _symmetry_equiv_pos_site_id
 _symmetry_equiv_pos_as_xyz
  1  'x, y, z'
loop_
 _atom_site_type_symbol
 _atom_site_label
 _atom_site_symmetry_multiplicity
 _atom_site_fract_x
 _atom_site_fract_y
 _atom_site_fract_z
 _atom_site_occupancy
  La  La0  1  0.50000000  0.00000000  0.73929400  1
  La  La1  1  0.00000000  0.50000000  0.26070600  1
  Zn  Zn2  1  0.50000000  0.50000000  0.50000000  1
  Bi  Bi3  1  0.50000000  0.00000000  0.34352000  1
  Bi  Bi4  1  0.00000000  0.50000000  0.65648000  1
  Bi  Bi5  1  0.50000000  0.50000000  0.00000000  1
  Bi  Bi6  1  0.00000000  0.00000000  0.00000000  1
