# generated using pymatgen
data_ZrSiIr
_symmetry_space_group_name_H-M   'P 1'
_cell_length_a   3.98954600
_cell_length_b   6.59133300
_cell_length_c   7.45097600
_cell_angle_alpha   90.00000000
_cell_angle_beta   90.00000000
_cell_angle_gamma   90.00000000
_symmetry_Int_Tables_number   1
_chemical_formula_structural   ZrSiIr
_chemical_formula_sum   'Zr4 Si4 Ir4'
_cell_volume   195.93404054
_cell_formula_units_Z   4
loop_
 _symmetry_equiv_pos_site_id
 _symmetry_equiv_pos_as_xyz
  1  'x, y, z'
loop_
 _atom_site_type_symbol
 _atom_site_label
 _atom_site_symmetry_multiplicity
 _atom_site_fract_x
 _atom_site_fract_y
 _atom_site_fract_z
 _atom_site_occupancy
  Zr  Zr0  1  0.25000000  0.01858300  0.31793500  1
  Zr  Zr1  1  0.25000000  0.51858300  0.18206500  1
  Zr  Zr2  1  0.75000000  0.98141700  0.68206500  1
  Zr  Zr3  1  0.75000000  0.48141700  0.81793500  1
  Si  Si4  1  0.25000000  0.27860300  0.61840600  1
  Si  Si5  1  0.25000000  0.77860300  0.88159400  1
  Si  Si6  1  0.75000000  0.72139700  0.38159400  1
  Si  Si7  1  0.75000000  0.22139700  0.11840600  1
  Ir  Ir8  1  0.25000000  0.15197500  0.93495300  1
  Ir  Ir9  1  0.25000000  0.65197500  0.56504700  1
  Ir  Ir10  1  0.75000000  0.84802500  0.06504700  1
  Ir  Ir11  1  0.75000000  0.34802500  0.43495300  1
