# generated using pymatgen
data_Er5(ReO6)2
_symmetry_space_group_name_H-M   'P 1'
_cell_length_a   6.78888251
_cell_length_b   6.78888251
_cell_length_c   7.49284380
_cell_angle_alpha   73.76833324
_cell_angle_beta   73.76833324
_cell_angle_gamma   49.13805151
_symmetry_Int_Tables_number   1
_chemical_formula_structural   Er5(ReO6)2
_chemical_formula_sum   'Er5 Re2 O12'
_cell_volume   248.53271952
_cell_formula_units_Z   1
loop_
 _symmetry_equiv_pos_site_id
 _symmetry_equiv_pos_as_xyz
  1  'x, y, z'
loop_
 _atom_site_type_symbol
 _atom_site_label
 _atom_site_symmetry_multiplicity
 _atom_site_fract_x
 _atom_site_fract_y
 _atom_site_fract_z
 _atom_site_occupancy
  Er  Er0  1  0.69710000  0.69710000  0.63948800  1
  Er  Er1  1  0.30290000  0.30290000  0.36051200  1
  Er  Er2  1  0.68608100  0.68608100  0.17545900  1
  Er  Er3  1  0.31391900  0.31391900  0.82454100  1
  Er  Er4  1  0.00000000  0.00000000  0.50000000  1
  Re  Re5  1  0.78546900  0.21453100  0.00000000  1
  Re  Re6  1  0.21453100  0.78546900  0.00000000  1
  O  O7  1  0.00056100  0.00056100  0.20792800  1
  O  O8  1  0.99943900  0.99943900  0.79207200  1
  O  O9  1  0.57914600  0.08813100  0.08666200  1
  O  O10  1  0.42085400  0.91186900  0.91333800  1
  O  O11  1  0.91186900  0.42085400  0.91333800  1
  O  O12  1  0.08813100  0.57914600  0.08666200  1
  O  O13  1  0.49933300  0.49933300  0.17966400  1
  O  O14  1  0.50066700  0.50066700  0.82033600  1
  O  O15  1  0.40596400  0.90170700  0.42583800  1
  O  O16  1  0.59403600  0.09829300  0.57416200  1
  O  O17  1  0.09829300  0.59403600  0.57416200  1
  O  O18  1  0.90170700  0.40596400  0.42583800  1
