# generated using pymatgen
data_Cs2Ti4O9
_symmetry_space_group_name_H-M   'P 1'
_cell_length_a   3.85612200
_cell_length_b   10.31632937
_cell_length_c   12.24768887
_cell_angle_alpha   105.90493548
_cell_angle_beta   90.00000000
_cell_angle_gamma   100.77158211
_symmetry_Int_Tables_number   1
_chemical_formula_structural   Cs2Ti4O9
_chemical_formula_sum   'Cs4 Ti8 O18'
_cell_volume   459.64037608
_cell_formula_units_Z   2
loop_
 _symmetry_equiv_pos_site_id
 _symmetry_equiv_pos_as_xyz
  1  'x, y, z'
loop_
 _atom_site_type_symbol
 _atom_site_label
 _atom_site_symmetry_multiplicity
 _atom_site_fract_x
 _atom_site_fract_y
 _atom_site_fract_z
 _atom_site_occupancy
  Cs  Cs0  1  0.58608800  0.17217600  0.58667400  1
  Cs  Cs1  1  0.41391200  0.82782400  0.41332600  1
  Cs  Cs2  1  0.51695000  0.03390000  0.83911400  1
  Cs  Cs3  1  0.48305000  0.96610000  0.16088600  1
  Ti  Ti4  1  0.75305600  0.50611100  0.33433600  1
  Ti  Ti5  1  0.24694400  0.49388900  0.66566400  1
  Ti  Ti6  1  0.20748000  0.41496000  0.89888400  1
  Ti  Ti7  1  0.79252000  0.58504000  0.10111600  1
  Ti  Ti8  1  0.83021000  0.66042000  0.87367400  1
  Ti  Ti9  1  0.16979000  0.33958000  0.12632600  1
  Ti  Ti10  1  0.86690800  0.73381600  0.63835200  1
  Ti  Ti11  1  0.13309200  0.26618400  0.36164800  1
  O  O12  1  0.76651900  0.53303800  0.69979700  1
  O  O13  1  0.23348100  0.46696200  0.30020300  1
  O  O14  1  0.82841400  0.65682800  0.25314000  1
  O  O15  1  0.17158600  0.34317200  0.74686000  1
  O  O16  1  0.13381200  0.26762400  0.96511400  1
  O  O17  1  0.86618800  0.73237600  0.03488600  1
  O  O18  1  0.30435100  0.60870100  0.85862800  1
  O  O19  1  0.69564900  0.39129900  0.14137200  1
  O  O20  1  0.94899900  0.89799900  0.62150300  1
  O  O21  1  0.05100100  0.10200100  0.37849700  1
  O  O22  1  0.81119000  0.62238000  0.47210800  1
  O  O23  1  0.18881000  0.37762000  0.52789200  1
  O  O24  1  0.73137800  0.46275500  0.92205900  1
  O  O25  1  0.26862200  0.53724500  0.07794100  1
  O  O26  1  0.65870900  0.31741800  0.35850300  1
  O  O27  1  0.34129100  0.68258200  0.64149700  1
  O  O28  1  0.90159100  0.80318200  0.81554300  1
  O  O29  1  0.09840900  0.19681800  0.18445700  1
