# generated using pymatgen
data_Sr3CdIrO6
_symmetry_space_group_name_H-M   'P 1'
_cell_length_a   6.86368458
_cell_length_b   6.86368458
_cell_length_c   6.86368468
_cell_angle_alpha   90.04731417
_cell_angle_beta   90.04731417
_cell_angle_gamma   90.04730420
_symmetry_Int_Tables_number   1
_chemical_formula_structural   Sr3CdIrO6
_chemical_formula_sum   'Sr6 Cd2 Ir2 O12'
_cell_volume   323.34899447
_cell_formula_units_Z   2
loop_
 _symmetry_equiv_pos_site_id
 _symmetry_equiv_pos_as_xyz
  1  'x, y, z'
loop_
 _atom_site_type_symbol
 _atom_site_label
 _atom_site_symmetry_multiplicity
 _atom_site_fract_x
 _atom_site_fract_y
 _atom_site_fract_z
 _atom_site_occupancy
  Sr  Sr0  1  0.75000000  0.38818900  0.11181100  1
  Sr  Sr1  1  0.11181100  0.75000000  0.38818900  1
  Sr  Sr2  1  0.25000000  0.61181100  0.88818900  1
  Sr  Sr3  1  0.38818900  0.11181100  0.75000000  1
  Sr  Sr4  1  0.61181100  0.88818900  0.25000000  1
  Sr  Sr5  1  0.88818900  0.25000000  0.61181100  1
  Cd  Cd6  1  0.25000000  0.25000000  0.25000000  1
  Cd  Cd7  1  0.75000000  0.75000000  0.75000000  1
  Ir  Ir8  1  0.50000000  0.50000000  0.50000000  1
  Ir  Ir9  1  0.00000000  0.00000000  0.00000000  1
  O  O10  1  0.08360800  0.28251700  0.94824200  1
  O  O11  1  0.94824200  0.08360800  0.28251700  1
  O  O12  1  0.28251700  0.94824200  0.08360800  1
  O  O13  1  0.41639200  0.55175800  0.21748300  1
  O  O14  1  0.21748300  0.41639200  0.55175800  1
  O  O15  1  0.55175800  0.21748300  0.41639200  1
  O  O16  1  0.91639200  0.71748300  0.05175800  1
  O  O17  1  0.05175800  0.91639200  0.71748300  1
  O  O18  1  0.71748300  0.05175800  0.91639200  1
  O  O19  1  0.58360800  0.44824200  0.78251700  1
  O  O20  1  0.44824200  0.78251700  0.58360800  1
  O  O21  1  0.78251700  0.58360800  0.44824200  1
