# generated using pymatgen
data_Eu2CoRuO6
_symmetry_space_group_name_H-M   'P 1'
_cell_length_a   5.46482801
_cell_length_b   5.78589500
_cell_length_c   7.77623078
_cell_angle_alpha   90.00000000
_cell_angle_beta   89.46213216
_cell_angle_gamma   90.00000000
_symmetry_Int_Tables_number   1
_chemical_formula_structural   Eu2CoRuO6
_chemical_formula_sum   'Eu4 Co2 Ru2 O12'
_cell_volume   245.86519330
_cell_formula_units_Z   2
loop_
 _symmetry_equiv_pos_site_id
 _symmetry_equiv_pos_as_xyz
  1  'x, y, z'
loop_
 _atom_site_type_symbol
 _atom_site_label
 _atom_site_symmetry_multiplicity
 _atom_site_fract_x
 _atom_site_fract_y
 _atom_site_fract_z
 _atom_site_occupancy
  Eu  Eu0  1  0.01737100  0.43256000  0.25108400  1
  Eu  Eu1  1  0.98262900  0.56744000  0.74891600  1
  Eu  Eu2  1  0.48262900  0.93256000  0.24891600  1
  Eu  Eu3  1  0.51737100  0.06744000  0.75108400  1
  Co  Co4  1  0.00000000  0.00000000  0.50000000  1
  Co  Co5  1  0.50000000  0.50000000  0.00000000  1
  Ru  Ru6  1  0.00000000  0.00000000  0.00000000  1
  Ru  Ru7  1  0.50000000  0.50000000  0.50000000  1
  O  O8  1  0.18478600  0.70909500  0.05285400  1
  O  O9  1  0.81521400  0.29090500  0.94714600  1
  O  O10  1  0.31521400  0.20909500  0.44714600  1
  O  O11  1  0.68478600  0.79090500  0.55285400  1
  O  O12  1  0.29851800  0.18905000  0.04614500  1
  O  O13  1  0.70148200  0.81095000  0.95385500  1
  O  O14  1  0.20148200  0.68905000  0.45385500  1
  O  O15  1  0.79851800  0.31095000  0.54614500  1
  O  O16  1  0.90309800  0.03021600  0.24637900  1
  O  O17  1  0.09690200  0.96978400  0.75362100  1
  O  O18  1  0.59690200  0.53021600  0.25362100  1
  O  O19  1  0.40309800  0.46978400  0.74637900  1
