# generated using pymatgen
data_DyGeRu
_symmetry_space_group_name_H-M   'P 1'
_cell_length_a   4.43461200
_cell_length_b   7.05262200
_cell_length_c   7.25242200
_cell_angle_alpha   90.00000000
_cell_angle_beta   90.00000000
_cell_angle_gamma   90.00000000
_symmetry_Int_Tables_number   1
_chemical_formula_structural   DyGeRu
_chemical_formula_sum   'Dy4 Ge4 Ru4'
_cell_volume   226.82415521
_cell_formula_units_Z   4
loop_
 _symmetry_equiv_pos_site_id
 _symmetry_equiv_pos_as_xyz
  1  'x, y, z'
loop_
 _atom_site_type_symbol
 _atom_site_label
 _atom_site_symmetry_multiplicity
 _atom_site_fract_x
 _atom_site_fract_y
 _atom_site_fract_z
 _atom_site_occupancy
  Dy  Dy0  1  0.25000000  0.98556300  0.80825200  1
  Dy  Dy1  1  0.75000000  0.01443700  0.19174800  1
  Dy  Dy2  1  0.25000000  0.48556300  0.69174800  1
  Dy  Dy3  1  0.75000000  0.51443700  0.30825200  1
  Ge  Ge4  1  0.25000000  0.29747000  0.10626000  1
  Ge  Ge5  1  0.75000000  0.70253000  0.89374000  1
  Ge  Ge6  1  0.25000000  0.79747000  0.39374000  1
  Ge  Ge7  1  0.75000000  0.20253000  0.60626000  1
  Ru  Ru8  1  0.75000000  0.84501400  0.56412500  1
  Ru  Ru9  1  0.25000000  0.15498600  0.43587500  1
  Ru  Ru10  1  0.75000000  0.34501400  0.93587500  1
  Ru  Ru11  1  0.25000000  0.65498600  0.06412500  1
