# generated using pymatgen
data_Lu2B6Ru
_symmetry_space_group_name_H-M   'P 1'
_cell_length_a   3.59742900
_cell_length_b   9.02241800
_cell_length_c   11.38529000
_cell_angle_alpha   90.00000000
_cell_angle_beta   90.00000000
_cell_angle_gamma   90.00000000
_symmetry_Int_Tables_number   1
_chemical_formula_structural   Lu2B6Ru
_chemical_formula_sum   'Lu8 B24 Ru4'
_cell_volume   369.53814312
_cell_formula_units_Z   4
loop_
 _symmetry_equiv_pos_site_id
 _symmetry_equiv_pos_as_xyz
  1  'x, y, z'
loop_
 _atom_site_type_symbol
 _atom_site_label
 _atom_site_symmetry_multiplicity
 _atom_site_fract_x
 _atom_site_fract_y
 _atom_site_fract_z
 _atom_site_occupancy
  Lu  Lu0  1  0.00000000  0.32093200  0.41415000  1
  Lu  Lu1  1  0.00000000  0.67906800  0.58585000  1
  Lu  Lu2  1  0.00000000  0.82093200  0.08585000  1
  Lu  Lu3  1  0.00000000  0.17906800  0.91415000  1
  Lu  Lu4  1  0.00000000  0.94437600  0.37308800  1
  Lu  Lu5  1  0.00000000  0.05562400  0.62691200  1
  Lu  Lu6  1  0.00000000  0.44437600  0.12691200  1
  Lu  Lu7  1  0.00000000  0.55562400  0.87308800  1
  B  B8  1  0.50000000  0.55381700  0.43372700  1
  B  B9  1  0.50000000  0.44618300  0.56627300  1
  B  B10  1  0.50000000  0.05381700  0.06627300  1
  B  B11  1  0.50000000  0.94618300  0.93372700  1
  B  B12  1  0.50000000  0.74932200  0.42080300  1
  B  B13  1  0.50000000  0.25067800  0.57919700  1
  B  B14  1  0.50000000  0.24932200  0.07919700  1
  B  B15  1  0.50000000  0.75067800  0.92080300  1
  B  B16  1  0.50000000  0.79230500  0.26619500  1
  B  B17  1  0.50000000  0.20769500  0.73380500  1
  B  B18  1  0.50000000  0.29230500  0.23380500  1
  B  B19  1  0.50000000  0.70769500  0.76619500  1
  B  B20  1  0.50000000  0.63170000  0.18455900  1
  B  B21  1  0.50000000  0.36830000  0.81544100  1
  B  B22  1  0.50000000  0.13170000  0.31544100  1
  B  B23  1  0.50000000  0.86830000  0.68455900  1
  B  B24  1  0.50000000  0.98248300  0.21293500  1
  B  B25  1  0.50000000  0.01751700  0.78706500  1
  B  B26  1  0.50000000  0.48248300  0.28706500  1
  B  B27  1  0.50000000  0.51751700  0.71293500  1
  B  B28  1  0.50000000  0.60819200  0.02988100  1
  B  B29  1  0.50000000  0.39180800  0.97011900  1
  B  B30  1  0.50000000  0.10819200  0.47011900  1
  B  B31  1  0.50000000  0.89180800  0.52988100  1
  Ru  Ru32  1  0.00000000  0.63784200  0.32084900  1
  Ru  Ru33  1  0.00000000  0.36215800  0.67915100  1
  Ru  Ru34  1  0.00000000  0.13784200  0.17915100  1
  Ru  Ru35  1  0.00000000  0.86215800  0.82084900  1
