# generated using pymatgen
data_KLiGdF5
_symmetry_space_group_name_H-M   'P 1'
_cell_length_a   6.63151807
_cell_length_b   6.45116109
_cell_length_c   12.00821000
_cell_angle_alpha   90.00000000
_cell_angle_beta   90.00000000
_cell_angle_gamma   113.72214392
_symmetry_Int_Tables_number   1
_chemical_formula_structural   KLiGdF5
_chemical_formula_sum   'K4 Li4 Gd4 F20'
_cell_volume   470.31721138
_cell_formula_units_Z   4
loop_
 _symmetry_equiv_pos_site_id
 _symmetry_equiv_pos_as_xyz
  1  'x, y, z'
loop_
 _atom_site_type_symbol
 _atom_site_label
 _atom_site_symmetry_multiplicity
 _atom_site_fract_x
 _atom_site_fract_y
 _atom_site_fract_z
 _atom_site_occupancy
  K  K0  1  0.94714400  0.96377000  0.35001700  1
  K  K1  1  0.05285600  0.03623000  0.64998300  1
  K  K2  1  0.05285600  0.53623000  0.85001700  1
  K  K3  1  0.94714400  0.46377000  0.14998300  1
  Li  Li4  1  0.55741400  0.96157700  0.74607300  1
  Li  Li5  1  0.44258600  0.03842300  0.25392700  1
  Li  Li6  1  0.44258600  0.53842300  0.24607300  1
  Li  Li7  1  0.55741400  0.46157700  0.75392700  1
  Gd  Gd8  1  0.68207100  0.82043700  0.99767400  1
  Gd  Gd9  1  0.31792900  0.17956300  0.00232600  1
  Gd  Gd10  1  0.31792900  0.67956300  0.49767400  1
  Gd  Gd11  1  0.68207100  0.32043700  0.50232600  1
  F  F12  1  0.71797000  0.77599400  0.80303600  1
  F  F13  1  0.28203000  0.22400600  0.19696400  1
  F  F14  1  0.28203000  0.72400600  0.30303600  1
  F  F15  1  0.71797000  0.27599400  0.69696400  1
  F  F16  1  0.66634500  0.95285500  0.53227100  1
  F  F17  1  0.33365500  0.04714500  0.46772900  1
  F  F18  1  0.33365500  0.54714500  0.03227100  1
  F  F19  1  0.66634500  0.45285500  0.96772900  1
  F  F20  1  0.95634700  0.67464600  0.50654900  1
  F  F21  1  0.04365300  0.32535400  0.49345100  1
  F  F22  1  0.04365300  0.82535400  0.00654900  1
  F  F23  1  0.95634700  0.17464600  0.99345100  1
  F  F24  1  0.46375600  0.96539100  0.89453200  1
  F  F25  1  0.53624400  0.03460900  0.10546800  1
  F  F26  1  0.53624400  0.53460900  0.39453200  1
  F  F27  1  0.46375600  0.46539100  0.60546800  1
  F  F28  1  0.28834300  0.78163300  0.67575700  1
  F  F29  1  0.71165700  0.21836700  0.32424300  1
  F  F30  1  0.71165700  0.71836700  0.17575700  1
  F  F31  1  0.28834300  0.28163300  0.82424300  1
