# generated using pymatgen
data_Eu2FeSbO7
_symmetry_space_group_name_H-M   'P 1'
_cell_length_a   7.40113247
_cell_length_b   7.40113247
_cell_length_c   7.40113247
_cell_angle_alpha   120.54680869
_cell_angle_beta   119.48763126
_cell_angle_gamma   89.97262548
_symmetry_Int_Tables_number   1
_chemical_formula_structural   Eu2FeSbO7
_chemical_formula_sum   'Eu4 Fe2 Sb2 O14'
_cell_volume   286.56293558
_cell_formula_units_Z   2
loop_
 _symmetry_equiv_pos_site_id
 _symmetry_equiv_pos_as_xyz
  1  'x, y, z'
loop_
 _atom_site_type_symbol
 _atom_site_label
 _atom_site_symmetry_multiplicity
 _atom_site_fract_x
 _atom_site_fract_y
 _atom_site_fract_z
 _atom_site_occupancy
  Eu  Eu0  1  0.00000000  0.00000000  0.50000000  1
  Eu  Eu1  1  0.00000000  0.50000000  0.00000000  1
  Eu  Eu2  1  0.00000000  0.00000000  0.00000000  1
  Eu  Eu3  1  0.50000000  0.00000000  0.50000000  1
  Fe  Fe4  1  0.50000000  0.50000000  0.50000000  1
  Fe  Fe5  1  0.50000000  0.00000000  0.00000000  1
  Sb  Sb6  1  0.50000000  0.50000000  0.00000000  1
  Sb  Sb7  1  0.00000000  0.50000000  0.50000000  1
  O  O8  1  0.12453100  0.87453100  0.25000000  1
  O  O9  1  0.87546900  0.12546900  0.75000000  1
  O  O10  1  0.42099100  0.17099100  0.25000000  1
  O  O11  1  0.82823900  0.57823900  0.25000000  1
  O  O12  1  0.42010900  0.57731700  0.24602200  1
  O  O13  1  0.83129500  0.17408700  0.25397800  1
  O  O14  1  0.42010900  0.17408700  0.84279200  1
  O  O15  1  0.83129500  0.57731700  0.65720800  1
  O  O16  1  0.57900900  0.82900900  0.75000000  1
  O  O17  1  0.17176100  0.42176100  0.75000000  1
  O  O18  1  0.57989100  0.42268300  0.75397800  1
  O  O19  1  0.16870500  0.82591300  0.74602200  1
  O  O20  1  0.57989100  0.82591300  0.15720800  1
  O  O21  1  0.16870500  0.42268300  0.34279200  1
