# generated using pymatgen
data_Nb3Os2
_symmetry_space_group_name_H-M   'P 1'
_cell_length_a   9.94997279
_cell_length_b   9.94997279
_cell_length_c   5.09260900
_cell_angle_alpha   90.00000000
_cell_angle_beta   90.00000000
_cell_angle_gamma   90.23447846
_symmetry_Int_Tables_number   1
_chemical_formula_structural   Nb3Os2
_chemical_formula_sum   'Nb18 Os12'
_cell_volume   504.17404255
_cell_formula_units_Z   6
loop_
 _symmetry_equiv_pos_site_id
 _symmetry_equiv_pos_as_xyz
  1  'x, y, z'
loop_
 _atom_site_type_symbol
 _atom_site_label
 _atom_site_symmetry_multiplicity
 _atom_site_fract_x
 _atom_site_fract_y
 _atom_site_fract_z
 _atom_site_occupancy
  Nb  Nb0  1  0.89513200  0.89513200  0.49773300  1
  Nb  Nb1  1  0.10486800  0.10486800  0.49773300  1
  Nb  Nb2  1  0.60198600  0.39801400  0.00511700  1
  Nb  Nb3  1  0.39801400  0.60198600  0.00511700  1
  Nb  Nb4  1  0.62769500  0.96219300  0.49933600  1
  Nb  Nb5  1  0.37230500  0.03780700  0.49933600  1
  Nb  Nb6  1  0.87142200  0.46570100  0.99773700  1
  Nb  Nb7  1  0.12857800  0.53429900  0.99773700  1
  Nb  Nb8  1  0.03780700  0.37230500  0.49933600  1
  Nb  Nb9  1  0.96219300  0.62769500  0.49933600  1
  Nb  Nb10  1  0.53429900  0.12857800  0.99773700  1
  Nb  Nb11  1  0.46570100  0.87142200  0.99773700  1
  Nb  Nb12  1  0.81901800  0.18098200  0.24979600  1
  Nb  Nb13  1  0.18098200  0.81901800  0.24979600  1
  Nb  Nb14  1  0.32001700  0.32001700  0.24766100  1
  Nb  Nb15  1  0.67998300  0.67998300  0.24766100  1
  Nb  Nb16  1  0.18103200  0.81896800  0.74968900  1
  Nb  Nb17  1  0.81896800  0.18103200  0.74968900  1
  Os  Os18  1  0.50000000  0.50000000  0.52225400  1
  Os  Os19  1  0.00000000  0.00000000  0.99872200  1
  Os  Os20  1  0.56483300  0.24452200  0.49960300  1
  Os  Os21  1  0.43516700  0.75547800  0.49960300  1
  Os  Os22  1  0.92885100  0.74218000  0.99814000  1
  Os  Os23  1  0.07114900  0.25782000  0.99814000  1
  Os  Os24  1  0.75547800  0.43516700  0.49960300  1
  Os  Os25  1  0.24452200  0.56483300  0.49960300  1
  Os  Os26  1  0.25782000  0.07114900  0.99814000  1
  Os  Os27  1  0.74218000  0.92885100  0.99814000  1
  Os  Os28  1  0.68087200  0.68087200  0.74988300  1
  Os  Os29  1  0.31912800  0.31912800  0.74988300  1
