# generated using pymatgen
data_Ba3In2MoO9
_symmetry_space_group_name_H-M   'P 1'
_cell_length_a   5.95777345
_cell_length_b   5.95777345
_cell_length_c   7.31994200
_cell_angle_alpha   90.00000000
_cell_angle_beta   90.00000000
_cell_angle_gamma   119.99999390
_symmetry_Int_Tables_number   1
_chemical_formula_structural   Ba3In2MoO9
_chemical_formula_sum   'Ba3 In2 Mo1 O9'
_cell_volume   225.01230466
_cell_formula_units_Z   1
loop_
 _symmetry_equiv_pos_site_id
 _symmetry_equiv_pos_as_xyz
  1  'x, y, z'
loop_
 _atom_site_type_symbol
 _atom_site_label
 _atom_site_symmetry_multiplicity
 _atom_site_fract_x
 _atom_site_fract_y
 _atom_site_fract_z
 _atom_site_occupancy
  Ba  Ba0  1  0.00000000  0.00000000  0.50000000  1
  Ba  Ba1  1  0.66666700  0.33333300  0.81670000  1
  Ba  Ba2  1  0.33333300  0.66666700  0.18330000  1
  In  In3  1  0.66666700  0.33333300  0.33443800  1
  In  In4  1  0.33333300  0.66666700  0.66556200  1
  Mo  Mo5  1  0.00000000  0.00000000  0.00000000  1
  O  O6  1  0.68850500  0.84425300  0.84720200  1
  O  O7  1  0.31149500  0.15574700  0.15279800  1
  O  O8  1  0.00000000  0.50000000  0.50000000  1
  O  O9  1  0.50000000  0.00000000  0.50000000  1
  O  O10  1  0.15574700  0.31149500  0.84720200  1
  O  O11  1  0.84425300  0.68850500  0.15279800  1
  O  O12  1  0.50000000  0.50000000  0.50000000  1
  O  O13  1  0.15574700  0.84425300  0.84720200  1
  O  O14  1  0.84425300  0.15574700  0.15279800  1
