# generated using pymatgen
data_MnBe2
_symmetry_space_group_name_H-M   'P 1'
_cell_length_a   4.14446614
_cell_length_b   4.14446614
_cell_length_c   6.75945500
_cell_angle_alpha   90.00000000
_cell_angle_beta   90.00000000
_cell_angle_gamma   120.00000220
_symmetry_Int_Tables_number   1
_chemical_formula_structural   MnBe2
_chemical_formula_sum   'Mn4 Be8'
_cell_volume   100.54940254
_cell_formula_units_Z   4
loop_
 _symmetry_equiv_pos_site_id
 _symmetry_equiv_pos_as_xyz
  1  'x, y, z'
loop_
 _atom_site_type_symbol
 _atom_site_label
 _atom_site_symmetry_multiplicity
 _atom_site_fract_x
 _atom_site_fract_y
 _atom_site_fract_z
 _atom_site_occupancy
  Mn  Mn0  1  0.33333300  0.66666700  0.06063000  1
  Mn  Mn1  1  0.66666700  0.33333300  0.56063000  1
  Mn  Mn2  1  0.66666700  0.33333300  0.93937000  1
  Mn  Mn3  1  0.33333300  0.66666700  0.43937000  1
  Be  Be4  1  0.00000000  0.00000000  0.00000000  1
  Be  Be5  1  0.00000000  0.00000000  0.50000000  1
  Be  Be6  1  0.82988600  0.65977100  0.25000000  1
  Be  Be7  1  0.17011400  0.82988600  0.75000000  1
  Be  Be8  1  0.65977100  0.82988600  0.75000000  1
  Be  Be9  1  0.34022900  0.17011400  0.25000000  1
  Be  Be10  1  0.82988600  0.17011400  0.25000000  1
  Be  Be11  1  0.17011400  0.34022900  0.75000000  1
