# generated using pymatgen
data_SbSe5F6
_symmetry_space_group_name_H-M   'P 1'
_cell_length_a   13.74157371
_cell_length_b   16.68161491
_cell_length_c   20.46158200
_cell_angle_alpha   90.00000000
_cell_angle_beta   109.10325523
_cell_angle_gamma   90.00000000
_symmetry_Int_Tables_number   1
_chemical_formula_structural   SbSe5F6
_chemical_formula_sum   'Sb16 Se80 F96'
_cell_volume   4432.14087412
_cell_formula_units_Z   16
loop_
 _symmetry_equiv_pos_site_id
 _symmetry_equiv_pos_as_xyz
  1  'x, y, z'
loop_
 _atom_site_type_symbol
 _atom_site_label
 _atom_site_symmetry_multiplicity
 _atom_site_fract_x
 _atom_site_fract_y
 _atom_site_fract_z
 _atom_site_occupancy
  Sb  Sb0  1  0.50438686  0.92584182  0.13063654  1
  Sb  Sb1  1  0.99561314  0.42584182  0.86936346  1
  Sb  Sb2  1  0.49561314  0.07415818  0.86936346  1
  Sb  Sb3  1  0.00438686  0.57415818  0.13063654  1
  Sb  Sb4  1  0.45720148  0.40122090  0.85710155  1
  Sb  Sb5  1  0.04279852  0.90122090  0.14289845  1
  Sb  Sb6  1  0.54279852  0.59877910  0.14289845  1
  Sb  Sb7  1  0.95720148  0.09877910  0.85710155  1
  Sb  Sb8  1  0.40257050  0.92472183  0.63322245  1
  Sb  Sb9  1  0.09742950  0.42472183  0.36677755  1
  Sb  Sb10  1  0.59742950  0.07527817  0.36677755  1
  Sb  Sb11  1  0.90257050  0.57527817  0.63322245  1
  Sb  Sb12  1  0.33679630  0.59593783  0.63873471  1
  Sb  Sb13  1  0.16320370  0.09593783  0.36126529  1
  Sb  Sb14  1  0.66320370  0.40406217  0.36126529  1
  Sb  Sb15  1  0.83679630  0.90406217  0.63873471  1
  Se  Se16  1  0.46200424  0.25933371  0.48426560  1
  Se  Se17  1  0.03799576  0.75933371  0.51573440  1
  Se  Se18  1  0.53799576  0.74066629  0.51573440  1
  Se  Se19  1  0.96200424  0.24066629  0.48426560  1
  Se  Se20  1  0.43697610  0.38792017  0.53508467  1
  Se  Se21  1  0.06302390  0.88792017  0.46491533  1
  Se  Se22  1  0.56302390  0.61207983  0.46491533  1
  Se  Se23  1  0.93697610  0.11207983  0.53508467  1
  Se  Se24  1  0.60228592  0.42763372  0.59622807  1
  Se  Se25  1  0.89771408  0.92763372  0.40377193  1
  Se  Se26  1  0.39771408  0.57236628  0.40377193  1
  Se  Se27  1  0.10228592  0.07236628  0.59622807  1
  Se  Se28  1  0.61452032  0.38808391  0.71119081  1
  Se  Se29  1  0.88547968  0.88808391  0.28880919  1
  Se  Se30  1  0.38547968  0.61191609  0.28880919  1
  Se  Se31  1  0.11452032  0.11191609  0.71119081  1
  Se  Se32  1  0.73500851  0.28719047  0.73560438  1
  Se  Se33  1  0.76499149  0.78719047  0.26439562  1
  Se  Se34  1  0.26499149  0.71280953  0.26439562  1
  Se  Se35  1  0.23500851  0.21280953  0.73560438  1
  Se  Se36  1  0.63426630  0.16239823  0.70986182  1
  Se  Se37  1  0.86573370  0.66239823  0.29013818  1
  Se  Se38  1  0.36573370  0.83760177  0.29013818  1
  Se  Se39  1  0.13426630  0.33760177  0.70986182  1
  Se  Se40  1  0.45489917  0.21730249  0.66074924  1
  Se  Se41  1  0.04510083  0.71730249  0.33925076  1
  Se  Se42  1  0.54510083  0.78269751  0.33925076  1
  Se  Se43  1  0.95489917  0.28269751  0.66074924  1
  Se  Se44  1  0.40184203  0.16082376  0.55409472  1
  Se  Se45  1  0.09815797  0.66082376  0.44590528  1
  Se  Se46  1  0.59815797  0.83917624  0.44590528  1
  Se  Se47  1  0.90184203  0.33917624  0.55409472  1
  Se  Se48  1  0.64825190  0.23701447  0.54302191  1
  Se  Se49  1  0.85174810  0.73701447  0.45697809  1
  Se  Se50  1  0.35174810  0.76298553  0.45697809  1
  Se  Se51  1  0.14825190  0.26298553  0.54302191  1
  Se  Se52  1  0.64964840  0.11857637  0.59947088  1
  Se  Se53  1  0.85035160  0.61857637  0.40052912  1
  Se  Se54  1  0.35035160  0.88142363  0.40052912  1
  Se  Se55  1  0.14964840  0.38142363  0.59947088  1
  Se  Se56  1  0.27709169  0.25792435  0.97962699  1
  Se  Se57  1  0.22290831  0.75792435  0.02037301  1
  Se  Se58  1  0.72290831  0.74207565  0.02037301  1
  Se  Se59  1  0.77709169  0.24207565  0.97962699  1
  Se  Se60  1  0.35521425  0.38488287  0.03309966  1
  Se  Se61  1  0.14478575  0.88488287  0.96690034  1
  Se  Se62  1  0.64478575  0.61511713  0.96690034  1
  Se  Se63  1  0.85521425  0.11511713  0.03309966  1
  Se  Se64  1  0.25332791  0.42251323  0.09713034  1
  Se  Se65  1  0.24667209  0.92251323  0.90286966  1
  Se  Se66  1  0.74667209  0.57748677  0.90286966  1
  Se  Se67  1  0.75332791  0.07748677  0.09713034  1
  Se  Se68  1  0.35255526  0.37739441  0.21047225  1
  Se  Se69  1  0.14744474  0.87739441  0.78952775  1
  Se  Se70  1  0.64744474  0.62260559  0.78952775  1
  Se  Se71  1  0.85255526  0.12260559  0.21047225  1
  Se  Se72  1  0.24910698  0.27990638  0.23251426  1
  Se  Se73  1  0.25089302  0.77990638  0.76748574  1
  Se  Se74  1  0.75089302  0.72009362  0.76748574  1
  Se  Se75  1  0.74910698  0.22009362  0.23251426  1
  Se  Se76  1  0.31615367  0.15273607  0.20204482  1
  Se  Se77  1  0.18384633  0.65273607  0.79795518  1
  Se  Se78  1  0.68384633  0.84726393  0.79795518  1
  Se  Se79  1  0.81615367  0.34726393  0.20204482  1
  Se  Se80  1  0.19042481  0.11640755  0.09000109  1
  Se  Se81  1  0.30957519  0.61640755  0.90999891  1
  Se  Se82  1  0.80957519  0.88359245  0.90999891  1
  Se  Se83  1  0.69042481  0.38359245  0.09000109  1
  Se  Se84  1  0.14595186  0.23812068  0.03663304  1
  Se  Se85  1  0.35404814  0.73812068  0.96336696  1
  Se  Se86  1  0.85404814  0.76187932  0.96336696  1
  Se  Se87  1  0.64595186  0.26187932  0.03663304  1
  Se  Se88  1  0.40155552  0.15562779  0.04741844  1
  Se  Se89  1  0.09844448  0.65562779  0.95258156  1
  Se  Se90  1  0.59844448  0.84437221  0.95258156  1
  Se  Se91  1  0.90155552  0.34437221  0.04741844  1
  Se  Se92  1  0.45142548  0.20596077  0.15646469  1
  Se  Se93  1  0.04857452  0.70596077  0.84353531  1
  Se  Se94  1  0.54857452  0.79403923  0.84353531  1
  Se  Se95  1  0.95142548  0.29403923  0.15646469  1
  F  F96  1  0.40245584  0.98300290  0.15773408  1
  F  F97  1  0.09754416  0.48300290  0.84226592  1
  F  F98  1  0.59754416  0.01699710  0.84226592  1
  F  F99  1  0.90245584  0.51699710  0.15773408  1
  F  F100  1  0.41868100  0.93323040  0.03487898  1
  F  F101  1  0.08131900  0.43323040  0.96512102  1
  F  F102  1  0.58131900  0.06676960  0.96512102  1
  F  F103  1  0.91868100  0.56676960  0.03487898  1
  F  F104  1  0.43715985  0.82645809  0.13715214  1
  F  F105  1  0.06284015  0.32645809  0.86284786  1
  F  F106  1  0.56284015  0.17354191  0.86284786  1
  F  F107  1  0.93715985  0.67354191  0.13715214  1
  F  F108  1  0.56677874  0.02731799  0.12272825  1
  F  F109  1  0.93322126  0.52731799  0.87727175  1
  F  F110  1  0.43322126  0.97268201  0.87727175  1
  F  F111  1  0.06677874  0.47268201  0.12272825  1
  F  F112  1  0.59203509  0.91257203  0.22444865  1
  F  F113  1  0.90796491  0.41257203  0.77555135  1
  F  F114  1  0.40796491  0.08742797  0.77555135  1
  F  F115  1  0.09203509  0.58742797  0.22444865  1
  F  F116  1  0.60727202  0.87330363  0.10046323  1
  F  F117  1  0.89272798  0.37330363  0.89953677  1
  F  F118  1  0.39272798  0.12669637  0.89953677  1
  F  F119  1  0.10727202  0.62669637  0.10046323  1
  F  F120  1  0.58427126  0.34869052  0.86334413  1
  F  F121  1  0.91572874  0.84869052  0.13665587  1
  F  F122  1  0.41572874  0.65130948  0.13665587  1
  F  F123  1  0.08427126  0.15130948  0.86334413  1
  F  F124  1  0.52055988  0.44789193  0.94742670  1
  F  F125  1  0.97944012  0.94789193  0.05257330  1
  F  F126  1  0.47944012  0.55210807  0.05257330  1
  F  F127  1  0.02055988  0.05210807  0.94742670  1
  F  F128  1  0.39253476  0.35125616  0.76816153  1
  F  F129  1  0.10746524  0.85125616  0.23183847  1
  F  F130  1  0.60746524  0.64874384  0.23183847  1
  F  F131  1  0.89253476  0.14874384  0.76816153  1
  F  F132  1  0.32953455  0.45435951  0.84866339  1
  F  F133  1  0.17046545  0.95435951  0.15133661  1
  F  F134  1  0.67046545  0.54564049  0.15133661  1
  F  F135  1  0.82953455  0.04564049  0.84866339  1
  F  F136  1  0.50116972  0.49207347  0.81695522  1
  F  F137  1  0.99883028  0.99207347  0.18304478  1
  F  F138  1  0.49883028  0.50792653  0.18304478  1
  F  F139  1  0.00116972  0.00792653  0.81695522  1
  F  F140  1  0.41369035  0.31235053  0.90140056  1
  F  F141  1  0.08630965  0.81235053  0.09859944  1
  F  F142  1  0.58630965  0.68764947  0.09859944  1
  F  F143  1  0.91369035  0.18764947  0.90140056  1
  F  F144  1  0.49009841  0.83160899  0.65218708  1
  F  F145  1  0.00990159  0.33160899  0.34781292  1
  F  F146  1  0.50990159  0.16839101  0.34781292  1
  F  F147  1  0.99009841  0.66839101  0.65218708  1
  F  F148  1  0.51845842  0.98982061  0.68236167  1
  F  F149  1  0.98154158  0.48982061  0.31763833  1
  F  F150  1  0.48154158  0.01017939  0.31763833  1
  F  F151  1  0.01845842  0.51017939  0.68236167  1
  F  F152  1  0.31789048  0.02020161  0.61570299  1
  F  F153  1  0.18210952  0.52020161  0.38429701  1
  F  F154  1  0.68210952  0.97979839  0.38429701  1
  F  F155  1  0.81789048  0.47979839  0.61570299  1
  F  F156  1  0.28431700  0.86270392  0.58108862  1
  F  F157  1  0.21568300  0.36270392  0.41891138  1
  F  F158  1  0.71568300  0.13729608  0.41891138  1
  F  F159  1  0.78431700  0.63729608  0.58108862  1
  F  F160  1  0.37060153  0.90285618  0.71613612  1
  F  F161  1  0.12939847  0.40285618  0.28386388  1
  F  F162  1  0.62939847  0.09714382  0.28386388  1
  F  F163  1  0.87060153  0.59714382  0.71613612  1
  F  F164  1  0.43340907  0.94300540  0.54915621  1
  F  F165  1  0.06659093  0.44300540  0.45084379  1
  F  F166  1  0.56659093  0.05699460  0.45084379  1
  F  F167  1  0.93340907  0.55699460  0.54915621  1
  F  F168  1  0.38878454  0.66201191  0.71985897  1
  F  F169  1  0.11121546  0.16201191  0.28014103  1
  F  F170  1  0.61121546  0.33798809  0.28014103  1
  F  F171  1  0.88878454  0.83798809  0.71985897  1
  F  F172  1  0.28230462  0.53037260  0.55736267  1
  F  F173  1  0.21769538  0.03037260  0.44263733  1
  F  F174  1  0.71769538  0.46962740  0.44263733  1
  F  F175  1  0.78230462  0.96962740  0.55736267  1
  F  F176  1  0.41794627  0.65352139  0.59288394  1
  F  F177  1  0.08205373  0.15352139  0.40711606  1
  F  F178  1  0.58205373  0.34647861  0.40711606  1
  F  F179  1  0.91794627  0.84647861  0.59288394  1
  F  F180  1  0.22625052  0.67132411  0.60057445  1
  F  F181  1  0.27374948  0.17132411  0.39942555  1
  F  F182  1  0.77374948  0.32867589  0.39942555  1
  F  F183  1  0.72625052  0.82867589  0.60057445  1
  F  F184  1  0.25437063  0.53830718  0.68269329  1
  F  F185  1  0.24562937  0.03830718  0.31730671  1
  F  F186  1  0.74562937  0.46169282  0.31730671  1
  F  F187  1  0.75437063  0.96169282  0.68269329  1
  F  F188  1  0.44821850  0.52200324  0.67416095  1
  F  F189  1  0.05178150  0.02200324  0.32583905  1
  F  F190  1  0.55178150  0.47799676  0.32583905  1
  F  F191  1  0.94821850  0.97799676  0.67416095  1
