# generated using pymatgen
data_Rb3H12N5
_symmetry_space_group_name_H-M   'P 1'
_cell_length_a   8.82058132
_cell_length_b   8.82058132
_cell_length_c   8.82058132
_cell_angle_alpha   109.47122063
_cell_angle_beta   109.47122063
_cell_angle_gamma   109.47122063
_symmetry_Int_Tables_number   1
_chemical_formula_structural   Rb3H12N5
_chemical_formula_sum   'Rb6 H24 N10'
_cell_volume   528.28676924
_cell_formula_units_Z   2
loop_
 _symmetry_equiv_pos_site_id
 _symmetry_equiv_pos_as_xyz
  1  'x, y, z'
loop_
 _atom_site_type_symbol
 _atom_site_label
 _atom_site_symmetry_multiplicity
 _atom_site_fract_x
 _atom_site_fract_y
 _atom_site_fract_z
 _atom_site_occupancy
  Rb  Rb0  1  0.75000000  0.82872600  0.07872600  1
  Rb  Rb1  1  0.67127400  0.42127400  0.25000000  1
  Rb  Rb2  1  0.42127400  0.25000000  0.67127400  1
  Rb  Rb3  1  0.25000000  0.67127400  0.42127400  1
  Rb  Rb4  1  0.07872600  0.75000000  0.82872600  1
  Rb  Rb5  1  0.82872600  0.07872600  0.75000000  1
  H  H6  1  0.47127400  0.63825300  0.21909000  1
  H  H7  1  0.25218300  0.28091000  0.91916300  1
  H  H8  1  0.33302000  0.58083700  0.86174700  1
  H  H9  1  0.91916300  0.25218300  0.28091000  1
  H  H10  1  0.86174700  0.33302000  0.58083700  1
  H  H11  1  0.21909000  0.47127400  0.63825300  1
  H  H12  1  0.58083700  0.86174700  0.33302000  1
  H  H13  1  0.63825300  0.21909000  0.47127400  1
  H  H14  1  0.28091000  0.91916300  0.25218300  1
  H  H15  1  0.02872600  0.24781700  0.16698000  1
  H  H16  1  0.24781700  0.16698000  0.02872600  1
  H  H17  1  0.16698000  0.02872600  0.24781700  1
  H  H18  1  0.82546500  0.45155000  0.86576700  1
  H  H19  1  0.95969800  0.63423300  0.08578300  1
  H  H20  1  0.87391500  0.41421700  0.04845000  1
  H  H21  1  0.08578300  0.95969800  0.63423300  1
  H  H22  1  0.04845000  0.87391500  0.41421700  1
  H  H23  1  0.86576700  0.82546500  0.45155000  1
  H  H24  1  0.41421700  0.04845000  0.87391500  1
  H  H25  1  0.45155000  0.86576700  0.82546500  1
  H  H26  1  0.63423300  0.08578300  0.95969800  1
  H  H27  1  0.67453500  0.54030200  0.62608500  1
  H  H28  1  0.54030200  0.62608500  0.67453500  1
  H  H29  1  0.62608500  0.67453500  0.54030200  1
  N  N30  1  0.58952700  0.75000000  0.33952700  1
  N  N31  1  0.25000000  0.16047300  0.91047300  1
  N  N32  1  0.33952700  0.58952700  0.75000000  1
  N  N33  1  0.91047300  0.25000000  0.16047300  1
  N  N34  1  0.75000000  0.33952700  0.58952700  1
  N  N35  1  0.16047300  0.91047300  0.25000000  1
  N  N36  1  0.84444500  0.50000000  0.00000000  1
  N  N37  1  0.00000000  0.84444500  0.50000000  1
  N  N38  1  0.50000000  0.00000000  0.84444500  1
  N  N39  1  0.65555500  0.65555500  0.65555500  1
