# generated using pymatgen
data_LiYbSb
_symmetry_space_group_name_H-M   'P 1'
_cell_length_a   4.66334600
_cell_length_b   7.66179100
_cell_length_c   8.25736700
_cell_angle_alpha   90.00000000
_cell_angle_beta   90.00000000
_cell_angle_gamma   90.00000000
_symmetry_Int_Tables_number   1
_chemical_formula_structural   LiYbSb
_chemical_formula_sum   'Li4 Yb4 Sb4'
_cell_volume   295.03227474
_cell_formula_units_Z   4
loop_
 _symmetry_equiv_pos_site_id
 _symmetry_equiv_pos_as_xyz
  1  'x, y, z'
loop_
 _atom_site_type_symbol
 _atom_site_label
 _atom_site_symmetry_multiplicity
 _atom_site_fract_x
 _atom_site_fract_y
 _atom_site_fract_z
 _atom_site_occupancy
  Li  Li0  1  0.25000000  0.15665900  0.92562500  1
  Li  Li1  1  0.25000000  0.65665900  0.57437500  1
  Li  Li2  1  0.75000000  0.84334100  0.07437500  1
  Li  Li3  1  0.75000000  0.34334100  0.42562500  1
  Yb  Yb4  1  0.25000000  0.00705200  0.29343700  1
  Yb  Yb5  1  0.25000000  0.50705200  0.20656300  1
  Yb  Yb6  1  0.75000000  0.99294800  0.70656300  1
  Yb  Yb7  1  0.75000000  0.49294800  0.79343700  1
  Sb  Sb8  1  0.25000000  0.26977800  0.59661700  1
  Sb  Sb9  1  0.25000000  0.76977800  0.90338300  1
  Sb  Sb10  1  0.75000000  0.73022200  0.40338300  1
  Sb  Sb11  1  0.75000000  0.23022200  0.09661700  1
