# generated using pymatgen
data_Ho2CdPd2
_symmetry_space_group_name_H-M   'P 1'
_cell_length_a   7.70739100
_cell_length_b   7.70739100
_cell_length_c   3.73817500
_cell_angle_alpha   90.00000000
_cell_angle_beta   90.00000000
_cell_angle_gamma   90.00000000
_symmetry_Int_Tables_number   1
_chemical_formula_structural   Ho2CdPd2
_chemical_formula_sum   'Ho4 Cd2 Pd4'
_cell_volume   222.06208427
_cell_formula_units_Z   2
loop_
 _symmetry_equiv_pos_site_id
 _symmetry_equiv_pos_as_xyz
  1  'x, y, z'
loop_
 _atom_site_type_symbol
 _atom_site_label
 _atom_site_symmetry_multiplicity
 _atom_site_fract_x
 _atom_site_fract_y
 _atom_site_fract_z
 _atom_site_occupancy
  Ho  Ho0  1  0.67539300  0.17539300  0.50000000  1
  Ho  Ho1  1  0.32460700  0.82460700  0.50000000  1
  Ho  Ho2  1  0.17539300  0.32460700  0.50000000  1
  Ho  Ho3  1  0.82460700  0.67539300  0.50000000  1
  Cd  Cd4  1  0.00000000  0.00000000  0.00000000  1
  Cd  Cd5  1  0.50000000  0.50000000  0.00000000  1
  Pd  Pd6  1  0.12721300  0.62721300  0.00000000  1
  Pd  Pd7  1  0.87278700  0.37278700  0.00000000  1
  Pd  Pd8  1  0.62721300  0.87278700  0.00000000  1
  Pd  Pd9  1  0.37278700  0.12721300  0.00000000  1
