# generated using pymatgen
data_LuZnRh
_symmetry_space_group_name_H-M   'P 1'
_cell_length_a   4.03335200
_cell_length_b   6.86974000
_cell_length_c   8.04517200
_cell_angle_alpha   90.00000000
_cell_angle_beta   90.00000000
_cell_angle_gamma   90.00000000
_symmetry_Int_Tables_number   1
_chemical_formula_structural   LuZnRh
_chemical_formula_sum   'Lu4 Zn4 Rh4'
_cell_volume   222.91626592
_cell_formula_units_Z   4
loop_
 _symmetry_equiv_pos_site_id
 _symmetry_equiv_pos_as_xyz
  1  'x, y, z'
loop_
 _atom_site_type_symbol
 _atom_site_label
 _atom_site_symmetry_multiplicity
 _atom_site_fract_x
 _atom_site_fract_y
 _atom_site_fract_z
 _atom_site_occupancy
  Lu  Lu0  1  0.25000000  0.52722100  0.18144700  1
  Lu  Lu1  1  0.75000000  0.47277900  0.81855300  1
  Lu  Lu2  1  0.75000000  0.97277900  0.68144700  1
  Lu  Lu3  1  0.25000000  0.02722100  0.31855300  1
  Zn  Zn4  1  0.25000000  0.64216100  0.56416300  1
  Zn  Zn5  1  0.75000000  0.35783900  0.43583700  1
  Zn  Zn6  1  0.75000000  0.85783900  0.06416300  1
  Zn  Zn7  1  0.25000000  0.14216100  0.93583700  1
  Rh  Rh8  1  0.25000000  0.76094700  0.87525500  1
  Rh  Rh9  1  0.75000000  0.23905300  0.12474500  1
  Rh  Rh10  1  0.75000000  0.73905300  0.37525500  1
  Rh  Rh11  1  0.25000000  0.26094700  0.62474500  1
