# generated using pymatgen
data_K2PS3
_symmetry_space_group_name_H-M   'P 1'
_cell_length_a   12.08307800
_cell_length_b   8.51736500
_cell_length_c   13.48761090
_cell_angle_alpha   88.47425006
_cell_angle_beta   90.00000000
_cell_angle_gamma   90.00000000
_symmetry_Int_Tables_number   1
_chemical_formula_structural   K2PS3
_chemical_formula_sum   'K16 P8 S24'
_cell_volume   1387.59863588
_cell_formula_units_Z   8
loop_
 _symmetry_equiv_pos_site_id
 _symmetry_equiv_pos_as_xyz
  1  'x, y, z'
loop_
 _atom_site_type_symbol
 _atom_site_label
 _atom_site_symmetry_multiplicity
 _atom_site_fract_x
 _atom_site_fract_y
 _atom_site_fract_z
 _atom_site_occupancy
  K  K0  1  0.73556700  0.22444600  0.08775800  1
  K  K1  1  0.23556700  0.27555400  0.91224200  1
  K  K2  1  0.26443300  0.77555400  0.91224200  1
  K  K3  1  0.76443300  0.72444600  0.08775800  1
  K  K4  1  0.43142700  0.83886400  0.17689500  1
  K  K5  1  0.93142700  0.66113600  0.82310500  1
  K  K6  1  0.56857300  0.16113600  0.82310500  1
  K  K7  1  0.06857300  0.33886400  0.17689500  1
  K  K8  1  0.30294600  0.64020800  0.56477700  1
  K  K9  1  0.80294600  0.85979200  0.43522300  1
  K  K10  1  0.69705400  0.35979200  0.43522300  1
  K  K11  1  0.19705400  0.14020800  0.56477700  1
  K  K12  1  0.11293700  0.78533500  0.29781100  1
  K  K13  1  0.61293700  0.71466500  0.70218900  1
  K  K14  1  0.88706300  0.21466500  0.70218900  1
  K  K15  1  0.38706300  0.28533500  0.29781100  1
  P  P16  1  0.49522400  0.92770100  0.42921700  1
  P  P17  1  0.99522400  0.57229900  0.57078300  1
  P  P18  1  0.50477600  0.07229900  0.57078300  1
  P  P19  1  0.00477600  0.42770100  0.42921700  1
  P  P20  1  0.03095700  0.93707900  0.07120900  1
  P  P21  1  0.53095700  0.56292100  0.92879100  1
  P  P22  1  0.96904300  0.06292100  0.92879100  1
  P  P23  1  0.46904300  0.43707900  0.07120900  1
  S  S24  1  0.31250200  0.51891300  0.09482000  1
  S  S25  1  0.81250200  0.98108700  0.90518000  1
  S  S26  1  0.68749800  0.48108700  0.90518000  1
  S  S27  1  0.18749800  0.01891300  0.09482000  1
  S  S28  1  0.03007800  0.70230500  0.04517800  1
  S  S29  1  0.53007800  0.79769500  0.95482200  1
  S  S30  1  0.96992200  0.29769500  0.95482200  1
  S  S31  1  0.46992200  0.20230500  0.04517800  1
  S  S32  1  0.57458900  0.49816000  0.18184400  1
  S  S33  1  0.07458900  0.00184000  0.81815600  1
  S  S34  1  0.42541100  0.50184000  0.81815600  1
  S  S35  1  0.92541100  0.99816000  0.18184400  1
  S  S36  1  0.40619900  0.96256700  0.67432300  1
  S  S37  1  0.90619900  0.53743300  0.32567700  1
  S  S38  1  0.59380100  0.03743300  0.32567700  1
  S  S39  1  0.09380100  0.46256700  0.67432300  1
  S  S40  1  0.04530300  0.79408100  0.53568400  1
  S  S41  1  0.54530300  0.70591900  0.46431600  1
  S  S42  1  0.95469700  0.20591900  0.46431600  1
  S  S43  1  0.45469700  0.29408100  0.53568400  1
  S  S44  1  0.33171000  0.93882900  0.39026000  1
  S  S45  1  0.83171000  0.56117100  0.60974000  1
  S  S46  1  0.66829000  0.06117100  0.60974000  1
  S  S47  1  0.16829000  0.43882900  0.39026000  1
