# generated using pymatgen
data_Er3RuI3
_symmetry_space_group_name_H-M   'P 1'
_cell_length_a   4.18790000
_cell_length_b   8.86004547
_cell_length_c   12.17571489
_cell_angle_alpha   94.61533734
_cell_angle_beta   90.00000000
_cell_angle_gamma   90.00000000
_symmetry_Int_Tables_number   1
_chemical_formula_structural   Er3RuI3
_chemical_formula_sum   'Er6 Ru2 I6'
_cell_volume   450.31475891
_cell_formula_units_Z   2
loop_
 _symmetry_equiv_pos_site_id
 _symmetry_equiv_pos_as_xyz
  1  'x, y, z'
loop_
 _atom_site_type_symbol
 _atom_site_label
 _atom_site_symmetry_multiplicity
 _atom_site_fract_x
 _atom_site_fract_y
 _atom_site_fract_z
 _atom_site_occupancy
  Er  Er0  1  0.75000000  0.27286200  0.60690600  1
  Er  Er1  1  0.25000000  0.72713800  0.39309400  1
  Er  Er2  1  0.75000000  0.88104900  0.62407400  1
  Er  Er3  1  0.25000000  0.11895100  0.37592600  1
  Er  Er4  1  0.75000000  0.88902400  0.18449700  1
  Er  Er5  1  0.25000000  0.11097600  0.81550300  1
  Ru  Ru6  1  0.75000000  0.93295100  0.40523400  1
  Ru  Ru7  1  0.25000000  0.06704900  0.59476600  1
  I  I8  1  0.75000000  0.41568700  0.36579900  1
  I  I9  1  0.25000000  0.58431300  0.63420100  1
  I  I10  1  0.75000000  0.86656000  0.88829700  1
  I  I11  1  0.25000000  0.13344000  0.11170300  1
  I  I12  1  0.75000000  0.36209800  0.87222800  1
  I  I13  1  0.25000000  0.63790200  0.12777200  1
