# generated using pymatgen
data_K2Na3P3O10
_symmetry_space_group_name_H-M   'P 1'
_cell_length_a   5.76011464
_cell_length_b   5.76011464
_cell_length_c   18.89277909
_cell_angle_alpha   84.62882765
_cell_angle_beta   84.62882765
_cell_angle_gamma   59.33950642
_symmetry_Int_Tables_number   1
_chemical_formula_structural   K2Na3P3O10
_chemical_formula_sum   'K4 Na6 P6 O20'
_cell_volume   536.07385472
_cell_formula_units_Z   2
loop_
 _symmetry_equiv_pos_site_id
 _symmetry_equiv_pos_as_xyz
  1  'x, y, z'
loop_
 _atom_site_type_symbol
 _atom_site_label
 _atom_site_symmetry_multiplicity
 _atom_site_fract_x
 _atom_site_fract_y
 _atom_site_fract_z
 _atom_site_occupancy
  K  K0  1  0.17762400  0.63343100  0.57738000  1
  K  K1  1  0.36656900  0.82237600  0.92262000  1
  K  K2  1  0.82237600  0.36656900  0.42262000  1
  K  K3  1  0.63343100  0.17762400  0.07738000  1
  Na  Na4  1  0.47360000  0.08984100  0.32773100  1
  Na  Na5  1  0.91015900  0.52640000  0.17226900  1
  Na  Na6  1  0.52640000  0.91015900  0.67226900  1
  Na  Na7  1  0.08984100  0.47360000  0.82773100  1
  Na  Na8  1  0.50000000  0.00000000  0.50000000  1
  Na  Na9  1  0.00000000  0.50000000  0.00000000  1
  P  P10  1  0.16134000  0.70297800  0.39868800  1
  P  P11  1  0.29702200  0.83866000  0.10131200  1
  P  P12  1  0.83866000  0.29702200  0.60131200  1
  P  P13  1  0.70297800  0.16134000  0.89868800  1
  P  P14  1  0.09562900  0.90437100  0.25000000  1
  P  P15  1  0.90437100  0.09562900  0.75000000  1
  O  O16  1  0.29730300  0.84865200  0.42312800  1
  O  O17  1  0.15134800  0.70269700  0.07687200  1
  O  O18  1  0.70269700  0.15134800  0.57687200  1
  O  O19  1  0.84865200  0.29730300  0.92312800  1
  O  O20  1  0.28989300  0.40797700  0.42660700  1
  O  O21  1  0.59202300  0.71010700  0.07339300  1
  O  O22  1  0.71010700  0.59202300  0.57339300  1
  O  O23  1  0.40797700  0.28989300  0.92660700  1
  O  O24  1  0.85276300  0.86226900  0.40634700  1
  O  O25  1  0.13773100  0.14723700  0.09365300  1
  O  O26  1  0.14723700  0.13773100  0.59365300  1
  O  O27  1  0.86226900  0.85276300  0.90634700  1
  O  O28  1  0.24129100  0.66834700  0.31126500  1
  O  O29  1  0.33165300  0.75870900  0.18873500  1
  O  O30  1  0.75870900  0.33165300  0.68873500  1
  O  O31  1  0.66834700  0.24129100  0.81126500  1
  O  O32  1  0.07827600  0.16275700  0.26918400  1
  O  O33  1  0.83724300  0.92172400  0.23081600  1
  O  O34  1  0.92172400  0.83724300  0.73081600  1
  O  O35  1  0.16275700  0.07827600  0.76918400  1
