# generated using pymatgen
data_Zr5Ge3
_symmetry_space_group_name_H-M   'P 1'
_cell_length_a   8.10713264
_cell_length_b   8.10713264
_cell_length_c   5.64891200
_cell_angle_alpha   90.00000000
_cell_angle_beta   90.00000000
_cell_angle_gamma   120.00000520
_symmetry_Int_Tables_number   1
_chemical_formula_structural   Zr5Ge3
_chemical_formula_sum   'Zr10 Ge6'
_cell_volume   321.53627412
_cell_formula_units_Z   2
loop_
 _symmetry_equiv_pos_site_id
 _symmetry_equiv_pos_as_xyz
  1  'x, y, z'
loop_
 _atom_site_type_symbol
 _atom_site_label
 _atom_site_symmetry_multiplicity
 _atom_site_fract_x
 _atom_site_fract_y
 _atom_site_fract_z
 _atom_site_occupancy
  Zr  Zr0  1  0.00000000  0.74623000  0.75000000  1
  Zr  Zr1  1  0.00000000  0.25377000  0.25000000  1
  Zr  Zr2  1  0.74623000  0.74623000  0.25000000  1
  Zr  Zr3  1  0.74623000  0.00000000  0.75000000  1
  Zr  Zr4  1  0.25377000  0.25377000  0.75000000  1
  Zr  Zr5  1  0.25377000  0.00000000  0.25000000  1
  Zr  Zr6  1  0.33333300  0.66666700  0.50000000  1
  Zr  Zr7  1  0.66666700  0.33333300  0.00000000  1
  Zr  Zr8  1  0.66666700  0.33333300  0.50000000  1
  Zr  Zr9  1  0.33333300  0.66666700  0.00000000  1
  Ge  Ge10  1  0.38850300  0.00000000  0.75000000  1
  Ge  Ge11  1  0.38850300  0.38850300  0.25000000  1
  Ge  Ge12  1  0.00000000  0.61149700  0.25000000  1
  Ge  Ge13  1  0.00000000  0.38850300  0.75000000  1
  Ge  Ge14  1  0.61149700  0.61149700  0.75000000  1
  Ge  Ge15  1  0.61149700  0.00000000  0.25000000  1
