# generated using pymatgen
data_Ba2Zn2Cr7Ga2(SnO11)2
_symmetry_space_group_name_H-M   'P 1'
_cell_length_a   5.96926960
_cell_length_b   5.96926960
_cell_length_c   14.48993200
_cell_angle_alpha   90.00000000
_cell_angle_beta   90.00000000
_cell_angle_gamma   119.99999557
_symmetry_Int_Tables_number   1
_chemical_formula_structural   Ba2Zn2Cr7Ga2(SnO11)2
_chemical_formula_sum   'Ba2 Zn2 Cr7 Ga2 Sn2 O22'
_cell_volume   447.13574185
_cell_formula_units_Z   1
loop_
 _symmetry_equiv_pos_site_id
 _symmetry_equiv_pos_as_xyz
  1  'x, y, z'
loop_
 _atom_site_type_symbol
 _atom_site_label
 _atom_site_symmetry_multiplicity
 _atom_site_fract_x
 _atom_site_fract_y
 _atom_site_fract_z
 _atom_site_occupancy
  Ba  Ba0  1  0.33333300  0.66666700  0.57497600  1
  Ba  Ba1  1  0.66666700  0.33333300  0.42502400  1
  Zn  Zn2  1  0.33333300  0.66666700  0.04445800  1
  Zn  Zn3  1  0.66666700  0.33333300  0.95554200  1
  Cr  Cr4  1  0.83148000  0.16852000  0.17005600  1
  Cr  Cr5  1  0.16852000  0.83148000  0.82994400  1
  Cr  Cr6  1  0.83148000  0.66296000  0.17005600  1
  Cr  Cr7  1  0.16852000  0.33704000  0.82994400  1
  Cr  Cr8  1  0.33704000  0.16852000  0.17005600  1
  Cr  Cr9  1  0.66296000  0.83148000  0.82994400  1
  Cr  Cr10  1  0.00000000  0.00000000  0.00000000  1
  Ga  Ga11  1  0.00000000  0.00000000  0.37296800  1
  Ga  Ga12  1  0.00000000  0.00000000  0.62703200  1
  Sn  Sn13  1  0.33333300  0.66666700  0.31820700  1
  Sn  Sn14  1  0.66666700  0.33333300  0.68179300  1
  O  O15  1  0.17308200  0.82691800  0.40762000  1
  O  O16  1  0.82691800  0.17308200  0.59238000  1
  O  O17  1  0.17308200  0.34616300  0.40762000  1
  O  O18  1  0.82691800  0.65383700  0.59238000  1
  O  O19  1  0.65383700  0.82691800  0.40762000  1
  O  O20  1  0.34616300  0.17308200  0.59238000  1
  O  O21  1  0.50701600  0.49298400  0.24257800  1
  O  O22  1  0.49298400  0.50701600  0.75742200  1
  O  O23  1  0.50701600  0.01403100  0.24257800  1
  O  O24  1  0.49298400  0.98596900  0.75742200  1
  O  O25  1  0.98596900  0.49298400  0.24257800  1
  O  O26  1  0.01403100  0.50701600  0.75742200  1
  O  O27  1  0.15028800  0.84971200  0.08824500  1
  O  O28  1  0.84971200  0.15028800  0.91175500  1
  O  O29  1  0.15028800  0.30057700  0.08824500  1
  O  O30  1  0.84971200  0.69942300  0.91175500  1
  O  O31  1  0.69942300  0.84971200  0.08824500  1
  O  O32  1  0.30057700  0.15028800  0.91175500  1
  O  O33  1  0.33333300  0.66666700  0.90407800  1
  O  O34  1  0.66666700  0.33333300  0.09592200  1
  O  O35  1  0.00000000  0.00000000  0.24069000  1
  O  O36  1  0.00000000  0.00000000  0.75931000  1
