# generated using pymatgen
data_K6ZnS4
_symmetry_space_group_name_H-M   'P 1'
_cell_length_a   9.88586952
_cell_length_b   9.88586952
_cell_length_c   7.69534900
_cell_angle_alpha   90.00000000
_cell_angle_beta   90.00000000
_cell_angle_gamma   119.99999676
_symmetry_Int_Tables_number   1
_chemical_formula_structural   K6ZnS4
_chemical_formula_sum   'K12 Zn2 S8'
_cell_volume   651.31145201
_cell_formula_units_Z   2
loop_
 _symmetry_equiv_pos_site_id
 _symmetry_equiv_pos_as_xyz
  1  'x, y, z'
loop_
 _atom_site_type_symbol
 _atom_site_label
 _atom_site_symmetry_multiplicity
 _atom_site_fract_x
 _atom_site_fract_y
 _atom_site_fract_z
 _atom_site_occupancy
  K  K0  1  0.29339700  0.14669900  0.95456600  1
  K  K1  1  0.85330100  0.70660300  0.95456600  1
  K  K2  1  0.85330100  0.14669900  0.95456600  1
  K  K3  1  0.70660300  0.85330100  0.45456600  1
  K  K4  1  0.14669900  0.29339700  0.45456600  1
  K  K5  1  0.14669900  0.85330100  0.45456600  1
  K  K6  1  0.05633400  0.52816700  0.13448000  1
  K  K7  1  0.47183300  0.94366600  0.13448000  1
  K  K8  1  0.47183300  0.52816700  0.13448000  1
  K  K9  1  0.94366600  0.47183300  0.63448000  1
  K  K10  1  0.52816700  0.05633400  0.63448000  1
  K  K11  1  0.52816700  0.47183300  0.63448000  1
  Zn  Zn12  1  0.66666700  0.33333300  0.24953600  1
  Zn  Zn13  1  0.33333300  0.66666700  0.74953600  1
  S  S14  1  0.66666700  0.33333300  0.93283200  1
  S  S15  1  0.33333300  0.66666700  0.43283200  1
  S  S16  1  0.39518500  0.19759300  0.34780000  1
  S  S17  1  0.80240700  0.60481500  0.34780000  1
  S  S18  1  0.80240700  0.19759300  0.34780000  1
  S  S19  1  0.60481500  0.80240700  0.84780000  1
  S  S20  1  0.19759300  0.39518500  0.84780000  1
  S  S21  1  0.19759300  0.80240700  0.84780000  1
