# generated using pymatgen
data_Er5CuPb3
_symmetry_space_group_name_H-M   'P 1'
_cell_length_a   9.10317715
_cell_length_b   9.10317715
_cell_length_c   6.64551300
_cell_angle_alpha   90.00000000
_cell_angle_beta   90.00000000
_cell_angle_gamma   120.00000836
_symmetry_Int_Tables_number   1
_chemical_formula_structural   Er5CuPb3
_chemical_formula_sum   'Er10 Cu2 Pb6'
_cell_volume   476.91951723
_cell_formula_units_Z   2
loop_
 _symmetry_equiv_pos_site_id
 _symmetry_equiv_pos_as_xyz
  1  'x, y, z'
loop_
 _atom_site_type_symbol
 _atom_site_label
 _atom_site_symmetry_multiplicity
 _atom_site_fract_x
 _atom_site_fract_y
 _atom_site_fract_z
 _atom_site_occupancy
  Er  Er0  1  0.25259500  0.00000000  0.25000000  1
  Er  Er1  1  0.74740500  0.00000000  0.75000000  1
  Er  Er2  1  0.00000000  0.25259500  0.25000000  1
  Er  Er3  1  0.00000000  0.74740500  0.75000000  1
  Er  Er4  1  0.74740500  0.74740500  0.25000000  1
  Er  Er5  1  0.25259500  0.25259500  0.75000000  1
  Er  Er6  1  0.33333300  0.66666700  0.00000000  1
  Er  Er7  1  0.66666700  0.33333300  0.00000000  1
  Er  Er8  1  0.66666700  0.33333300  0.50000000  1
  Er  Er9  1  0.33333300  0.66666700  0.50000000  1
  Cu  Cu10  1  0.00000000  0.00000000  0.00000000  1
  Cu  Cu11  1  0.00000000  0.00000000  0.50000000  1
  Pb  Pb12  1  0.60657100  0.00000000  0.25000000  1
  Pb  Pb13  1  0.39342900  0.00000000  0.75000000  1
  Pb  Pb14  1  0.00000000  0.60657100  0.25000000  1
  Pb  Pb15  1  0.00000000  0.39342900  0.75000000  1
  Pb  Pb16  1  0.39342900  0.39342900  0.25000000  1
  Pb  Pb17  1  0.60657100  0.60657100  0.75000000  1
