# generated using pymatgen
data_U2TlSe6
_symmetry_space_group_name_H-M   'P 1'
_cell_length_a   11.55685898
_cell_length_b   11.55685898
_cell_length_c   11.55685898
_cell_angle_alpha   159.78237983
_cell_angle_beta   152.37364198
_cell_angle_gamma   34.47460617
_symmetry_Int_Tables_number   1
_chemical_formula_structural   U2TlSe6
_chemical_formula_sum   'U2 Tl1 Se6'
_cell_volume   247.11520706
_cell_formula_units_Z   1
loop_
 _symmetry_equiv_pos_site_id
 _symmetry_equiv_pos_as_xyz
  1  'x, y, z'
loop_
 _atom_site_type_symbol
 _atom_site_label
 _atom_site_symmetry_multiplicity
 _atom_site_fract_x
 _atom_site_fract_y
 _atom_site_fract_z
 _atom_site_occupancy
  U  U0  1  0.68036700  0.18036700  0.50000000  1
  U  U1  1  0.31963300  0.81963300  0.50000000  1
  Tl  Tl2  1  0.00000000  0.00000000  0.00000000  1
  Se  Se3  1  0.77443800  0.77443800  0.00000000  1
  Se  Se4  1  0.22556200  0.22556200  0.00000000  1
  Se  Se5  1  0.85195300  0.60557500  0.24637800  1
  Se  Se6  1  0.14804700  0.39442500  0.75362200  1
  Se  Se7  1  0.64080300  0.39442500  0.24637800  1
  Se  Se8  1  0.35919700  0.60557500  0.75362200  1
