# generated using pymatgen
data_Dy5P12Ir19
_symmetry_space_group_name_H-M   'P 1'
_cell_length_a   12.72293618
_cell_length_b   12.72293618
_cell_length_c   3.97917200
_cell_angle_alpha   90.00000000
_cell_angle_beta   90.00000000
_cell_angle_gamma   120.00000096
_symmetry_Int_Tables_number   1
_chemical_formula_structural   Dy5P12Ir19
_chemical_formula_sum   'Dy5 P12 Ir19'
_cell_volume   557.82508102
_cell_formula_units_Z   1
loop_
 _symmetry_equiv_pos_site_id
 _symmetry_equiv_pos_as_xyz
  1  'x, y, z'
loop_
 _atom_site_type_symbol
 _atom_site_label
 _atom_site_symmetry_multiplicity
 _atom_site_fract_x
 _atom_site_fract_y
 _atom_site_fract_z
 _atom_site_occupancy
  Dy  Dy0  1  0.33333300  0.66666700  0.50000000  1
  Dy  Dy1  1  0.66666700  0.33333300  0.50000000  1
  Dy  Dy2  1  0.00000000  0.81482500  0.00000000  1
  Dy  Dy3  1  0.18517500  0.18517500  0.00000000  1
  Dy  Dy4  1  0.81482500  0.00000000  0.00000000  1
  P  P5  1  0.00000000  0.64215400  0.50000000  1
  P  P6  1  0.35784600  0.35784600  0.50000000  1
  P  P7  1  0.64215400  0.00000000  0.50000000  1
  P  P8  1  0.51730300  0.68851800  0.00000000  1
  P  P9  1  0.31148200  0.82878500  0.00000000  1
  P  P10  1  0.17121500  0.48269700  0.00000000  1
  P  P11  1  0.48269700  0.17121500  0.00000000  1
  P  P12  1  0.68851800  0.51730300  0.00000000  1
  P  P13  1  0.82878500  0.31148200  0.00000000  1
  P  P14  1  0.00000000  0.17796300  0.50000000  1
  P  P15  1  0.82203700  0.82203700  0.50000000  1
  P  P16  1  0.17796300  0.00000000  0.50000000  1
  Ir  Ir17  1  0.50607600  0.86716400  0.00000000  1
  Ir  Ir18  1  0.13283600  0.63891300  0.00000000  1
  Ir  Ir19  1  0.36108700  0.49392400  0.00000000  1
  Ir  Ir20  1  0.49392400  0.36108700  0.00000000  1
  Ir  Ir21  1  0.86716400  0.50607600  0.00000000  1
  Ir  Ir22  1  0.63891300  0.13283600  0.00000000  1
  Ir  Ir23  1  0.00000000  0.46268800  0.50000000  1
  Ir  Ir24  1  0.53731200  0.53731200  0.50000000  1
  Ir  Ir25  1  0.46268800  0.00000000  0.50000000  1
  Ir  Ir26  1  0.00000000  0.28442800  0.00000000  1
  Ir  Ir27  1  0.71557200  0.71557200  0.00000000  1
  Ir  Ir28  1  0.28442800  0.00000000  0.00000000  1
  Ir  Ir29  1  0.62463700  0.80565000  0.50000000  1
  Ir  Ir30  1  0.19435000  0.81898700  0.50000000  1
  Ir  Ir31  1  0.18101300  0.37536300  0.50000000  1
  Ir  Ir32  1  0.37536300  0.18101300  0.50000000  1
  Ir  Ir33  1  0.80565000  0.62463700  0.50000000  1
  Ir  Ir34  1  0.81898700  0.19435000  0.50000000  1
  Ir  Ir35  1  0.00000000  0.00000000  0.50000000  1
