# generated using pymatgen
data_SmP5O14
_symmetry_space_group_name_H-M   'P 1'
_cell_length_a   9.11275400
_cell_length_b   8.88740300
_cell_length_c   13.11321837
_cell_angle_alpha   89.70283283
_cell_angle_beta   90.00000000
_cell_angle_gamma   90.00000000
_symmetry_Int_Tables_number   1
_chemical_formula_structural   SmP5O14
_chemical_formula_sum   'Sm4 P20 O56'
_cell_volume   1062.00845067
_cell_formula_units_Z   4
loop_
 _symmetry_equiv_pos_site_id
 _symmetry_equiv_pos_as_xyz
  1  'x, y, z'
loop_
 _atom_site_type_symbol
 _atom_site_label
 _atom_site_symmetry_multiplicity
 _atom_site_fract_x
 _atom_site_fract_y
 _atom_site_fract_z
 _atom_site_occupancy
  Sm  Sm0  1  0.31177400  0.72371800  0.49924600  1
  Sm  Sm1  1  0.81177400  0.27628200  0.00075400  1
  Sm  Sm2  1  0.68822600  0.27628200  0.50075400  1
  Sm  Sm3  1  0.18822600  0.72371800  0.99924600  1
  P  P4  1  0.00180300  0.99593700  0.17325800  1
  P  P5  1  0.50180300  0.00406300  0.32674200  1
  P  P6  1  0.99819700  0.00406300  0.82674200  1
  P  P7  1  0.49819700  0.99593700  0.67325800  1
  P  P8  1  0.00313700  0.49494300  0.20138400  1
  P  P9  1  0.50313700  0.50505700  0.29861600  1
  P  P10  1  0.99686300  0.50505700  0.79861600  1
  P  P11  1  0.49686300  0.49494300  0.70138400  1
  P  P12  1  0.95364800  0.75696800  0.33513600  1
  P  P13  1  0.45364800  0.24303200  0.16486400  1
  P  P14  1  0.04635200  0.24303200  0.66486400  1
  P  P15  1  0.54635200  0.75696800  0.83513600  1
  P  P16  1  0.04903900  0.23181900  0.33587500  1
  P  P17  1  0.54903900  0.76818100  0.16412500  1
  P  P18  1  0.95096100  0.76818100  0.66412500  1
  P  P19  1  0.45096100  0.23181900  0.83587500  1
  P  P20  1  0.25422900  0.31614700  0.50007900  1
  P  P21  1  0.75422900  0.68385300  0.99992100  1
  P  P22  1  0.74577100  0.68385300  0.49992100  1
  P  P23  1  0.24577100  0.31614700  0.00007900  1
  O  O24  1  0.12128100  0.91981100  0.11588600  1
  O  O25  1  0.62128100  0.08018900  0.38411400  1
  O  O26  1  0.87871900  0.08018900  0.88411400  1
  O  O27  1  0.37871900  0.91981100  0.61588600  1
  O  O28  1  0.11577500  0.58610000  0.14706600  1
  O  O29  1  0.61577500  0.41390000  0.35293400  1
  O  O30  1  0.88422500  0.41390000  0.85293400  1
  O  O31  1  0.38422500  0.58610000  0.64706600  1
  O  O32  1  0.88391800  0.08235700  0.12083400  1
  O  O33  1  0.38391800  0.91764300  0.37916600  1
  O  O34  1  0.11608200  0.91764300  0.87916600  1
  O  O35  1  0.61608200  0.08235700  0.62083400  1
  O  O36  1  0.88473000  0.41167000  0.14788600  1
  O  O37  1  0.38473000  0.58833000  0.35211400  1
  O  O38  1  0.11527000  0.58833000  0.85211400  1
  O  O39  1  0.61527000  0.41167000  0.64788600  1
  O  O40  1  0.91963900  0.87416800  0.24783700  1
  O  O41  1  0.41963900  0.12583200  0.25216300  1
  O  O42  1  0.08036100  0.12583200  0.75216300  1
  O  O43  1  0.08159800  0.09928900  0.25982000  1
  O  O44  1  0.58036100  0.87416800  0.74783700  1
  O  O45  1  0.42241100  0.40190800  0.21361500  1
  O  O46  1  0.07758900  0.40190800  0.71361500  1
  O  O47  1  0.57758900  0.59809200  0.78638500  1
  O  O48  1  0.19012800  0.47056000  0.49690800  1
  O  O49  1  0.69012800  0.52944000  0.00309200  1
  O  O50  1  0.80987200  0.52944000  0.50309200  1
  O  O51  1  0.30987200  0.47056000  0.99690800  1
  O  O52  1  0.08516300  0.28718000  0.99987900  1
  O  O53  1  0.58516300  0.71282000  0.50012100  1
  O  O54  1  0.91483700  0.71282000  0.00012100  1
  O  O55  1  0.41483700  0.28718000  0.49987900  1
  O  O56  1  0.31501500  0.21216400  0.90907600  1
  O  O57  1  0.81501500  0.78783600  0.59092400  1
  O  O58  1  0.68498500  0.78783600  0.09092400  1
  O  O59  1  0.18498500  0.21216400  0.40907600  1
  O  O60  1  0.40469000  0.77384700  0.88861400  1
  O  O61  1  0.90469000  0.22615300  0.61138600  1
  O  O62  1  0.59531000  0.22615300  0.11138600  1
  O  O63  1  0.09531000  0.77384700  0.38861400  1
  O  O64  1  0.59624900  0.23195400  0.88561100  1
  O  O65  1  0.09624900  0.76804600  0.61438900  1
  O  O66  1  0.40375100  0.76804600  0.11438900  1
  O  O67  1  0.90375100  0.23195400  0.38561100  1
  O  O68  1  0.31217700  0.22111300  0.09718300  1
  O  O69  1  0.81217700  0.77888700  0.40281700  1
  O  O70  1  0.68782300  0.77888700  0.90281700  1
  O  O71  1  0.18782300  0.22111300  0.59718300  1
  O  O72  1  0.40725800  0.37964500  0.77507900  1
  O  O73  1  0.90725800  0.62035500  0.72492100  1
  O  O74  1  0.59274200  0.62035500  0.22492100  1
  O  O75  1  0.09274200  0.37964500  0.27507900  1
  O  O76  1  0.41840200  0.09928900  0.75982000  1
  O  O77  1  0.91840200  0.90071100  0.74018000  1
  O  O78  1  0.58159800  0.90071100  0.24018000  1
  O  O79  1  0.92241100  0.59809200  0.28638500  1
