# generated using pymatgen
data_Ce(P3Ru)4
_symmetry_space_group_name_H-M   'P 1'
_cell_length_a   7.00693014
_cell_length_b   7.00693014
_cell_length_c   7.00693014
_cell_angle_alpha   109.47122063
_cell_angle_beta   109.47122063
_cell_angle_gamma   109.47122063
_symmetry_Int_Tables_number   1
_chemical_formula_structural   Ce(P3Ru)4
_chemical_formula_sum   'Ce1 P12 Ru4'
_cell_volume   264.82651843
_cell_formula_units_Z   1
loop_
 _symmetry_equiv_pos_site_id
 _symmetry_equiv_pos_as_xyz
  1  'x, y, z'
loop_
 _atom_site_type_symbol
 _atom_site_label
 _atom_site_symmetry_multiplicity
 _atom_site_fract_x
 _atom_site_fract_y
 _atom_site_fract_z
 _atom_site_occupancy
  Ce  Ce0  1  0.00000000  0.00000000  0.00000000  1
  P  P1  1  0.85632100  0.64402500  0.50034600  1
  P  P2  1  0.85632100  0.35597500  0.21229600  1
  P  P3  1  0.14367900  0.64402500  0.78770400  1
  P  P4  1  0.35597500  0.49965400  0.14367900  1
  P  P5  1  0.49965400  0.14367900  0.35597500  1
  P  P6  1  0.14367900  0.35597500  0.49965400  1
  P  P7  1  0.64402500  0.78770400  0.14367900  1
  P  P8  1  0.21229600  0.85632100  0.35597500  1
  P  P9  1  0.64402500  0.50034600  0.85632100  1
  P  P10  1  0.78770400  0.14367900  0.64402500  1
  P  P11  1  0.35597500  0.21229600  0.85632100  1
  P  P12  1  0.50034600  0.85632100  0.64402500  1
  Ru  Ru13  1  0.00000000  0.00000000  0.50000000  1
  Ru  Ru14  1  0.00000000  0.50000000  0.00000000  1
  Ru  Ru15  1  0.50000000  0.00000000  0.00000000  1
  Ru  Ru16  1  0.50000000  0.50000000  0.50000000  1
