# generated using pymatgen
data_TaN
_symmetry_space_group_name_H-M   'P 1'
_cell_length_a   5.23348169
_cell_length_b   5.23348169
_cell_length_c   2.92550300
_cell_angle_alpha   90.00000000
_cell_angle_beta   90.00000000
_cell_angle_gamma   119.99999603
_symmetry_Int_Tables_number   1
_chemical_formula_structural   TaN
_chemical_formula_sum   'Ta3 N3'
_cell_volume   69.39251283
_cell_formula_units_Z   3
loop_
 _symmetry_equiv_pos_site_id
 _symmetry_equiv_pos_as_xyz
  1  'x, y, z'
loop_
 _atom_site_type_symbol
 _atom_site_label
 _atom_site_symmetry_multiplicity
 _atom_site_fract_x
 _atom_site_fract_y
 _atom_site_fract_z
 _atom_site_occupancy
  Ta  Ta0  1  0.00000000  0.00000000  0.00000000  1
  Ta  Ta1  1  0.33333300  0.66666700  0.50000000  1
  Ta  Ta2  1  0.66666700  0.33333300  0.50000000  1
  N  N3  1  0.39255500  0.00000000  0.00000000  1
  N  N4  1  0.60744500  0.60744500  0.00000000  1
  N  N5  1  0.00000000  0.39255500  0.00000000  1
