# generated using pymatgen
data_CaFeF5
_symmetry_space_group_name_H-M   'P 1'
_cell_length_a   5.62887747
_cell_length_b   5.62887747
_cell_length_c   7.76223074
_cell_angle_alpha   69.61758339
_cell_angle_beta   69.61758339
_cell_angle_gamma   71.45435864
_symmetry_Int_Tables_number   1
_chemical_formula_structural   CaFeF5
_chemical_formula_sum   'Ca2 Fe2 F10'
_cell_volume   210.61996627
_cell_formula_units_Z   2
loop_
 _symmetry_equiv_pos_site_id
 _symmetry_equiv_pos_as_xyz
  1  'x, y, z'
loop_
 _atom_site_type_symbol
 _atom_site_label
 _atom_site_symmetry_multiplicity
 _atom_site_fract_x
 _atom_site_fract_y
 _atom_site_fract_z
 _atom_site_occupancy
  Ca  Ca0  1  0.54543500  0.45456400  0.75000000  1
  Ca  Ca1  1  0.45456500  0.54543500  0.25000000  1
  Fe  Fe2  1  0.00000000  0.00000000  0.00000000  1
  Fe  Fe3  1  0.00000000  0.00000000  0.50000000  1
  F  F4  1  0.08662600  0.91337400  0.25000000  1
  F  F5  1  0.91337400  0.08662600  0.75000000  1
  F  F6  1  0.21169500  0.24932900  0.37924900  1
  F  F7  1  0.75067100  0.78830500  0.12075100  1
  F  F8  1  0.71770400  0.30544800  0.03156100  1
  F  F9  1  0.69455200  0.28229600  0.46843900  1
  F  F10  1  0.28229600  0.69455200  0.96843900  1
  F  F11  1  0.30544800  0.71770400  0.53156100  1
  F  F12  1  0.24932900  0.21169500  0.87924900  1
  F  F13  1  0.78830500  0.75067100  0.62075100  1
