# generated using pymatgen
data_Nd3RuO7
_symmetry_space_group_name_H-M   'P 1'
_cell_length_a   6.63941249
_cell_length_b   6.63941249
_cell_length_c   7.61259200
_cell_angle_alpha   90.00000000
_cell_angle_beta   90.00000000
_cell_angle_gamma   111.45673219
_symmetry_Int_Tables_number   1
_chemical_formula_structural   Nd3RuO7
_chemical_formula_sum   'Nd6 Ru2 O14'
_cell_volume   312.31928647
_cell_formula_units_Z   2
loop_
 _symmetry_equiv_pos_site_id
 _symmetry_equiv_pos_as_xyz
  1  'x, y, z'
loop_
 _atom_site_type_symbol
 _atom_site_label
 _atom_site_symmetry_multiplicity
 _atom_site_fract_x
 _atom_site_fract_y
 _atom_site_fract_z
 _atom_site_occupancy
  Nd  Nd0  1  0.47229700  0.91421100  0.75000000  1
  Nd  Nd1  1  0.52770300  0.08578900  0.25000000  1
  Nd  Nd2  1  0.91421100  0.47229700  0.75000000  1
  Nd  Nd3  1  0.08578900  0.52770300  0.25000000  1
  Nd  Nd4  1  0.00000000  0.00000000  0.50000000  1
  Nd  Nd5  1  0.00000000  0.00000000  0.00000000  1
  Ru  Ru6  1  0.50000000  0.50000000  0.50000000  1
  Ru  Ru7  1  0.50000000  0.50000000  0.00000000  1
  O  O8  1  0.58265400  0.58265400  0.75000000  1
  O  O9  1  0.41734600  0.41734600  0.25000000  1
  O  O10  1  0.84163400  0.10496700  0.75000000  1
  O  O11  1  0.15836600  0.89503300  0.25000000  1
  O  O12  1  0.10496700  0.84163400  0.75000000  1
  O  O13  1  0.89503300  0.15836600  0.25000000  1
  O  O14  1  0.43988600  0.18852100  0.96061500  1
  O  O15  1  0.56011400  0.81147900  0.46061500  1
  O  O16  1  0.18852100  0.43988600  0.96061500  1
  O  O17  1  0.81147900  0.56011400  0.46061500  1
  O  O18  1  0.43988600  0.18852100  0.53938500  1
  O  O19  1  0.56011400  0.81147900  0.03938500  1
  O  O20  1  0.81147900  0.56011400  0.03938500  1
  O  O21  1  0.18852100  0.43988600  0.53938500  1
