# generated using pymatgen
data_ZnP4O11
_symmetry_space_group_name_H-M   'P 1'
_cell_length_a   22.63470600
_cell_length_b   5.44408000
_cell_length_c   7.55228127
_cell_angle_alpha   69.46965351
_cell_angle_beta   90.00000000
_cell_angle_gamma   90.00000000
_symmetry_Int_Tables_number   1
_chemical_formula_structural   ZnP4O11
_chemical_formula_sum   'Zn4 P16 O44'
_cell_volume   871.52342984
_cell_formula_units_Z   4
loop_
 _symmetry_equiv_pos_site_id
 _symmetry_equiv_pos_as_xyz
  1  'x, y, z'
loop_
 _atom_site_type_symbol
 _atom_site_label
 _atom_site_symmetry_multiplicity
 _atom_site_fract_x
 _atom_site_fract_y
 _atom_site_fract_z
 _atom_site_occupancy
  Zn  Zn0  1  0.88509500  0.00943300  0.13215600  1
  Zn  Zn1  1  0.38509500  0.99056700  0.36784400  1
  Zn  Zn2  1  0.11490500  0.99056700  0.86784400  1
  Zn  Zn3  1  0.61490500  0.00943300  0.63215600  1
  P  P4  1  0.17878800  0.31521200  0.44172200  1
  P  P5  1  0.67878800  0.68478800  0.05827800  1
  P  P6  1  0.82121200  0.68478800  0.55827800  1
  P  P7  1  0.32121200  0.31521200  0.94172200  1
  P  P8  1  0.07207900  0.68409600  0.31017400  1
  P  P9  1  0.57207900  0.31590400  0.18982600  1
  P  P10  1  0.92792100  0.31590400  0.68982600  1
  P  P11  1  0.42792100  0.68409600  0.81017400  1
  P  P12  1  0.19594400  0.39072900  0.02841900  1
  P  P13  1  0.69594400  0.60927100  0.47158100  1
  P  P14  1  0.80405600  0.60927100  0.97158100  1
  P  P15  1  0.30405600  0.39072900  0.52841900  1
  P  P16  1  0.96289000  0.40645900  0.29520600  1
  P  P17  1  0.46289000  0.59354100  0.20479400  1
  P  P18  1  0.03711000  0.59354100  0.70479400  1
  P  P19  1  0.53711000  0.40645900  0.79520600  1
  O  O20  1  0.33548800  0.64414800  0.47675500  1
  O  O21  1  0.83548800  0.35585200  0.02324500  1
  O  O22  1  0.66451200  0.35585200  0.52324500  1
  O  O23  1  0.16451200  0.64414800  0.97675500  1
  O  O24  1  0.54736900  0.22337500  0.69251500  1
  O  O25  1  0.04736900  0.77662500  0.80748500  1
  O  O26  1  0.45263100  0.77662500  0.30748500  1
  O  O27  1  0.95263100  0.22337500  0.19251500  1
  O  O28  1  0.56558300  0.66672600  0.75038300  1
  O  O29  1  0.06558300  0.33327400  0.74961700  1
  O  O30  1  0.43441700  0.33327400  0.24961700  1
  O  O31  1  0.93441700  0.66672600  0.25038300  1
  O  O32  1  0.31733400  0.18386800  0.44803900  1
  O  O33  1  0.81733400  0.81613200  0.05196100  1
  O  O34  1  0.68266600  0.81613200  0.55196100  1
  O  O35  1  0.18266600  0.18386800  0.94803900  1
  O  O36  1  0.30524500  0.24903700  0.76056100  1
  O  O37  1  0.95218200  0.23725500  0.52164500  1
  O  O38  1  0.54781800  0.23725500  0.02164500  1
  O  O39  1  0.04781800  0.76274500  0.47835500  1
  O  O40  1  0.46469700  0.44154200  0.80039400  1
  O  O41  1  0.96469700  0.55845800  0.69960600  1
  O  O42  1  0.53530300  0.55845800  0.19960600  1
  O  O43  1  0.03530300  0.44154200  0.30039400  1
  O  O44  1  0.19475500  0.24903700  0.26056100  1
  O  O45  1  0.69475500  0.75096300  0.23943900  1
  O  O46  1  0.80524500  0.75096300  0.73943900  1
  O  O47  1  0.26666000  0.45771700  0.99450200  1
  O  O48  1  0.42440700  0.91624300  0.63654200  1
  O  O49  1  0.92440700  0.08375700  0.86345800  1
  O  O50  1  0.57559300  0.08375700  0.36345800  1
  O  O51  1  0.07559300  0.91624300  0.13654200  1
  O  O52  1  0.36450600  0.56060600  0.87707900  1
  O  O53  1  0.86450600  0.43939400  0.62292100  1
  O  O54  1  0.63549400  0.43939400  0.12292100  1
  O  O55  1  0.13549400  0.56060600  0.37707900  1
  O  O56  1  0.34376000  0.08039600  0.09289300  1
  O  O57  1  0.84376000  0.91960400  0.40710700  1
  O  O58  1  0.65624000  0.91960400  0.90710700  1
  O  O59  1  0.15624000  0.08039600  0.59289300  1
  O  O60  1  0.23334000  0.45771700  0.49450200  1
  O  O61  1  0.73334000  0.54228300  0.00549800  1
  O  O62  1  0.76666000  0.54228300  0.50549800  1
  O  O63  1  0.45218200  0.76274500  0.97835500  1
