# generated using pymatgen
data_Cs2Pr10Co2I17
_symmetry_space_group_name_H-M   'P 1'
_cell_length_a   11.73117829
_cell_length_b   11.73117829
_cell_length_c   10.00613617
_cell_angle_alpha   86.89754476
_cell_angle_beta   86.89754476
_cell_angle_gamma   108.42210781
_symmetry_Int_Tables_number   1
_chemical_formula_structural   Cs2Pr10Co2I17
_chemical_formula_sum   'Cs2 Pr10 Co2 I17'
_cell_volume   1300.87479966
_cell_formula_units_Z   1
loop_
 _symmetry_equiv_pos_site_id
 _symmetry_equiv_pos_as_xyz
  1  'x, y, z'
loop_
 _atom_site_type_symbol
 _atom_site_label
 _atom_site_symmetry_multiplicity
 _atom_site_fract_x
 _atom_site_fract_y
 _atom_site_fract_z
 _atom_site_occupancy
  Cs  Cs0  1  0.67410700  0.32589300  0.00000000  1
  Cs  Cs1  1  0.32589300  0.67410700  0.00000000  1
  Pr  Pr2  1  0.70859100  0.00704200  0.42783700  1
  Pr  Pr3  1  0.29140900  0.99295800  0.57216300  1
  Pr  Pr4  1  0.99295800  0.29140900  0.57216300  1
  Pr  Pr5  1  0.00704200  0.70859100  0.42783700  1
  Pr  Pr6  1  0.67504200  0.67504200  0.55535500  1
  Pr  Pr7  1  0.32495800  0.32495800  0.44464500  1
  Pr  Pr8  1  0.93743900  0.93743900  0.67646100  1
  Pr  Pr9  1  0.06256100  0.06256100  0.32353900  1
  Pr  Pr10  1  0.79566400  0.79566400  0.18766700  1
  Pr  Pr11  1  0.20433600  0.20433600  0.81233300  1
  Co  Co12  1  0.85911100  0.85911100  0.43063600  1
  Co  Co13  1  0.14088900  0.14088900  0.56936400  1
  I  I14  1  0.61547500  0.94925200  0.13833400  1
  I  I15  1  0.38452500  0.05074800  0.86166600  1
  I  I16  1  0.05074800  0.38452500  0.86166600  1
  I  I17  1  0.94925200  0.61547500  0.13833400  1
  I  I18  1  0.52764300  0.18974400  0.42050300  1
  I  I19  1  0.47235700  0.81025600  0.57949700  1
  I  I20  1  0.81025600  0.47235700  0.57949700  1
  I  I21  1  0.18974400  0.52764300  0.42050300  1
  I  I22  1  0.56255400  0.56255400  0.28226400  1
  I  I23  1  0.43744600  0.43744600  0.71773600  1
  I  I24  1  0.24673400  0.90019700  0.27411800  1
  I  I25  1  0.75326600  0.09980200  0.72588200  1
  I  I26  1  0.09980300  0.75326600  0.72588200  1
  I  I27  1  0.90019700  0.24673400  0.27411800  1
  I  I28  1  0.28818300  0.28818300  0.13068400  1
  I  I29  1  0.71181700  0.71181700  0.86931600  1
  I  I30  1  0.00000000  0.00000000  0.00000000  1
