# generated using pymatgen
data_CaSi3Ir
_symmetry_space_group_name_H-M   'P 1'
_cell_length_a   5.79916513
_cell_length_b   5.79916513
_cell_length_c   5.79916513
_cell_angle_alpha   137.46968092
_cell_angle_beta   137.46968092
_cell_angle_gamma   61.71618535
_symmetry_Int_Tables_number   1
_chemical_formula_structural   CaSi3Ir
_chemical_formula_sum   'Ca1 Si3 Ir1'
_cell_volume   88.08963051
_cell_formula_units_Z   1
loop_
 _symmetry_equiv_pos_site_id
 _symmetry_equiv_pos_as_xyz
  1  'x, y, z'
loop_
 _atom_site_type_symbol
 _atom_site_label
 _atom_site_symmetry_multiplicity
 _atom_site_fract_x
 _atom_site_fract_y
 _atom_site_fract_z
 _atom_site_occupancy
  Ca  Ca0  1  0.99994700  0.99994700  0.00000000  1
  Si  Si1  1  0.40873200  0.40873200  0.00000000  1
  Si  Si2  1  0.25941300  0.75941300  0.50000000  1
  Si  Si3  1  0.75941300  0.25941300  0.50000000  1
  Ir  Ir4  1  0.64662600  0.64662600  0.00000000  1
