# generated using pymatgen
data_GdInO3
_symmetry_space_group_name_H-M   'P 1'
_cell_length_a   6.41948740
_cell_length_b   6.41948740
_cell_length_c   12.45464500
_cell_angle_alpha   90.00000000
_cell_angle_beta   90.00000000
_cell_angle_gamma   119.99999387
_symmetry_Int_Tables_number   1
_chemical_formula_structural   GdInO3
_chemical_formula_sum   'Gd6 In6 O18'
_cell_volume   444.49073600
_cell_formula_units_Z   6
loop_
 _symmetry_equiv_pos_site_id
 _symmetry_equiv_pos_as_xyz
  1  'x, y, z'
loop_
 _atom_site_type_symbol
 _atom_site_label
 _atom_site_symmetry_multiplicity
 _atom_site_fract_x
 _atom_site_fract_y
 _atom_site_fract_z
 _atom_site_occupancy
  Gd  Gd0  1  0.66666700  0.33333300  0.96167200  1
  Gd  Gd1  1  0.33333300  0.66666700  0.46167200  1
  Gd  Gd2  1  0.66666700  0.33333300  0.46167200  1
  Gd  Gd3  1  0.33333300  0.66666700  0.96167200  1
  Gd  Gd4  1  0.00000000  0.00000000  0.99702600  1
  Gd  Gd5  1  0.00000000  0.00000000  0.49702600  1
  In  In6  1  0.66651000  0.66651000  0.72670300  1
  In  In7  1  0.00000000  0.33349000  0.72670300  1
  In  In8  1  0.33349000  0.33349000  0.22670300  1
  In  In9  1  0.00000000  0.66651000  0.22670300  1
  In  In10  1  0.33349000  0.00000000  0.72670300  1
  In  In11  1  0.66651000  0.00000000  0.22670300  1
  O  O12  1  0.69213100  0.69213100  0.89714300  1
  O  O13  1  0.00000000  0.30786900  0.89714300  1
  O  O14  1  0.30786900  0.30786900  0.39714300  1
  O  O15  1  0.00000000  0.69213100  0.39714300  1
  O  O16  1  0.30786900  0.00000000  0.89714300  1
  O  O17  1  0.69213100  0.00000000  0.39714300  1
  O  O18  1  0.64056000  0.64056000  0.55758700  1
  O  O19  1  0.00000000  0.35944000  0.55758700  1
  O  O20  1  0.35944000  0.35944000  0.05758700  1
  O  O21  1  0.00000000  0.64056000  0.05758700  1
  O  O22  1  0.35944000  0.00000000  0.55758700  1
  O  O23  1  0.64056000  0.00000000  0.05758700  1
  O  O24  1  0.00000000  0.00000000  0.69692500  1
  O  O25  1  0.00000000  0.00000000  0.19692500  1
  O  O26  1  0.66666700  0.33333300  0.75214900  1
  O  O27  1  0.33333300  0.66666700  0.25214900  1
  O  O28  1  0.66666700  0.33333300  0.25214900  1
  O  O29  1  0.33333300  0.66666700  0.75214900  1
