# generated using pymatgen
data_ErAlPd
_symmetry_space_group_name_H-M   'P 1'
_cell_length_a   4.42587900
_cell_length_b   6.85904000
_cell_length_c   7.77091800
_cell_angle_alpha   90.00000000
_cell_angle_beta   90.00000000
_cell_angle_gamma   90.00000000
_symmetry_Int_Tables_number   1
_chemical_formula_structural   ErAlPd
_chemical_formula_sum   'Er4 Al4 Pd4'
_cell_volume   235.90394210
_cell_formula_units_Z   4
loop_
 _symmetry_equiv_pos_site_id
 _symmetry_equiv_pos_as_xyz
  1  'x, y, z'
loop_
 _atom_site_type_symbol
 _atom_site_label
 _atom_site_symmetry_multiplicity
 _atom_site_fract_x
 _atom_site_fract_y
 _atom_site_fract_z
 _atom_site_occupancy
  Er  Er0  1  0.25000000  0.03250300  0.32143900  1
  Er  Er1  1  0.25000000  0.53250300  0.17856100  1
  Er  Er2  1  0.75000000  0.96749700  0.67856100  1
  Er  Er3  1  0.75000000  0.46749700  0.82143900  1
  Al  Al4  1  0.25000000  0.14292500  0.93987800  1
  Al  Al5  1  0.25000000  0.64292500  0.56012200  1
  Al  Al6  1  0.75000000  0.85707500  0.06012200  1
  Al  Al7  1  0.75000000  0.35707500  0.43987800  1
  Pd  Pd8  1  0.25000000  0.27093200  0.62133600  1
  Pd  Pd9  1  0.25000000  0.77093200  0.87866400  1
  Pd  Pd10  1  0.75000000  0.72906800  0.37866400  1
  Pd  Pd11  1  0.75000000  0.22906800  0.12133600  1
