# generated using pymatgen
data_SrMo2Se2O11
_symmetry_space_group_name_H-M   'P 1'
_cell_length_a   8.10171300
_cell_length_b   8.27740994
_cell_length_c   8.96496216
_cell_angle_alpha   83.05121701
_cell_angle_beta   114.41099342
_cell_angle_gamma   112.70968308
_symmetry_Int_Tables_number   1
_chemical_formula_structural   SrMo2Se2O11
_chemical_formula_sum   'Sr2 Mo4 Se4 O22'
_cell_volume   504.48102188
_cell_formula_units_Z   2
loop_
 _symmetry_equiv_pos_site_id
 _symmetry_equiv_pos_as_xyz
  1  'x, y, z'
loop_
 _atom_site_type_symbol
 _atom_site_label
 _atom_site_symmetry_multiplicity
 _atom_site_fract_x
 _atom_site_fract_y
 _atom_site_fract_z
 _atom_site_occupancy
  Sr  Sr0  1  0.56949300  0.77368400  0.52421000  1
  Sr  Sr1  1  0.43050700  0.22631600  0.47579000  1
  Mo  Mo2  1  0.72401700  0.62054600  0.19451400  1
  Mo  Mo3  1  0.27598300  0.37945400  0.80548600  1
  Mo  Mo4  1  0.71855000  0.03107700  0.95135000  1
  Mo  Mo5  1  0.28145000  0.96892300  0.04865000  1
  Se  Se6  1  0.75082700  0.44896800  0.85535800  1
  Se  Se7  1  0.24917300  0.55103200  0.14464200  1
  Se  Se8  1  0.76111100  0.22220900  0.31268500  1
  Se  Se9  1  0.23888900  0.77779100  0.68731500  1
  O  O10  1  0.94509100  0.60951300  0.22074000  1
  O  O11  1  0.05490900  0.39048700  0.77926000  1
  O  O12  1  0.76290300  0.71071100  0.37884800  1
  O  O13  1  0.23709700  0.28928900  0.62115200  1
  O  O14  1  0.72959200  0.82792300  0.07547000  1
  O  O15  1  0.27040800  0.17207700  0.92453000  1
  O  O16  1  0.64022800  0.36748600  0.28448100  1
  O  O17  1  0.35977200  0.63251400  0.71551900  1
  O  O18  1  0.59688100  0.47846300  0.93671600  1
  O  O19  1  0.40311900  0.52153700  0.06328400  1
  O  O20  1  0.94229300  0.18929300  0.06950800  1
  O  O21  1  0.05770700  0.81070700  0.93049200  1
  O  O22  1  0.74601500  0.96436900  0.78804900  1
  O  O23  1  0.25398500  0.03563100  0.21195100  1
  O  O24  1  0.62388400  0.22151800  0.80686300  1
  O  O25  1  0.37611600  0.77848200  0.19313700  1
  O  O26  1  0.60281300  0.09269600  0.12676500  1
  O  O27  1  0.39718700  0.90730400  0.87323500  1
  O  O28  1  0.66709400  0.51503000  0.66286500  1
  O  O29  1  0.33290600  0.48497000  0.33713500  1
  O  O30  1  0.68174100  0.09817200  0.45017900  1
  O  O31  1  0.31825900  0.90182800  0.54982100  1
