# generated using pymatgen
data_EuCoO3
_symmetry_space_group_name_H-M   'P 1'
_cell_length_a   5.36185700
_cell_length_b   5.46731800
_cell_length_c   7.66461200
_cell_angle_alpha   90.00000000
_cell_angle_beta   90.00000000
_cell_angle_gamma   90.00000000
_symmetry_Int_Tables_number   1
_chemical_formula_structural   EuCoO3
_chemical_formula_sum   'Eu4 Co4 O12'
_cell_volume   224.68792671
_cell_formula_units_Z   4
loop_
 _symmetry_equiv_pos_site_id
 _symmetry_equiv_pos_as_xyz
  1  'x, y, z'
loop_
 _atom_site_type_symbol
 _atom_site_label
 _atom_site_symmetry_multiplicity
 _atom_site_fract_x
 _atom_site_fract_y
 _atom_site_fract_z
 _atom_site_occupancy
  Eu  Eu0  1  0.00997200  0.45156800  0.25000000  1
  Eu  Eu1  1  0.99002800  0.54843200  0.75000000  1
  Eu  Eu2  1  0.50997200  0.04843200  0.75000000  1
  Eu  Eu3  1  0.49002800  0.95156800  0.25000000  1
  Co  Co4  1  0.00000000  0.00000000  0.00000000  1
  Co  Co5  1  0.50000000  0.50000000  0.00000000  1
  Co  Co6  1  0.00000000  0.00000000  0.50000000  1
  Co  Co7  1  0.50000000  0.50000000  0.50000000  1
  O  O8  1  0.29336100  0.20402800  0.03870400  1
  O  O9  1  0.70663900  0.79597200  0.96129600  1
  O  O10  1  0.79336100  0.29597200  0.96129600  1
  O  O11  1  0.70663900  0.79597200  0.53870400  1
  O  O12  1  0.20663900  0.70402800  0.03870400  1
  O  O13  1  0.29336100  0.20402800  0.46129600  1
  O  O14  1  0.20663900  0.70402800  0.46129600  1
  O  O15  1  0.79336100  0.29597200  0.53870400  1
  O  O16  1  0.57324300  0.51462900  0.25000000  1
  O  O17  1  0.42675700  0.48537100  0.75000000  1
  O  O18  1  0.07324300  0.98537100  0.75000000  1
  O  O19  1  0.92675700  0.01462900  0.25000000  1
