# generated using pymatgen
data_Cs3Nb2Se11
_symmetry_space_group_name_H-M   'P 1'
_cell_length_a   8.72701900
_cell_length_b   12.85398700
_cell_length_c   20.93226467
_cell_angle_alpha   76.91807023
_cell_angle_beta   90.00000000
_cell_angle_gamma   90.00000000
_symmetry_Int_Tables_number   1
_chemical_formula_structural   Cs3Nb2Se11
_chemical_formula_sum   'Cs12 Nb8 Se44'
_cell_volume   2287.17864331
_cell_formula_units_Z   4
loop_
 _symmetry_equiv_pos_site_id
 _symmetry_equiv_pos_as_xyz
  1  'x, y, z'
loop_
 _atom_site_type_symbol
 _atom_site_label
 _atom_site_symmetry_multiplicity
 _atom_site_fract_x
 _atom_site_fract_y
 _atom_site_fract_z
 _atom_site_occupancy
  Cs  Cs0  1  0.17193800  0.99677600  0.33823800  1
  Cs  Cs1  1  0.67193800  0.00322400  0.16176200  1
  Cs  Cs2  1  0.82806200  0.00322400  0.66176200  1
  Cs  Cs3  1  0.32806200  0.99677600  0.83823800  1
  Cs  Cs4  1  0.84479400  0.45889600  0.64013500  1
  Cs  Cs5  1  0.34479400  0.54110400  0.85986500  1
  Cs  Cs6  1  0.15520600  0.54110400  0.35986500  1
  Cs  Cs7  1  0.65520600  0.45889600  0.14013500  1
  Cs  Cs8  1  0.31872500  0.77042900  0.61974600  1
  Cs  Cs9  1  0.81872500  0.22957100  0.88025400  1
  Cs  Cs10  1  0.68127500  0.22957100  0.38025400  1
  Cs  Cs11  1  0.18127500  0.77042900  0.11974600  1
  Nb  Nb12  1  0.23113400  0.19813400  0.50670000  1
  Nb  Nb13  1  0.73113400  0.80186600  0.99330000  1
  Nb  Nb14  1  0.76886600  0.80186600  0.49330000  1
  Nb  Nb15  1  0.26886600  0.19813400  0.00670000  1
  Nb  Nb16  1  0.35616100  0.29177700  0.66023300  1
  Nb  Nb17  1  0.85616100  0.70822300  0.83976700  1
  Nb  Nb18  1  0.64383900  0.70822300  0.33976700  1
  Nb  Nb19  1  0.14383900  0.29177700  0.16023300  1
  Se  Se20  1  0.13427800  0.00026200  0.51353800  1
  Se  Se21  1  0.63427800  0.99973800  0.98646200  1
  Se  Se22  1  0.86572200  0.99973800  0.48646200  1
  Se  Se23  1  0.36572200  0.00026200  0.01353800  1
  Se  Se24  1  0.23765400  0.10837700  0.65404900  1
  Se  Se25  1  0.73765400  0.89162300  0.84595100  1
  Se  Se26  1  0.76234600  0.89162300  0.34595100  1
  Se  Se27  1  0.26234600  0.10837700  0.15404900  1
  Se  Se28  1  0.49552800  0.26332300  0.54988600  1
  Se  Se29  1  0.99552800  0.73667700  0.95011400  1
  Se  Se30  1  0.50447200  0.73667700  0.45011400  1
  Se  Se31  1  0.00447200  0.26332300  0.04988600  1
  Se  Se32  1  0.95013500  0.24476000  0.52765300  1
  Se  Se33  1  0.45013500  0.75524000  0.97234700  1
  Se  Se34  1  0.04986500  0.75524000  0.47234700  1
  Se  Se35  1  0.54986500  0.24476000  0.02765300  1
  Se  Se36  1  0.10961300  0.21061900  0.72035000  1
  Se  Se37  1  0.60961300  0.78938100  0.77965000  1
  Se  Se38  1  0.89038700  0.78938100  0.27965000  1
  Se  Se39  1  0.39038700  0.21061900  0.22035000  1
  Se  Se40  1  0.42905800  0.48568900  0.59320900  1
  Se  Se41  1  0.92905800  0.51431100  0.90679100  1
  Se  Se42  1  0.57094200  0.51431100  0.40679100  1
  Se  Se43  1  0.07094200  0.48568900  0.09320900  1
  Se  Se44  1  0.26361100  0.25737800  0.39185100  1
  Se  Se45  1  0.76361100  0.74262200  0.10814900  1
  Se  Se46  1  0.73638900  0.74262200  0.60814900  1
  Se  Se47  1  0.23638900  0.25737800  0.89185100  1
  Se  Se48  1  0.14307400  0.37172300  0.54086800  1
  Se  Se49  1  0.64307400  0.62827700  0.95913200  1
  Se  Se50  1  0.85692600  0.62827700  0.45913200  1
  Se  Se51  1  0.35692600  0.37172300  0.04086800  1
  Se  Se52  1  0.47906500  0.07882300  0.54477500  1
  Se  Se53  1  0.97906500  0.92117700  0.95522500  1
  Se  Se54  1  0.52093500  0.92117700  0.45522500  1
  Se  Se55  1  0.02093500  0.07882300  0.04477400  1
  Se  Se56  1  0.27331100  0.47232400  0.68746900  1
  Se  Se57  1  0.77331100  0.52767600  0.81253100  1
  Se  Se58  1  0.72668900  0.52767600  0.31253100  1
  Se  Se59  1  0.22668900  0.47232400  0.18746900  1
  Se  Se60  1  0.56471900  0.23651500  0.73211700  1
  Se  Se61  1  0.06471900  0.76348500  0.76788300  1
  Se  Se62  1  0.43528100  0.76348500  0.26788300  1
  Se  Se63  1  0.93528100  0.23651500  0.23211700  1
