# generated using pymatgen
data_Li2TeO4
_symmetry_space_group_name_H-M   'P 1'
_cell_length_a   6.13451700
_cell_length_b   6.13451700
_cell_length_c   8.46095000
_cell_angle_alpha   90.00000000
_cell_angle_beta   90.00000000
_cell_angle_gamma   90.00000000
_symmetry_Int_Tables_number   1
_chemical_formula_structural   Li2TeO4
_chemical_formula_sum   'Li8 Te4 O16'
_cell_volume   318.40499873
_cell_formula_units_Z   4
loop_
 _symmetry_equiv_pos_site_id
 _symmetry_equiv_pos_as_xyz
  1  'x, y, z'
loop_
 _atom_site_type_symbol
 _atom_site_label
 _atom_site_symmetry_multiplicity
 _atom_site_fract_x
 _atom_site_fract_y
 _atom_site_fract_z
 _atom_site_occupancy
  Li  Li0  1  0.74591900  0.74591900  0.87500000  1
  Li  Li1  1  0.25408100  0.74591900  0.12500000  1
  Li  Li2  1  0.74591900  0.25408100  0.62500000  1
  Li  Li3  1  0.25408100  0.25408100  0.37500000  1
  Li  Li4  1  0.71257200  0.50000000  0.25000000  1
  Li  Li5  1  0.50000000  0.28742800  0.00000000  1
  Li  Li6  1  0.50000000  0.71257200  0.50000000  1
  Li  Li7  1  0.28742800  0.50000000  0.75000000  1
  Te  Te8  1  0.00000000  0.73124700  0.50000000  1
  Te  Te9  1  0.26875300  0.00000000  0.75000000  1
  Te  Te10  1  0.73124700  0.00000000  0.25000000  1
  Te  Te11  1  0.00000000  0.26875300  0.00000000  1
  O  O12  1  0.22475200  0.98147100  0.51650200  1
  O  O13  1  0.77524800  0.98147100  0.48349800  1
  O  O14  1  0.01852900  0.22475200  0.76650200  1
  O  O15  1  0.77524800  0.01852900  0.01650200  1
  O  O16  1  0.23127800  0.46722700  0.00587200  1
  O  O17  1  0.53277300  0.23127800  0.25587200  1
  O  O18  1  0.46722700  0.76872200  0.75587200  1
  O  O19  1  0.23127800  0.53277300  0.49412800  1
  O  O20  1  0.76872200  0.46722700  0.99412800  1
  O  O21  1  0.76872200  0.53277300  0.50587200  1
  O  O22  1  0.46722700  0.23127800  0.74412800  1
  O  O23  1  0.53277300  0.76872200  0.24412800  1
  O  O24  1  0.98147100  0.22475200  0.23349800  1
  O  O25  1  0.22475200  0.01852900  0.98349800  1
  O  O26  1  0.98147100  0.77524800  0.26650200  1
  O  O27  1  0.01852900  0.77524800  0.73349800  1
