# generated using pymatgen
data_Rb2ZnBr4
_symmetry_space_group_name_H-M   'P 1'
_cell_length_a   29.58872400
_cell_length_b   13.73601700
_cell_length_c   7.92590700
_cell_angle_alpha   90.00000000
_cell_angle_beta   90.00000000
_cell_angle_gamma   90.00000000
_symmetry_Int_Tables_number   1
_chemical_formula_structural   Rb2ZnBr4
_chemical_formula_sum   'Rb24 Zn12 Br48'
_cell_volume   3221.33601890
_cell_formula_units_Z   12
loop_
 _symmetry_equiv_pos_site_id
 _symmetry_equiv_pos_as_xyz
  1  'x, y, z'
loop_
 _atom_site_type_symbol
 _atom_site_label
 _atom_site_symmetry_multiplicity
 _atom_site_fract_x
 _atom_site_fract_y
 _atom_site_fract_z
 _atom_site_occupancy
  Rb  Rb0  1  0.67099800  0.82390900  0.75004500  1
  Rb  Rb1  1  0.32900200  0.17609100  0.25004500  1
  Rb  Rb2  1  0.82900200  0.32390900  0.25004500  1
  Rb  Rb3  1  0.17099800  0.67609100  0.75004500  1
  Rb  Rb4  1  0.79251100  0.09856800  0.75889300  1
  Rb  Rb5  1  0.20748900  0.90143200  0.25889300  1
  Rb  Rb6  1  0.70748900  0.59856800  0.25889300  1
  Rb  Rb7  1  0.29251100  0.40143200  0.75889300  1
  Rb  Rb8  1  0.83678000  0.67701200  0.76094700  1
  Rb  Rb9  1  0.16322000  0.32298800  0.26094700  1
  Rb  Rb10  1  0.66322000  0.17701200  0.26094700  1
  Rb  Rb11  1  0.33678000  0.82298800  0.76094700  1
  Rb  Rb12  1  0.95879300  0.40886900  0.72041900  1
  Rb  Rb13  1  0.04120700  0.59113100  0.22041900  1
  Rb  Rb14  1  0.54120700  0.90886900  0.22041900  1
  Rb  Rb15  1  0.45879300  0.09113100  0.72041900  1
  Rb  Rb16  1  0.49574800  0.32352700  0.22014000  1
  Rb  Rb17  1  0.50425200  0.67647300  0.72014000  1
  Rb  Rb18  1  0.00425200  0.82352700  0.72014000  1
  Rb  Rb19  1  0.99574800  0.17647300  0.22014000  1
  Rb  Rb20  1  0.87572900  0.90031800  0.23744900  1
  Rb  Rb21  1  0.12427100  0.09968200  0.73744900  1
  Rb  Rb22  1  0.62427100  0.40031800  0.73744900  1
  Rb  Rb23  1  0.37572900  0.59968200  0.23744900  1
  Zn  Zn24  1  0.59258400  0.07983000  0.73143100  1
  Zn  Zn25  1  0.40741600  0.92017000  0.23143100  1
  Zn  Zn26  1  0.90741600  0.57983000  0.23143100  1
  Zn  Zn27  1  0.09258400  0.42017000  0.73143100  1
  Zn  Zn28  1  0.74201800  0.92142700  0.24785300  1
  Zn  Zn29  1  0.25798200  0.07857300  0.74785300  1
  Zn  Zn30  1  0.75798200  0.42142700  0.74785300  1
  Zn  Zn31  1  0.24201800  0.57857300  0.24785300  1
  Zn  Zn32  1  0.57425900  0.57883300  0.25291800  1
  Zn  Zn33  1  0.42574100  0.42116700  0.75291800  1
  Zn  Zn34  1  0.92574100  0.07883300  0.75291800  1
  Zn  Zn35  1  0.07425900  0.92116700  0.25291800  1
  Br  Br36  1  0.67379900  0.08092400  0.70974100  1
  Br  Br37  1  0.32620100  0.91907600  0.20974100  1
  Br  Br38  1  0.82620100  0.58092400  0.20974100  1
  Br  Br39  1  0.17379900  0.41907600  0.70974100  1
  Br  Br40  1  0.55960300  0.91784000  0.69529600  1
  Br  Br41  1  0.44039700  0.08216000  0.19529600  1
  Br  Br42  1  0.94039700  0.41784000  0.19529600  1
  Br  Br43  1  0.05960300  0.58216000  0.69529600  1
  Br  Br44  1  0.56170000  0.18348900  0.50870000  1
  Br  Br45  1  0.43830000  0.81651100  0.00870000  1
  Br  Br46  1  0.93830000  0.68348900  0.00870000  1
  Br  Br47  1  0.06170000  0.31651100  0.50870000  1
  Br  Br48  1  0.56525800  0.14172200  0.00028500  1
  Br  Br49  1  0.43474200  0.85827800  0.50028500  1
  Br  Br50  1  0.93474200  0.64172200  0.50028500  1
  Br  Br51  1  0.06525800  0.35827800  0.00028500  1
  Br  Br52  1  0.66069200  0.92081300  0.22557900  1
  Br  Br53  1  0.33930800  0.07918700  0.72557900  1
  Br  Br54  1  0.83930800  0.42081300  0.72557900  1
  Br  Br55  1  0.16069200  0.57918700  0.22557900  1
  Br  Br56  1  0.77502300  0.08107800  0.30671500  1
  Br  Br57  1  0.22497700  0.91892200  0.80671500  1
  Br  Br58  1  0.72497700  0.58107800  0.80671500  1
  Br  Br59  1  0.27502300  0.41892200  0.30671500  1
  Br  Br60  1  0.77507200  0.86887200  0.97939100  1
  Br  Br61  1  0.22492800  0.13112800  0.47939100  1
  Br  Br62  1  0.72492800  0.36887200  0.47939100  1
  Br  Br63  1  0.27507200  0.63112800  0.97939100  1
  Br  Br64  1  0.76546100  0.80871400  0.46842400  1
  Br  Br65  1  0.23453900  0.19128600  0.96842400  1
  Br  Br66  1  0.73453900  0.30871400  0.96842400  1
  Br  Br67  1  0.26546100  0.69128600  0.46842400  1
  Br  Br68  1  0.49344000  0.57535100  0.29712800  1
  Br  Br69  1  0.50656000  0.42464900  0.79712800  1
  Br  Br70  1  0.00656000  0.07535100  0.79712800  1
  Br  Br71  1  0.99344000  0.92464900  0.29712800  1
  Br  Br72  1  0.60793500  0.41952100  0.19568300  1
  Br  Br73  1  0.39206500  0.58047900  0.69568300  1
  Br  Br74  1  0.89206500  0.91952100  0.69568300  1
  Br  Br75  1  0.10793500  0.08047900  0.19568300  1
  Br  Br76  1  0.59436000  0.68846700  0.02483300  1
  Br  Br77  1  0.40564000  0.31153300  0.52483300  1
  Br  Br78  1  0.90564000  0.18846700  0.52483300  1
  Br  Br79  1  0.09436000  0.81153300  0.02483300  1
  Br  Br80  1  0.61020600  0.63469900  0.51522800  1
  Br  Br81  1  0.38979400  0.36530100  0.01522800  1
  Br  Br82  1  0.88979400  0.13469900  0.01522800  1
  Br  Br83  1  0.11020600  0.86530100  0.51522800  1
