# generated using pymatgen
data_Sr4FeRh2O9
_symmetry_space_group_name_H-M   'P 1'
_cell_length_a   9.73710004
_cell_length_b   9.73710004
_cell_length_c   8.13220500
_cell_angle_alpha   90.00000000
_cell_angle_beta   90.00000000
_cell_angle_gamma   120.00000024
_symmetry_Int_Tables_number   1
_chemical_formula_structural   Sr4FeRh2O9
_chemical_formula_sum   'Sr12 Fe3 Rh6 O27'
_cell_volume   667.72588479
_cell_formula_units_Z   3
loop_
 _symmetry_equiv_pos_site_id
 _symmetry_equiv_pos_as_xyz
  1  'x, y, z'
loop_
 _atom_site_type_symbol
 _atom_site_label
 _atom_site_symmetry_multiplicity
 _atom_site_fract_x
 _atom_site_fract_y
 _atom_site_fract_z
 _atom_site_occupancy
  Sr  Sr0  1  0.67352500  0.67352500  0.50000000  1
  Sr  Sr1  1  0.32647500  0.00000000  0.50000000  1
  Sr  Sr2  1  0.00000000  0.32647500  0.50000000  1
  Sr  Sr3  1  0.69478600  0.02740200  0.24599800  1
  Sr  Sr4  1  0.97259800  0.66738400  0.24599800  1
  Sr  Sr5  1  0.30521400  0.33261600  0.75400200  1
  Sr  Sr6  1  0.33261600  0.30521400  0.24599800  1
  Sr  Sr7  1  0.02740200  0.69478600  0.75400200  1
  Sr  Sr8  1  0.66738400  0.97259800  0.75400200  1
  Sr  Sr9  1  0.63636000  0.63636000  0.00000000  1
  Sr  Sr10  1  0.36364000  0.00000000  0.00000000  1
  Sr  Sr11  1  0.00000000  0.36364000  0.00000000  1
  Fe  Fe12  1  0.66666700  0.33333300  0.76507600  1
  Fe  Fe13  1  0.33333300  0.66666700  0.23492400  1
  Fe  Fe14  1  0.00000000  0.00000000  0.00000000  1
  Rh  Rh15  1  0.66666700  0.33333300  0.42931800  1
  Rh  Rh16  1  0.33333300  0.66666700  0.57068200  1
  Rh  Rh17  1  0.00000000  0.00000000  0.33834000  1
  Rh  Rh18  1  0.00000000  0.00000000  0.66166000  1
  Rh  Rh19  1  0.66666700  0.33333300  0.10532300  1
  Rh  Rh20  1  0.33333300  0.66666700  0.89467700  1
  O  O21  1  0.84253400  0.34999700  0.26587600  1
  O  O22  1  0.65000300  0.49253700  0.26587600  1
  O  O23  1  0.15746600  0.50746300  0.73412400  1
  O  O24  1  0.50746300  0.15746600  0.26587600  1
  O  O25  1  0.34999700  0.84253400  0.73412400  1
  O  O26  1  0.49253700  0.65000300  0.73412400  1
  O  O27  1  0.16374500  0.16374500  0.50000000  1
  O  O28  1  0.83625500  0.00000000  0.50000000  1
  O  O29  1  0.00000000  0.83625500  0.50000000  1
  O  O30  1  0.00730600  0.16186100  0.17578100  1
  O  O31  1  0.83813900  0.84544600  0.17578100  1
  O  O32  1  0.99269400  0.15455400  0.82421900  1
  O  O33  1  0.15455400  0.99269400  0.17578100  1
  O  O34  1  0.16186100  0.00730600  0.82421900  1
  O  O35  1  0.84544600  0.83813900  0.82421900  1
  O  O36  1  0.31804100  0.50449800  0.40872500  1
  O  O37  1  0.49550200  0.81354300  0.40872500  1
  O  O38  1  0.68195900  0.18645700  0.59127500  1
  O  O39  1  0.18645700  0.68195900  0.40872500  1
  O  O40  1  0.50449800  0.31804100  0.59127500  1
  O  O41  1  0.81354300  0.49550200  0.59127500  1
  O  O42  1  0.31844000  0.49989000  0.05543800  1
  O  O43  1  0.50011000  0.81855000  0.05543800  1
  O  O44  1  0.68156000  0.18145000  0.94456200  1
  O  O45  1  0.18145000  0.68156000  0.05543800  1
  O  O46  1  0.49989000  0.31844000  0.94456200  1
  O  O47  1  0.81855000  0.50011000  0.94456200  1
