# generated using pymatgen
data_VAgO3
_symmetry_space_group_name_H-M   'P 1'
_cell_length_a   7.62494958
_cell_length_b   7.62494958
_cell_length_c   5.63352376
_cell_angle_alpha   77.52006100
_cell_angle_beta   77.52006100
_cell_angle_gamma   87.94429283
_symmetry_Int_Tables_number   1
_chemical_formula_structural   VAgO3
_chemical_formula_sum   'V4 Ag4 O12'
_cell_volume   312.21694025
_cell_formula_units_Z   4
loop_
 _symmetry_equiv_pos_site_id
 _symmetry_equiv_pos_as_xyz
  1  'x, y, z'
loop_
 _atom_site_type_symbol
 _atom_site_label
 _atom_site_symmetry_multiplicity
 _atom_site_fract_x
 _atom_site_fract_y
 _atom_site_fract_z
 _atom_site_occupancy
  V  V0  1  0.11298700  0.27854200  0.73017200  1
  V  V1  1  0.72145800  0.88701300  0.76982800  1
  V  V2  1  0.88701300  0.72145800  0.26982800  1
  V  V3  1  0.27854200  0.11298700  0.23017200  1
  Ag  Ag4  1  0.24115700  0.75884300  0.75000000  1
  Ag  Ag5  1  0.75884300  0.24115700  0.25000000  1
  Ag  Ag6  1  0.59401300  0.40598700  0.75000000  1
  Ag  Ag7  1  0.40598700  0.59401300  0.25000000  1
  O  O8  1  0.19171200  0.10368300  0.95668200  1
  O  O9  1  0.89631700  0.80828800  0.54331800  1
  O  O10  1  0.80828800  0.89631700  0.04331800  1
  O  O11  1  0.10368300  0.19171200  0.45668200  1
  O  O12  1  0.90840700  0.34929400  0.85683500  1
  O  O13  1  0.65070600  0.09159300  0.64316500  1
  O  O14  1  0.09159300  0.65070600  0.14316500  1
  O  O15  1  0.34929400  0.90840700  0.35683500  1
  O  O16  1  0.45016500  0.26675200  0.14580700  1
  O  O17  1  0.73324800  0.54983500  0.35419300  1
  O  O18  1  0.54983500  0.73324800  0.85419300  1
  O  O19  1  0.26675200  0.45016500  0.64580700  1
