# generated using pymatgen
data_SrLa2WO7
_symmetry_space_group_name_H-M   'P 1'
_cell_length_a   5.83768200
_cell_length_b   8.95247300
_cell_length_c   12.79048665
_cell_angle_alpha   74.83527678
_cell_angle_beta   90.00000000
_cell_angle_gamma   90.00000000
_symmetry_Int_Tables_number   1
_chemical_formula_structural   SrLa2WO7
_chemical_formula_sum   'Sr4 La8 W4 O28'
_cell_volume   645.17542941
_cell_formula_units_Z   4
loop_
 _symmetry_equiv_pos_site_id
 _symmetry_equiv_pos_as_xyz
  1  'x, y, z'
loop_
 _atom_site_type_symbol
 _atom_site_label
 _atom_site_symmetry_multiplicity
 _atom_site_fract_x
 _atom_site_fract_y
 _atom_site_fract_z
 _atom_site_occupancy
  Sr  Sr0  1  0.01095200  0.50953500  0.63590700  1
  Sr  Sr1  1  0.51095200  0.49046500  0.86409300  1
  Sr  Sr2  1  0.98904800  0.49046500  0.36409300  1
  Sr  Sr3  1  0.48904800  0.50953500  0.13590700  1
  La  La4  1  0.51527300  0.79931500  0.58207200  1
  La  La5  1  0.01527300  0.20068500  0.91792800  1
  La  La6  1  0.48472700  0.20068500  0.41792800  1
  La  La7  1  0.98472700  0.79931500  0.08207200  1
  La  La8  1  0.01556500  0.92984200  0.37062300  1
  La  La9  1  0.51556500  0.07015800  0.12937700  1
  La  La10  1  0.98443500  0.07015800  0.62937700  1
  La  La11  1  0.48443500  0.92984200  0.87062300  1
  W  W12  1  0.03389200  0.71294500  0.83469300  1
  W  W13  1  0.53389200  0.28705500  0.66530700  1
  W  W14  1  0.96610800  0.28705500  0.16530700  1
  W  W15  1  0.46610800  0.71294500  0.33469300  1
  O  O16  1  0.04729900  0.49743100  0.83526000  1
  O  O17  1  0.54729900  0.50256900  0.66474000  1
  O  O18  1  0.95270100  0.50256900  0.16474000  1
  O  O19  1  0.45270100  0.49743100  0.33526000  1
  O  O20  1  0.04747300  0.93766300  0.82004100  1
  O  O21  1  0.54747300  0.06233700  0.67995900  1
  O  O22  1  0.95252700  0.06233700  0.17995900  1
  O  O23  1  0.45252700  0.93766300  0.32004100  1
  O  O24  1  0.76253200  0.69698900  0.92532700  1
  O  O25  1  0.26253200  0.30301100  0.57467300  1
  O  O26  1  0.23746800  0.30301100  0.07467300  1
  O  O27  1  0.73746800  0.69698900  0.42532700  1
  O  O28  1  0.33496500  0.74131000  0.75633200  1
  O  O29  1  0.83496500  0.25869000  0.74366800  1
  O  O30  1  0.66503500  0.25869000  0.24366800  1
  O  O31  1  0.16503500  0.74131000  0.25633200  1
  O  O32  1  0.23748300  0.68117400  0.96472700  1
  O  O33  1  0.73748300  0.31882600  0.53527300  1
  O  O34  1  0.76251700  0.31882600  0.03527300  1
  O  O35  1  0.26251700  0.68117400  0.46472700  1
  O  O36  1  0.87384800  0.75864200  0.69686700  1
  O  O37  1  0.37384800  0.24135800  0.80313300  1
  O  O38  1  0.12615200  0.24135800  0.30313300  1
  O  O39  1  0.62615200  0.75864200  0.19686700  1
  O  O40  1  0.24025200  0.99490800  0.50921100  1
  O  O41  1  0.74025200  0.00509200  0.99078900  1
  O  O42  1  0.75974800  0.00509200  0.49078900  1
  O  O43  1  0.25974800  0.99490800  0.00921100  1
