# generated using pymatgen
data_Ba3Sb2Se7
_symmetry_space_group_name_H-M   'P 1'
_cell_length_a   11.61718960
_cell_length_b   11.61718960
_cell_length_c   13.88036889
_cell_angle_alpha   73.62731983
_cell_angle_beta   73.62731983
_cell_angle_gamma   67.65303676
_symmetry_Int_Tables_number   1
_chemical_formula_structural   Ba3Sb2Se7
_chemical_formula_sum   'Ba12 Sb8 Se28'
_cell_volume   1629.80103430
_cell_formula_units_Z   4
loop_
 _symmetry_equiv_pos_site_id
 _symmetry_equiv_pos_as_xyz
  1  'x, y, z'
loop_
 _atom_site_type_symbol
 _atom_site_label
 _atom_site_symmetry_multiplicity
 _atom_site_fract_x
 _atom_site_fract_y
 _atom_site_fract_z
 _atom_site_occupancy
  Ba  Ba0  1  0.39553200  0.40623100  0.67247500  1
  Ba  Ba1  1  0.59376900  0.60446800  0.82752500  1
  Ba  Ba2  1  0.60446800  0.59376900  0.32752500  1
  Ba  Ba3  1  0.40623100  0.39553200  0.17247500  1
  Ba  Ba4  1  0.89816400  0.89269500  0.67487200  1
  Ba  Ba5  1  0.10730500  0.10183600  0.82512800  1
  Ba  Ba6  1  0.10183600  0.10730500  0.32512800  1
  Ba  Ba7  1  0.89269500  0.89816400  0.17487200  1
  Ba  Ba8  1  0.11486100  0.62018100  0.94444800  1
  Ba  Ba9  1  0.37981900  0.88513900  0.55555200  1
  Ba  Ba10  1  0.88513900  0.37981900  0.05555200  1
  Ba  Ba11  1  0.62018100  0.11486100  0.44444800  1
  Sb  Sb12  1  0.75950000  0.70510700  0.50926000  1
  Sb  Sb13  1  0.29489300  0.24050000  0.99074000  1
  Sb  Sb14  1  0.24050000  0.29489300  0.49074000  1
  Sb  Sb15  1  0.70510700  0.75950000  0.00926000  1
  Sb  Sb16  1  0.85895300  0.30933800  0.59519900  1
  Sb  Sb17  1  0.69066200  0.14104700  0.90480100  1
  Sb  Sb18  1  0.14104700  0.69066200  0.40480100  1
  Sb  Sb19  1  0.30933800  0.85895300  0.09519900  1
  Se  Se20  1  0.19556200  0.70201000  0.68290500  1
  Se  Se21  1  0.29799000  0.80443800  0.81709500  1
  Se  Se22  1  0.80443800  0.29799000  0.31709500  1
  Se  Se23  1  0.70201000  0.19556200  0.18290500  1
  Se  Se24  1  0.09924500  0.60163900  0.61216500  1
  Se  Se25  1  0.39836000  0.90075500  0.88783500  1
  Se  Se26  1  0.90075500  0.39836000  0.38783500  1
  Se  Se27  1  0.60164000  0.09924500  0.11216500  1
  Se  Se28  1  0.14550200  0.35750400  0.85966600  1
  Se  Se29  1  0.64249600  0.85449800  0.64033400  1
  Se  Se30  1  0.85449800  0.64249600  0.14033400  1
  Se  Se31  1  0.35750400  0.14550200  0.35966600  1
  Se  Se32  1  0.85035300  0.64246100  0.86204500  1
  Se  Se33  1  0.35753900  0.14964700  0.63795500  1
  Se  Se34  1  0.14964700  0.35753900  0.13795500  1
  Se  Se35  1  0.64246100  0.85035300  0.36204500  1
  Se  Se36  1  0.59547500  0.57490900  0.58570100  1
  Se  Se37  1  0.42509100  0.40452500  0.91429900  1
  Se  Se38  1  0.40452500  0.42509100  0.41429900  1
  Se  Se39  1  0.57490900  0.59547500  0.08570100  1
  Se  Se40  1  0.06060300  0.10036000  0.58884900  1
  Se  Se41  1  0.89964000  0.93939700  0.91115100  1
  Se  Se42  1  0.93939700  0.89964000  0.41115100  1
  Se  Se43  1  0.10036000  0.06060300  0.08884900  1
  Se  Se44  1  0.69600600  0.19533300  0.63139700  1
  Se  Se45  1  0.80466700  0.30399400  0.86860300  1
  Se  Se46  1  0.30399400  0.80466700  0.36860300  1
  Se  Se47  1  0.19533300  0.69600600  0.13139700  1
