# generated using pymatgen
data_Ba6Tm2Ga4O15
_symmetry_space_group_name_H-M   'P 1'
_cell_length_a   6.00705600
_cell_length_b   8.01502000
_cell_length_c   18.58324825
_cell_angle_alpha   88.55101519
_cell_angle_beta   90.00000000
_cell_angle_gamma   90.00000000
_symmetry_Int_Tables_number   1
_chemical_formula_structural   Ba6Tm2Ga4O15
_chemical_formula_sum   'Ba12 Tm4 Ga8 O30'
_cell_volume   894.43549543
_cell_formula_units_Z   2
loop_
 _symmetry_equiv_pos_site_id
 _symmetry_equiv_pos_as_xyz
  1  'x, y, z'
loop_
 _atom_site_type_symbol
 _atom_site_label
 _atom_site_symmetry_multiplicity
 _atom_site_fract_x
 _atom_site_fract_y
 _atom_site_fract_z
 _atom_site_occupancy
  Ba  Ba0  1  0.75641600  0.49864000  0.07817800  1
  Ba  Ba1  1  0.24358400  0.50136000  0.92182200  1
  Ba  Ba2  1  0.75641600  0.50136000  0.42182200  1
  Ba  Ba3  1  0.24358400  0.49864000  0.57817800  1
  Ba  Ba4  1  0.74590000  0.97327900  0.08907700  1
  Ba  Ba5  1  0.25410000  0.02672100  0.91092300  1
  Ba  Ba6  1  0.74590000  0.02672100  0.41092300  1
  Ba  Ba7  1  0.25410000  0.97327900  0.58907700  1
  Ba  Ba8  1  0.72234100  0.00000000  0.75000000  1
  Ba  Ba9  1  0.27765900  0.00000000  0.25000000  1
  Ba  Ba10  1  0.66878500  0.50000000  0.75000000  1
  Ba  Ba11  1  0.33121500  0.50000000  0.25000000  1
  Tm  Tm12  1  0.74561100  0.75145700  0.91029200  1
  Tm  Tm13  1  0.25438900  0.24854300  0.08970800  1
  Tm  Tm14  1  0.74561100  0.24854300  0.58970800  1
  Tm  Tm15  1  0.25438900  0.75145700  0.41029200  1
  Ga  Ga16  1  0.74920600  0.75408100  0.55792600  1
  Ga  Ga17  1  0.25079400  0.24591900  0.44207400  1
  Ga  Ga18  1  0.74920600  0.24591900  0.94207400  1
  Ga  Ga19  1  0.25079400  0.75408100  0.05792600  1
  Ga  Ga20  1  0.77401000  0.76963000  0.26716400  1
  Ga  Ga21  1  0.22599000  0.23037000  0.73283600  1
  Ga  Ga22  1  0.77401000  0.23037000  0.23283600  1
  Ga  Ga23  1  0.22599000  0.76963000  0.76716400  1
  O  O24  1  0.20449100  0.00000000  0.75000000  1
  O  O25  1  0.79550900  0.00000000  0.25000000  1
  O  O26  1  0.50641300  0.76516200  0.99925800  1
  O  O27  1  0.49358700  0.23483800  0.00074200  1
  O  O28  1  0.50641300  0.23483800  0.50074200  1
  O  O29  1  0.49358700  0.76516200  0.49925800  1
  O  O30  1  0.76104100  0.95541000  0.60717900  1
  O  O31  1  0.23895900  0.04459000  0.39282100  1
  O  O32  1  0.76104100  0.04459000  0.89282100  1
  O  O33  1  0.23895900  0.95541000  0.10717900  1
  O  O34  1  0.00484300  0.76395800  0.99347800  1
  O  O35  1  0.99515700  0.23604200  0.00652200  1
  O  O36  1  0.00484300  0.23604200  0.50652200  1
  O  O37  1  0.99515700  0.76395800  0.49347800  1
  O  O38  1  0.32650600  0.68724000  0.68269700  1
  O  O39  1  0.67349400  0.31276000  0.31730300  1
  O  O40  1  0.32650600  0.31276000  0.81730300  1
  O  O41  1  0.67349400  0.68724000  0.18269700  1
  O  O42  1  0.45571100  0.74996000  0.83633000  1
  O  O43  1  0.54428900  0.25004000  0.16367000  1
  O  O44  1  0.45571100  0.25004000  0.66367000  1
  O  O45  1  0.54428900  0.74996000  0.33633000  1
  O  O46  1  0.95739000  0.72593400  0.81252500  1
  O  O47  1  0.04261000  0.27406600  0.18747500  1
  O  O48  1  0.95739000  0.27406600  0.68747500  1
  O  O49  1  0.04261000  0.72593400  0.31252500  1
  O  O50  1  0.75482400  0.53076400  0.59073500  1
  O  O51  1  0.24517600  0.46923600  0.40926500  1
  O  O52  1  0.75482400  0.46923600  0.90926500  1
  O  O53  1  0.24517600  0.53076400  0.09073500  1
