# generated using pymatgen
data_Tm2Al3Si2
_symmetry_space_group_name_H-M   'P 1'
_cell_length_a   5.42659300
_cell_length_b   5.42659300
_cell_length_c   6.57891801
_cell_angle_alpha   80.01896640
_cell_angle_beta   80.01896640
_cell_angle_gamma   43.26411907
_symmetry_Int_Tables_number   1
_chemical_formula_structural   Tm2Al3Si2
_chemical_formula_sum   'Tm2 Al3 Si2'
_cell_volume   130.45051270
_cell_formula_units_Z   1
loop_
 _symmetry_equiv_pos_site_id
 _symmetry_equiv_pos_as_xyz
  1  'x, y, z'
loop_
 _atom_site_type_symbol
 _atom_site_label
 _atom_site_symmetry_multiplicity
 _atom_site_fract_x
 _atom_site_fract_y
 _atom_site_fract_z
 _atom_site_occupancy
  Tm  Tm0  1  0.61933400  0.61933400  0.67707600  1
  Tm  Tm1  1  0.38066600  0.38066600  0.32292400  1
  Al  Al2  1  0.30511000  0.30511000  0.86686600  1
  Al  Al3  1  0.00000000  0.00000000  0.00000000  1
  Al  Al4  1  0.69489000  0.69489000  0.13313400  1
  Si  Si5  1  0.09389400  0.09389400  0.36077100  1
  Si  Si6  1  0.90610600  0.90610600  0.63922900  1
