# generated using pymatgen
data_LiLaGe2
_symmetry_space_group_name_H-M   'P 1'
_cell_length_a   4.06450000
_cell_length_b   7.95940800
_cell_length_c   10.90870200
_cell_angle_alpha   90.00000000
_cell_angle_beta   90.00000000
_cell_angle_gamma   90.00000000
_symmetry_Int_Tables_number   1
_chemical_formula_structural   LiLaGe2
_chemical_formula_sum   'Li4 La4 Ge8'
_cell_volume   352.90756912
_cell_formula_units_Z   4
loop_
 _symmetry_equiv_pos_site_id
 _symmetry_equiv_pos_as_xyz
  1  'x, y, z'
loop_
 _atom_site_type_symbol
 _atom_site_label
 _atom_site_symmetry_multiplicity
 _atom_site_fract_x
 _atom_site_fract_y
 _atom_site_fract_z
 _atom_site_occupancy
  Li  Li0  1  0.25000000  0.99475500  0.38821700  1
  Li  Li1  1  0.25000000  0.49475500  0.11178300  1
  Li  Li2  1  0.75000000  0.00524500  0.61178300  1
  Li  Li3  1  0.75000000  0.50524500  0.88821700  1
  La  La4  1  0.25000000  0.13690400  0.86394300  1
  La  La5  1  0.25000000  0.63690400  0.63605700  1
  La  La6  1  0.75000000  0.86309600  0.13605700  1
  La  La7  1  0.75000000  0.36309600  0.36394300  1
  Ge  Ge8  1  0.25000000  0.22022400  0.56617100  1
  Ge  Ge9  1  0.25000000  0.72022400  0.93382900  1
  Ge  Ge10  1  0.75000000  0.77977600  0.43382900  1
  Ge  Ge11  1  0.75000000  0.27977600  0.06617100  1
  Ge  Ge12  1  0.25000000  0.66068400  0.31950700  1
  Ge  Ge13  1  0.25000000  0.16068400  0.18049300  1
  Ge  Ge14  1  0.75000000  0.33931600  0.68049300  1
  Ge  Ge15  1  0.75000000  0.83931600  0.81950700  1
