# generated using pymatgen
data_Pr(AlSi)2
_symmetry_space_group_name_H-M   'P 1'
_cell_length_a   4.25210479
_cell_length_b   4.25210479
_cell_length_c   6.86230200
_cell_angle_alpha   90.00000000
_cell_angle_beta   90.00000000
_cell_angle_gamma   120.00001235
_symmetry_Int_Tables_number   1
_chemical_formula_structural   Pr(AlSi)2
_chemical_formula_sum   'Pr1 Al2 Si2'
_cell_volume   107.45047085
_cell_formula_units_Z   1
loop_
 _symmetry_equiv_pos_site_id
 _symmetry_equiv_pos_as_xyz
  1  'x, y, z'
loop_
 _atom_site_type_symbol
 _atom_site_label
 _atom_site_symmetry_multiplicity
 _atom_site_fract_x
 _atom_site_fract_y
 _atom_site_fract_z
 _atom_site_occupancy
  Pr  Pr0  1  0.00000000  0.00000000  0.00000000  1
  Al  Al1  1  0.66666700  0.33333300  0.35997900  1
  Al  Al2  1  0.33333300  0.66666700  0.64002100  1
  Si  Si3  1  0.66666700  0.33333300  0.72906800  1
  Si  Si4  1  0.33333300  0.66666700  0.27093200  1
