# generated using pymatgen
data_YNiO3
_symmetry_space_group_name_H-M   'P 1'
_cell_length_a   5.24150400
_cell_length_b   5.58471300
_cell_length_c   7.50216300
_cell_angle_alpha   90.00000000
_cell_angle_beta   90.00000000
_cell_angle_gamma   90.00000000
_symmetry_Int_Tables_number   1
_chemical_formula_structural   YNiO3
_chemical_formula_sum   'Y4 Ni4 O12'
_cell_volume   219.60553244
_cell_formula_units_Z   4
loop_
 _symmetry_equiv_pos_site_id
 _symmetry_equiv_pos_as_xyz
  1  'x, y, z'
loop_
 _atom_site_type_symbol
 _atom_site_label
 _atom_site_symmetry_multiplicity
 _atom_site_fract_x
 _atom_site_fract_y
 _atom_site_fract_z
 _atom_site_occupancy
  Y  Y0  1  0.48036700  0.42618500  0.75000000  1
  Y  Y1  1  0.01963300  0.92618500  0.75000000  1
  Y  Y2  1  0.51963300  0.57381500  0.25000000  1
  Y  Y3  1  0.98036700  0.07381500  0.25000000  1
  Ni  Ni4  1  0.00000000  0.50000000  0.00000000  1
  Ni  Ni5  1  0.50000000  0.00000000  0.50000000  1
  Ni  Ni6  1  0.00000000  0.50000000  0.50000000  1
  Ni  Ni7  1  0.50000000  0.00000000  0.00000000  1
  O  O8  1  0.69109300  0.29878200  0.44697800  1
  O  O9  1  0.80890700  0.79878200  0.05302200  1
  O  O10  1  0.30890700  0.70121800  0.55302200  1
  O  O11  1  0.19109300  0.20121800  0.94697800  1
  O  O12  1  0.19109300  0.20121800  0.55302200  1
  O  O13  1  0.30890700  0.70121800  0.94697800  1
  O  O14  1  0.80890700  0.79878200  0.44697800  1
  O  O15  1  0.69109300  0.29878200  0.05302200  1
  O  O16  1  0.10298300  0.46827800  0.25000000  1
  O  O17  1  0.39701700  0.96827800  0.25000000  1
  O  O18  1  0.89701700  0.53172200  0.75000000  1
  O  O19  1  0.60298300  0.03172200  0.75000000  1
