# generated using pymatgen
data_Nd3Re2O9
_symmetry_space_group_name_H-M   'P 1'
_cell_length_a   5.63823900
_cell_length_b   6.84798281
_cell_length_c   11.10279373
_cell_angle_alpha   77.01209503
_cell_angle_beta   75.55495643
_cell_angle_gamma   69.11355610
_symmetry_Int_Tables_number   1
_chemical_formula_structural   Nd3Re2O9
_chemical_formula_sum   'Nd6 Re4 O18'
_cell_volume   383.45976169
_cell_formula_units_Z   2
loop_
 _symmetry_equiv_pos_site_id
 _symmetry_equiv_pos_as_xyz
  1  'x, y, z'
loop_
 _atom_site_type_symbol
 _atom_site_label
 _atom_site_symmetry_multiplicity
 _atom_site_fract_x
 _atom_site_fract_y
 _atom_site_fract_z
 _atom_site_occupancy
  Nd  Nd0  1  0.00258800  0.22443800  0.27048700  1
  Nd  Nd1  1  0.99741200  0.77556200  0.72951300  1
  Nd  Nd2  1  0.22153000  0.16335300  0.88211500  1
  Nd  Nd3  1  0.77847000  0.83664700  0.11788500  1
  Nd  Nd4  1  0.28424000  0.59448600  0.37953600  1
  Nd  Nd5  1  0.71576000  0.40551400  0.62046400  1
  Re  Re6  1  0.51005700  0.38636200  0.09209500  1
  Re  Re7  1  0.48994300  0.61363800  0.90790500  1
  Re  Re8  1  0.35580700  0.12285400  0.57126100  1
  Re  Re9  1  0.64419300  0.87714600  0.42873900  1
  O  O10  1  0.30465400  0.41879900  0.58969600  1
  O  O11  1  0.69534600  0.58120100  0.41030400  1
  O  O12  1  0.58706400  0.05735300  0.68896300  1
  O  O13  1  0.41293600  0.94264700  0.31103700  1
  O  O14  1  0.85766400  0.18645800  0.06321000  1
  O  O15  1  0.14233600  0.81354200  0.93679000  1
  O  O16  1  0.38244700  0.17115000  0.07100500  1
  O  O17  1  0.61755300  0.82885000  0.92899500  1
  O  O18  1  0.06000200  0.11426000  0.71256400  1
  O  O19  1  0.93999800  0.88574000  0.28743600  1
  O  O20  1  0.17383800  0.51097700  0.19109700  1
  O  O21  1  0.82616200  0.48902300  0.80890300  1
  O  O22  1  0.10788100  0.25338600  0.46069500  1
  O  O23  1  0.89211900  0.74661400  0.53930500  1
  O  O24  1  0.64154300  0.52316600  0.18504100  1
  O  O25  1  0.35845700  0.47683400  0.81495900  1
  O  O26  1  0.62811200  0.18232000  0.42095900  1
  O  O27  1  0.37188800  0.81768000  0.57904100  1
