# generated using pymatgen
data_YCrO3
_symmetry_space_group_name_H-M   'P 1'
_cell_length_a   5.31725400
_cell_length_b   5.61467600
_cell_length_c   7.66736500
_cell_angle_alpha   90.00022434
_cell_angle_beta   90.00040650
_cell_angle_gamma   89.99991608
_symmetry_Int_Tables_number   1
_chemical_formula_structural   YCrO3
_chemical_formula_sum   'Y4 Cr4 O12'
_cell_volume   228.90656305
_cell_formula_units_Z   4
loop_
 _symmetry_equiv_pos_site_id
 _symmetry_equiv_pos_as_xyz
  1  'x, y, z'
loop_
 _atom_site_type_symbol
 _atom_site_label
 _atom_site_symmetry_multiplicity
 _atom_site_fract_x
 _atom_site_fract_y
 _atom_site_fract_z
 _atom_site_occupancy
  Y  Y0  1  0.01893700  0.93255500  0.75000100  1
  Y  Y1  1  0.51893700  0.56744600  0.25000100  1
  Y  Y2  1  0.48106300  0.43255400  0.74999900  1
  Y  Y3  1  0.98106200  0.06744600  0.24999900  1
  Cr  Cr4  1  0.49999900  0.00000400  0.50000300  1
  Cr  Cr5  1  0.00000000  0.50000400  0.00000100  1
  Cr  Cr6  1  0.00000200  0.49999500  0.49999300  1
  Cr  Cr7  1  0.50000200  0.99999200  0.00000400  1
  O  O8  1  0.11190200  0.45914300  0.24999900  1
  O  O9  1  0.61190400  0.04085900  0.74999800  1
  O  O10  1  0.38809600  0.95914200  0.25000100  1
  O  O11  1  0.88809700  0.54085800  0.75000100  1
  O  O12  1  0.69303200  0.30236000  0.44264100  1
  O  O13  1  0.19303500  0.19763900  0.55736100  1
  O  O14  1  0.80696600  0.80236100  0.05736000  1
  O  O15  1  0.30696400  0.69763800  0.94263900  1
  O  O16  1  0.30696700  0.69764100  0.55735900  1
  O  O17  1  0.80696300  0.80236100  0.44263900  1
  O  O18  1  0.19303300  0.19764000  0.94264000  1
  O  O19  1  0.69303700  0.30236300  0.05736100  1
