# generated using pymatgen
data_Pr5Te7MoCl3O23
_symmetry_space_group_name_H-M   'P 1'
_cell_length_a   10.06548856
_cell_length_b   10.06548856
_cell_length_c   18.58532963
_cell_angle_alpha   87.26481358
_cell_angle_beta   87.26481358
_cell_angle_gamma   134.57541477
_symmetry_Int_Tables_number   1
_chemical_formula_structural   Pr5Te7MoCl3O23
_chemical_formula_sum   'Pr10 Te14 Mo2 Cl6 O46'
_cell_volume   1330.99667414
_cell_formula_units_Z   2
loop_
 _symmetry_equiv_pos_site_id
 _symmetry_equiv_pos_as_xyz
  1  'x, y, z'
loop_
 _atom_site_type_symbol
 _atom_site_label
 _atom_site_symmetry_multiplicity
 _atom_site_fract_x
 _atom_site_fract_y
 _atom_site_fract_z
 _atom_site_occupancy
  Pr  Pr0  1  0.23919800  0.76080200  0.50000000  1
  Pr  Pr1  1  0.75781200  0.24218800  0.50000000  1
  Pr  Pr2  1  0.74221700  0.52062200  0.86341800  1
  Pr  Pr3  1  0.52056200  0.74206300  0.86375500  1
  Pr  Pr4  1  0.25793700  0.47943800  0.13624500  1
  Pr  Pr5  1  0.47937800  0.25778300  0.13658200  1
  Pr  Pr6  1  0.17992300  0.69847200  0.73825200  1
  Pr  Pr7  1  0.69845200  0.18202000  0.73835800  1
  Pr  Pr8  1  0.81798000  0.30154800  0.26164200  1
  Pr  Pr9  1  0.30152800  0.82007700  0.26174800  1
  Te  Te10  1  0.29855100  0.95910800  0.88981600  1
  Te  Te11  1  0.95918300  0.29838000  0.88980900  1
  Te  Te12  1  0.70162000  0.04081700  0.11019100  1
  Te  Te13  1  0.04089200  0.70144900  0.11018400  1
  Te  Te14  1  0.84888100  0.63687900  0.64220700  1
  Te  Te15  1  0.63431400  0.84680600  0.64345100  1
  Te  Te16  1  0.15319400  0.36568600  0.35654900  1
  Te  Te17  1  0.36312100  0.15111900  0.35779300  1
  Te  Te18  1  0.99536400  0.99532000  0.76202100  1
  Te  Te19  1  0.00468000  0.00463600  0.23797900  1
  Te  Te20  1  0.40593200  0.16351700  0.61478900  1
  Te  Te21  1  0.16484200  0.40767500  0.61542200  1
  Te  Te22  1  0.59232500  0.83515800  0.38457800  1
  Te  Te23  1  0.83648300  0.59406800  0.38521100  1
  Mo  Mo24  1  0.26351700  0.26348700  0.97527800  1
  Mo  Mo25  1  0.73651300  0.73648300  0.02472200  1
  Cl  Cl26  1  0.43764700  0.43846400  0.71441600  1
  Cl  Cl27  1  0.56153600  0.56235300  0.28558400  1
  Cl  Cl28  1  0.49953300  0.50046700  0.50000000  1
  Cl  Cl29  1  0.69722300  0.30277700  0.00000000  1
  Cl  Cl30  1  0.30278500  0.69721500  0.00000000  1
  Cl  Cl31  1  0.03579900  0.96420100  0.50000000  1
  O  O32  1  0.41264600  0.89519100  0.83691300  1
  O  O33  1  0.89502900  0.41240200  0.83698000  1
  O  O34  1  0.58759800  0.10497100  0.16302000  1
  O  O35  1  0.10480900  0.58735400  0.16308700  1
  O  O36  1  0.14744200  0.30773400  0.02913800  1
  O  O37  1  0.30771600  0.14743900  0.02913600  1
  O  O38  1  0.85256100  0.69228400  0.97086400  1
  O  O39  1  0.69226600  0.85255800  0.97086200  1
  O  O40  1  0.47818400  0.20414500  0.84057700  1
  O  O41  1  0.20419300  0.47821600  0.84062300  1
  O  O42  1  0.52178400  0.79580700  0.15937700  1
  O  O43  1  0.79585500  0.52181600  0.15942300  1
  O  O44  1  0.76562600  0.76578400  0.81093200  1
  O  O45  1  0.23421600  0.23437400  0.18906800  1
  O  O46  1  0.48272500  0.48274100  0.92203400  1
  O  O47  1  0.51725900  0.51727500  0.07796600  1
  O  O48  1  0.03743600  0.89004300  0.69223000  1
  O  O49  1  0.88958700  0.03658400  0.69176900  1
  O  O50  1  0.96341600  0.11041300  0.30823100  1
  O  O51  1  0.10995700  0.96256400  0.30777000  1
  O  O52  1  0.82392300  0.51734800  0.73370400  1
  O  O53  1  0.51666900  0.82311200  0.73398000  1
  O  O54  1  0.17688800  0.48333100  0.26602000  1
  O  O55  1  0.48265200  0.17607700  0.26629600  1
  O  O56  1  0.11214700  0.11213500  0.91266500  1
  O  O57  1  0.88786500  0.88785300  0.08733500  1
  O  O58  1  0.07242000  0.70104900  0.61405200  1
  O  O59  1  0.70304100  0.07174600  0.61299600  1
  O  O60  1  0.92825400  0.29695900  0.38700400  1
  O  O61  1  0.29895100  0.92758000  0.38594800  1
  O  O62  1  0.68261500  0.35638700  0.60982100  1
  O  O63  1  0.35698600  0.68298200  0.61003700  1
  O  O64  1  0.31701800  0.64301400  0.38996300  1
  O  O65  1  0.64361300  0.31738500  0.39017900  1
  O  O66  1  0.09655700  0.81789200  0.83053400  1
  O  O67  1  0.81772900  0.09652600  0.83042300  1
  O  O68  1  0.90347400  0.18227100  0.16957700  1
  O  O69  1  0.18210800  0.90344300  0.16946600  1
  O  O70  1  0.40268400  0.02607600  0.69067600  1
  O  O71  1  0.02614500  0.40264100  0.69091800  1
  O  O72  1  0.59735900  0.97385500  0.30908200  1
  O  O73  1  0.97392400  0.59731600  0.30932400  1
  O  O74  1  0.42997200  0.06782300  0.53534200  1
  O  O75  1  0.06718100  0.42607800  0.53503200  1
  O  O76  1  0.57392200  0.93281900  0.46496800  1
  O  O77  1  0.93217700  0.57002800  0.46465800  1
