# generated using pymatgen
data_Tb2(Ga3Ir)3
_symmetry_space_group_name_H-M   'P 1'
_cell_length_a   7.60309273
_cell_length_b   7.60309273
_cell_length_c   9.51633400
_cell_angle_alpha   90.00000000
_cell_angle_beta   90.00000000
_cell_angle_gamma   119.96798173
_symmetry_Int_Tables_number   1
_chemical_formula_structural   Tb2(Ga3Ir)3
_chemical_formula_sum   'Tb4 Ga18 Ir6'
_cell_volume   476.56364891
_cell_formula_units_Z   2
loop_
 _symmetry_equiv_pos_site_id
 _symmetry_equiv_pos_as_xyz
  1  'x, y, z'
loop_
 _atom_site_type_symbol
 _atom_site_label
 _atom_site_symmetry_multiplicity
 _atom_site_fract_x
 _atom_site_fract_y
 _atom_site_fract_z
 _atom_site_occupancy
  Tb  Tb0  1  0.99709900  0.66786500  0.25000000  1
  Tb  Tb1  1  0.00290100  0.33213500  0.75000000  1
  Tb  Tb2  1  0.66786500  0.99709900  0.25000000  1
  Tb  Tb3  1  0.33213500  0.00290100  0.75000000  1
  Ga  Ga4  1  0.12702200  0.12702200  0.25000000  1
  Ga  Ga5  1  0.87297800  0.87297800  0.75000000  1
  Ga  Ga6  1  0.99940300  0.33378900  0.07983300  1
  Ga  Ga7  1  0.00059700  0.66621100  0.92016700  1
  Ga  Ga8  1  0.00059700  0.66621100  0.57983300  1
  Ga  Ga9  1  0.33378900  0.99940300  0.42016700  1
  Ga  Ga10  1  0.99940300  0.33378900  0.42016700  1
  Ga  Ga11  1  0.66621100  0.00059700  0.57983300  1
  Ga  Ga12  1  0.66621100  0.00059700  0.92016700  1
  Ga  Ga13  1  0.33378900  0.99940300  0.07983300  1
  Ga  Ga14  1  0.33294400  0.33294400  0.56336300  1
  Ga  Ga15  1  0.66705600  0.66705600  0.43663700  1
  Ga  Ga16  1  0.66705600  0.66705600  0.06336300  1
  Ga  Ga17  1  0.33294400  0.33294400  0.93663700  1
  Ga  Ga18  1  0.33869800  0.54556100  0.25000000  1
  Ga  Ga19  1  0.66130200  0.45443900  0.75000000  1
  Ga  Ga20  1  0.54556100  0.33869800  0.25000000  1
  Ga  Ga21  1  0.45443900  0.66130200  0.75000000  1
  Ir  Ir22  1  0.67142700  0.32857300  0.00000000  1
  Ir  Ir23  1  0.32857300  0.67142700  0.00000000  1
  Ir  Ir24  1  0.32857300  0.67142700  0.50000000  1
  Ir  Ir25  1  0.67142700  0.32857300  0.50000000  1
  Ir  Ir26  1  0.00000000  0.00000000  0.00000000  1
  Ir  Ir27  1  0.00000000  0.00000000  0.50000000  1
