# generated using pymatgen
data_RbV(CuS2)2
_symmetry_space_group_name_H-M   'P 1'
_cell_length_a   9.66570965
_cell_length_b   9.66570965
_cell_length_c   7.48975800
_cell_angle_alpha   90.00000000
_cell_angle_beta   90.00000000
_cell_angle_gamma   147.39927022
_symmetry_Int_Tables_number   1
_chemical_formula_structural   RbV(CuS2)2
_chemical_formula_sum   'Rb2 V2 Cu4 S8'
_cell_volume   377.00574097
_cell_formula_units_Z   2
loop_
 _symmetry_equiv_pos_site_id
 _symmetry_equiv_pos_as_xyz
  1  'x, y, z'
loop_
 _atom_site_type_symbol
 _atom_site_label
 _atom_site_symmetry_multiplicity
 _atom_site_fract_x
 _atom_site_fract_y
 _atom_site_fract_z
 _atom_site_occupancy
  Rb  Rb0  1  0.17565300  0.54128100  0.75000000  1
  Rb  Rb1  1  0.54128100  0.17565300  0.25000000  1
  V  V2  1  0.70941500  0.49729400  0.75000000  1
  V  V3  1  0.49729400  0.70941500  0.25000000  1
  Cu  Cu4  1  0.61881800  0.61881800  0.50000000  1
  Cu  Cu5  1  0.99874300  0.20684900  0.25000000  1
  Cu  Cu6  1  0.20684900  0.99874300  0.75000000  1
  Cu  Cu7  1  0.61881800  0.61881800  0.00000000  1
  S  S8  1  0.73162200  0.94321000  0.01044200  1
  S  S9  1  0.37717800  0.36323900  0.75000000  1
  S  S10  1  0.36323900  0.37717800  0.25000000  1
  S  S11  1  0.94321000  0.73162200  0.51044200  1
  S  S12  1  0.56782000  0.16702900  0.75000000  1
  S  S13  1  0.94321000  0.73162200  0.98955800  1
  S  S14  1  0.16702900  0.56782000  0.25000000  1
  S  S15  1  0.73162200  0.94321000  0.48955800  1
