# generated using pymatgen
data_Ba3SmInS6
_symmetry_space_group_name_H-M   'P 1'
_cell_length_a   8.49706034
_cell_length_b   8.49706034
_cell_length_c   8.49706057
_cell_angle_alpha   92.56700764
_cell_angle_beta   92.56700764
_cell_angle_gamma   92.56700707
_symmetry_Int_Tables_number   1
_chemical_formula_structural   Ba3SmInS6
_chemical_formula_sum   'Ba6 Sm2 In2 S12'
_cell_volume   611.58406285
_cell_formula_units_Z   2
loop_
 _symmetry_equiv_pos_site_id
 _symmetry_equiv_pos_as_xyz
  1  'x, y, z'
loop_
 _atom_site_type_symbol
 _atom_site_label
 _atom_site_symmetry_multiplicity
 _atom_site_fract_x
 _atom_site_fract_y
 _atom_site_fract_z
 _atom_site_occupancy
  Ba  Ba0  1  0.86974700  0.63025300  0.25000000  1
  Ba  Ba1  1  0.25000000  0.86974700  0.63025300  1
  Ba  Ba2  1  0.63025300  0.25000000  0.86974700  1
  Ba  Ba3  1  0.75000000  0.13025300  0.36974700  1
  Ba  Ba4  1  0.36974700  0.75000000  0.13025300  1
  Ba  Ba5  1  0.13025300  0.36974700  0.75000000  1
  Sm  Sm6  1  0.25000000  0.25000000  0.25000000  1
  Sm  Sm7  1  0.75000000  0.75000000  0.75000000  1
  In  In8  1  0.50000000  0.50000000  0.50000000  1
  In  In9  1  0.00000000  0.00000000  0.00000000  1
  S  S10  1  0.19994500  0.54125900  0.41119800  1
  S  S11  1  0.41119800  0.19994500  0.54125900  1
  S  S12  1  0.54125900  0.41119800  0.19994500  1
  S  S13  1  0.91119800  0.04125900  0.69994500  1
  S  S14  1  0.69994500  0.91119800  0.04125900  1
  S  S15  1  0.04125900  0.69994500  0.91119800  1
  S  S16  1  0.80005500  0.45874100  0.58880200  1
  S  S17  1  0.58880200  0.80005500  0.45874100  1
  S  S18  1  0.45874100  0.58880200  0.80005500  1
  S  S19  1  0.08880200  0.95874100  0.30005500  1
  S  S20  1  0.30005500  0.08880200  0.95874100  1
  S  S21  1  0.95874100  0.30005500  0.08880200  1
