# generated using pymatgen
data_Ba2SiSe4
_symmetry_space_group_name_H-M   'P 1'
_cell_length_a   7.12572800
_cell_length_b   7.07032900
_cell_length_c   9.30405178
_cell_angle_alpha   71.59136806
_cell_angle_beta   90.00000000
_cell_angle_gamma   90.00000000
_symmetry_Int_Tables_number   1
_chemical_formula_structural   Ba2SiSe4
_chemical_formula_sum   'Ba4 Si2 Se8'
_cell_volume   444.76302897
_cell_formula_units_Z   2
loop_
 _symmetry_equiv_pos_site_id
 _symmetry_equiv_pos_as_xyz
  1  'x, y, z'
loop_
 _atom_site_type_symbol
 _atom_site_label
 _atom_site_symmetry_multiplicity
 _atom_site_fract_x
 _atom_site_fract_y
 _atom_site_fract_z
 _atom_site_occupancy
  Ba  Ba0  1  0.75000000  0.71843400  0.07289300  1
  Ba  Ba1  1  0.25000000  0.28156600  0.92710700  1
  Ba  Ba2  1  0.75000000  0.78466300  0.54438200  1
  Ba  Ba3  1  0.25000000  0.21533700  0.45561800  1
  Si  Si4  1  0.75000000  0.20512700  0.71113100  1
  Si  Si5  1  0.25000000  0.79487300  0.28886900  1
  Se  Se6  1  0.00361900  0.99715200  0.77159500  1
  Se  Se7  1  0.50361900  0.00284800  0.22840500  1
  Se  Se8  1  0.25000000  0.64250300  0.54647200  1
  Se  Se9  1  0.75000000  0.35749700  0.45352800  1
  Se  Se10  1  0.25000000  0.58929600  0.14021700  1
  Se  Se11  1  0.75000000  0.41070400  0.85978300  1
  Se  Se12  1  0.49638100  0.99715200  0.77159500  1
  Se  Se13  1  0.99638100  0.00284800  0.22840500  1
