# generated using pymatgen
data_Mg2Tl2(MoO4)3
_symmetry_space_group_name_H-M   'P 1'
_cell_length_a   10.99952200
_cell_length_b   10.99952200
_cell_length_c   10.99952200
_cell_angle_alpha   90.00000000
_cell_angle_beta   90.00000000
_cell_angle_gamma   90.00000000
_symmetry_Int_Tables_number   1
_chemical_formula_structural   Mg2Tl2(MoO4)3
_chemical_formula_sum   'Mg8 Tl8 Mo12 O48'
_cell_volume   1330.82649354
_cell_formula_units_Z   4
loop_
 _symmetry_equiv_pos_site_id
 _symmetry_equiv_pos_as_xyz
  1  'x, y, z'
loop_
 _atom_site_type_symbol
 _atom_site_label
 _atom_site_symmetry_multiplicity
 _atom_site_fract_x
 _atom_site_fract_y
 _atom_site_fract_z
 _atom_site_occupancy
  Mg  Mg0  1  0.11432900  0.61432900  0.88567100  1
  Mg  Mg1  1  0.38567100  0.38567100  0.38567100  1
  Mg  Mg2  1  0.88567100  0.11432900  0.61432900  1
  Mg  Mg3  1  0.61432900  0.88567100  0.11432900  1
  Mg  Mg4  1  0.66109500  0.66109500  0.66109500  1
  Mg  Mg5  1  0.83890500  0.33890500  0.16109500  1
  Mg  Mg6  1  0.33890500  0.16109500  0.83890500  1
  Mg  Mg7  1  0.16109500  0.83890500  0.33890500  1
  Tl  Tl8  1  0.16594700  0.16594700  0.16594700  1
  Tl  Tl9  1  0.33405300  0.83405300  0.66594700  1
  Tl  Tl10  1  0.66594700  0.33405300  0.83405300  1
  Tl  Tl11  1  0.83405300  0.66594700  0.33405300  1
  Tl  Tl12  1  0.94019700  0.94019700  0.94019700  1
  Tl  Tl13  1  0.55980300  0.05980300  0.44019700  1
  Tl  Tl14  1  0.44019700  0.55980300  0.05980300  1
  Tl  Tl15  1  0.05980300  0.44019700  0.55980300  1
  Mo  Mo16  1  0.62216000  0.97246600  0.79706700  1
  Mo  Mo17  1  0.12216000  0.52753400  0.20293300  1
  Mo  Mo18  1  0.29706700  0.87784000  0.02753400  1
  Mo  Mo19  1  0.87784000  0.02753400  0.29706700  1
  Mo  Mo20  1  0.79706700  0.62216000  0.97246600  1
  Mo  Mo21  1  0.70293300  0.37784000  0.47246600  1
  Mo  Mo22  1  0.20293300  0.12216000  0.52753400  1
  Mo  Mo23  1  0.37784000  0.47246600  0.70293300  1
  Mo  Mo24  1  0.02753400  0.29706700  0.87784000  1
  Mo  Mo25  1  0.52753400  0.20293300  0.12216000  1
  Mo  Mo26  1  0.97246600  0.79706700  0.62216000  1
  Mo  Mo27  1  0.47246600  0.70293300  0.37784000  1
  O  O28  1  0.95454400  0.28049900  0.02235600  1
  O  O29  1  0.45454400  0.21950100  0.97764400  1
  O  O30  1  0.04545600  0.78049900  0.47764400  1
  O  O31  1  0.21950100  0.97764400  0.45454400  1
  O  O32  1  0.47764400  0.04545600  0.78049900  1
  O  O33  1  0.97764400  0.45454400  0.21950100  1
  O  O34  1  0.28049900  0.02235600  0.95454400  1
  O  O35  1  0.02235600  0.95454400  0.28049900  1
  O  O36  1  0.78049900  0.47764400  0.04545600  1
  O  O37  1  0.71950100  0.52235600  0.54545600  1
  O  O38  1  0.52235600  0.54545600  0.71950100  1
  O  O39  1  0.54545600  0.71950100  0.52235600  1
  O  O40  1  0.18026700  0.24512000  0.89737900  1
  O  O41  1  0.68026700  0.25488000  0.10262100  1
  O  O42  1  0.81973300  0.74512000  0.60262100  1
  O  O43  1  0.25488000  0.10262100  0.68026700  1
  O  O44  1  0.60262100  0.81973300  0.74512000  1
  O  O45  1  0.10262100  0.68026700  0.25488000  1
  O  O46  1  0.72926300  0.05435700  0.70531500  1
  O  O47  1  0.24512000  0.89737900  0.18026700  1
  O  O48  1  0.74512000  0.60262100  0.81973300  1
  O  O49  1  0.75488000  0.39737900  0.31973300  1
  O  O50  1  0.39737900  0.31973300  0.75488000  1
  O  O51  1  0.31973300  0.75488000  0.39737900  1
  O  O52  1  0.94564300  0.20531500  0.77073700  1
  O  O53  1  0.44564300  0.29468500  0.22926300  1
  O  O54  1  0.05435700  0.70531500  0.72926300  1
  O  O55  1  0.29468500  0.22926300  0.44564300  1
  O  O56  1  0.47284000  0.54755500  0.32388700  1
  O  O57  1  0.32388700  0.47284000  0.54755500  1
  O  O58  1  0.54755500  0.32388700  0.47284000  1
  O  O59  1  0.95244500  0.67611300  0.97284000  1
  O  O60  1  0.82388700  0.02716000  0.45244500  1
  O  O61  1  0.45244500  0.82388700  0.02716000  1
  O  O62  1  0.17611300  0.52716000  0.04755500  1
  O  O63  1  0.67611300  0.97284000  0.95244500  1
  O  O64  1  0.04755500  0.17611300  0.52716000  1
  O  O65  1  0.97284000  0.95244500  0.67611300  1
  O  O66  1  0.52716000  0.04755500  0.17611300  1
  O  O67  1  0.02716000  0.45244500  0.82388700  1
  O  O68  1  0.55435700  0.79468500  0.27073700  1
  O  O69  1  0.27073700  0.55435700  0.79468500  1
  O  O70  1  0.79468500  0.27073700  0.55435700  1
  O  O71  1  0.70531500  0.72926300  0.05435700  1
  O  O72  1  0.77073700  0.94564300  0.20531500  1
  O  O73  1  0.20531500  0.77073700  0.94564300  1
  O  O74  1  0.22926300  0.44564300  0.29468500  1
  O  O75  1  0.89737900  0.18026700  0.24512000  1
