# generated using pymatgen
data_Ho3C4
_symmetry_space_group_name_H-M   'P 1'
_cell_length_a   8.06664700
_cell_length_b   8.06664700
_cell_length_c   15.92218700
_cell_angle_alpha   90.00000000
_cell_angle_beta   90.00000000
_cell_angle_gamma   90.00000000
_symmetry_Int_Tables_number   1
_chemical_formula_structural   Ho3C4
_chemical_formula_sum   'Ho30 C40'
_cell_volume   1036.06934748
_cell_formula_units_Z   10
loop_
 _symmetry_equiv_pos_site_id
 _symmetry_equiv_pos_as_xyz
  1  'x, y, z'
loop_
 _atom_site_type_symbol
 _atom_site_label
 _atom_site_symmetry_multiplicity
 _atom_site_fract_x
 _atom_site_fract_y
 _atom_site_fract_z
 _atom_site_occupancy
  Ho  Ho0  1  0.50000000  0.50000000  0.50000000  1
  Ho  Ho1  1  0.00000000  0.00000000  0.00000000  1
  Ho  Ho2  1  0.50000000  0.50000000  0.18758500  1
  Ho  Ho3  1  0.00000000  0.00000000  0.68758500  1
  Ho  Ho4  1  0.50000000  0.50000000  0.81241500  1
  Ho  Ho5  1  0.00000000  0.00000000  0.31241500  1
  Ho  Ho6  1  0.70262300  0.90478400  0.50000000  1
  Ho  Ho7  1  0.29737700  0.09521600  0.50000000  1
  Ho  Ho8  1  0.79737700  0.40478400  0.00000000  1
  Ho  Ho9  1  0.20262300  0.59521600  0.00000000  1
  Ho  Ho10  1  0.90478400  0.29737700  0.50000000  1
  Ho  Ho11  1  0.09521600  0.70262300  0.50000000  1
  Ho  Ho12  1  0.40478400  0.20262300  0.00000000  1
  Ho  Ho13  1  0.59521600  0.79737700  0.00000000  1
  Ho  Ho14  1  0.78815000  0.60060400  0.35348100  1
  Ho  Ho15  1  0.21185000  0.39939600  0.35348100  1
  Ho  Ho16  1  0.71185000  0.10060400  0.85348100  1
  Ho  Ho17  1  0.28815000  0.89939600  0.85348100  1
  Ho  Ho18  1  0.60060400  0.21185000  0.35348100  1
  Ho  Ho19  1  0.39939600  0.78815000  0.35348100  1
  Ho  Ho20  1  0.10060400  0.28815000  0.85348100  1
  Ho  Ho21  1  0.89939600  0.71185000  0.85348100  1
  Ho  Ho22  1  0.21185000  0.39939600  0.64651900  1
  Ho  Ho23  1  0.78815000  0.60060400  0.64651900  1
  Ho  Ho24  1  0.28815000  0.89939600  0.14651900  1
  Ho  Ho25  1  0.71185000  0.10060400  0.14651900  1
  Ho  Ho26  1  0.39939600  0.78815000  0.64651900  1
  Ho  Ho27  1  0.60060400  0.21185000  0.64651900  1
  Ho  Ho28  1  0.89939600  0.71185000  0.14651900  1
  Ho  Ho29  1  0.10060400  0.28815000  0.14651900  1
  C  C30  1  0.50000000  0.50000000  0.95894700  1
  C  C31  1  0.00000000  0.00000000  0.45894700  1
  C  C32  1  0.50000000  0.50000000  0.04105300  1
  C  C33  1  0.00000000  0.00000000  0.54105300  1
  C  C34  1  0.50000000  0.50000000  0.34385500  1
  C  C35  1  0.00000000  0.00000000  0.84385500  1
  C  C36  1  0.50000000  0.50000000  0.65614500  1
  C  C37  1  0.00000000  0.00000000  0.15614500  1
  C  C38  1  0.60683400  0.19653900  0.50000000  1
  C  C39  1  0.39316600  0.80346100  0.50000000  1
  C  C40  1  0.89316600  0.69653900  0.00000000  1
  C  C41  1  0.10683400  0.30346100  0.00000000  1
  C  C42  1  0.19653900  0.39316600  0.50000000  1
  C  C43  1  0.80346100  0.60683400  0.50000000  1
  C  C44  1  0.69653900  0.10683400  0.00000000  1
  C  C45  1  0.30346100  0.89316600  0.00000000  1
  C  C46  1  0.69191400  0.90090500  0.32788200  1
  C  C47  1  0.30808600  0.09909500  0.32788200  1
  C  C48  1  0.80808600  0.40090500  0.82788200  1
  C  C49  1  0.19191400  0.59909500  0.82788200  1
  C  C50  1  0.90090500  0.30808600  0.32788200  1
  C  C51  1  0.09909500  0.69191400  0.32788200  1
  C  C52  1  0.40090500  0.19191400  0.82788200  1
  C  C53  1  0.59909500  0.80808600  0.82788200  1
  C  C54  1  0.30808600  0.09909500  0.67211800  1
  C  C55  1  0.69191400  0.90090500  0.67211800  1
  C  C56  1  0.19191400  0.59909500  0.17211800  1
  C  C57  1  0.80808600  0.40090500  0.17211800  1
  C  C58  1  0.09909500  0.69191400  0.67211800  1
  C  C59  1  0.90090500  0.30808600  0.67211800  1
  C  C60  1  0.59909500  0.80808600  0.17211800  1
  C  C61  1  0.40090500  0.19191400  0.17211800  1
  C  C62  1  0.64945600  0.85054400  0.25000000  1
  C  C63  1  0.35054400  0.14945600  0.25000000  1
  C  C64  1  0.85054400  0.35054400  0.75000000  1
  C  C65  1  0.14945600  0.64945600  0.75000000  1
  C  C66  1  0.85054400  0.35054400  0.25000000  1
  C  C67  1  0.14945600  0.64945600  0.25000000  1
  C  C68  1  0.35054400  0.14945600  0.75000000  1
  C  C69  1  0.64945600  0.85054400  0.75000000  1
