# generated using pymatgen
data_Rb2NaMnO4
_symmetry_space_group_name_H-M   'P 1'
_cell_length_a   6.08634800
_cell_length_b   6.07124200
_cell_length_c   7.97168099
_cell_angle_alpha   87.16797576
_cell_angle_beta   90.00000000
_cell_angle_gamma   90.00000000
_symmetry_Int_Tables_number   1
_chemical_formula_structural   Rb2NaMnO4
_chemical_formula_sum   'Rb4 Na2 Mn2 O8'
_cell_volume   294.20733621
_cell_formula_units_Z   2
loop_
 _symmetry_equiv_pos_site_id
 _symmetry_equiv_pos_as_xyz
  1  'x, y, z'
loop_
 _atom_site_type_symbol
 _atom_site_label
 _atom_site_symmetry_multiplicity
 _atom_site_fract_x
 _atom_site_fract_y
 _atom_site_fract_z
 _atom_site_occupancy
  Rb  Rb0  1  0.75000000  0.11757200  0.82739400  1
  Rb  Rb1  1  0.25000000  0.88242800  0.17260600  1
  Rb  Rb2  1  0.25000000  0.30499600  0.48393000  1
  Rb  Rb3  1  0.75000000  0.69500400  0.51607000  1
  Na  Na4  1  0.75000000  0.61623100  0.03421900  1
  Na  Na5  1  0.25000000  0.38376900  0.96578100  1
  Mn  Mn6  1  0.25000000  0.80511600  0.74457800  1
  Mn  Mn7  1  0.75000000  0.19488400  0.25542200  1
  O  O8  1  0.52270500  0.33061600  0.17082800  1
  O  O9  1  0.02270500  0.66938400  0.82917100  1
  O  O10  1  0.47729500  0.66938400  0.82917100  1
  O  O11  1  0.97729500  0.33061600  0.17082800  1
  O  O12  1  0.75000000  0.20401300  0.46977300  1
  O  O13  1  0.75000000  0.92701000  0.19230000  1
  O  O14  1  0.25000000  0.79598700  0.53022700  1
  O  O15  1  0.25000000  0.07299000  0.80770000  1
