# generated using pymatgen
data_BaFeF5
_symmetry_space_group_name_H-M   'P 1'
_cell_length_a   8.03170700
_cell_length_b   9.69269600
_cell_length_c   14.60315460
_cell_angle_alpha   52.25583818
_cell_angle_beta   90.00000000
_cell_angle_gamma   90.00000000
_symmetry_Int_Tables_number   1
_chemical_formula_structural   BaFeF5
_chemical_formula_sum   'Ba8 Fe8 F40'
_cell_volume   898.95800515
_cell_formula_units_Z   8
loop_
 _symmetry_equiv_pos_site_id
 _symmetry_equiv_pos_as_xyz
  1  'x, y, z'
loop_
 _atom_site_type_symbol
 _atom_site_label
 _atom_site_symmetry_multiplicity
 _atom_site_fract_x
 _atom_site_fract_y
 _atom_site_fract_z
 _atom_site_occupancy
  Ba  Ba0  1  0.21573000  0.66894900  0.64430300  1
  Ba  Ba1  1  0.71573000  0.33105100  0.85569700  1
  Ba  Ba2  1  0.78427000  0.33105100  0.35569700  1
  Ba  Ba3  1  0.28427000  0.66894900  0.14430300  1
  Ba  Ba4  1  0.28180200  0.22664900  0.54488500  1
  Ba  Ba5  1  0.78180200  0.77335100  0.95511500  1
  Ba  Ba6  1  0.71819800  0.77335100  0.45511500  1
  Ba  Ba7  1  0.21819800  0.22664900  0.04488500  1
  Fe  Fe8  1  0.29148100  0.78879300  0.84003200  1
  Fe  Fe9  1  0.79148100  0.21120700  0.65996800  1
  Fe  Fe10  1  0.70851900  0.21120700  0.15996800  1
  Fe  Fe11  1  0.20851900  0.78879300  0.34003200  1
  Fe  Fe12  1  0.19405400  0.19125800  0.81551900  1
  Fe  Fe13  1  0.69405400  0.80874200  0.68448100  1
  Fe  Fe14  1  0.80594600  0.80874200  0.18448100  1
  Fe  Fe15  1  0.30594600  0.19125800  0.31551900  1
  F  F16  1  0.94084100  0.65518600  0.16655900  1
  F  F17  1  0.44084100  0.34481400  0.33344100  1
  F  F18  1  0.05915900  0.34481400  0.83344100  1
  F  F19  1  0.55915900  0.65518600  0.66655900  1
  F  F20  1  0.48073400  0.87198200  0.72097800  1
  F  F21  1  0.98073400  0.12801800  0.77902200  1
  F  F22  1  0.51926600  0.12801800  0.27902200  1
  F  F23  1  0.01926600  0.87198200  0.22097800  1
  F  F24  1  0.45086900  0.73028700  0.95786300  1
  F  F25  1  0.95086900  0.26971300  0.54213700  1
  F  F26  1  0.54913100  0.26971300  0.04213700  1
  F  F27  1  0.04913100  0.73028700  0.45786300  1
  F  F28  1  0.38300300  0.28323200  0.84833000  1
  F  F29  1  0.88300300  0.71676800  0.65167000  1
  F  F30  1  0.61699700  0.71676800  0.15167000  1
  F  F31  1  0.11699700  0.28323200  0.34833000  1
  F  F32  1  0.19552000  0.03879300  0.28626100  1
  F  F33  1  0.69552000  0.96120700  0.21373900  1
  F  F34  1  0.80448000  0.96120700  0.71373900  1
  F  F35  1  0.30448000  0.03879300  0.78626100  1
  F  F36  1  0.27077300  0.37794300  0.15265600  1
  F  F37  1  0.77077300  0.62205700  0.34734400  1
  F  F38  1  0.72922700  0.62205700  0.84734400  1
  F  F39  1  0.22922700  0.37794300  0.65265600  1
  F  F40  1  0.34232000  0.88846000  0.20267700  1
  F  F41  1  0.84232000  0.11154000  0.29732300  1
  F  F42  1  0.65768000  0.11154000  0.79732300  1
  F  F43  1  0.15768000  0.88846000  0.70267700  1
  F  F44  1  0.38633100  0.73144100  0.44710400  1
  F  F45  1  0.88633100  0.26855900  0.05289600  1
  F  F46  1  0.61366900  0.26855900  0.55289600  1
  F  F47  1  0.11366900  0.73144100  0.94710400  1
  F  F48  1  0.21796600  0.56828900  0.36706400  1
  F  F49  1  0.71796600  0.43171100  0.13293600  1
  F  F50  1  0.78203400  0.43171100  0.63293600  1
  F  F51  1  0.28203400  0.56828900  0.86706400  1
  F  F52  1  0.68762800  0.99386100  0.52007300  1
  F  F53  1  0.18762800  0.00613900  0.97992700  1
  F  F54  1  0.31237200  0.00613900  0.47992700  1
  F  F55  1  0.81237200  0.99386100  0.02007300  1
