# generated using pymatgen
data_Sr4SiAs4
_symmetry_space_group_name_H-M   'P 1'
_cell_length_a   12.86254900
_cell_length_b   12.86254900
_cell_length_c   12.86254900
_cell_angle_alpha   90.00000000
_cell_angle_beta   90.00000000
_cell_angle_gamma   90.00000000
_symmetry_Int_Tables_number   1
_chemical_formula_structural   Sr4SiAs4
_chemical_formula_sum   'Sr32 Si8 As32'
_cell_volume   2128.04656449
_cell_formula_units_Z   8
loop_
 _symmetry_equiv_pos_site_id
 _symmetry_equiv_pos_as_xyz
  1  'x, y, z'
loop_
 _atom_site_type_symbol
 _atom_site_label
 _atom_site_symmetry_multiplicity
 _atom_site_fract_x
 _atom_site_fract_y
 _atom_site_fract_z
 _atom_site_occupancy
  Sr  Sr0  1  0.13283800  0.64485800  0.09500700  1
  Sr  Sr1  1  0.35514200  0.90499300  0.13283800  1
  Sr  Sr2  1  0.09500700  0.86716200  0.35514200  1
  Sr  Sr3  1  0.86716200  0.35514200  0.09500700  1
  Sr  Sr4  1  0.64485800  0.09500700  0.13283800  1
  Sr  Sr5  1  0.90499300  0.13283800  0.35514200  1
  Sr  Sr6  1  0.13283800  0.35514200  0.90499300  1
  Sr  Sr7  1  0.35514200  0.09500700  0.86716200  1
  Sr  Sr8  1  0.09500700  0.13283800  0.64485800  1
  Sr  Sr9  1  0.86716200  0.64485800  0.90499300  1
  Sr  Sr10  1  0.64485800  0.90499300  0.86716200  1
  Sr  Sr11  1  0.90499300  0.86716200  0.64485800  1
  Sr  Sr12  1  0.63283800  0.59500700  0.14485800  1
  Sr  Sr13  1  0.85514200  0.63283800  0.40499300  1
  Sr  Sr14  1  0.59500700  0.85514200  0.36716200  1
  Sr  Sr15  1  0.36716200  0.59500700  0.85514200  1
  Sr  Sr16  1  0.14485800  0.63283800  0.59500700  1
  Sr  Sr17  1  0.40499300  0.85514200  0.63283800  1
  Sr  Sr18  1  0.63283800  0.40499300  0.85514200  1
  Sr  Sr19  1  0.85514200  0.36716200  0.59500700  1
  Sr  Sr20  1  0.59500700  0.14485800  0.63283800  1
  Sr  Sr21  1  0.36716200  0.40499300  0.14485800  1
  Sr  Sr22  1  0.14485800  0.36716200  0.40499300  1
  Sr  Sr23  1  0.40499300  0.14485800  0.36716200  1
  Sr  Sr24  1  0.85462700  0.14537300  0.85462700  1
  Sr  Sr25  1  0.14537300  0.85462700  0.85462700  1
  Sr  Sr26  1  0.85462700  0.85462700  0.14537300  1
  Sr  Sr27  1  0.14537300  0.14537300  0.14537300  1
  Sr  Sr28  1  0.35462700  0.35462700  0.64537300  1
  Sr  Sr29  1  0.64537300  0.35462700  0.35462700  1
  Sr  Sr30  1  0.35462700  0.64537300  0.35462700  1
  Sr  Sr31  1  0.64537300  0.64537300  0.64537300  1
  Si  Si32  1  0.00000000  0.50000000  0.25000000  1
  Si  Si33  1  0.50000000  0.75000000  0.00000000  1
  Si  Si34  1  0.25000000  0.00000000  0.50000000  1
  Si  Si35  1  0.50000000  0.25000000  0.00000000  1
  Si  Si36  1  0.75000000  0.00000000  0.50000000  1
  Si  Si37  1  0.00000000  0.50000000  0.75000000  1
  Si  Si38  1  0.50000000  0.50000000  0.50000000  1
  Si  Si39  1  0.00000000  0.00000000  0.00000000  1
  As  As40  1  0.10634000  0.61576000  0.35103200  1
  As  As41  1  0.38424000  0.64896800  0.10634000  1
  As  As42  1  0.35103200  0.89366000  0.38424000  1
  As  As43  1  0.89366000  0.38424000  0.35103200  1
  As  As44  1  0.61576000  0.35103200  0.10634000  1
  As  As45  1  0.64896800  0.10634000  0.38424000  1
  As  As46  1  0.10634000  0.38424000  0.64896800  1
  As  As47  1  0.38424000  0.35103200  0.89366000  1
  As  As48  1  0.35103200  0.10634000  0.61576000  1
  As  As49  1  0.89366000  0.61576000  0.64896800  1
  As  As50  1  0.61576000  0.64896800  0.89366000  1
  As  As51  1  0.64896800  0.89366000  0.61576000  1
  As  As52  1  0.60634000  0.85103200  0.11576000  1
  As  As53  1  0.88424000  0.60634000  0.14896800  1
  As  As54  1  0.85103200  0.88424000  0.39366000  1
  As  As55  1  0.39366000  0.85103200  0.88424000  1
  As  As56  1  0.11576000  0.60634000  0.85103200  1
  As  As57  1  0.14896800  0.88424000  0.60634000  1
  As  As58  1  0.60634000  0.14896800  0.88424000  1
  As  As59  1  0.88424000  0.39366000  0.85103200  1
  As  As60  1  0.85103200  0.11576000  0.60634000  1
  As  As61  1  0.39366000  0.14896800  0.11576000  1
  As  As62  1  0.11576000  0.39366000  0.14896800  1
  As  As63  1  0.14896800  0.11576000  0.39366000  1
  As  As64  1  0.10743000  0.89257000  0.10743000  1
  As  As65  1  0.89257000  0.10743000  0.10743000  1
  As  As66  1  0.10743000  0.10743000  0.89257000  1
  As  As67  1  0.89257000  0.89257000  0.89257000  1
  As  As68  1  0.60743000  0.60743000  0.39257000  1
  As  As69  1  0.39257000  0.60743000  0.60743000  1
  As  As70  1  0.60743000  0.39257000  0.60743000  1
  As  As71  1  0.39257000  0.39257000  0.39257000  1
