# generated using pymatgen
data_RbO2
_symmetry_space_group_name_H-M   'P 1'
_cell_length_a   4.60781061
_cell_length_b   4.60781061
_cell_length_c   4.60781061
_cell_angle_alpha   125.85289497
_cell_angle_beta   125.85289497
_cell_angle_gamma   80.13005171
_symmetry_Int_Tables_number   1
_chemical_formula_structural   RbO2
_chemical_formula_sum   'Rb1 O2'
_cell_volume   62.03863119
_cell_formula_units_Z   1
loop_
 _symmetry_equiv_pos_site_id
 _symmetry_equiv_pos_as_xyz
  1  'x, y, z'
loop_
 _atom_site_type_symbol
 _atom_site_label
 _atom_site_symmetry_multiplicity
 _atom_site_fract_x
 _atom_site_fract_y
 _atom_site_fract_z
 _atom_site_occupancy
  Rb  Rb0  1  0.00000000  0.00000000  0.00000000  1
  O  O1  1  0.40404800  0.40404800  0.00000000  1
  O  O2  1  0.59595200  0.59595200  0.00000000  1
