# generated using pymatgen
data_K2ZnP2O7
_symmetry_space_group_name_H-M   'P 1'
_cell_length_a   7.98389900
_cell_length_b   7.98389900
_cell_length_c   11.49375000
_cell_angle_alpha   90.00000000
_cell_angle_beta   90.00000000
_cell_angle_gamma   90.00000000
_symmetry_Int_Tables_number   1
_chemical_formula_structural   K2ZnP2O7
_chemical_formula_sum   'K8 Zn4 P8 O28'
_cell_volume   732.64200577
_cell_formula_units_Z   4
loop_
 _symmetry_equiv_pos_site_id
 _symmetry_equiv_pos_as_xyz
  1  'x, y, z'
loop_
 _atom_site_type_symbol
 _atom_site_label
 _atom_site_symmetry_multiplicity
 _atom_site_fract_x
 _atom_site_fract_y
 _atom_site_fract_z
 _atom_site_occupancy
  K  K0  1  0.31551500  0.31551500  0.00000000  1
  K  K1  1  0.68448500  0.68448500  0.00000000  1
  K  K2  1  0.81551500  0.18448500  0.50000000  1
  K  K3  1  0.18448500  0.81551500  0.50000000  1
  K  K4  1  0.15139800  0.84860200  0.00000000  1
  K  K5  1  0.65139800  0.65139800  0.50000000  1
  K  K6  1  0.34860200  0.34860200  0.50000000  1
  K  K7  1  0.84860200  0.15139800  0.00000000  1
  Zn  Zn8  1  0.50000000  0.00000000  0.25000000  1
  Zn  Zn9  1  0.00000000  0.50000000  0.25000000  1
  Zn  Zn10  1  0.00000000  0.50000000  0.75000000  1
  Zn  Zn11  1  0.50000000  0.00000000  0.75000000  1
  P  P12  1  0.86365800  0.86365800  0.71894700  1
  P  P13  1  0.13634200  0.13634200  0.71894700  1
  P  P14  1  0.86365800  0.86365800  0.28105300  1
  P  P15  1  0.36365800  0.63634200  0.21894700  1
  P  P16  1  0.63634200  0.36365800  0.21894700  1
  P  P17  1  0.63634200  0.36365800  0.78105300  1
  P  P18  1  0.36365800  0.63634200  0.78105300  1
  P  P19  1  0.13634200  0.13634200  0.28105300  1
  O  O20  1  0.07864700  0.30161500  0.33966500  1
  O  O21  1  0.92135300  0.69838500  0.33966500  1
  O  O22  1  0.30161500  0.07864700  0.66033500  1
  O  O23  1  0.80161500  0.42135300  0.83966500  1
  O  O24  1  0.19838500  0.57864700  0.83966500  1
  O  O25  1  0.42135300  0.80161500  0.16033500  1
  O  O26  1  0.57864700  0.19838500  0.16033500  1
  O  O27  1  0.69838500  0.92135300  0.66033500  1
  O  O28  1  0.92135300  0.69838500  0.66033500  1
  O  O29  1  0.07864700  0.30161500  0.66033500  1
  O  O30  1  0.69838500  0.92135300  0.33966500  1
  O  O31  1  0.19838500  0.57864700  0.16033500  1
  O  O32  1  0.80161500  0.42135300  0.16033500  1
  O  O33  1  0.57864700  0.19838500  0.83966500  1
  O  O34  1  0.42135300  0.80161500  0.83966500  1
  O  O35  1  0.30161500  0.07864700  0.33966500  1
  O  O36  1  0.86421300  0.86421300  0.85001800  1
  O  O37  1  0.13578700  0.13578700  0.85001800  1
  O  O38  1  0.86421300  0.86421300  0.14998200  1
  O  O39  1  0.36421300  0.63578700  0.35001800  1
  O  O40  1  0.00000000  0.00000000  0.33181500  1
  O  O41  1  0.50000000  0.50000000  0.83181500  1
  O  O42  1  0.50000000  0.50000000  0.16818500  1
  O  O43  1  0.00000000  0.00000000  0.66818500  1
  O  O44  1  0.13578700  0.13578700  0.14998200  1
  O  O45  1  0.36421300  0.63578700  0.64998200  1
  O  O46  1  0.63578700  0.36421300  0.64998200  1
  O  O47  1  0.63578700  0.36421300  0.35001800  1
