# generated using pymatgen
data_TiReSi
_symmetry_space_group_name_H-M   'P 1'
_cell_length_a   6.81971797
_cell_length_b   6.81971797
_cell_length_c   3.25017100
_cell_angle_alpha   90.00000000
_cell_angle_beta   90.00000000
_cell_angle_gamma   119.99999971
_symmetry_Int_Tables_number   1
_chemical_formula_structural   TiReSi
_chemical_formula_sum   'Ti3 Re3 Si3'
_cell_volume   130.90905066
_cell_formula_units_Z   3
loop_
 _symmetry_equiv_pos_site_id
 _symmetry_equiv_pos_as_xyz
  1  'x, y, z'
loop_
 _atom_site_type_symbol
 _atom_site_label
 _atom_site_symmetry_multiplicity
 _atom_site_fract_x
 _atom_site_fract_y
 _atom_site_fract_z
 _atom_site_occupancy
  Ti  Ti0  1  0.40408800  0.40408800  0.50000000  1
  Ti  Ti1  1  0.59591200  0.00000000  0.50000000  1
  Ti  Ti2  1  0.00000000  0.59591200  0.50000000  1
  Re  Re3  1  0.73697200  0.73697200  0.00000000  1
  Re  Re4  1  0.26302800  0.00000000  0.00000000  1
  Re  Re5  1  0.00000000  0.26302800  0.00000000  1
  Si  Si6  1  0.66666700  0.33333300  0.00000000  1
  Si  Si7  1  0.33333300  0.66666700  0.00000000  1
  Si  Si8  1  0.00000000  0.00000000  0.50000000  1
