# generated using pymatgen
data_Gd5C2Cl9
_symmetry_space_group_name_H-M   'P 1'
_cell_length_a   16.28351000
_cell_length_b   9.35102300
_cell_length_c   13.04089749
_cell_angle_alpha   59.99931889
_cell_angle_beta   90.00000000
_cell_angle_gamma   90.00000000
_symmetry_Int_Tables_number   1
_chemical_formula_structural   Gd5C2Cl9
_chemical_formula_sum   'Gd20 C8 Cl36'
_cell_volume   1719.65878394
_cell_formula_units_Z   4
loop_
 _symmetry_equiv_pos_site_id
 _symmetry_equiv_pos_as_xyz
  1  'x, y, z'
loop_
 _atom_site_type_symbol
 _atom_site_label
 _atom_site_symmetry_multiplicity
 _atom_site_fract_x
 _atom_site_fract_y
 _atom_site_fract_z
 _atom_site_occupancy
  Gd  Gd0  1  0.04525400  0.32540700  0.53912300  1
  Gd  Gd1  1  0.54525400  0.67459300  0.96087700  1
  Gd  Gd2  1  0.95474600  0.67459300  0.46087700  1
  Gd  Gd3  1  0.45474600  0.32540700  0.03912300  1
  Gd  Gd4  1  0.94161400  0.11947400  0.82098400  1
  Gd  Gd5  1  0.44161400  0.88052600  0.67901600  1
  Gd  Gd6  1  0.05838600  0.88052600  0.17901600  1
  Gd  Gd7  1  0.55838600  0.11947400  0.32098400  1
  Gd  Gd8  1  0.83299000  0.49875000  0.72534600  1
  Gd  Gd9  1  0.33299000  0.50125000  0.77465400  1
  Gd  Gd10  1  0.16701000  0.50125000  0.27465400  1
  Gd  Gd11  1  0.66701000  0.49875000  0.22534600  1
  Gd  Gd12  1  0.05524200  0.50894600  0.76815900  1
  Gd  Gd13  1  0.55524200  0.49105400  0.73184100  1
  Gd  Gd14  1  0.94475800  0.49105400  0.23184100  1
  Gd  Gd15  1  0.44475800  0.50894600  0.26815900  1
  Gd  Gd16  1  0.81201400  0.26326500  0.55760500  1
  Gd  Gd17  1  0.31201400  0.73673500  0.94239500  1
  Gd  Gd18  1  0.18798600  0.73673500  0.44239500  1
  Gd  Gd19  1  0.68798600  0.26326500  0.05760500  1
  C  C20  1  0.91060500  0.36523200  0.62329400  1
  C  C21  1  0.41060500  0.63476800  0.87670600  1
  C  C22  1  0.08939500  0.63476800  0.37670600  1
  C  C23  1  0.58939500  0.36523200  0.12329400  1
  C  C24  1  0.96827700  0.42745100  0.67338500  1
  C  C25  1  0.46827700  0.57254900  0.82661500  1
  C  C26  1  0.03172300  0.57254900  0.32661500  1
  C  C27  1  0.53172300  0.42745100  0.17338500  1
  Cl  Cl28  1  0.82538900  0.79046800  0.53357800  1
  Cl  Cl29  1  0.32538900  0.20953200  0.96642200  1
  Cl  Cl30  1  0.17461100  0.20953200  0.46642200  1
  Cl  Cl31  1  0.67461100  0.79046800  0.03357800  1
  Cl  Cl32  1  0.05633900  0.18670000  0.95472800  1
  Cl  Cl33  1  0.55633900  0.81330000  0.54527200  1
  Cl  Cl34  1  0.94366100  0.81330000  0.04527200  1
  Cl  Cl35  1  0.44366100  0.18670000  0.45472800  1
  Cl  Cl36  1  0.92871700  0.59495900  0.85253500  1
  Cl  Cl37  1  0.42871700  0.40504100  0.64746500  1
  Cl  Cl38  1  0.07128300  0.40504100  0.14746500  1
  Cl  Cl39  1  0.57128300  0.59495900  0.35253500  1
  Cl  Cl40  1  0.82080400  0.97801100  0.75648600  1
  Cl  Cl41  1  0.32080400  0.02198900  0.74351400  1
  Cl  Cl42  1  0.17919600  0.02198900  0.24351400  1
  Cl  Cl43  1  0.67919600  0.97801100  0.25648600  1
  Cl  Cl44  1  0.69711000  0.39745600  0.64170000  1
  Cl  Cl45  1  0.19711000  0.60254400  0.85830000  1
  Cl  Cl46  1  0.30289000  0.60254400  0.35830000  1
  Cl  Cl47  1  0.80289000  0.39745600  0.14170000  1
  Cl  Cl48  1  0.81927300  0.19883800  0.93224200  1
  Cl  Cl49  1  0.31927300  0.80116200  0.56775800  1
  Cl  Cl50  1  0.18072700  0.80116200  0.06775800  1
  Cl  Cl51  1  0.68072700  0.19883800  0.43224200  1
  Cl  Cl52  1  0.19226600  0.43160900  0.66463300  1
  Cl  Cl53  1  0.69226600  0.56839100  0.83536700  1
  Cl  Cl54  1  0.80773400  0.56839100  0.33536700  1
  Cl  Cl55  1  0.30773400  0.43160900  0.16463300  1
  Cl  Cl56  1  0.06674900  0.80947100  0.55836900  1
  Cl  Cl57  1  0.56674900  0.19052900  0.94163100  1
  Cl  Cl58  1  0.93325100  0.19052900  0.44163100  1
  Cl  Cl59  1  0.43325100  0.80947100  0.05836900  1
  Cl  Cl60  1  0.06381200  0.02192500  0.73907200  1
  Cl  Cl61  1  0.56381200  0.97807500  0.76092800  1
  Cl  Cl62  1  0.93618800  0.97807500  0.26092800  1
  Cl  Cl63  1  0.43618800  0.02192500  0.23907200  1
