# generated using pymatgen
data_FeTe3ClO7
_symmetry_space_group_name_H-M   'P 1'
_cell_length_a   7.48477700
_cell_length_b   11.01413700
_cell_length_c   11.06816081
_cell_angle_alpha   68.50495453
_cell_angle_beta   90.00000000
_cell_angle_gamma   90.00000000
_symmetry_Int_Tables_number   1
_chemical_formula_structural   FeTe3ClO7
_chemical_formula_sum   'Fe4 Te12 Cl4 O28'
_cell_volume   848.98006668
_cell_formula_units_Z   4
loop_
 _symmetry_equiv_pos_site_id
 _symmetry_equiv_pos_as_xyz
  1  'x, y, z'
loop_
 _atom_site_type_symbol
 _atom_site_label
 _atom_site_symmetry_multiplicity
 _atom_site_fract_x
 _atom_site_fract_y
 _atom_site_fract_z
 _atom_site_occupancy
  Fe  Fe0  1  0.36930300  0.88290700  0.09006300  1
  Fe  Fe1  1  0.86930300  0.11709300  0.40993700  1
  Fe  Fe2  1  0.63069700  0.11709300  0.90993700  1
  Fe  Fe3  1  0.13069700  0.88290700  0.59006300  1
  Te  Te4  1  0.00982100  0.90024200  0.26907200  1
  Te  Te5  1  0.50982100  0.09975800  0.23092800  1
  Te  Te6  1  0.99017900  0.09975800  0.73092800  1
  Te  Te7  1  0.49017900  0.90024200  0.76907200  1
  Te  Te8  1  0.47466100  0.75770300  0.43865200  1
  Te  Te9  1  0.97466100  0.24229700  0.06134800  1
  Te  Te10  1  0.52533900  0.24229700  0.56134800  1
  Te  Te11  1  0.02533900  0.75770300  0.93865200  1
  Te  Te12  1  0.59967200  0.62014100  0.08304300  1
  Te  Te13  1  0.09967200  0.37985900  0.41695700  1
  Te  Te14  1  0.40032800  0.37985900  0.91695700  1
  Te  Te15  1  0.90032800  0.62014100  0.58304300  1
  Cl  Cl16  1  0.21816100  0.50771100  0.11745300  1
  Cl  Cl17  1  0.71816100  0.49228900  0.38254700  1
  Cl  Cl18  1  0.78183900  0.49228900  0.88254700  1
  Cl  Cl19  1  0.28183900  0.50771100  0.61745300  1
  O  O20  1  0.00999600  0.95965700  0.41245400  1
  O  O21  1  0.50999600  0.04034300  0.08754600  1
  O  O22  1  0.99000400  0.04034300  0.58754600  1
  O  O23  1  0.49000400  0.95965700  0.91245400  1
  O  O24  1  0.26062500  0.86483800  0.26419800  1
  O  O25  1  0.76062500  0.13516200  0.23580200  1
  O  O26  1  0.73937500  0.13516200  0.73580200  1
  O  O27  1  0.23937500  0.86483800  0.76419800  1
  O  O28  1  0.60953200  0.90944800  0.33671300  1
  O  O29  1  0.10953200  0.09055200  0.16328700  1
  O  O30  1  0.39046800  0.09055200  0.66328700  1
  O  O31  1  0.89046800  0.90944800  0.83671300  1
  O  O32  1  0.14150800  0.84752000  0.03338400  1
  O  O33  1  0.64150800  0.15248000  0.46661600  1
  O  O34  1  0.85849200  0.15248000  0.96661600  1
  O  O35  1  0.35849200  0.84752000  0.53338400  1
  O  O36  1  0.50152000  0.72775700  0.16579000  1
  O  O37  1  0.00152000  0.27224300  0.33421000  1
  O  O38  1  0.49848000  0.27224300  0.83421000  1
  O  O39  1  0.99848000  0.72775700  0.66579000  1
  O  O40  1  0.82993800  0.70858000  0.06856700  1
  O  O41  1  0.32993800  0.29142000  0.43143300  1
  O  O42  1  0.17006200  0.29142000  0.93143300  1
  O  O43  1  0.67006200  0.70858000  0.56856700  1
  O  O44  1  0.50871000  0.71325800  0.91171600  1
  O  O45  1  0.00871000  0.28674200  0.58828400  1
  O  O46  1  0.49129000  0.28674200  0.08828400  1
  O  O47  1  0.99129000  0.71325800  0.41171600  1
