# generated using pymatgen
data_KGaTe2
_symmetry_space_group_name_H-M   'P 1'
_cell_length_a   8.47171413
_cell_length_b   8.47171413
_cell_length_c   16.91836014
_cell_angle_alpha   82.84592565
_cell_angle_beta   82.84592565
_cell_angle_gamma   90.00523183
_symmetry_Int_Tables_number   1
_chemical_formula_structural   KGaTe2
_chemical_formula_sum   'K8 Ga8 Te16'
_cell_volume   1195.24724935
_cell_formula_units_Z   8
loop_
 _symmetry_equiv_pos_site_id
 _symmetry_equiv_pos_as_xyz
  1  'x, y, z'
loop_
 _atom_site_type_symbol
 _atom_site_label
 _atom_site_symmetry_multiplicity
 _atom_site_fract_x
 _atom_site_fract_y
 _atom_site_fract_z
 _atom_site_occupancy
  K  K0  1  0.34563700  0.22074700  0.61852600  1
  K  K1  1  0.77925300  0.65436300  0.88147400  1
  K  K2  1  0.65436300  0.77925300  0.38147400  1
  K  K3  1  0.22074700  0.34563700  0.11852600  1
  K  K4  1  0.77852100  0.15069900  0.89268600  1
  K  K5  1  0.84930100  0.22147900  0.60731400  1
  K  K6  1  0.22147900  0.84930100  0.10731400  1
  K  K7  1  0.15069900  0.77852100  0.39268600  1
  Ga  Ga8  1  0.58196000  0.70923400  0.66366900  1
  Ga  Ga9  1  0.29076600  0.41804000  0.83633100  1
  Ga  Ga10  1  0.41804000  0.29076600  0.33633100  1
  Ga  Ga11  1  0.70923400  0.58196000  0.16366900  1
  Ga  Ga12  1  0.29068800  0.91323100  0.83732800  1
  Ga  Ga13  1  0.08676900  0.70931200  0.66267200  1
  Ga  Ga14  1  0.70931200  0.08676900  0.16267200  1
  Ga  Ga15  1  0.91323100  0.29068800  0.33732800  1
  Te  Te16  1  0.35974000  0.73290700  0.56506200  1
  Te  Te17  1  0.26709300  0.64026000  0.93493800  1
  Te  Te18  1  0.64026000  0.26709300  0.43493800  1
  Te  Te19  1  0.73290700  0.35974000  0.06506200  1
  Te  Te20  1  0.57386500  0.94905300  0.75048500  1
  Te  Te21  1  0.05094700  0.42613500  0.74951500  1
  Te  Te22  1  0.42613500  0.05094700  0.24951500  1
  Te  Te23  1  0.94905300  0.57386500  0.25048500  1
  Te  Te24  1  0.26527100  0.14268500  0.93311600  1
  Te  Te25  1  0.85731500  0.73472900  0.56688400  1
  Te  Te26  1  0.73472900  0.85731500  0.06688400  1
  Te  Te27  1  0.14268500  0.26527100  0.43311600  1
  Te  Te28  1  0.05152900  0.94847100  0.75000000  1
  Te  Te29  1  0.94847100  0.05152900  0.25000000  1
  Te  Te30  1  0.57436100  0.42563900  0.75000000  1
  Te  Te31  1  0.42563900  0.57436100  0.25000000  1
