# generated using pymatgen
data_Dy5BiPt2
_symmetry_space_group_name_H-M   'P 1'
_cell_length_a   8.85982199
_cell_length_b   8.85982199
_cell_length_c   8.85982199
_cell_angle_alpha   127.81784014
_cell_angle_beta   127.81784014
_cell_angle_gamma   76.92030611
_symmetry_Int_Tables_number   1
_chemical_formula_structural   Dy5BiPt2
_chemical_formula_sum   'Dy10 Bi2 Pt4'
_cell_volume   421.33603566
_cell_formula_units_Z   2
loop_
 _symmetry_equiv_pos_site_id
 _symmetry_equiv_pos_as_xyz
  1  'x, y, z'
loop_
 _atom_site_type_symbol
 _atom_site_label
 _atom_site_symmetry_multiplicity
 _atom_site_fract_x
 _atom_site_fract_y
 _atom_site_fract_z
 _atom_site_occupancy
  Dy  Dy0  1  0.00000000  0.00000000  0.00000000  1
  Dy  Dy1  1  0.50000000  0.50000000  0.00000000  1
  Dy  Dy2  1  0.79267200  0.29267200  0.81417400  1
  Dy  Dy3  1  0.20732800  0.70732800  0.18582600  1
  Dy  Dy4  1  0.47849800  0.97849800  0.18582600  1
  Dy  Dy5  1  0.29267200  0.47849800  0.50000000  1
  Dy  Dy6  1  0.02150200  0.20732800  0.50000000  1
  Dy  Dy7  1  0.52150200  0.02150200  0.81417400  1
  Dy  Dy8  1  0.70732800  0.52150200  0.50000000  1
  Dy  Dy9  1  0.97849800  0.79267200  0.50000000  1
  Bi  Bi10  1  0.25000000  0.25000000  0.00000000  1
  Bi  Bi11  1  0.75000000  0.75000000  0.00000000  1
  Pt  Pt12  1  0.13810300  0.63810300  0.77620600  1
  Pt  Pt13  1  0.86189700  0.36189700  0.22379400  1
  Pt  Pt14  1  0.63810300  0.86189700  0.50000000  1
  Pt  Pt15  1  0.36189700  0.13810300  0.50000000  1
