# generated using pymatgen
data_Tb6InCo2
_symmetry_space_group_name_H-M   'P 1'
_cell_length_a   8.41830818
_cell_length_b   8.41830818
_cell_length_c   8.41830818
_cell_angle_alpha   111.78179869
_cell_angle_beta   109.56144631
_cell_angle_gamma   107.10414942
_symmetry_Int_Tables_number   1
_chemical_formula_structural   Tb6InCo2
_chemical_formula_sum   'Tb12 In2 Co4'
_cell_volume   458.48872289
_cell_formula_units_Z   2
loop_
 _symmetry_equiv_pos_site_id
 _symmetry_equiv_pos_as_xyz
  1  'x, y, z'
loop_
 _atom_site_type_symbol
 _atom_site_label
 _atom_site_symmetry_multiplicity
 _atom_site_fract_x
 _atom_site_fract_y
 _atom_site_fract_z
 _atom_site_occupancy
  Tb  Tb0  1  0.44155500  0.23369200  0.20786300  1
  Tb  Tb1  1  0.55844500  0.76630800  0.79213700  1
  Tb  Tb2  1  0.02582900  0.23369200  0.79213700  1
  Tb  Tb3  1  0.97417100  0.76630800  0.20786300  1
  Tb  Tb4  1  0.18494700  0.28661900  0.47156600  1
  Tb  Tb5  1  0.81505300  0.71338100  0.52843400  1
  Tb  Tb6  1  0.18494700  0.71338100  0.89832800  1
  Tb  Tb7  1  0.81505300  0.28661900  0.10167200  1
  Tb  Tb8  1  0.31907700  0.62750100  0.30842400  1
  Tb  Tb9  1  0.68092300  0.37249900  0.69157600  1
  Tb  Tb10  1  0.31907700  0.01065400  0.69157600  1
  Tb  Tb11  1  0.68092300  0.98934600  0.30842400  1
  In  In12  1  0.50000000  0.50000000  0.00000000  1
  In  In13  1  0.00000000  0.00000000  0.00000000  1
  Co  Co14  1  0.36452400  0.00000000  0.36452400  1
  Co  Co15  1  0.63547600  0.00000000  0.63547600  1
  Co  Co16  1  0.11204300  0.61204300  0.50000000  1
  Co  Co17  1  0.88795700  0.38795700  0.50000000  1
