# generated using pymatgen
data_Yb6Ni20P13
_symmetry_space_group_name_H-M   'P 1'
_cell_length_a   12.63078280
_cell_length_b   12.63078280
_cell_length_c   3.73497500
_cell_angle_alpha   90.00000000
_cell_angle_beta   90.00000000
_cell_angle_gamma   120.00000417
_symmetry_Int_Tables_number   1
_chemical_formula_structural   Yb6Ni20P13
_chemical_formula_sum   'Yb6 Ni20 P13'
_cell_volume   516.03462910
_cell_formula_units_Z   1
loop_
 _symmetry_equiv_pos_site_id
 _symmetry_equiv_pos_as_xyz
  1  'x, y, z'
loop_
 _atom_site_type_symbol
 _atom_site_label
 _atom_site_symmetry_multiplicity
 _atom_site_fract_x
 _atom_site_fract_y
 _atom_site_fract_z
 _atom_site_occupancy
  Yb  Yb0  1  0.18966000  0.46985300  0.00000000  1
  Yb  Yb1  1  0.53014700  0.71980700  0.00000000  1
  Yb  Yb2  1  0.28019300  0.81034000  0.00000000  1
  Yb  Yb3  1  0.71890100  0.18845900  0.50000000  1
  Yb  Yb4  1  0.81154100  0.53044200  0.50000000  1
  Yb  Yb5  1  0.46955800  0.28109900  0.50000000  1
  Ni  Ni6  1  0.09104700  0.19610600  0.00000000  1
  Ni  Ni7  1  0.80389400  0.89494200  0.00000000  1
  Ni  Ni8  1  0.10505800  0.90895300  0.00000000  1
  Ni  Ni9  1  0.33333300  0.66666700  0.50000000  1
  Ni  Ni10  1  0.91486400  0.07350700  0.50000000  1
  Ni  Ni11  1  0.92649300  0.84135600  0.50000000  1
  Ni  Ni12  1  0.15864400  0.08513600  0.50000000  1
  Ni  Ni13  1  0.66666700  0.33333300  0.00000000  1
  Ni  Ni14  1  0.41791500  0.43882500  0.00000000  1
  Ni  Ni15  1  0.56117500  0.97909000  0.00000000  1
  Ni  Ni16  1  0.02091000  0.58208500  0.00000000  1
  Ni  Ni17  1  0.24865600  0.31786700  0.50000000  1
  Ni  Ni18  1  0.68213300  0.93079000  0.50000000  1
  Ni  Ni19  1  0.06921000  0.75134400  0.50000000  1
  Ni  Ni20  1  0.43603500  0.02179700  0.50000000  1
  Ni  Ni21  1  0.97820300  0.41423800  0.50000000  1
  Ni  Ni22  1  0.58576200  0.56396500  0.50000000  1
  Ni  Ni23  1  0.92306200  0.24242800  0.00000000  1
  Ni  Ni24  1  0.75757200  0.68063300  0.00000000  1
  Ni  Ni25  1  0.31936700  0.07693800  0.00000000  1
  P  P26  1  0.38671600  0.52279800  0.50000000  1
  P  P27  1  0.47720200  0.86391800  0.50000000  1
  P  P28  1  0.13608200  0.61328400  0.50000000  1
  P  P29  1  0.04542500  0.27774800  0.50000000  1
  P  P30  1  0.72225200  0.76767700  0.50000000  1
  P  P31  1  0.23232300  0.95457500  0.50000000  1
  P  P32  1  0.52117900  0.13756000  0.00000000  1
  P  P33  1  0.86244000  0.38362000  0.00000000  1
  P  P34  1  0.61638000  0.47882100  0.00000000  1
  P  P35  1  0.76622700  0.04764500  0.00000000  1
  P  P36  1  0.95235500  0.71858300  0.00000000  1
  P  P37  1  0.28141700  0.23377300  0.00000000  1
  P  P38  1  0.00000000  0.00000000  0.00000000  1
