# generated using pymatgen
data_ErB2Ru
_symmetry_space_group_name_H-M   'P 1'
_cell_length_a   5.30126200
_cell_length_b   5.89206500
_cell_length_c   6.32858600
_cell_angle_alpha   90.00000000
_cell_angle_beta   90.00000000
_cell_angle_gamma   90.00000000
_symmetry_Int_Tables_number   1
_chemical_formula_structural   ErB2Ru
_chemical_formula_sum   'Er4 B8 Ru4'
_cell_volume   197.67579038
_cell_formula_units_Z   4
loop_
 _symmetry_equiv_pos_site_id
 _symmetry_equiv_pos_as_xyz
  1  'x, y, z'
loop_
 _atom_site_type_symbol
 _atom_site_label
 _atom_site_symmetry_multiplicity
 _atom_site_fract_x
 _atom_site_fract_y
 _atom_site_fract_z
 _atom_site_occupancy
  Er  Er0  1  0.25000000  0.51014800  0.83617000  1
  Er  Er1  1  0.25000000  0.01014800  0.66383000  1
  Er  Er2  1  0.75000000  0.48985200  0.16383000  1
  Er  Er3  1  0.75000000  0.98985200  0.33617000  1
  B  B4  1  0.08407600  0.86762600  0.03756000  1
  B  B5  1  0.41592400  0.36762600  0.46244000  1
  B  B6  1  0.58407600  0.13237400  0.96244000  1
  B  B7  1  0.91592400  0.63237400  0.53756000  1
  B  B8  1  0.91592400  0.13237400  0.96244000  1
  B  B9  1  0.58407600  0.63237400  0.53756000  1
  B  B10  1  0.41592400  0.86762600  0.03756000  1
  B  B11  1  0.08407600  0.36762600  0.46244000  1
  Ru  Ru12  1  0.25000000  0.68060800  0.31857600  1
  Ru  Ru13  1  0.25000000  0.18060800  0.18142400  1
  Ru  Ru14  1  0.75000000  0.31939200  0.68142400  1
  Ru  Ru15  1  0.75000000  0.81939200  0.81857600  1
