# generated using pymatgen
data_K2DyCl5
_symmetry_space_group_name_H-M   'P 1'
_cell_length_a   8.06875100
_cell_length_b   8.57504400
_cell_length_c   13.07135000
_cell_angle_alpha   90.00000000
_cell_angle_beta   90.00000000
_cell_angle_gamma   90.00000000
_symmetry_Int_Tables_number   1
_chemical_formula_structural   K2DyCl5
_chemical_formula_sum   'K8 Dy4 Cl20'
_cell_volume   904.40533205
_cell_formula_units_Z   4
loop_
 _symmetry_equiv_pos_site_id
 _symmetry_equiv_pos_as_xyz
  1  'x, y, z'
loop_
 _atom_site_type_symbol
 _atom_site_label
 _atom_site_symmetry_multiplicity
 _atom_site_fract_x
 _atom_site_fract_y
 _atom_site_fract_z
 _atom_site_occupancy
  K  K0  1  0.53384200  0.50057500  0.82577600  1
  K  K1  1  0.46615800  0.49942500  0.17422400  1
  K  K2  1  0.03384200  0.49942500  0.67422400  1
  K  K3  1  0.46615800  0.00057500  0.17422400  1
  K  K4  1  0.96615800  0.50057500  0.32577600  1
  K  K5  1  0.53384200  0.99942500  0.82577600  1
  K  K6  1  0.96615800  0.99942500  0.32577600  1
  K  K7  1  0.03384200  0.00057500  0.67422400  1
  Dy  Dy8  1  0.57365300  0.75000000  0.50278300  1
  Dy  Dy9  1  0.42634700  0.25000000  0.49721700  1
  Dy  Dy10  1  0.07365300  0.25000000  0.99721700  1
  Dy  Dy11  1  0.92634700  0.75000000  0.00278300  1
  Cl  Cl12  1  0.83120800  0.75000000  0.80431600  1
  Cl  Cl13  1  0.16879200  0.25000000  0.19568400  1
  Cl  Cl14  1  0.33120800  0.25000000  0.69568400  1
  Cl  Cl15  1  0.66879200  0.75000000  0.30431600  1
  Cl  Cl16  1  0.36578800  0.75000000  0.66481800  1
  Cl  Cl17  1  0.63421200  0.25000000  0.33518200  1
  Cl  Cl18  1  0.86578800  0.25000000  0.83518200  1
  Cl  Cl19  1  0.13421200  0.75000000  0.16481800  1
  Cl  Cl20  1  0.91095100  0.75000000  0.51271500  1
  Cl  Cl21  1  0.08904900  0.25000000  0.48728500  1
  Cl  Cl22  1  0.41095100  0.25000000  0.98728500  1
  Cl  Cl23  1  0.58904900  0.75000000  0.01271500  1
  Cl  Cl24  1  0.65367500  0.04052500  0.58019200  1
  Cl  Cl25  1  0.34632500  0.95947500  0.41980800  1
  Cl  Cl26  1  0.15367500  0.95947500  0.91980800  1
  Cl  Cl27  1  0.34632500  0.54052500  0.41980800  1
  Cl  Cl28  1  0.84632500  0.04052500  0.08019200  1
  Cl  Cl29  1  0.65367500  0.45947500  0.58019200  1
  Cl  Cl30  1  0.84632500  0.45947500  0.08019200  1
  Cl  Cl31  1  0.15367500  0.54052500  0.91980800  1
