# generated using pymatgen
data_Sm7Al7Co6
_symmetry_space_group_name_H-M   'P 1'
_cell_length_a   4.16497500
_cell_length_b   13.63692500
_cell_length_c   13.63692500
_cell_angle_alpha   90.00000000
_cell_angle_beta   90.00000000
_cell_angle_gamma   90.00000000
_symmetry_Int_Tables_number   1
_chemical_formula_structural   Sm7Al7Co6
_chemical_formula_sum   'Sm14 Al14 Co12'
_cell_volume   774.54258905
_cell_formula_units_Z   2
loop_
 _symmetry_equiv_pos_site_id
 _symmetry_equiv_pos_as_xyz
  1  'x, y, z'
loop_
 _atom_site_type_symbol
 _atom_site_label
 _atom_site_symmetry_multiplicity
 _atom_site_fract_x
 _atom_site_fract_y
 _atom_site_fract_z
 _atom_site_occupancy
  Sm  Sm0  1  0.50000000  0.63144500  0.13144500  1
  Sm  Sm1  1  0.50000000  0.36855500  0.86855500  1
  Sm  Sm2  1  0.50000000  0.86855500  0.63144500  1
  Sm  Sm3  1  0.50000000  0.13144500  0.36855500  1
  Sm  Sm4  1  0.00000000  0.26240700  0.04640400  1
  Sm  Sm5  1  0.00000000  0.73759300  0.95359600  1
  Sm  Sm6  1  0.00000000  0.95359600  0.26240700  1
  Sm  Sm7  1  0.00000000  0.23759300  0.54640400  1
  Sm  Sm8  1  0.00000000  0.04640400  0.73759300  1
  Sm  Sm9  1  0.00000000  0.76240700  0.45359600  1
  Sm  Sm10  1  0.00000000  0.54640400  0.76240700  1
  Sm  Sm11  1  0.00000000  0.45359600  0.23759300  1
  Sm  Sm12  1  0.00000000  0.00000000  0.00000000  1
  Sm  Sm13  1  0.00000000  0.50000000  0.50000000  1
  Al  Al14  1  0.50000000  0.21282100  0.71282100  1
  Al  Al15  1  0.50000000  0.78717900  0.28717900  1
  Al  Al16  1  0.50000000  0.28717900  0.21282100  1
  Al  Al17  1  0.50000000  0.71282100  0.78717900  1
  Al  Al18  1  0.00000000  0.00000000  0.50000000  1
  Al  Al19  1  0.00000000  0.50000000  0.00000000  1
  Al  Al20  1  0.50000000  0.09706400  0.13847300  1
  Al  Al21  1  0.50000000  0.90293600  0.86152700  1
  Al  Al22  1  0.50000000  0.86152700  0.09706400  1
  Al  Al23  1  0.50000000  0.40293600  0.63847300  1
  Al  Al24  1  0.50000000  0.13847300  0.90293600  1
  Al  Al25  1  0.50000000  0.59706400  0.36152700  1
  Al  Al26  1  0.50000000  0.63847300  0.59706400  1
  Al  Al27  1  0.50000000  0.36152700  0.40293600  1
  Co  Co28  1  0.50000000  0.07429200  0.57429200  1
  Co  Co29  1  0.50000000  0.92570800  0.42570800  1
  Co  Co30  1  0.50000000  0.42570800  0.07429200  1
  Co  Co31  1  0.50000000  0.57429200  0.92570800  1
  Co  Co32  1  0.00000000  0.16379100  0.21256100  1
  Co  Co33  1  0.00000000  0.83620900  0.78743900  1
  Co  Co34  1  0.00000000  0.78743900  0.16379100  1
  Co  Co35  1  0.00000000  0.33620900  0.71256100  1
  Co  Co36  1  0.00000000  0.21256100  0.83620900  1
  Co  Co37  1  0.00000000  0.66379100  0.28743900  1
  Co  Co38  1  0.00000000  0.71256100  0.66379100  1
  Co  Co39  1  0.00000000  0.28743900  0.33620900  1
