# generated using pymatgen
data_Y5(CoTe)2
_symmetry_space_group_name_H-M   'P 1'
_cell_length_a   7.80324977
_cell_length_b   7.80324977
_cell_length_c   15.02106900
_cell_angle_alpha   90.00000000
_cell_angle_beta   90.00000000
_cell_angle_gamma   150.76661590
_symmetry_Int_Tables_number   1
_chemical_formula_structural   Y5(CoTe)2
_chemical_formula_sum   'Y10 Co4 Te4'
_cell_volume   446.68280022
_cell_formula_units_Z   2
loop_
 _symmetry_equiv_pos_site_id
 _symmetry_equiv_pos_as_xyz
  1  'x, y, z'
loop_
 _atom_site_type_symbol
 _atom_site_label
 _atom_site_symmetry_multiplicity
 _atom_site_fract_x
 _atom_site_fract_y
 _atom_site_fract_z
 _atom_site_occupancy
  Y  Y0  1  0.96077700  0.03922300  0.12433900  1
  Y  Y1  1  0.03922300  0.96077700  0.87566100  1
  Y  Y2  1  0.03922300  0.96077700  0.62433900  1
  Y  Y3  1  0.96077700  0.03922300  0.37566100  1
  Y  Y4  1  0.74231500  0.25768500  0.62891300  1
  Y  Y5  1  0.25768500  0.74231500  0.37108700  1
  Y  Y6  1  0.25768500  0.74231500  0.12891300  1
  Y  Y7  1  0.74231500  0.25768500  0.87108700  1
  Y  Y8  1  0.60484700  0.39515300  0.25000000  1
  Y  Y9  1  0.39515300  0.60484700  0.75000000  1
  Co  Co10  1  0.40936900  0.59063100  0.25000000  1
  Co  Co11  1  0.59063100  0.40936900  0.75000000  1
  Co  Co12  1  0.82093200  0.17906800  0.25000000  1
  Co  Co13  1  0.17906800  0.82093200  0.75000000  1
  Te  Te14  1  0.61683000  0.38317000  0.03865400  1
  Te  Te15  1  0.38317000  0.61683000  0.96134600  1
  Te  Te16  1  0.38317000  0.61683000  0.53865400  1
  Te  Te17  1  0.61683000  0.38317000  0.46134600  1
