# generated using pymatgen
data_CuP4Se3Cl
_symmetry_space_group_name_H-M   'P 1'
_cell_length_a   11.62907500
_cell_length_b   6.55557600
_cell_length_c   12.52175751
_cell_angle_alpha   78.95370446
_cell_angle_beta   90.00000000
_cell_angle_gamma   90.00000000
_symmetry_Int_Tables_number   1
_chemical_formula_structural   CuP4Se3Cl
_chemical_formula_sum   'Cu4 P16 Se12 Cl4'
_cell_volume   936.91358455
_cell_formula_units_Z   4
loop_
 _symmetry_equiv_pos_site_id
 _symmetry_equiv_pos_as_xyz
  1  'x, y, z'
loop_
 _atom_site_type_symbol
 _atom_site_label
 _atom_site_symmetry_multiplicity
 _atom_site_fract_x
 _atom_site_fract_y
 _atom_site_fract_z
 _atom_site_occupancy
  Cu  Cu0  1  0.35709000  0.76085400  0.01626300  1
  Cu  Cu1  1  0.85709000  0.73914600  0.98373700  1
  Cu  Cu2  1  0.64291000  0.23914600  0.98373700  1
  Cu  Cu3  1  0.14291000  0.26085400  0.01626300  1
  P  P4  1  0.53268600  0.77124600  0.59361700  1
  P  P5  1  0.03268600  0.72875400  0.40638300  1
  P  P6  1  0.46731400  0.22875400  0.40638300  1
  P  P7  1  0.96731400  0.27124600  0.59361700  1
  P  P8  1  0.43120800  0.70227500  0.85719900  1
  P  P9  1  0.93120800  0.79772500  0.14280100  1
  P  P10  1  0.56879200  0.29772500  0.14280100  1
  P  P11  1  0.06879200  0.20227500  0.85719900  1
  P  P12  1  0.35798000  0.44754900  0.78010000  1
  P  P13  1  0.85798000  0.05245100  0.21990000  1
  P  P14  1  0.64202000  0.55245100  0.21990000  1
  P  P15  1  0.14202000  0.94754900  0.78010000  1
  P  P16  1  0.54212500  0.43135100  0.84181600  1
  P  P17  1  0.04212500  0.06864900  0.15818400  1
  P  P18  1  0.45787500  0.56864900  0.15818400  1
  P  P19  1  0.95787500  0.93135100  0.84181600  1
  Se  Se20  1  0.65392300  0.53952900  0.69459300  1
  Se  Se21  1  0.15392300  0.96047100  0.30540700  1
  Se  Se22  1  0.34607700  0.46047100  0.30540700  1
  Se  Se23  1  0.84607700  0.03952900  0.69459300  1
  Se  Se24  1  0.48154500  0.96233600  0.71925200  1
  Se  Se25  1  0.98154500  0.53766400  0.28074800  1
  Se  Se26  1  0.51845500  0.03766400  0.28074800  1
  Se  Se27  1  0.01845500  0.46233600  0.71925200  1
  Se  Se28  1  0.37129600  0.57037100  0.59925900  1
  Se  Se29  1  0.87129600  0.92962900  0.40074100  1
  Se  Se30  1  0.62870400  0.42962900  0.40074100  1
  Se  Se31  1  0.12870400  0.07037100  0.59925900  1
  Cl  Cl32  1  0.17269500  0.60422300  0.02680900  1
  Cl  Cl33  1  0.67269500  0.89577700  0.97319100  1
  Cl  Cl34  1  0.82730500  0.39577700  0.97319100  1
  Cl  Cl35  1  0.32730500  0.10422300  0.02680900  1
