# generated using pymatgen
data_BaGd2Si3O10
_symmetry_space_group_name_H-M   'P 1'
_cell_length_a   12.36192700
_cell_length_b   5.48685600
_cell_length_c   6.99531892
_cell_angle_alpha   73.74148714
_cell_angle_beta   90.00000000
_cell_angle_gamma   90.00000000
_symmetry_Int_Tables_number   1
_chemical_formula_structural   BaGd2Si3O10
_chemical_formula_sum   'Ba2 Gd4 Si6 O20'
_cell_volume   455.50403608
_cell_formula_units_Z   2
loop_
 _symmetry_equiv_pos_site_id
 _symmetry_equiv_pos_as_xyz
  1  'x, y, z'
loop_
 _atom_site_type_symbol
 _atom_site_label
 _atom_site_symmetry_multiplicity
 _atom_site_fract_x
 _atom_site_fract_y
 _atom_site_fract_z
 _atom_site_occupancy
  Ba  Ba0  1  0.25000000  0.23652500  0.01871700  1
  Ba  Ba1  1  0.75000000  0.76347500  0.98128300  1
  Gd  Gd2  1  0.09734700  0.83801800  0.68829200  1
  Gd  Gd3  1  0.59734700  0.16198200  0.31170800  1
  Gd  Gd4  1  0.90265300  0.16198200  0.31170800  1
  Gd  Gd5  1  0.40265300  0.83801800  0.68829200  1
  Si  Si6  1  0.25000000  0.41428200  0.49039100  1
  Si  Si7  1  0.75000000  0.58571800  0.50960900  1
  Si  Si8  1  0.06469900  0.69575500  0.21553200  1
  Si  Si9  1  0.56469900  0.30424500  0.78446800  1
  Si  Si10  1  0.93530100  0.30424500  0.78446800  1
  Si  Si11  1  0.43530100  0.69575500  0.21553200  1
  O  O12  1  0.25000000  0.62021100  0.61885800  1
  O  O13  1  0.75000000  0.37978900  0.38114200  1
  O  O14  1  0.25000000  0.12240000  0.63400600  1
  O  O15  1  0.75000000  0.87760000  0.36599400  1
  O  O16  1  0.14285300  0.45005700  0.34221200  1
  O  O17  1  0.64285300  0.54994300  0.65778800  1
  O  O18  1  0.85714700  0.54994300  0.65778800  1
  O  O19  1  0.35714700  0.45005700  0.34221200  1
  O  O20  1  0.94732700  0.57513900  0.18936100  1
  O  O21  1  0.44732700  0.42486100  0.81063900  1
  O  O22  1  0.05267300  0.42486100  0.81063900  1
  O  O23  1  0.55267300  0.57513900  0.18936100  1
  O  O24  1  0.12694500  0.82873400  0.00765400  1
  O  O25  1  0.62694500  0.17126600  0.99234600  1
  O  O26  1  0.87305500  0.17126600  0.99234600  1
  O  O27  1  0.37305500  0.82873400  0.00765400  1
  O  O28  1  0.05529900  0.90059800  0.34899300  1
  O  O29  1  0.55529900  0.09940200  0.65100700  1
  O  O30  1  0.94470100  0.09940200  0.65100700  1
  O  O31  1  0.44470100  0.90059800  0.34899300  1
