# generated using pymatgen
data_CsTbP2O7
_symmetry_space_group_name_H-M   'P 1'
_cell_length_a   8.00658439
_cell_length_b   8.92485492
_cell_length_c   11.11731300
_cell_angle_alpha   90.00000000
_cell_angle_beta   90.00000000
_cell_angle_gamma   104.99283714
_symmetry_Int_Tables_number   1
_chemical_formula_structural   CsTbP2O7
_chemical_formula_sum   'Cs4 Tb4 P8 O28'
_cell_volume   767.37316227
_cell_formula_units_Z   4
loop_
 _symmetry_equiv_pos_site_id
 _symmetry_equiv_pos_as_xyz
  1  'x, y, z'
loop_
 _atom_site_type_symbol
 _atom_site_label
 _atom_site_symmetry_multiplicity
 _atom_site_fract_x
 _atom_site_fract_y
 _atom_site_fract_z
 _atom_site_occupancy
  Cs  Cs0  1  0.81193600  0.94440700  0.31479600  1
  Cs  Cs1  1  0.18806400  0.05559300  0.68520400  1
  Cs  Cs2  1  0.18806400  0.55559300  0.81479600  1
  Cs  Cs3  1  0.81193600  0.44440700  0.18520400  1
  Tb  Tb4  1  0.76201600  0.74273900  0.90084400  1
  Tb  Tb5  1  0.23798400  0.25726100  0.09915600  1
  Tb  Tb6  1  0.23798400  0.75726100  0.40084400  1
  Tb  Tb7  1  0.76201600  0.24273900  0.59915600  1
  P  P8  1  0.57026400  0.81052400  0.63185200  1
  P  P9  1  0.42973600  0.18947600  0.36814800  1
  P  P10  1  0.42973600  0.68947600  0.13185200  1
  P  P11  1  0.57026400  0.31052400  0.86814800  1
  P  P12  1  0.86574000  0.67466400  0.59792900  1
  P  P13  1  0.13426000  0.32533600  0.40207100  1
  P  P14  1  0.13426000  0.82533600  0.09792900  1
  P  P15  1  0.86574000  0.17466400  0.90207100  1
  O  O16  1  0.39157900  0.76774700  0.57285600  1
  O  O17  1  0.60842100  0.23225300  0.42714400  1
  O  O18  1  0.60842100  0.73225300  0.07285700  1
  O  O19  1  0.39157900  0.26774700  0.92714400  1
  O  O20  1  0.91326300  0.73827000  0.72526500  1
  O  O21  1  0.08673700  0.26173000  0.27473500  1
  O  O22  1  0.08673700  0.76173000  0.22526500  1
  O  O23  1  0.91326300  0.23827000  0.77473500  1
  O  O24  1  0.55757000  0.76523100  0.76507600  1
  O  O25  1  0.44243000  0.23476900  0.23492400  1
  O  O26  1  0.44243000  0.73476900  0.26507600  1
  O  O27  1  0.55757000  0.26523100  0.73492400  1
  O  O28  1  0.67057600  0.97842700  0.60739100  1
  O  O29  1  0.32942400  0.02157300  0.39260900  1
  O  O30  1  0.32942400  0.52157300  0.10739100  1
  O  O31  1  0.67057600  0.47842700  0.89260900  1
  O  O32  1  0.84723000  0.00133000  0.91057700  1
  O  O33  1  0.15277000  0.99867000  0.08942300  1
  O  O34  1  0.15277000  0.49867000  0.41057700  1
  O  O35  1  0.84723000  0.50133000  0.58942300  1
  O  O36  1  0.67683800  0.70068000  0.56355400  1
  O  O37  1  0.32316200  0.29932000  0.43644600  1
  O  O38  1  0.32316200  0.79932000  0.06355400  1
  O  O39  1  0.67683800  0.20068000  0.93644600  1
  O  O40  1  0.00705800  0.73179800  0.00432000  1
  O  O41  1  0.99294200  0.26820200  0.99568000  1
  O  O42  1  0.99294200  0.76820200  0.50432000  1
  O  O43  1  0.00705800  0.23179800  0.49568000  1
