# generated using pymatgen
data_LuTc2
_symmetry_space_group_name_H-M   'P 1'
_cell_length_a   5.32850911
_cell_length_b   5.32850911
_cell_length_c   8.81170500
_cell_angle_alpha   90.00000000
_cell_angle_beta   90.00000000
_cell_angle_gamma   119.99998899
_symmetry_Int_Tables_number   1
_chemical_formula_structural   LuTc2
_chemical_formula_sum   'Lu4 Tc8'
_cell_volume   216.67163221
_cell_formula_units_Z   4
loop_
 _symmetry_equiv_pos_site_id
 _symmetry_equiv_pos_as_xyz
  1  'x, y, z'
loop_
 _atom_site_type_symbol
 _atom_site_label
 _atom_site_symmetry_multiplicity
 _atom_site_fract_x
 _atom_site_fract_y
 _atom_site_fract_z
 _atom_site_occupancy
  Lu  Lu0  1  0.33333300  0.66666700  0.43634200  1
  Lu  Lu1  1  0.66666700  0.33333300  0.56365800  1
  Lu  Lu2  1  0.66666700  0.33333300  0.93634200  1
  Lu  Lu3  1  0.33333300  0.66666700  0.06365800  1
  Tc  Tc4  1  0.00000000  0.00000000  0.50000000  1
  Tc  Tc5  1  0.00000000  0.00000000  0.00000000  1
  Tc  Tc6  1  0.82789400  0.17210600  0.25000000  1
  Tc  Tc7  1  0.82789400  0.65578800  0.25000000  1
  Tc  Tc8  1  0.34421200  0.17210600  0.25000000  1
  Tc  Tc9  1  0.17210600  0.82789400  0.75000000  1
  Tc  Tc10  1  0.17210600  0.34421200  0.75000000  1
  Tc  Tc11  1  0.65578800  0.82789400  0.75000000  1
