# generated using pymatgen
data_K5Zn4Sn5H4S17N
_symmetry_space_group_name_H-M   'P 1'
_cell_length_a   11.08670981
_cell_length_b   11.08670981
_cell_length_c   11.08670981
_cell_angle_alpha   101.23772816
_cell_angle_beta   101.23772816
_cell_angle_gamma   127.60682253
_symmetry_Int_Tables_number   1
_chemical_formula_structural   K5Zn4Sn5H4S17N
_chemical_formula_sum   'K5 Zn4 Sn5 H4 S17 N1'
_cell_volume   968.68467700
_cell_formula_units_Z   1
loop_
 _symmetry_equiv_pos_site_id
 _symmetry_equiv_pos_as_xyz
  1  'x, y, z'
loop_
 _atom_site_type_symbol
 _atom_site_label
 _atom_site_symmetry_multiplicity
 _atom_site_fract_x
 _atom_site_fract_y
 _atom_site_fract_z
 _atom_site_occupancy
  K  K0  1  0.26004100  0.73995900  0.00000000  1
  K  K1  1  0.73995900  0.26004100  0.00000000  1
  K  K2  1  0.26004100  0.26004100  0.52008300  1
  K  K3  1  0.73995900  0.73995900  0.47991700  1
  K  K4  1  0.00000000  0.00000000  0.00000000  1
  Zn  Zn5  1  0.49832400  0.36208300  0.13624100  1
  Zn  Zn6  1  0.22584300  0.36208300  0.86375900  1
  Zn  Zn7  1  0.63791700  0.77415700  0.13624100  1
  Zn  Zn8  1  0.63791700  0.50167600  0.86375900  1
  Sn  Sn9  1  0.25000000  0.75000000  0.50000000  1
  Sn  Sn10  1  0.94383900  0.72102000  0.22281900  1
  Sn  Sn11  1  0.49820100  0.72102000  0.77718100  1
  Sn  Sn12  1  0.27898000  0.50179900  0.22281900  1
  Sn  Sn13  1  0.27898000  0.05616100  0.77718100  1
  H  H14  1  0.62941200  0.18854300  0.44086900  1
  H  H15  1  0.74767300  0.18854300  0.55913100  1
  H  H16  1  0.81145700  0.25232700  0.44086900  1
  H  H17  1  0.81145700  0.37058800  0.55913100  1
  S  S18  1  0.24644600  0.88995800  0.35648800  1
  S  S19  1  0.53347000  0.88995800  0.64351200  1
  S  S20  1  0.11004200  0.46653000  0.35648800  1
  S  S21  1  0.11004200  0.75355400  0.64351200  1
  S  S22  1  0.76820700  0.48954500  0.27866200  1
  S  S23  1  0.21088400  0.48954500  0.72133800  1
  S  S24  1  0.51045500  0.78911600  0.27866200  1
  S  S25  1  0.51045500  0.23179300  0.72133800  1
  S  S26  1  0.50000000  0.50000000  0.00000000  1
  S  S27  1  0.91467100  0.63774800  0.99442200  1
  S  S28  1  0.64332600  0.92024900  0.00557800  1
  S  S29  1  0.36225200  0.35667400  0.27692300  1
  S  S30  1  0.91467100  0.92024900  0.27692300  1
  S  S31  1  0.07975100  0.08532900  0.72307700  1
  S  S32  1  0.64332600  0.63774800  0.72307700  1
  S  S33  1  0.36225200  0.08532900  0.00557800  1
  S  S34  1  0.07975100  0.35667400  0.99442200  1
  N  N35  1  0.75000000  0.25000000  0.50000000  1
