# generated using pymatgen
data_Ho2Te3
_symmetry_space_group_name_H-M   'P 1'
_cell_length_a   14.45707643
_cell_length_b   13.79882196
_cell_length_c   7.49956923
_cell_angle_alpha   79.52066473
_cell_angle_beta   69.80918532
_cell_angle_gamma   30.67014995
_symmetry_Int_Tables_number   1
_chemical_formula_structural   Ho2Te3
_chemical_formula_sum   'Ho8 Te12'
_cell_volume   695.28666936
_cell_formula_units_Z   4
loop_
 _symmetry_equiv_pos_site_id
 _symmetry_equiv_pos_as_xyz
  1  'x, y, z'
loop_
 _atom_site_type_symbol
 _atom_site_label
 _atom_site_symmetry_multiplicity
 _atom_site_fract_x
 _atom_site_fract_y
 _atom_site_fract_z
 _atom_site_occupancy
  Ho  Ho0  1  0.33272800  0.33272800  0.16727200  1
  Ho  Ho1  1  0.16727200  0.16727200  0.33272800  1
  Ho  Ho2  1  0.91727200  0.91727200  0.08272800  1
  Ho  Ho3  1  0.08272800  0.08272800  0.91727200  1
  Ho  Ho4  1  0.99994000  0.99994000  0.50006000  1
  Ho  Ho5  1  0.50006000  0.50006000  0.99994000  1
  Ho  Ho6  1  0.25006000  0.25006000  0.74994000  1
  Ho  Ho7  1  0.74994000  0.74994000  0.25006000  1
  Te  Te8  1  0.99740000  0.50260000  0.50260000  1
  Te  Te9  1  0.50260000  0.99740000  0.99740000  1
  Te  Te10  1  0.25260000  0.74740000  0.74740000  1
  Te  Te11  1  0.74740000  0.25260000  0.25260000  1
  Te  Te12  1  0.66596300  0.16816600  0.83309200  1
  Te  Te13  1  0.83309200  0.33277900  0.66596300  1
  Te  Te14  1  0.33277900  0.83309200  0.16816600  1
  Te  Te15  1  0.16816600  0.66596300  0.33277900  1
  Te  Te16  1  0.58403700  0.08183400  0.41690800  1
  Te  Te17  1  0.41690800  0.91722100  0.58403700  1
  Te  Te18  1  0.91722100  0.41690800  0.08183400  1
  Te  Te19  1  0.08183400  0.58403700  0.91722100  1
