# generated using pymatgen
data_Dy4(Al8Pt3)3
_symmetry_space_group_name_H-M   'P 1'
_cell_length_a   7.49774543
_cell_length_b   7.52885101
_cell_length_c   13.19484075
_cell_angle_alpha   84.60931260
_cell_angle_beta   79.20582175
_cell_angle_gamma   59.94201598
_symmetry_Int_Tables_number   1
_chemical_formula_structural   Dy4(Al8Pt3)3
_chemical_formula_sum   'Dy4 Al24 Pt9'
_cell_volume   633.26727651
_cell_formula_units_Z   1
loop_
 _symmetry_equiv_pos_site_id
 _symmetry_equiv_pos_as_xyz
  1  'x, y, z'
loop_
 _atom_site_type_symbol
 _atom_site_label
 _atom_site_symmetry_multiplicity
 _atom_site_fract_x
 _atom_site_fract_y
 _atom_site_fract_z
 _atom_site_occupancy
  Dy  Dy0  1  0.39375100  0.16835000  0.80778700  1
  Dy  Dy1  1  0.60624900  0.83165000  0.19221300  1
  Dy  Dy2  1  0.73413900  0.49839800  0.80746100  1
  Dy  Dy3  1  0.26586100  0.50160200  0.19253900  1
  Al  Al4  1  0.68462200  0.83333800  0.94442300  1
  Al  Al5  1  0.31537800  0.16666200  0.05557700  1
  Al  Al6  1  0.14736900  0.83211700  0.56088500  1
  Al  Al7  1  0.85263100  0.16788300  0.43911500  1
  Al  Al8  1  0.47982900  0.16692000  0.55881600  1
  Al  Al9  1  0.52017100  0.83308000  0.44118400  1
  Al  Al10  1  0.21745500  0.16529900  0.32988900  1
  Al  Al11  1  0.78254500  0.83470100  0.67011100  1
  Al  Al12  1  0.43813900  0.50594900  0.67000800  1
  Al  Al13  1  0.56186100  0.49405100  0.32999200  1
  Al  Al14  1  0.11007200  0.15993800  0.66939300  1
  Al  Al15  1  0.88992800  0.84006200  0.33060700  1
  Al  Al16  1  0.35357700  0.49861000  0.94475500  1
  Al  Al17  1  0.64642300  0.50139000  0.05524500  1
  Al  Al18  1  0.01395600  0.16828800  0.95321900  1
  Al  Al19  1  0.98604400  0.83171200  0.04678100  1
  Al  Al20  1  0.18701700  0.49859000  0.44099200  1
  Al  Al21  1  0.81298300  0.50141000  0.55900800  1
  Al  Al22  1  0.73399900  0.16413600  0.18291600  1
  Al  Al23  1  0.26600100  0.83586400  0.81708400  1
  Al  Al24  1  0.06190500  0.63185400  0.81581100  1
  Al  Al25  1  0.93809500  0.36814600  0.18418900  1
  Al  Al26  1  0.85400100  0.04183800  0.81611300  1
  Al  Al27  1  0.14599900  0.95816200  0.18388700  1
  Pt  Pt28  1  0.12026000  0.49260300  0.63877700  1
  Pt  Pt29  1  0.87974000  0.50739700  0.36122300  1
  Pt  Pt30  1  0.65748100  0.17108900  0.99986500  1
  Pt  Pt31  1  0.34251900  0.82891100  0.00013500  1
  Pt  Pt32  1  0.53858900  0.16669100  0.36117300  1
  Pt  Pt33  1  0.46141100  0.83330900  0.63882700  1
  Pt  Pt34  1  0.77965300  0.17446800  0.63703500  1
  Pt  Pt35  1  0.22034700  0.82553200  0.36296500  1
  Pt  Pt36  1  0.00000000  0.50000000  0.00000000  1
