# generated using pymatgen
data_BaLa2WO7
_symmetry_space_group_name_H-M   'P 1'
_cell_length_a   5.90026000
_cell_length_b   9.03469100
_cell_length_c   12.99371060
_cell_angle_alpha   74.72488613
_cell_angle_beta   90.00000000
_cell_angle_gamma   90.00000000
_symmetry_Int_Tables_number   1
_chemical_formula_structural   BaLa2WO7
_chemical_formula_sum   'Ba4 La8 W4 O28'
_cell_volume   668.18587197
_cell_formula_units_Z   4
loop_
 _symmetry_equiv_pos_site_id
 _symmetry_equiv_pos_as_xyz
  1  'x, y, z'
loop_
 _atom_site_type_symbol
 _atom_site_label
 _atom_site_symmetry_multiplicity
 _atom_site_fract_x
 _atom_site_fract_y
 _atom_site_fract_z
 _atom_site_occupancy
  Ba  Ba0  1  0.76486000  0.32002400  0.80246100  1
  Ba  Ba1  1  0.23514000  0.32002400  0.30246100  1
  Ba  Ba2  1  0.73126500  0.28492900  0.53236500  1
  Ba  Ba3  1  0.26873500  0.28492900  0.03236500  1
  La  La4  1  0.76424400  0.99796200  0.08366700  1
  La  La5  1  0.23575600  0.99796200  0.58366700  1
  La  La6  1  0.73835900  0.60832000  0.25157600  1
  La  La7  1  0.26164100  0.60832000  0.75157600  1
  La  La8  1  0.73023500  0.87029100  0.79615400  1
  La  La9  1  0.26976500  0.87029100  0.29615400  1
  La  La10  1  0.76793300  0.73685700  0.53601200  1
  La  La11  1  0.23206700  0.73685700  0.03601200  1
  W  W12  1  0.77683200  0.52043200  0.00605600  1
  W  W13  1  0.22316800  0.52043200  0.50605600  1
  W  W14  1  0.72585500  0.08180800  0.32956900  1
  W  W15  1  0.27414500  0.08180800  0.82956900  1
  O  O16  1  0.73258600  0.29663600  0.32497500  1
  O  O17  1  0.26741400  0.29663600  0.82497500  1
  O  O18  1  0.99040800  0.49922700  0.12665900  1
  O  O19  1  0.00959200  0.49922700  0.62665900  1
  O  O20  1  0.48804000  0.10949700  0.70862000  1
  O  O21  1  0.51196000  0.10949700  0.20862000  1
  O  O22  1  0.51859600  0.50840600  0.10128800  1
  O  O23  1  0.48140400  0.50840600  0.60128800  1
  O  O24  1  0.70563500  0.85738500  0.34473000  1
  O  O25  1  0.29436500  0.85738500  0.84473000  1
  O  O26  1  0.79871000  0.74539200  0.98456000  1
  O  O27  1  0.20129000  0.74539200  0.48456000  1
  O  O28  1  0.77885500  0.30337300  0.01272700  1
  O  O29  1  0.22114500  0.30337300  0.51272700  1
  O  O30  1  0.98767700  0.09524100  0.23595100  1
  O  O31  1  0.01232300  0.09524100  0.73595100  1
  O  O32  1  0.94346800  0.54287400  0.41669200  1
  O  O33  1  0.05653200  0.54287400  0.91669200  1
  O  O34  1  0.59114000  0.56181500  0.87674900  1
  O  O35  1  0.40886000  0.56181500  0.37674900  1
  O  O36  1  0.09998700  0.03282800  0.96247300  1
  O  O37  1  0.90001300  0.03282800  0.46247300  1
  O  O38  1  0.55754400  0.05686400  0.91733100  1
  O  O39  1  0.44245600  0.05686400  0.41733100  1
  O  O40  1  0.48855400  0.80822200  0.15679200  1
  O  O41  1  0.51144600  0.80822200  0.65679200  1
  O  O42  1  0.98695700  0.79801900  0.67629500  1
  O  O43  1  0.01304300  0.79801900  0.17629500  1
