# generated using pymatgen
data_K3DyF6
_symmetry_space_group_name_H-M   'P 1'
_cell_length_a   6.63643000
_cell_length_b   6.42905100
_cell_length_c   11.19142586
_cell_angle_alpha   55.10775955
_cell_angle_beta   90.00000000
_cell_angle_gamma   90.00000000
_symmetry_Int_Tables_number   1
_chemical_formula_structural   K3DyF6
_chemical_formula_sum   'K6 Dy2 F12'
_cell_volume   391.65359580
_cell_formula_units_Z   2
loop_
 _symmetry_equiv_pos_site_id
 _symmetry_equiv_pos_as_xyz
  1  'x, y, z'
loop_
 _atom_site_type_symbol
 _atom_site_label
 _atom_site_symmetry_multiplicity
 _atom_site_fract_x
 _atom_site_fract_y
 _atom_site_fract_z
 _atom_site_occupancy
  K  K0  1  0.50000000  0.50000000  0.00000000  1
  K  K1  1  0.00000000  0.50000000  0.50000000  1
  K  K2  1  0.04886400  0.73319200  0.75383500  1
  K  K3  1  0.95113600  0.26680800  0.24616500  1
  K  K4  1  0.54886400  0.26680800  0.74616500  1
  K  K5  1  0.45113600  0.73319200  0.25383500  1
  Dy  Dy6  1  0.50000000  0.00000000  0.50000000  1
  Dy  Dy7  1  0.00000000  0.00000000  0.00000000  1
  F  F8  1  0.77276500  0.76663700  0.56613600  1
  F  F9  1  0.22723500  0.23336300  0.43386400  1
  F  F10  1  0.27276500  0.23336300  0.93386400  1
  F  F11  1  0.72723500  0.76663700  0.06613600  1
  F  F12  1  0.44707300  0.88450400  0.72392800  1
  F  F13  1  0.55292700  0.11549600  0.27607200  1
  F  F14  1  0.94707300  0.11549600  0.77607200  1
  F  F15  1  0.05292700  0.88450400  0.22392800  1
  F  F16  1  0.32655900  0.67156200  0.54942000  1
  F  F17  1  0.67344100  0.32843800  0.45058000  1
  F  F18  1  0.82655900  0.32843800  0.95058000  1
  F  F19  1  0.17344100  0.67156200  0.04942000  1
