# generated using pymatgen
data_Li(HoGe)4
_symmetry_space_group_name_H-M   'P 1'
_cell_length_a   7.13347100
_cell_length_b   7.72763500
_cell_length_c   14.68628800
_cell_angle_alpha   90.00000000
_cell_angle_beta   90.00000000
_cell_angle_gamma   90.00000000
_symmetry_Int_Tables_number   1
_chemical_formula_structural   Li(HoGe)4
_chemical_formula_sum   'Li4 Ho16 Ge16'
_cell_volume   809.57957243
_cell_formula_units_Z   4
loop_
 _symmetry_equiv_pos_site_id
 _symmetry_equiv_pos_as_xyz
  1  'x, y, z'
loop_
 _atom_site_type_symbol
 _atom_site_label
 _atom_site_symmetry_multiplicity
 _atom_site_fract_x
 _atom_site_fract_y
 _atom_site_fract_z
 _atom_site_occupancy
  Li  Li0  1  0.65864100  0.97334100  0.75000000  1
  Li  Li1  1  0.15864100  0.52665900  0.75000000  1
  Li  Li2  1  0.34135900  0.02665900  0.25000000  1
  Li  Li3  1  0.84135900  0.47334100  0.25000000  1
  Ho  Ho4  1  0.51508500  0.31345600  0.09751100  1
  Ho  Ho5  1  0.01508500  0.18654400  0.40248900  1
  Ho  Ho6  1  0.48491500  0.68654400  0.59751100  1
  Ho  Ho7  1  0.98491500  0.81345600  0.90248900  1
  Ho  Ho8  1  0.48491500  0.68654400  0.90248900  1
  Ho  Ho9  1  0.98491500  0.81345600  0.59751100  1
  Ho  Ho10  1  0.51508500  0.31345600  0.40248900  1
  Ho  Ho11  1  0.01508500  0.18654400  0.09751100  1
  Ho  Ho12  1  0.82880900  0.32348500  0.62799300  1
  Ho  Ho13  1  0.32880900  0.17651500  0.87200700  1
  Ho  Ho14  1  0.17119100  0.67651500  0.12799300  1
  Ho  Ho15  1  0.67119100  0.82348500  0.37200700  1
  Ho  Ho16  1  0.17119100  0.67651500  0.37200700  1
  Ho  Ho17  1  0.67119100  0.82348500  0.12799300  1
  Ho  Ho18  1  0.82880900  0.32348500  0.87200700  1
  Ho  Ho19  1  0.32880900  0.17651500  0.62799300  1
  Ge  Ge20  1  0.66724400  0.03425900  0.53652200  1
  Ge  Ge21  1  0.16724400  0.46574100  0.96347800  1
  Ge  Ge22  1  0.33275600  0.96574100  0.03652200  1
  Ge  Ge23  1  0.83275600  0.53425900  0.46347800  1
  Ge  Ge24  1  0.33275600  0.96574100  0.46347800  1
  Ge  Ge25  1  0.83275600  0.53425900  0.03652200  1
  Ge  Ge26  1  0.66724400  0.03425900  0.96347800  1
  Ge  Ge27  1  0.16724400  0.46574100  0.53652200  1
  Ge  Ge28  1  0.51753400  0.41393900  0.75000000  1
  Ge  Ge29  1  0.01753400  0.08606100  0.75000000  1
  Ge  Ge30  1  0.48246600  0.58606100  0.25000000  1
  Ge  Ge31  1  0.98246600  0.91393900  0.25000000  1
  Ge  Ge32  1  0.78348300  0.63623900  0.75000000  1
  Ge  Ge33  1  0.28348300  0.86376100  0.75000000  1
  Ge  Ge34  1  0.21651700  0.36376100  0.25000000  1
  Ge  Ge35  1  0.71651700  0.13623900  0.25000000  1
