# generated using pymatgen
data_Nd4CdSi3O13
_symmetry_space_group_name_H-M   'P 1'
_cell_length_a   9.65638636
_cell_length_b   9.65638636
_cell_length_c   7.01480500
_cell_angle_alpha   90.00000000
_cell_angle_beta   90.00000000
_cell_angle_gamma   120.00000246
_symmetry_Int_Tables_number   1
_chemical_formula_structural   Nd4CdSi3O13
_chemical_formula_sum   'Nd8 Cd2 Si6 O26'
_cell_volume   566.46814367
_cell_formula_units_Z   2
loop_
 _symmetry_equiv_pos_site_id
 _symmetry_equiv_pos_as_xyz
  1  'x, y, z'
loop_
 _atom_site_type_symbol
 _atom_site_label
 _atom_site_symmetry_multiplicity
 _atom_site_fract_x
 _atom_site_fract_y
 _atom_site_fract_z
 _atom_site_occupancy
  Nd  Nd0  1  0.33333300  0.66666700  0.99579300  1
  Nd  Nd1  1  0.66666700  0.33333300  0.49579300  1
  Nd  Nd2  1  0.24090600  0.00759800  0.74799100  1
  Nd  Nd3  1  0.76669200  0.75909400  0.74799100  1
  Nd  Nd4  1  0.99240200  0.23330800  0.74799100  1
  Nd  Nd5  1  0.75909400  0.99240200  0.24799100  1
  Nd  Nd6  1  0.23330800  0.24090600  0.24799100  1
  Nd  Nd7  1  0.00759800  0.76669200  0.24799100  1
  Cd  Cd8  1  0.66666700  0.33333300  0.99273500  1
  Cd  Cd9  1  0.33333300  0.66666700  0.49273500  1
  Si  Si10  1  0.02902100  0.62760100  0.74880600  1
  Si  Si11  1  0.59858000  0.97097900  0.74880600  1
  Si  Si12  1  0.37239900  0.40142000  0.74880600  1
  Si  Si13  1  0.97097900  0.37239900  0.24880600  1
  Si  Si14  1  0.40142000  0.02902100  0.24880600  1
  Si  Si15  1  0.62760100  0.59858000  0.24880600  1
  O  O16  1  0.12878200  0.53043300  0.73806400  1
  O  O17  1  0.40165100  0.87121800  0.73806400  1
  O  O18  1  0.46956700  0.59834900  0.73806400  1
  O  O19  1  0.87121800  0.46956700  0.23806400  1
  O  O20  1  0.59834900  0.12878200  0.23806400  1
  O  O21  1  0.53043300  0.40165100  0.23806400  1
  O  O22  1  0.09890500  0.74267800  0.93960300  1
  O  O23  1  0.64377300  0.90109500  0.93960300  1
  O  O24  1  0.25732200  0.35622700  0.93960300  1
  O  O25  1  0.90109500  0.25732200  0.43960300  1
  O  O26  1  0.35622700  0.09890500  0.43960300  1
  O  O27  1  0.74267800  0.64377300  0.43960300  1
  O  O28  1  0.92466600  0.24457400  0.07148200  1
  O  O29  1  0.31990900  0.07533400  0.07148200  1
  O  O30  1  0.75542600  0.68009100  0.07148200  1
  O  O31  1  0.07533400  0.75542600  0.57148200  1
  O  O32  1  0.68009100  0.92466600  0.57148200  1
  O  O33  1  0.24457400  0.31990900  0.57148200  1
  O  O34  1  0.00000000  0.00000000  0.76357200  1
  O  O35  1  0.00000000  0.00000000  0.26357200  1
  O  O36  1  0.83496000  0.51041200  0.75334700  1
  O  O37  1  0.67545200  0.16504000  0.75334700  1
  O  O38  1  0.48958800  0.32454800  0.75334700  1
  O  O39  1  0.16504000  0.48958800  0.25334700  1
  O  O40  1  0.32454800  0.83496000  0.25334700  1
  O  O41  1  0.51041200  0.67545200  0.25334700  1
