# generated using pymatgen
data_Nd2SiTeO4
_symmetry_space_group_name_H-M   'P 1'
_cell_length_a   6.35765800
_cell_length_b   7.26720600
_cell_length_c   11.30188400
_cell_angle_alpha   90.00000000
_cell_angle_beta   90.00000000
_cell_angle_gamma   90.00000000
_symmetry_Int_Tables_number   1
_chemical_formula_structural   Nd2SiTeO4
_chemical_formula_sum   'Nd8 Si4 Te4 O16'
_cell_volume   522.17428245
_cell_formula_units_Z   4
loop_
 _symmetry_equiv_pos_site_id
 _symmetry_equiv_pos_as_xyz
  1  'x, y, z'
loop_
 _atom_site_type_symbol
 _atom_site_label
 _atom_site_symmetry_multiplicity
 _atom_site_fract_x
 _atom_site_fract_y
 _atom_site_fract_z
 _atom_site_occupancy
  Nd  Nd0  1  0.38792800  0.75000000  0.50000000  1
  Nd  Nd1  1  0.38792800  0.75000000  0.00000000  1
  Nd  Nd2  1  0.61207200  0.25000000  0.50000000  1
  Nd  Nd3  1  0.61207200  0.25000000  0.00000000  1
  Nd  Nd4  1  0.88724500  0.96107800  0.75000000  1
  Nd  Nd5  1  0.88724500  0.53892200  0.25000000  1
  Nd  Nd6  1  0.11275500  0.46107800  0.75000000  1
  Nd  Nd7  1  0.11275500  0.03892200  0.25000000  1
  Si  Si8  1  0.11427200  0.25000000  0.00000000  1
  Si  Si9  1  0.88572800  0.75000000  0.00000000  1
  Si  Si10  1  0.88572800  0.75000000  0.50000000  1
  Si  Si11  1  0.11427200  0.25000000  0.50000000  1
  Te  Te12  1  0.59608900  0.57916400  0.75000000  1
  Te  Te13  1  0.59608900  0.92083600  0.25000000  1
  Te  Te14  1  0.40391100  0.07916400  0.75000000  1
  Te  Te15  1  0.40391100  0.42083600  0.25000000  1
  O  O16  1  0.26952700  0.07711700  0.46437300  1
  O  O17  1  0.26952700  0.42288300  0.53562700  1
  O  O18  1  0.73047300  0.57711700  0.03562700  1
  O  O19  1  0.73047300  0.92288300  0.96437300  1
  O  O20  1  0.73047300  0.92288300  0.53562700  1
  O  O21  1  0.73047300  0.57711700  0.46437300  1
  O  O22  1  0.26952700  0.42288300  0.96437300  1
  O  O23  1  0.26952700  0.07711700  0.03562700  1
  O  O24  1  0.04785400  0.76930000  0.38482900  1
  O  O25  1  0.04785400  0.76930000  0.11517100  1
  O  O26  1  0.95214600  0.26930000  0.11517100  1
  O  O27  1  0.95214600  0.23070000  0.88482900  1
  O  O28  1  0.95214600  0.23070000  0.61517100  1
  O  O29  1  0.95214600  0.26930000  0.38482900  1
  O  O30  1  0.04785400  0.73070000  0.88482900  1
  O  O31  1  0.04785400  0.73070000  0.61517100  1
