# generated using pymatgen
data_Nd3(AgSn)4
_symmetry_space_group_name_H-M   'P 1'
_cell_length_a   8.96660433
_cell_length_b   8.96660433
_cell_length_c   8.96660433
_cell_angle_alpha   149.58608954
_cell_angle_beta   131.17593148
_cell_angle_gamma   58.61647897
_symmetry_Int_Tables_number   1
_chemical_formula_structural   Nd3(AgSn)4
_chemical_formula_sum   'Nd3 Ag4 Sn4'
_cell_volume   272.60234220
_cell_formula_units_Z   1
loop_
 _symmetry_equiv_pos_site_id
 _symmetry_equiv_pos_as_xyz
  1  'x, y, z'
loop_
 _atom_site_type_symbol
 _atom_site_label
 _atom_site_symmetry_multiplicity
 _atom_site_fract_x
 _atom_site_fract_y
 _atom_site_fract_z
 _atom_site_occupancy
  Nd  Nd0  1  0.50000000  0.00000000  0.50000000  1
  Nd  Nd1  1  0.87038000  0.87038000  0.00000000  1
  Nd  Nd2  1  0.12962000  0.12962000  0.00000000  1
  Ag  Ag3  1  0.47461900  0.66997900  0.80464100  1
  Ag  Ag4  1  0.86533800  0.66997900  0.19535900  1
  Ag  Ag5  1  0.13466200  0.33002100  0.80464100  1
  Ag  Ag6  1  0.52538100  0.33002100  0.19535900  1
  Sn  Sn7  1  0.28498600  0.78498600  0.50000000  1
  Sn  Sn8  1  0.71501400  0.21501400  0.50000000  1
  Sn  Sn9  1  0.80583700  0.50000000  0.30583700  1
  Sn  Sn10  1  0.19416300  0.50000000  0.69416300  1
