# generated using pymatgen
data_Cs3VS4
_symmetry_space_group_name_H-M   'P 1'
_cell_length_a   9.90867200
_cell_length_b   9.96369700
_cell_length_c   11.74329000
_cell_angle_alpha   90.00000000
_cell_angle_beta   90.00000000
_cell_angle_gamma   90.00000000
_symmetry_Int_Tables_number   1
_chemical_formula_structural   Cs3VS4
_chemical_formula_sum   'Cs12 V4 S16'
_cell_volume   1159.37985619
_cell_formula_units_Z   4
loop_
 _symmetry_equiv_pos_site_id
 _symmetry_equiv_pos_as_xyz
  1  'x, y, z'
loop_
 _atom_site_type_symbol
 _atom_site_label
 _atom_site_symmetry_multiplicity
 _atom_site_fract_x
 _atom_site_fract_y
 _atom_site_fract_z
 _atom_site_occupancy
  Cs  Cs0  1  0.54429100  0.20877900  0.04303900  1
  Cs  Cs1  1  0.04429100  0.29122100  0.45696100  1
  Cs  Cs2  1  0.45570900  0.79122100  0.54303900  1
  Cs  Cs3  1  0.95570900  0.70877900  0.95696100  1
  Cs  Cs4  1  0.45570900  0.79122100  0.95696100  1
  Cs  Cs5  1  0.95570900  0.70877900  0.54303900  1
  Cs  Cs6  1  0.54429100  0.20877900  0.45696100  1
  Cs  Cs7  1  0.04429100  0.29122100  0.04303900  1
  Cs  Cs8  1  0.64985400  0.41237300  0.75000000  1
  Cs  Cs9  1  0.14985400  0.08762700  0.75000000  1
  Cs  Cs10  1  0.35014600  0.58762700  0.25000000  1
  Cs  Cs11  1  0.85014600  0.91237300  0.25000000  1
  V  V12  1  0.72298100  0.98223400  0.75000000  1
  V  V13  1  0.22298100  0.51776600  0.75000000  1
  V  V14  1  0.27701900  0.01776600  0.25000000  1
  V  V15  1  0.77701900  0.48223400  0.25000000  1
  S  S16  1  0.82753200  0.04552300  0.59763500  1
  S  S17  1  0.32753200  0.45447700  0.90236500  1
  S  S18  1  0.17246800  0.95447700  0.09763500  1
  S  S19  1  0.67246800  0.54552300  0.40236500  1
  S  S20  1  0.17246800  0.95447700  0.40236500  1
  S  S21  1  0.67246800  0.54552300  0.09763500  1
  S  S22  1  0.82753200  0.04552300  0.90236500  1
  S  S23  1  0.32753200  0.45447700  0.59763500  1
  S  S24  1  0.51991300  0.06443000  0.75000000  1
  S  S25  1  0.01991300  0.43557000  0.75000000  1
  S  S26  1  0.48008700  0.93557000  0.25000000  1
  S  S27  1  0.98008700  0.56443000  0.25000000  1
  S  S28  1  0.71090500  0.76447600  0.75000000  1
  S  S29  1  0.21090500  0.73552400  0.75000000  1
  S  S30  1  0.28909500  0.23552400  0.25000000  1
  S  S31  1  0.78909500  0.26447600  0.25000000  1
