# generated using pymatgen
data_Sr3ZnCoO6
_symmetry_space_group_name_H-M   'P 1'
_cell_length_a   6.70763537
_cell_length_b   6.68671284
_cell_length_c   13.36374526
_cell_angle_alpha   92.85152208
_cell_angle_beta   92.68350396
_cell_angle_gamma   92.55254498
_symmetry_Int_Tables_number   1
_chemical_formula_structural   Sr3ZnCoO6
_chemical_formula_sum   'Sr12 Zn4 Co4 O24'
_cell_volume   597.33235588
_cell_formula_units_Z   4
loop_
 _symmetry_equiv_pos_site_id
 _symmetry_equiv_pos_as_xyz
  1  'x, y, z'
loop_
 _atom_site_type_symbol
 _atom_site_label
 _atom_site_symmetry_multiplicity
 _atom_site_fract_x
 _atom_site_fract_y
 _atom_site_fract_z
 _atom_site_occupancy
  Sr  Sr0  1  0.61412400  0.88593000  0.12496600  1
  Sr  Sr1  1  0.61696100  0.88268600  0.62482000  1
  Sr  Sr2  1  0.88516100  0.25325100  0.30988700  1
  Sr  Sr3  1  0.88473500  0.24854200  0.80625600  1
  Sr  Sr4  1  0.25159300  0.61528600  0.44372600  1
  Sr  Sr5  1  0.24720700  0.61525400  0.94013500  1
  Sr  Sr6  1  0.11390600  0.75318300  0.19208400  1
  Sr  Sr7  1  0.11602800  0.74496200  0.69170000  1
  Sr  Sr8  1  0.74651700  0.38605600  0.05791200  1
  Sr  Sr9  1  0.75477200  0.38367600  0.55827000  1
  Sr  Sr10  1  0.38615300  0.11738800  0.37758500  1
  Sr  Sr11  1  0.38254000  0.11423600  0.87265500  1
  Zn  Zn12  1  0.24611100  0.25372900  0.12507200  1
  Zn  Zn13  1  0.25101800  0.24902000  0.62498600  1
  Zn  Zn14  1  0.74948800  0.74586900  0.37829600  1
  Zn  Zn15  1  0.75373400  0.75106800  0.87160500  1
  Co  Co16  1  0.50216300  0.49853300  0.75008500  1
  Co  Co17  1  0.00153100  0.99781300  0.49987900  1
  Co  Co18  1  0.49838600  0.50162900  0.25025600  1
  Co  Co19  1  0.99826800  0.00166100  0.99981100  1
  O  O20  1  0.53871700  0.22711500  0.20768400  1
  O  O21  1  0.54348400  0.21971300  0.70575300  1
  O  O22  1  0.22345500  0.41658200  0.26949500  1
  O  O23  1  0.21242100  0.40540200  0.77038500  1
  O  O24  1  0.41036200  0.54376800  0.10421700  1
  O  O25  1  0.41781700  0.54068200  0.61524800  1
  O  O26  1  0.04482100  0.91544800  0.36467000  1
  O  O27  1  0.04193600  0.91237500  0.85557400  1
  O  O28  1  0.91190700  0.72466400  0.01969700  1
  O  O29  1  0.91240000  0.71243200  0.52033800  1
  O  O30  1  0.72104400  0.03793900  0.45434200  1
  O  O31  1  0.72341200  0.04263200  0.95791600  1
  O  O32  1  0.45610400  0.77526500  0.29153100  1
  O  O33  1  0.46111600  0.77813000  0.79493500  1
  O  O34  1  0.77615600  0.58958600  0.23046300  1
  O  O35  1  0.78788800  0.58816400  0.72968300  1
  O  O36  1  0.58746000  0.45893300  0.39468100  1
  O  O37  1  0.58446200  0.45643900  0.88564500  1
  O  O38  1  0.95503700  0.08976200  0.14549900  1
  O  O39  1  0.95828100  0.08225700  0.63444500  1
  O  O40  1  0.09408800  0.28698300  0.47962600  1
  O  O41  1  0.08191200  0.27596700  0.98031400  1
  O  O42  1  0.27419400  0.96293600  0.04308200  1
  O  O43  1  0.28113100  0.95705300  0.54479000  1
