# generated using pymatgen
data_Sr6Al12Bi2O27
_symmetry_space_group_name_H-M   'P 1'
_cell_length_a   10.63518839
_cell_length_b   10.63518839
_cell_length_c   10.63518832
_cell_angle_alpha   115.00184919
_cell_angle_beta   115.00184919
_cell_angle_gamma   115.00184675
_symmetry_Int_Tables_number   1
_chemical_formula_structural   Sr6Al12Bi2O27
_chemical_formula_sum   'Sr6 Al12 Bi2 O27'
_cell_volume   673.10844758
_cell_formula_units_Z   1
loop_
 _symmetry_equiv_pos_site_id
 _symmetry_equiv_pos_as_xyz
  1  'x, y, z'
loop_
 _atom_site_type_symbol
 _atom_site_label
 _atom_site_symmetry_multiplicity
 _atom_site_fract_x
 _atom_site_fract_y
 _atom_site_fract_z
 _atom_site_occupancy
  Sr  Sr0  1  0.19526900  0.23751100  0.83858100  1
  Sr  Sr1  1  0.23751100  0.83858100  0.19526900  1
  Sr  Sr2  1  0.83858100  0.19526900  0.23751100  1
  Sr  Sr3  1  0.80126800  0.76883700  0.16378300  1
  Sr  Sr4  1  0.76883700  0.16378300  0.80126800  1
  Sr  Sr5  1  0.16378300  0.80126800  0.76883700  1
  Al  Al6  1  0.02189200  0.56379100  0.26367000  1
  Al  Al7  1  0.56379100  0.26367000  0.02189200  1
  Al  Al8  1  0.26367000  0.02189200  0.56379100  1
  Al  Al9  1  0.97614800  0.43533000  0.73474500  1
  Al  Al10  1  0.43533000  0.73474500  0.97614800  1
  Al  Al11  1  0.73474500  0.97614800  0.43533000  1
  Al  Al12  1  0.34482500  0.38642000  0.66051800  1
  Al  Al13  1  0.38642000  0.66051800  0.34482500  1
  Al  Al14  1  0.66051800  0.34482500  0.38642000  1
  Al  Al15  1  0.65877900  0.61578900  0.34057000  1
  Al  Al16  1  0.61578900  0.34057000  0.65877900  1
  Al  Al17  1  0.34057000  0.65877900  0.61578900  1
  Bi  Bi18  1  0.20154400  0.20154400  0.20154400  1
  Bi  Bi19  1  0.78260000  0.78260000  0.78260000  1
  O  O20  1  0.67923900  0.93790700  0.23334200  1
  O  O21  1  0.93790700  0.23334200  0.67923900  1
  O  O22  1  0.23334200  0.67923900  0.93790700  1
  O  O23  1  0.31587000  0.05989000  0.76561800  1
  O  O24  1  0.05989000  0.76561800  0.31587000  1
  O  O25  1  0.76561800  0.31587000  0.05989000  1
  O  O26  1  0.58973500  0.49622900  0.76584100  1
  O  O27  1  0.49622900  0.76584100  0.58973500  1
  O  O28  1  0.76584100  0.58973500  0.49622900  1
  O  O29  1  0.41793700  0.50954900  0.24220900  1
  O  O30  1  0.50954900  0.24220900  0.41793700  1
  O  O31  1  0.24220900  0.41793700  0.50954900  1
  O  O32  1  0.13176500  0.53375800  0.18172800  1
  O  O33  1  0.53375800  0.18172800  0.13176500  1
  O  O34  1  0.18172800  0.13176500  0.53375800  1
  O  O35  1  0.86836400  0.46194400  0.81986000  1
  O  O36  1  0.46194400  0.81986000  0.86836400  1
  O  O37  1  0.81986000  0.86836400  0.46194400  1
  O  O38  1  0.52573700  0.87599100  0.39593200  1
  O  O39  1  0.87599100  0.39593200  0.52573700  1
  O  O40  1  0.39593200  0.52573700  0.87599100  1
  O  O41  1  0.47366400  0.12337200  0.60435900  1
  O  O42  1  0.12337200  0.60435900  0.47366400  1
  O  O43  1  0.60435900  0.47366400  0.12337200  1
  O  O44  1  0.90405300  0.99072400  0.08551100  1
  O  O45  1  0.99072400  0.08551100  0.90405300  1
  O  O46  1  0.08551100  0.90405300  0.99072400  1
