# generated using pymatgen
data_K3V3O8
_symmetry_space_group_name_H-M   'P 1'
_cell_length_a   5.75550800
_cell_length_b   9.50257184
_cell_length_c   9.50257184
_cell_angle_alpha   63.27367010
_cell_angle_beta   72.37177049
_cell_angle_gamma   72.37177049
_symmetry_Int_Tables_number   1
_chemical_formula_structural   K3V3O8
_chemical_formula_sum   'K6 V6 O16'
_cell_volume   433.83384700
_cell_formula_units_Z   2
loop_
 _symmetry_equiv_pos_site_id
 _symmetry_equiv_pos_as_xyz
  1  'x, y, z'
loop_
 _atom_site_type_symbol
 _atom_site_label
 _atom_site_symmetry_multiplicity
 _atom_site_fract_x
 _atom_site_fract_y
 _atom_site_fract_z
 _atom_site_occupancy
  K  K0  1  0.00000000  0.00000000  0.00000000  1
  K  K1  1  0.50000000  0.50000000  0.50000000  1
  K  K2  1  0.84569700  0.48763600  0.82096900  1
  K  K3  1  0.34569700  0.98763600  0.32096900  1
  K  K4  1  0.15430300  0.51236400  0.17903100  1
  K  K5  1  0.65430300  0.01236400  0.67903100  1
  V  V6  1  0.25000000  0.75000000  0.75000000  1
  V  V7  1  0.75000000  0.25000000  0.25000000  1
  V  V8  1  0.63024700  0.70308600  0.03641900  1
  V  V9  1  0.13024700  0.20308600  0.53641900  1
  V  V10  1  0.36975300  0.29691400  0.96358100  1
  V  V11  1  0.86975300  0.79691400  0.46358100  1
  O  O12  1  0.51901700  0.81431700  0.14765000  1
  O  O13  1  0.01901700  0.31431700  0.64765000  1
  O  O14  1  0.48098300  0.18568300  0.85235000  1
  O  O15  1  0.98098300  0.68568300  0.35235000  1
  O  O16  1  0.57995900  0.25343600  0.08683100  1
  O  O17  1  0.07995900  0.75343600  0.58683100  1
  O  O18  1  0.32986600  0.50352900  0.83673900  1
  O  O19  1  0.82986600  0.00352900  0.33673900  1
  O  O20  1  0.07977400  0.25343600  0.08683100  1
  O  O21  1  0.57977400  0.75343600  0.58683100  1
  O  O22  1  0.92022600  0.74656400  0.91316900  1
  O  O23  1  0.42022600  0.24656400  0.41316900  1
  O  O24  1  0.67013400  0.49647100  0.16326100  1
  O  O25  1  0.17013400  0.99647100  0.66326100  1
  O  O26  1  0.42004100  0.74656400  0.91316900  1
  O  O27  1  0.92004100  0.24656400  0.41316900  1
