# generated using pymatgen
data_Y6Ga17Pd5
_symmetry_space_group_name_H-M   'P 1'
_cell_length_a   8.17225444
_cell_length_b   8.17225444
_cell_length_c   15.76643637
_cell_angle_alpha   75.81528578
_cell_angle_beta   75.81528578
_cell_angle_gamma   30.78135239
_symmetry_Int_Tables_number   1
_chemical_formula_structural   Y6Ga17Pd5
_chemical_formula_sum   'Y6 Ga17 Pd5'
_cell_volume   521.17710551
_cell_formula_units_Z   1
loop_
 _symmetry_equiv_pos_site_id
 _symmetry_equiv_pos_as_xyz
  1  'x, y, z'
loop_
 _atom_site_type_symbol
 _atom_site_label
 _atom_site_symmetry_multiplicity
 _atom_site_fract_x
 _atom_site_fract_y
 _atom_site_fract_z
 _atom_site_occupancy
  Y  Y0  1  0.74978400  0.74978400  0.74904100  1
  Y  Y1  1  0.25021600  0.25021600  0.25095900  1
  Y  Y2  1  0.59742200  0.59742200  0.59738500  1
  Y  Y3  1  0.10087500  0.10087500  0.10058200  1
  Y  Y4  1  0.89912500  0.89912500  0.89941800  1
  Y  Y5  1  0.40257800  0.40257800  0.40261500  1
  Ga  Ga6  1  0.82830200  0.82830200  0.54127700  1
  Ga  Ga7  1  0.32204000  0.32204000  0.04025500  1
  Ga  Ga8  1  0.67796000  0.67796000  0.95974500  1
  Ga  Ga9  1  0.17169800  0.17169800  0.45872300  1
  Ga  Ga10  1  0.54036900  0.54036900  0.82237000  1
  Ga  Ga11  1  0.04151700  0.04151700  0.32775100  1
  Ga  Ga12  1  0.95848300  0.95848300  0.67224900  1
  Ga  Ga13  1  0.45963100  0.45963100  0.17763000  1
  Ga  Ga14  1  0.26072200  0.26072200  0.89471500  1
  Ga  Ga15  1  0.76357000  0.76357000  0.39611200  1
  Ga  Ga16  1  0.23643000  0.23643000  0.60388800  1
  Ga  Ga17  1  0.73927800  0.73927800  0.10528500  1
  Ga  Ga18  1  0.39427500  0.39427500  0.76305400  1
  Ga  Ga19  1  0.89659900  0.89659900  0.26141000  1
  Ga  Ga20  1  0.10340100  0.10340100  0.73859000  1
  Ga  Ga21  1  0.60572500  0.60572500  0.23694600  1
  Ga  Ga22  1  0.50000000  0.50000000  0.00000000  1
  Pd  Pd23  1  0.09170500  0.09170500  0.90857700  1
  Pd  Pd24  1  0.60002100  0.60002100  0.39984400  1
  Pd  Pd25  1  0.39997900  0.39997900  0.60015600  1
  Pd  Pd26  1  0.90829500  0.90829500  0.09142300  1
  Pd  Pd27  1  0.00000000  0.00000000  0.50000000  1
