# generated using pymatgen
data_Sr2TaCrO6
_symmetry_space_group_name_H-M   'P 1'
_cell_length_a   5.62956900
_cell_length_b   5.63626953
_cell_length_c   5.63665253
_cell_angle_alpha   119.96325217
_cell_angle_beta   90.15284917
_cell_angle_gamma   119.79952916
_symmetry_Int_Tables_number   1
_chemical_formula_structural   Sr2TaCrO6
_chemical_formula_sum   'Sr2 Ta1 Cr1 O6'
_cell_volume   126.74977088
_cell_formula_units_Z   1
loop_
 _symmetry_equiv_pos_site_id
 _symmetry_equiv_pos_as_xyz
  1  'x, y, z'
loop_
 _atom_site_type_symbol
 _atom_site_label
 _atom_site_symmetry_multiplicity
 _atom_site_fract_x
 _atom_site_fract_y
 _atom_site_fract_z
 _atom_site_occupancy
  Sr  Sr0  1  0.75217500  0.50168200  0.24969000  1
  Sr  Sr1  1  0.24782500  0.49831800  0.75031000  1
  Ta  Ta2  1  0.50000000  0.00000000  0.50000000  1
  Cr  Cr3  1  0.00000000  0.00000000  0.00000000  1
  O  O4  1  0.23263700  0.50179800  0.22707000  1
  O  O5  1  0.29542700  0.04020100  0.24686100  1
  O  O6  1  0.70457300  0.95979900  0.75313900  1
  O  O7  1  0.77715600  0.00573800  0.27902000  1
  O  O8  1  0.76736300  0.49820200  0.77293000  1
  O  O9  1  0.22284400  0.99426200  0.72098000  1
