# generated using pymatgen
data_Mn7GeO12
_symmetry_space_group_name_H-M   'P 1'
_cell_length_a   9.69185033
_cell_length_b   9.69185074
_cell_length_c   11.79282724
_cell_angle_alpha   114.26272633
_cell_angle_beta   114.26272512
_cell_angle_gamma   89.99999656
_symmetry_Int_Tables_number   1
_chemical_formula_structural   Mn7GeO12
_chemical_formula_sum   'Mn28 Ge4 O48'
_cell_volume   901.47682900
_cell_formula_units_Z   4
loop_
 _symmetry_equiv_pos_site_id
 _symmetry_equiv_pos_as_xyz
  1  'x, y, z'
loop_
 _atom_site_type_symbol
 _atom_site_label
 _atom_site_symmetry_multiplicity
 _atom_site_fract_x
 _atom_site_fract_y
 _atom_site_fract_z
 _atom_site_occupancy
  Mn  Mn0  1  0.78807500  0.25000000  0.50000000  1
  Mn  Mn1  1  0.87500000  0.62500000  0.75000000  1
  Mn  Mn2  1  0.00000000  0.00000000  0.00000000  1
  Mn  Mn3  1  0.21192500  0.75000000  0.50000000  1
  Mn  Mn4  1  0.62500000  0.87500000  0.25000000  1
  Mn  Mn5  1  0.35609800  0.60609800  0.25000000  1
  Mn  Mn6  1  0.75000000  0.78807500  0.00000000  1
  Mn  Mn7  1  0.25000000  0.71192500  0.00000000  1
  Mn  Mn8  1  0.12500000  0.37500000  0.25000000  1
  Mn  Mn9  1  0.10609800  0.85609800  0.75000000  1
  Mn  Mn10  1  0.14390200  0.35609800  0.75000000  1
  Mn  Mn11  1  0.50000000  0.00000000  0.50000000  1
  Mn  Mn12  1  0.00000000  0.50000000  0.50000000  1
  Mn  Mn13  1  0.71192500  0.75000000  0.50000000  1
  Mn  Mn14  1  0.39390200  0.10609800  0.25000000  1
  Mn  Mn15  1  0.25000000  0.21192500  0.00000000  1
  Mn  Mn16  1  0.60609800  0.89390200  0.75000000  1
  Mn  Mn17  1  0.00000000  0.00000000  0.50000000  1
  Mn  Mn18  1  0.64390200  0.39390200  0.75000000  1
  Mn  Mn19  1  0.00000000  0.50000000  0.00000000  1
  Mn  Mn20  1  0.50000000  0.50000000  0.50000000  1
  Mn  Mn21  1  0.85609800  0.64390200  0.25000000  1
  Mn  Mn22  1  0.28807500  0.25000000  0.50000000  1
  Mn  Mn23  1  0.89390200  0.14390200  0.25000000  1
  Mn  Mn24  1  0.37500000  0.12500000  0.75000000  1
  Mn  Mn25  1  0.75000000  0.28807500  0.00000000  1
  Mn  Mn26  1  0.50000000  0.50000000  0.00000000  1
  Mn  Mn27  1  0.50000000  0.00000000  0.00000000  1
  Ge  Ge28  1  0.12500000  0.87500000  0.25000000  1
  Ge  Ge29  1  0.87500000  0.12500000  0.75000000  1
  Ge  Ge30  1  0.37500000  0.62500000  0.75000000  1
  Ge  Ge31  1  0.62500000  0.37500000  0.25000000  1
  O  O32  1  0.37096500  0.29930500  0.38469100  1
  O  O33  1  0.94370400  0.15605200  0.64446600  1
  O  O34  1  0.08538600  0.51372600  0.88469100  1
  O  O35  1  0.29923800  0.01158600  0.35553400  1
  O  O36  1  0.01158600  0.05629600  0.85553400  1
  O  O37  1  0.91461400  0.48627400  0.11530900  1
  O  O38  1  0.15605200  0.70076200  0.14446600  1
  O  O39  1  0.65605200  0.44370400  0.14446600  1
  O  O40  1  0.87096500  0.08538600  0.38469100  1
  O  O41  1  0.70069500  0.98627400  0.11530900  1
  O  O42  1  0.34394800  0.55629600  0.85553400  1
  O  O43  1  0.70076200  0.98841400  0.64446600  1
  O  O44  1  0.98841400  0.94370400  0.14446600  1
  O  O45  1  0.59218400  0.09417000  0.88774600  1
  O  O46  1  0.20443700  0.40583000  0.11225400  1
  O  O47  1  0.90583000  0.70443700  0.61225400  1
  O  O48  1  0.12903500  0.91461400  0.61530900  1
  O  O49  1  0.98627400  0.41461400  0.61530900  1
  O  O50  1  0.79930500  0.87096500  0.88469100  1
  O  O51  1  0.09417000  0.29556300  0.38774600  1
  O  O52  1  0.40583000  0.90781600  0.61225400  1
  O  O53  1  0.79923800  0.34394800  0.35553400  1
  O  O54  1  0.48627400  0.20069500  0.61530900  1
  O  O55  1  0.79357600  0.79556300  0.38774600  1
  O  O56  1  0.20642400  0.20443700  0.61225400  1
  O  O57  1  0.51372600  0.79930500  0.38469100  1
  O  O58  1  0.70642400  0.40781600  0.61225400  1
  O  O59  1  0.62903500  0.70069500  0.61530900  1
  O  O60  1  0.05629600  0.84394800  0.35553400  1
  O  O61  1  0.59417000  0.09218400  0.38774600  1
  O  O62  1  0.29556300  0.29357600  0.88774600  1
  O  O63  1  0.20076200  0.65605200  0.64446600  1
  O  O64  1  0.48841400  0.20076200  0.14446600  1
  O  O65  1  0.51158600  0.79923800  0.85553400  1
  O  O66  1  0.90781600  0.20642400  0.11225400  1
  O  O67  1  0.40781600  0.90583000  0.11225400  1
  O  O68  1  0.44370400  0.48841400  0.64446600  1
  O  O69  1  0.79556300  0.59417000  0.88774600  1
  O  O70  1  0.55629600  0.51158600  0.35553400  1
  O  O71  1  0.29930500  0.01372600  0.88469100  1
  O  O72  1  0.29357600  0.59218400  0.38774600  1
  O  O73  1  0.70443700  0.70642400  0.11225400  1
  O  O74  1  0.20069500  0.12903500  0.11530900  1
  O  O75  1  0.01372600  0.58538600  0.38469100  1
  O  O76  1  0.84394800  0.29923800  0.85553400  1
  O  O77  1  0.09218400  0.79357600  0.88774600  1
  O  O78  1  0.41461400  0.62903500  0.11530900  1
  O  O79  1  0.58538600  0.37096500  0.88469100  1
