# generated using pymatgen
data_Gd2MnSbO7
_symmetry_space_group_name_H-M   'P 1'
_cell_length_a   7.37107340
_cell_length_b   7.37107340
_cell_length_c   7.37107340
_cell_angle_alpha   121.55715271
_cell_angle_beta   118.65754580
_cell_angle_gamma   89.83256739
_symmetry_Int_Tables_number   1
_chemical_formula_structural   Gd2MnSbO7
_chemical_formula_sum   'Gd4 Mn2 Sb2 O14'
_cell_volume   282.50159595
_cell_formula_units_Z   2
loop_
 _symmetry_equiv_pos_site_id
 _symmetry_equiv_pos_as_xyz
  1  'x, y, z'
loop_
 _atom_site_type_symbol
 _atom_site_label
 _atom_site_symmetry_multiplicity
 _atom_site_fract_x
 _atom_site_fract_y
 _atom_site_fract_z
 _atom_site_occupancy
  Gd  Gd0  1  0.00000000  0.00000000  0.50000000  1
  Gd  Gd1  1  0.00000000  0.50000000  0.00000000  1
  Gd  Gd2  1  0.00000000  0.00000000  0.00000000  1
  Gd  Gd3  1  0.50000000  0.00000000  0.50000000  1
  Mn  Mn4  1  0.50000000  0.50000000  0.50000000  1
  Mn  Mn5  1  0.50000000  0.00000000  0.00000000  1
  Sb  Sb6  1  0.50000000  0.50000000  0.00000000  1
  Sb  Sb7  1  0.00000000  0.50000000  0.50000000  1
  O  O8  1  0.12726100  0.87726100  0.25000000  1
  O  O9  1  0.87273900  0.12273900  0.75000000  1
  O  O10  1  0.42001700  0.17001700  0.25000000  1
  O  O11  1  0.82747100  0.57747100  0.25000000  1
  O  O12  1  0.40974000  0.58135700  0.24054900  1
  O  O13  1  0.84080700  0.16919000  0.25945100  1
  O  O14  1  0.40974000  0.16919000  0.82838300  1
  O  O15  1  0.84080700  0.58135700  0.67161700  1
  O  O16  1  0.57998300  0.82998300  0.75000000  1
  O  O17  1  0.17252900  0.42252900  0.75000000  1
  O  O18  1  0.59026000  0.41864300  0.75945100  1
  O  O19  1  0.15919300  0.83081000  0.74054900  1
  O  O20  1  0.59026000  0.83081000  0.17161700  1
  O  O21  1  0.15919300  0.41864300  0.32838300  1
