# generated using pymatgen
data_HoCrO4
_symmetry_space_group_name_H-M   'P 1'
_cell_length_a   5.97027521
_cell_length_b   5.97027521
_cell_length_c   5.97027521
_cell_angle_alpha   106.01892041
_cell_angle_beta   106.01892041
_cell_angle_gamma   116.62123545
_symmetry_Int_Tables_number   1
_chemical_formula_structural   HoCrO4
_chemical_formula_sum   'Ho2 Cr2 O8'
_cell_volume   161.88167854
_cell_formula_units_Z   2
loop_
 _symmetry_equiv_pos_site_id
 _symmetry_equiv_pos_as_xyz
  1  'x, y, z'
loop_
 _atom_site_type_symbol
 _atom_site_label
 _atom_site_symmetry_multiplicity
 _atom_site_fract_x
 _atom_site_fract_y
 _atom_site_fract_z
 _atom_site_occupancy
  Ho  Ho0  1  0.00000000  0.00000000  0.00000000  1
  Ho  Ho1  1  0.25000000  0.75000000  0.50000000  1
  Cr  Cr2  1  0.75000000  0.25000000  0.50000000  1
  Cr  Cr3  1  0.50000000  0.50000000  0.00000000  1
  O  O4  1  0.32455400  0.50915700  0.18460300  1
  O  O5  1  0.38995200  0.07455400  0.31539700  1
  O  O6  1  0.75915700  0.07455400  0.68460300  1
  O  O7  1  0.32455400  0.13995200  0.81539700  1
  O  O8  1  0.86004800  0.67544600  0.18460300  1
  O  O9  1  0.92544600  0.24084300  0.31539700  1
  O  O10  1  0.92544600  0.61004800  0.68460300  1
  O  O11  1  0.49084300  0.67544600  0.81539700  1
