# generated using pymatgen
data_KLiMoO4
_symmetry_space_group_name_H-M   'P 1'
_cell_length_a   9.18056900
_cell_length_b   9.63325200
_cell_length_c   19.33969284
_cell_angle_alpha   60.37146345
_cell_angle_beta   90.00000000
_cell_angle_gamma   90.00000000
_symmetry_Int_Tables_number   1
_chemical_formula_structural   KLiMoO4
_chemical_formula_sum   'K12 Li12 Mo12 O48'
_cell_volume   1486.74401091
_cell_formula_units_Z   12
loop_
 _symmetry_equiv_pos_site_id
 _symmetry_equiv_pos_as_xyz
  1  'x, y, z'
loop_
 _atom_site_type_symbol
 _atom_site_label
 _atom_site_symmetry_multiplicity
 _atom_site_fract_x
 _atom_site_fract_y
 _atom_site_fract_z
 _atom_site_occupancy
  K  K0  1  0.47056100  0.84980300  0.91163500  1
  K  K1  1  0.52943900  0.15019700  0.08836500  1
  K  K2  1  0.97056100  0.15019700  0.58836500  1
  K  K3  1  0.02943900  0.84980300  0.41163500  1
  K  K4  1  0.00865600  0.50147700  0.75166600  1
  K  K5  1  0.99134400  0.49852300  0.24833400  1
  K  K6  1  0.50865600  0.49852300  0.74833400  1
  K  K7  1  0.49134400  0.50147700  0.25166600  1
  K  K8  1  0.03681500  0.80357500  0.93012300  1
  K  K9  1  0.96318500  0.19642500  0.06987700  1
  K  K10  1  0.53681500  0.19642500  0.56987700  1
  K  K11  1  0.46318500  0.80357500  0.43012300  1
  Li  Li12  1  0.67025000  0.84087100  0.59082500  1
  Li  Li13  1  0.32975000  0.15912900  0.40917500  1
  Li  Li14  1  0.17025000  0.15912900  0.90917500  1
  Li  Li15  1  0.82975000  0.84087100  0.09082500  1
  Li  Li16  1  0.17104200  0.51847900  0.57986500  1
  Li  Li17  1  0.82895800  0.48152100  0.42013500  1
  Li  Li18  1  0.67104200  0.48152100  0.92013500  1
  Li  Li19  1  0.32895800  0.51847900  0.07986500  1
  Li  Li20  1  0.16909600  0.82272600  0.76045300  1
  Li  Li21  1  0.83090400  0.17727400  0.23954700  1
  Li  Li22  1  0.66909600  0.17727400  0.73954700  1
  Li  Li23  1  0.33090400  0.82272600  0.26045300  1
  Mo  Mo24  1  0.28662500  0.47598800  0.91806400  1
  Mo  Mo25  1  0.71337500  0.52401200  0.08193600  1
  Mo  Mo26  1  0.78662500  0.52401200  0.58193600  1
  Mo  Mo27  1  0.21337500  0.47598800  0.41806400  1
  Mo  Mo28  1  0.28460300  0.84056900  0.59267600  1
  Mo  Mo29  1  0.71539700  0.15943100  0.40732400  1
  Mo  Mo30  1  0.78460300  0.15943100  0.90732400  1
  Mo  Mo31  1  0.21539700  0.84056900  0.09267600  1
  Mo  Mo32  1  0.78286400  0.81335100  0.76327000  1
  Mo  Mo33  1  0.21713600  0.18664900  0.23673000  1
  Mo  Mo34  1  0.28286400  0.18664900  0.73673000  1
  Mo  Mo35  1  0.71713600  0.81335100  0.26327000  1
  O  O36  1  0.26678100  0.61249900  0.81352900  1
  O  O37  1  0.73321900  0.38750100  0.18647100  1
  O  O38  1  0.76678100  0.38750100  0.68647100  1
  O  O39  1  0.23321900  0.61249900  0.31352900  1
  O  O40  1  0.25439600  0.57962000  0.97288100  1
  O  O41  1  0.74560400  0.42038000  0.02711900  1
  O  O42  1  0.75439600  0.42038000  0.52711900  1
  O  O43  1  0.24560400  0.57962000  0.47288100  1
  O  O44  1  0.15741200  0.89636500  0.64566600  1
  O  O45  1  0.84258800  0.10363500  0.35433400  1
  O  O46  1  0.65741200  0.10363500  0.85433400  1
  O  O47  1  0.34258800  0.89636500  0.14566600  1
  O  O48  1  0.25236800  0.94803700  0.98739300  1
  O  O49  1  0.74763200  0.05196300  0.01260700  1
  O  O50  1  0.75236800  0.05196300  0.51260700  1
  O  O51  1  0.24763200  0.94803700  0.48739300  1
  O  O52  1  0.16061000  0.31266100  0.94919700  1
  O  O53  1  0.83939000  0.68733900  0.05080300  1
  O  O54  1  0.66061000  0.68733900  0.55080300  1
  O  O55  1  0.33939000  0.31266100  0.44919700  1
  O  O56  1  0.25037900  0.97457300  0.79020700  1
  O  O57  1  0.74962100  0.02542700  0.20979300  1
  O  O58  1  0.75037900  0.02542700  0.70979300  1
  O  O59  1  0.24962100  0.97457300  0.29020700  1
  O  O60  1  0.76522800  0.73578500  0.69601700  1
  O  O61  1  0.23477200  0.26421500  0.30398300  1
  O  O62  1  0.26522800  0.26421500  0.80398300  1
  O  O63  1  0.73477200  0.73578500  0.19601700  1
  O  O64  1  0.15793100  0.28563900  0.65490600  1
  O  O65  1  0.84206900  0.71436100  0.34509400  1
  O  O66  1  0.65793100  0.71436100  0.84509400  1
  O  O67  1  0.34206900  0.28563900  0.15490600  1
  O  O68  1  0.46641700  0.88422700  0.60995500  1
  O  O69  1  0.53358300  0.11577300  0.39004500  1
  O  O70  1  0.96641700  0.11577300  0.89004500  1
  O  O71  1  0.03358300  0.88422700  0.10995500  1
  O  O72  1  0.96599900  0.77393100  0.80129000  1
  O  O73  1  0.03400100  0.22606900  0.19871000  1
  O  O74  1  0.46599900  0.22606900  0.69871000  1
  O  O75  1  0.53400100  0.77393100  0.30129000  1
  O  O76  1  0.27500500  0.62966300  0.62747700  1
  O  O77  1  0.72499500  0.37033700  0.37252300  1
  O  O78  1  0.77500500  0.37033700  0.87252300  1
  O  O79  1  0.22499500  0.62966300  0.12747700  1
  O  O80  1  0.96917500  0.60040800  0.56409200  1
  O  O81  1  0.03082500  0.39959200  0.43590800  1
  O  O82  1  0.46917500  0.39959200  0.93590800  1
  O  O83  1  0.53082500  0.60040800  0.06409200  1
