# generated using pymatgen
data_Cs2PH3SeO8
_symmetry_space_group_name_H-M   'P 1'
_cell_length_a   12.48301800
_cell_length_b   8.03139900
_cell_length_c   10.36491897
_cell_angle_alpha   90.00000000
_cell_angle_beta   90.81825553
_cell_angle_gamma   90.00000000
_symmetry_Int_Tables_number   1
_chemical_formula_structural   Cs2PH3SeO8
_chemical_formula_sum   'Cs8 P4 H12 Se4 O32'
_cell_volume   1039.04036725
_cell_formula_units_Z   4
loop_
 _symmetry_equiv_pos_site_id
 _symmetry_equiv_pos_as_xyz
  1  'x, y, z'
loop_
 _atom_site_type_symbol
 _atom_site_label
 _atom_site_symmetry_multiplicity
 _atom_site_fract_x
 _atom_site_fract_y
 _atom_site_fract_z
 _atom_site_occupancy
  Cs  Cs0  1  0.55399000  0.16492200  0.83500900  1
  Cs  Cs1  1  0.44601000  0.66492200  0.66499100  1
  Cs  Cs2  1  0.44601000  0.83507800  0.16499100  1
  Cs  Cs3  1  0.55399000  0.33507800  0.33500900  1
  Cs  Cs4  1  0.06156200  0.16164200  0.32537100  1
  Cs  Cs5  1  0.93843800  0.66164200  0.17462900  1
  Cs  Cs6  1  0.93843800  0.83835800  0.67462900  1
  Cs  Cs7  1  0.06156200  0.33835800  0.82537100  1
  P  P8  1  0.32524000  0.16787100  0.57407800  1
  P  P9  1  0.67476000  0.66787100  0.92592200  1
  P  P10  1  0.67476000  0.83212900  0.42592200  1
  P  P11  1  0.32524000  0.33212900  0.07407800  1
  H  H12  1  0.20241700  0.37683500  0.57001500  1
  H  H13  1  0.79758300  0.87683500  0.92998500  1
  H  H14  1  0.79758300  0.62316500  0.42998500  1
  H  H15  1  0.20241700  0.12316500  0.07001500  1
  H  H16  1  0.74243100  0.99484500  0.26580200  1
  H  H17  1  0.25756900  0.49484500  0.23419800  1
  H  H18  1  0.25756900  0.00515500  0.73419800  1
  H  H19  1  0.74243100  0.50515500  0.76580200  1
  H  H20  1  0.31065200  0.94972500  0.43769300  1
  H  H21  1  0.68934800  0.44972500  0.06230700  1
  H  H22  1  0.68934800  0.05027500  0.56230700  1
  H  H23  1  0.31065200  0.55027500  0.93769300  1
  Se  Se24  1  0.82360300  0.16630600  0.06792500  1
  Se  Se25  1  0.17639700  0.66630600  0.43207500  1
  Se  Se26  1  0.17639700  0.83369400  0.93207500  1
  Se  Se27  1  0.82360300  0.33369400  0.56792500  1
  O  O28  1  0.41471900  0.29104100  0.58810900  1
  O  O29  1  0.58528100  0.79104100  0.91189100  1
  O  O30  1  0.58528100  0.70895900  0.41189100  1
  O  O31  1  0.41471900  0.20895900  0.08810900  1
  O  O32  1  0.32749100  0.02946600  0.68209100  1
  O  O33  1  0.67250900  0.52946600  0.81790900  1
  O  O34  1  0.67250900  0.97053400  0.31790900  1
  O  O35  1  0.32749100  0.47053400  0.18209100  1
  O  O36  1  0.33297000  0.07339200  0.44008900  1
  O  O37  1  0.66703000  0.57339200  0.05991100  1
  O  O38  1  0.66703000  0.92660800  0.55991100  1
  O  O39  1  0.33297000  0.42660800  0.94008900  1
  O  O40  1  0.20949500  0.24798100  0.57900700  1
  O  O41  1  0.79050500  0.74798100  0.92099300  1
  O  O42  1  0.79050500  0.75201900  0.42099300  1
  O  O43  1  0.20949500  0.25201900  0.07900700  1
  O  O44  1  0.92312400  0.30306200  0.07247100  1
  O  O45  1  0.07687600  0.80306200  0.42752900  1
  O  O46  1  0.07687600  0.69693800  0.92752900  1
  O  O47  1  0.92312400  0.19693800  0.57247100  1
  O  O48  1  0.70415700  0.26131000  0.08262200  1
  O  O49  1  0.29584300  0.76131000  0.41737800  1
  O  O50  1  0.29584300  0.73869000  0.91737800  1
  O  O51  1  0.70415700  0.23869000  0.58262200  1
  O  O52  1  0.84001900  0.02906400  0.19054600  1
  O  O53  1  0.15998100  0.52906400  0.30945400  1
  O  O54  1  0.15998100  0.97093600  0.80945400  1
  O  O55  1  0.84001900  0.47093600  0.69054600  1
  O  O56  1  0.82394700  0.06032800  0.92751600  1
  O  O57  1  0.17605300  0.56032800  0.57248400  1
  O  O58  1  0.17605300  0.93967200  0.07248400  1
  O  O59  1  0.82394700  0.43967200  0.42751600  1
