# generated using pymatgen
data_KGe
_symmetry_space_group_name_H-M   'P 1'
_cell_length_a   11.72090219
_cell_length_b   11.72090219
_cell_length_c   11.72090219
_cell_angle_alpha   124.70668735
_cell_angle_beta   124.70668735
_cell_angle_gamma   82.02442420
_symmetry_Int_Tables_number   1
_chemical_formula_structural   KGe
_chemical_formula_sum   'K16 Ge16'
_cell_volume   1046.43259412
_cell_formula_units_Z   16
loop_
 _symmetry_equiv_pos_site_id
 _symmetry_equiv_pos_as_xyz
  1  'x, y, z'
loop_
 _atom_site_type_symbol
 _atom_site_label
 _atom_site_symmetry_multiplicity
 _atom_site_fract_x
 _atom_site_fract_y
 _atom_site_fract_z
 _atom_site_occupancy
  K  K0  1  0.75898700  0.37500000  0.88398700  1
  K  K1  1  0.25898700  0.37500000  0.38398700  1
  K  K2  1  0.62500000  0.50898700  0.38398700  1
  K  K3  1  0.12500000  0.74101300  0.11601300  1
  K  K4  1  0.99101300  0.87500000  0.61601300  1
  K  K5  1  0.49101300  0.87500000  0.11601300  1
  K  K6  1  0.62500000  0.00898700  0.88398700  1
  K  K7  1  0.12500000  0.24101300  0.61601300  1
  K  K8  1  0.87321500  0.87321500  0.24643100  1
  K  K9  1  0.37321500  0.12678500  0.00000000  1
  K  K10  1  0.12321500  0.62321500  0.74643100  1
  K  K11  1  0.62321500  0.87678500  0.50000000  1
  K  K12  1  0.87678500  0.37678500  0.25356900  1
  K  K13  1  0.37678500  0.12321500  0.50000000  1
  K  K14  1  0.62678500  0.62678500  0.75356900  1
  K  K15  1  0.12678500  0.37321500  0.00000000  1
  Ge  Ge16  1  0.50532400  0.34188100  0.95095900  1
  Ge  Ge17  1  0.00532400  0.05436600  0.16344400  1
  Ge  Ge18  1  0.59188100  0.25532400  0.45095900  1
  Ge  Ge19  1  0.09188100  0.64092200  0.33655600  1
  Ge  Ge20  1  0.24467600  0.90811900  0.54904100  1
  Ge  Ge21  1  0.74467600  0.19563400  0.33655600  1
  Ge  Ge22  1  0.15811900  0.99467600  0.04904100  1
  Ge  Ge23  1  0.65811900  0.60907800  0.16344400  1
  Ge  Ge24  1  0.89092200  0.84188100  0.83655600  1
  Ge  Ge25  1  0.39092200  0.55436600  0.04904100  1
  Ge  Ge26  1  0.30436600  0.75532400  0.66344400  1
  Ge  Ge27  1  0.80436600  0.14092200  0.54904100  1
  Ge  Ge28  1  0.85907800  0.40811900  0.66344400  1
  Ge  Ge29  1  0.35907800  0.69563400  0.45095900  1
  Ge  Ge30  1  0.44563400  0.49467600  0.83655600  1
  Ge  Ge31  1  0.94563400  0.10907800  0.95095900  1
