# generated using pymatgen
data_PrTlP2S7
_symmetry_space_group_name_H-M   'P 1'
_cell_length_a   12.52466700
_cell_length_b   9.13697500
_cell_length_c   9.89608838
_cell_angle_alpha   89.55136004
_cell_angle_beta   90.00000000
_cell_angle_gamma   90.00000000
_symmetry_Int_Tables_number   1
_chemical_formula_structural   PrTlP2S7
_chemical_formula_sum   'Pr4 Tl4 P8 S28'
_cell_volume   1132.44958134
_cell_formula_units_Z   4
loop_
 _symmetry_equiv_pos_site_id
 _symmetry_equiv_pos_as_xyz
  1  'x, y, z'
loop_
 _atom_site_type_symbol
 _atom_site_label
 _atom_site_symmetry_multiplicity
 _atom_site_fract_x
 _atom_site_fract_y
 _atom_site_fract_z
 _atom_site_occupancy
  Pr  Pr0  1  0.64278000  0.10779000  0.14365100  1
  Pr  Pr1  1  0.14278000  0.39221000  0.85634900  1
  Pr  Pr2  1  0.35722000  0.89221000  0.85634900  1
  Pr  Pr3  1  0.85722000  0.60779000  0.14365100  1
  Tl  Tl4  1  0.81074400  0.37175400  0.60346000  1
  Tl  Tl5  1  0.31074400  0.12824600  0.39654000  1
  Tl  Tl6  1  0.18925600  0.62824600  0.39654000  1
  Tl  Tl7  1  0.68925600  0.87175400  0.60346000  1
  P  P8  1  0.03736100  0.30228200  0.18824600  1
  P  P9  1  0.53736100  0.19771800  0.81175400  1
  P  P10  1  0.96263900  0.69771800  0.81175400  1
  P  P11  1  0.46263900  0.80228200  0.18824600  1
  P  P12  1  0.59997100  0.47809100  0.27567400  1
  P  P13  1  0.09997100  0.02190900  0.72432600  1
  P  P14  1  0.40002900  0.52190900  0.72432600  1
  P  P15  1  0.90002900  0.97809100  0.27567400  1
  S  S16  1  0.05423000  0.07871400  0.25222500  1
  S  S17  1  0.55423000  0.42128600  0.74777500  1
  S  S18  1  0.94577000  0.92128600  0.74777500  1
  S  S19  1  0.44577000  0.57871400  0.25222500  1
  S  S20  1  0.19254800  0.35324000  0.14918900  1
  S  S21  1  0.69254800  0.14676000  0.85081100  1
  S  S22  1  0.80745200  0.64676000  0.85081100  1
  S  S23  1  0.30745200  0.85324000  0.14918900  1
  S  S24  1  0.97793000  0.42948700  0.33717000  1
  S  S25  1  0.47793000  0.07051300  0.66283000  1
  S  S26  1  0.02207000  0.57051300  0.66283000  1
  S  S27  1  0.52207000  0.92948700  0.33717000  1
  S  S28  1  0.94170400  0.32061100  0.02231000  1
  S  S29  1  0.44170400  0.17938900  0.97769000  1
  S  S30  1  0.05829600  0.67938900  0.97769000  1
  S  S31  1  0.55829600  0.82061100  0.02231000  1
  S  S32  1  0.79489400  0.11000400  0.37241000  1
  S  S33  1  0.29489400  0.38999600  0.62759000  1
  S  S34  1  0.20510600  0.88999600  0.62759000  1
  S  S35  1  0.70510600  0.61000400  0.37241000  1
  S  S36  1  0.55590900  0.29047800  0.36916600  1
  S  S37  1  0.05590900  0.20952200  0.63083400  1
  S  S38  1  0.44409100  0.70952200  0.63083400  1
  S  S39  1  0.94409100  0.79047800  0.36916600  1
  S  S40  1  0.66432700  0.43066900  0.09144500  1
  S  S41  1  0.16432700  0.06933100  0.90855500  1
  S  S42  1  0.33567300  0.56933100  0.90855500  1
  S  S43  1  0.83567300  0.93066900  0.09144500  1
