# generated using pymatgen
data_Rb2Si2Se5
_symmetry_space_group_name_H-M   'P 1'
_cell_length_a   11.52559315
_cell_length_b   11.52559315
_cell_length_c   9.57690002
_cell_angle_alpha   79.16128837
_cell_angle_beta   79.16128837
_cell_angle_gamma   90.10730361
_symmetry_Int_Tables_number   1
_chemical_formula_structural   Rb2Si2Se5
_chemical_formula_sum   'Rb8 Si8 Se20'
_cell_volume   1226.28841445
_cell_formula_units_Z   4
loop_
 _symmetry_equiv_pos_site_id
 _symmetry_equiv_pos_as_xyz
  1  'x, y, z'
loop_
 _atom_site_type_symbol
 _atom_site_label
 _atom_site_symmetry_multiplicity
 _atom_site_fract_x
 _atom_site_fract_y
 _atom_site_fract_z
 _atom_site_occupancy
  Rb  Rb0  1  0.29022100  0.02125600  0.62092700  1
  Rb  Rb1  1  0.70977900  0.97874400  0.37907300  1
  Rb  Rb2  1  0.97874400  0.70977900  0.87907300  1
  Rb  Rb3  1  0.02125600  0.29022100  0.12092700  1
  Rb  Rb4  1  0.55989900  0.70863200  0.87208000  1
  Rb  Rb5  1  0.44010100  0.29136800  0.12792000  1
  Rb  Rb6  1  0.29136800  0.44010100  0.62792000  1
  Rb  Rb7  1  0.70863200  0.55989900  0.37208000  1
  Si  Si8  1  0.63992800  0.23054600  0.61614900  1
  Si  Si9  1  0.36007200  0.76945400  0.38385100  1
  Si  Si10  1  0.76945400  0.36007200  0.88385100  1
  Si  Si11  1  0.23054600  0.63992800  0.11614900  1
  Si  Si12  1  0.76652500  0.02751800  0.89930900  1
  Si  Si13  1  0.23347500  0.97248200  0.10069100  1
  Si  Si14  1  0.97248200  0.23347500  0.60069100  1
  Si  Si15  1  0.02751800  0.76652500  0.39930900  1
  Se  Se16  1  0.74416400  0.17594600  0.03807700  1
  Se  Se17  1  0.25583600  0.82405400  0.96192300  1
  Se  Se18  1  0.82405400  0.25583600  0.46192300  1
  Se  Se19  1  0.17594600  0.74416400  0.53807700  1
  Se  Se20  1  0.61520500  0.04524700  0.76507100  1
  Se  Se21  1  0.38479500  0.95475300  0.23492900  1
  Se  Se22  1  0.95475300  0.38479500  0.73492900  1
  Se  Se23  1  0.04524700  0.61520500  0.26507100  1
  Se  Se24  1  0.61837100  0.38162900  0.75000000  1
  Se  Se25  1  0.38162900  0.61837100  0.25000000  1
  Se  Se26  1  0.49207100  0.74665100  0.52473900  1
  Se  Se27  1  0.50792900  0.25334900  0.47526100  1
  Se  Se28  1  0.25334900  0.50792900  0.97526100  1
  Se  Se29  1  0.74665100  0.49207100  0.02473900  1
  Se  Se30  1  0.74244800  0.85594400  0.04849300  1
  Se  Se31  1  0.25755200  0.14405600  0.95150700  1
  Se  Se32  1  0.14405600  0.25755200  0.45150700  1
  Se  Se33  1  0.85594400  0.74244800  0.54849300  1
  Se  Se34  1  0.95242400  0.04757600  0.75000000  1
  Se  Se35  1  0.04757600  0.95242400  0.25000000  1
