# generated using pymatgen
data_EuHfS3
_symmetry_space_group_name_H-M   'P 1'
_cell_length_a   6.69049500
_cell_length_b   7.09715000
_cell_length_c   9.71806300
_cell_angle_alpha   90.00000000
_cell_angle_beta   90.00000000
_cell_angle_gamma   90.00000000
_symmetry_Int_Tables_number   1
_chemical_formula_structural   EuHfS3
_chemical_formula_sum   'Eu4 Hf4 S12'
_cell_volume   461.44712541
_cell_formula_units_Z   4
loop_
 _symmetry_equiv_pos_site_id
 _symmetry_equiv_pos_as_xyz
  1  'x, y, z'
loop_
 _atom_site_type_symbol
 _atom_site_label
 _atom_site_symmetry_multiplicity
 _atom_site_fract_x
 _atom_site_fract_y
 _atom_site_fract_z
 _atom_site_occupancy
  Eu  Eu0  1  0.47405100  0.58398900  0.25000000  1
  Eu  Eu1  1  0.02594900  0.08398900  0.25000000  1
  Eu  Eu2  1  0.52594900  0.41601100  0.75000000  1
  Eu  Eu3  1  0.97405100  0.91601100  0.75000000  1
  Hf  Hf4  1  0.00000000  0.50000000  0.00000000  1
  Hf  Hf5  1  0.50000000  0.00000000  0.50000000  1
  Hf  Hf6  1  0.00000000  0.50000000  0.50000000  1
  Hf  Hf7  1  0.50000000  0.00000000  0.00000000  1
  S  S8  1  0.89790200  0.47832600  0.25000000  1
  S  S9  1  0.60209800  0.97832600  0.25000000  1
  S  S10  1  0.10209800  0.52167400  0.75000000  1
  S  S11  1  0.39790200  0.02167400  0.75000000  1
  S  S12  1  0.68902600  0.69435200  0.94796800  1
  S  S13  1  0.81097400  0.19435200  0.55203200  1
  S  S14  1  0.31097400  0.30564800  0.44796800  1
  S  S15  1  0.18902600  0.80564800  0.05203200  1
  S  S16  1  0.31097400  0.30564800  0.05203200  1
  S  S17  1  0.18902600  0.80564800  0.44796800  1
  S  S18  1  0.68902600  0.69435200  0.55203200  1
  S  S19  1  0.81097400  0.19435200  0.94796800  1
