# generated using pymatgen
data_CaCdPt
_symmetry_space_group_name_H-M   'P 1'
_cell_length_a   4.32546900
_cell_length_b   7.31456600
_cell_length_c   8.63142700
_cell_angle_alpha   90.00000000
_cell_angle_beta   90.00000000
_cell_angle_gamma   90.00000000
_symmetry_Int_Tables_number   1
_chemical_formula_structural   CaCdPt
_chemical_formula_sum   'Ca4 Cd4 Pt4'
_cell_volume   273.08910155
_cell_formula_units_Z   4
loop_
 _symmetry_equiv_pos_site_id
 _symmetry_equiv_pos_as_xyz
  1  'x, y, z'
loop_
 _atom_site_type_symbol
 _atom_site_label
 _atom_site_symmetry_multiplicity
 _atom_site_fract_x
 _atom_site_fract_y
 _atom_site_fract_z
 _atom_site_occupancy
  Ca  Ca0  1  0.25000000  0.03521300  0.32319500  1
  Ca  Ca1  1  0.25000000  0.53521300  0.17680500  1
  Ca  Ca2  1  0.75000000  0.96478700  0.67680500  1
  Ca  Ca3  1  0.75000000  0.46478700  0.82319500  1
  Cd  Cd4  1  0.25000000  0.14222500  0.93657700  1
  Cd  Cd5  1  0.25000000  0.64222500  0.56342300  1
  Cd  Cd6  1  0.75000000  0.85777500  0.06342300  1
  Cd  Cd7  1  0.75000000  0.35777500  0.43657700  1
  Pt  Pt8  1  0.25000000  0.25819400  0.62927400  1
  Pt  Pt9  1  0.25000000  0.75819400  0.87072600  1
  Pt  Pt10  1  0.75000000  0.74180600  0.37072600  1
  Pt  Pt11  1  0.75000000  0.24180600  0.12927400  1
