# generated using pymatgen
data_LuMn2SiC
_symmetry_space_group_name_H-M   'P 1'
_cell_length_a   3.63652900
_cell_length_b   5.58296183
_cell_length_c   6.95767100
_cell_angle_alpha   90.00000000
_cell_angle_beta   90.00000000
_cell_angle_gamma   109.00684271
_symmetry_Int_Tables_number   1
_chemical_formula_structural   LuMn2SiC
_chemical_formula_sum   'Lu2 Mn4 Si2 C2'
_cell_volume   133.55735366
_cell_formula_units_Z   2
loop_
 _symmetry_equiv_pos_site_id
 _symmetry_equiv_pos_as_xyz
  1  'x, y, z'
loop_
 _atom_site_type_symbol
 _atom_site_label
 _atom_site_symmetry_multiplicity
 _atom_site_fract_x
 _atom_site_fract_y
 _atom_site_fract_z
 _atom_site_occupancy
  Lu  Lu0  1  0.45709600  0.91419100  0.25000000  1
  Lu  Lu1  1  0.54290400  0.08580900  0.75000000  1
  Mn  Mn2  1  0.16782100  0.33564100  0.06055000  1
  Mn  Mn3  1  0.83217900  0.66435900  0.93945000  1
  Mn  Mn4  1  0.83217900  0.66435900  0.56055000  1
  Mn  Mn5  1  0.16782100  0.33564100  0.43945000  1
  Si  Si6  1  0.73634400  0.47268800  0.25000000  1
  Si  Si7  1  0.26365600  0.52731200  0.75000000  1
  C  C8  1  0.00000000  0.00000000  0.00000000  1
  C  C9  1  0.00000000  0.00000000  0.50000000  1
