# generated using pymatgen
data_Tm4(Al8Pd3)3
_symmetry_space_group_name_H-M   'P 1'
_cell_length_a   7.48138814
_cell_length_b   7.56690887
_cell_length_c   13.25045865
_cell_angle_alpha   84.61407578
_cell_angle_beta   79.38529101
_cell_angle_gamma   60.06728254
_symmetry_Int_Tables_number   1
_chemical_formula_structural   Tm4(Al8Pd3)3
_chemical_formula_sum   'Tm4 Al24 Pd9'
_cell_volume   638.93873168
_cell_formula_units_Z   1
loop_
 _symmetry_equiv_pos_site_id
 _symmetry_equiv_pos_as_xyz
  1  'x, y, z'
loop_
 _atom_site_type_symbol
 _atom_site_label
 _atom_site_symmetry_multiplicity
 _atom_site_fract_x
 _atom_site_fract_y
 _atom_site_fract_z
 _atom_site_occupancy
  Tm  Tm0  1  0.39281400  0.16945400  0.80868100  1
  Tm  Tm1  1  0.60718600  0.83054600  0.19131900  1
  Tm  Tm2  1  0.73414700  0.49795500  0.80828500  1
  Tm  Tm3  1  0.26585300  0.50204500  0.19171500  1
  Al  Al4  1  0.68488900  0.83399200  0.94460200  1
  Al  Al5  1  0.31511100  0.16600800  0.05539800  1
  Al  Al6  1  0.14557900  0.83353700  0.56052600  1
  Al  Al7  1  0.85442100  0.16646300  0.43947400  1
  Al  Al8  1  0.47860100  0.16669200  0.55833500  1
  Al  Al9  1  0.52139900  0.83330800  0.44166500  1
  Al  Al10  1  0.21611700  0.16556400  0.32857700  1
  Al  Al11  1  0.78388300  0.83443600  0.67142300  1
  Al  Al12  1  0.43721300  0.50561100  0.67146600  1
  Al  Al13  1  0.56278700  0.49438900  0.32853400  1
  Al  Al14  1  0.10857400  0.16008100  0.67033000  1
  Al  Al15  1  0.89142600  0.83991900  0.32967000  1
  Al  Al16  1  0.35378000  0.49941400  0.94474800  1
  Al  Al17  1  0.64622000  0.50058600  0.05525200  1
  Al  Al18  1  0.01627400  0.16756200  0.95276500  1
  Al  Al19  1  0.98372600  0.83243800  0.04723500  1
  Al  Al20  1  0.18705800  0.49961800  0.44105800  1
  Al  Al21  1  0.81294200  0.50038200  0.55894200  1
  Al  Al22  1  0.73305500  0.16334300  0.18309900  1
  Al  Al23  1  0.26694500  0.83665700  0.81690100  1
  Al  Al24  1  0.06149600  0.63064500  0.81535200  1
  Al  Al25  1  0.93850400  0.36935500  0.18464800  1
  Al  Al26  1  0.85457800  0.04201400  0.81617900  1
  Al  Al27  1  0.14542200  0.95798600  0.18382100  1
  Pd  Pd28  1  0.11976400  0.49251600  0.63851800  1
  Pd  Pd29  1  0.88023600  0.50748400  0.36148200  1
  Pd  Pd30  1  0.65730500  0.17105600  0.99951800  1
  Pd  Pd31  1  0.34269500  0.82894400  0.00048200  1
  Pd  Pd32  1  0.53864200  0.16677800  0.36110400  1
  Pd  Pd33  1  0.46135800  0.83322100  0.63889600  1
  Pd  Pd34  1  0.77806600  0.17435600  0.63751400  1
  Pd  Pd35  1  0.22193400  0.82564400  0.36248600  1
  Pd  Pd36  1  0.00000000  0.50000000  0.00000000  1
