# generated using pymatgen
data_Zn15B6Rh17
_symmetry_space_group_name_H-M   'P 1'
_cell_length_a   2.88557500
_cell_length_b   11.21102200
_cell_length_c   14.99290800
_cell_angle_alpha   90.00000000
_cell_angle_beta   90.00000000
_cell_angle_gamma   90.00000000
_symmetry_Int_Tables_number   1
_chemical_formula_structural   Zn15B6Rh17
_chemical_formula_sum   'Zn15 B6 Rh17'
_cell_volume   485.02424418
_cell_formula_units_Z   1
loop_
 _symmetry_equiv_pos_site_id
 _symmetry_equiv_pos_as_xyz
  1  'x, y, z'
loop_
 _atom_site_type_symbol
 _atom_site_label
 _atom_site_symmetry_multiplicity
 _atom_site_fract_x
 _atom_site_fract_y
 _atom_site_fract_z
 _atom_site_occupancy
  Zn  Zn0  1  0.50000000  0.50000000  0.34757900  1
  Zn  Zn1  1  0.50000000  0.00000000  0.65341700  1
  Zn  Zn2  1  0.50000000  0.38565800  0.00284900  1
  Zn  Zn3  1  0.50000000  0.11668800  0.99229800  1
  Zn  Zn4  1  0.50000000  0.61434200  0.00284900  1
  Zn  Zn5  1  0.50000000  0.88331200  0.99229800  1
  Zn  Zn6  1  0.50000000  0.37467700  0.76957700  1
  Zn  Zn7  1  0.50000000  0.13011800  0.23567300  1
  Zn  Zn8  1  0.50000000  0.62532300  0.76957700  1
  Zn  Zn9  1  0.50000000  0.86988200  0.23567300  1
  Zn  Zn10  1  0.50000000  0.29769000  0.60135000  1
  Zn  Zn11  1  0.50000000  0.20294600  0.39968300  1
  Zn  Zn12  1  0.50000000  0.70231000  0.60135000  1
  Zn  Zn13  1  0.50000000  0.79705400  0.39968300  1
  Zn  Zn14  1  0.00000000  0.00000000  0.11889500  1
  B  B15  1  0.50000000  0.50000000  0.52991200  1
  B  B16  1  0.50000000  0.00000000  0.47045900  1
  B  B17  1  0.50000000  0.14390000  0.82072400  1
  B  B18  1  0.50000000  0.35513000  0.17883700  1
  B  B19  1  0.50000000  0.85610000  0.82072400  1
  B  B20  1  0.50000000  0.64487000  0.17883700  1
  Rh  Rh21  1  0.00000000  0.24968600  0.89202900  1
  Rh  Rh22  1  0.00000000  0.24222200  0.10698300  1
  Rh  Rh23  1  0.00000000  0.75031400  0.89202900  1
  Rh  Rh24  1  0.00000000  0.75777800  0.10698300  1
  Rh  Rh25  1  0.00000000  0.50000000  0.64133900  1
  Rh  Rh26  1  0.00000000  0.00000000  0.35664200  1
  Rh  Rh27  1  0.00000000  0.17582900  0.71757000  1
  Rh  Rh28  1  0.00000000  0.32619200  0.28187000  1
  Rh  Rh29  1  0.00000000  0.82417100  0.71757000  1
  Rh  Rh30  1  0.00000000  0.67380800  0.28187000  1
  Rh  Rh31  1  0.00000000  0.50000000  0.13877300  1
  Rh  Rh32  1  0.00000000  0.00000000  0.86254500  1
  Rh  Rh33  1  0.00000000  0.12160500  0.52976900  1
  Rh  Rh34  1  0.00000000  0.37818900  0.46989300  1
  Rh  Rh35  1  0.00000000  0.87839500  0.52976900  1
  Rh  Rh36  1  0.00000000  0.62181100  0.46989300  1
  Rh  Rh37  1  0.00000000  0.50000000  0.88222500  1
