# generated using pymatgen
data_CuPHO4
_symmetry_space_group_name_H-M   'P 1'
_cell_length_a   9.68906789
_cell_length_b   9.68906789
_cell_length_c   9.68906891
_cell_angle_alpha   114.70550135
_cell_angle_beta   114.70550135
_cell_angle_gamma   114.70550499
_symmetry_Int_Tables_number   1
_chemical_formula_structural   CuPHO4
_chemical_formula_sum   'Cu6 P6 H6 O24'
_cell_volume   522.45769816
_cell_formula_units_Z   6
loop_
 _symmetry_equiv_pos_site_id
 _symmetry_equiv_pos_as_xyz
  1  'x, y, z'
loop_
 _atom_site_type_symbol
 _atom_site_label
 _atom_site_symmetry_multiplicity
 _atom_site_fract_x
 _atom_site_fract_y
 _atom_site_fract_z
 _atom_site_occupancy
  Cu  Cu0  1  0.08089100  0.80769600  0.56418800  1
  Cu  Cu1  1  0.80769600  0.56418800  0.08089100  1
  Cu  Cu2  1  0.56418800  0.08089100  0.80769600  1
  Cu  Cu3  1  0.91910900  0.19230400  0.43581200  1
  Cu  Cu4  1  0.19230400  0.43581200  0.91910900  1
  Cu  Cu5  1  0.43581200  0.91910900  0.19230400  1
  P  P6  1  0.68614900  0.31485600  0.24946200  1
  P  P7  1  0.31485600  0.24946200  0.68614900  1
  P  P8  1  0.24946200  0.68614900  0.31485600  1
  P  P9  1  0.31385100  0.68514400  0.75053800  1
  P  P10  1  0.68514400  0.75053800  0.31385100  1
  P  P11  1  0.75053800  0.31385100  0.68514400  1
  H  H12  1  0.44096300  0.31622800  0.13179900  1
  H  H13  1  0.31622800  0.13179900  0.44096300  1
  H  H14  1  0.13179900  0.44096300  0.31622800  1
  H  H15  1  0.55903700  0.68377200  0.86820100  1
  H  H16  1  0.68377200  0.86820100  0.55903700  1
  H  H17  1  0.86820100  0.55903700  0.68377200  1
  O  O18  1  0.87031300  0.54876100  0.48162200  1
  O  O19  1  0.54876100  0.48162200  0.87031300  1
  O  O20  1  0.48162200  0.87031300  0.54876100  1
  O  O21  1  0.12968700  0.45123900  0.51837800  1
  O  O22  1  0.45123900  0.51837800  0.12968700  1
  O  O23  1  0.51837800  0.12968700  0.45123900  1
  O  O24  1  0.45639900  0.22644600  0.14573000  1
  O  O25  1  0.22644600  0.14573000  0.45639900  1
  O  O26  1  0.14573000  0.45639900  0.22644600  1
  O  O27  1  0.54360100  0.77355400  0.85427000  1
  O  O28  1  0.77355400  0.85427000  0.54360100  1
  O  O29  1  0.85427000  0.54360100  0.77355400  1
  O  O30  1  0.67167900  0.15352100  0.25966200  1
  O  O31  1  0.15352100  0.25966200  0.67167900  1
  O  O32  1  0.25966200  0.67167900  0.15352100  1
  O  O33  1  0.32832100  0.84647900  0.74033800  1
  O  O34  1  0.84647900  0.74033800  0.32832100  1
  O  O35  1  0.74033800  0.32832100  0.84647900  1
  O  O36  1  0.72289700  0.31036100  0.10889100  1
  O  O37  1  0.31036100  0.10889100  0.72289700  1
  O  O38  1  0.10889100  0.72289700  0.31036100  1
  O  O39  1  0.27710300  0.68963900  0.89110900  1
  O  O40  1  0.68963900  0.89110900  0.27710300  1
  O  O41  1  0.89110900  0.27710300  0.68963900  1
