# generated using pymatgen
data_SrMnP2O7
_symmetry_space_group_name_H-M   'P 1'
_cell_length_a   8.52476800
_cell_length_b   5.45037200
_cell_length_c   14.00350789
_cell_angle_alpha   67.20841735
_cell_angle_beta   90.00000000
_cell_angle_gamma   90.00000000
_symmetry_Int_Tables_number   1
_chemical_formula_structural   SrMnP2O7
_chemical_formula_sum   'Sr4 Mn4 P8 O28'
_cell_volume   599.84469773
_cell_formula_units_Z   4
loop_
 _symmetry_equiv_pos_site_id
 _symmetry_equiv_pos_as_xyz
  1  'x, y, z'
loop_
 _atom_site_type_symbol
 _atom_site_label
 _atom_site_symmetry_multiplicity
 _atom_site_fract_x
 _atom_site_fract_y
 _atom_site_fract_z
 _atom_site_occupancy
  Sr  Sr0  1  0.32989900  0.43661400  0.77600800  1
  Sr  Sr1  1  0.67010100  0.56338600  0.22399200  1
  Sr  Sr2  1  0.82989900  0.56338600  0.72399200  1
  Sr  Sr3  1  0.17010100  0.43661400  0.27600800  1
  Mn  Mn4  1  0.64567400  0.92659400  0.89600200  1
  Mn  Mn5  1  0.35432600  0.07340600  0.10399800  1
  Mn  Mn6  1  0.14567400  0.07340600  0.60399800  1
  Mn  Mn7  1  0.85432600  0.92659400  0.39600200  1
  P  P8  1  0.29611800  0.70490500  0.97982300  1
  P  P9  1  0.70388200  0.29509500  0.02017700  1
  P  P10  1  0.79611800  0.29509500  0.52017700  1
  P  P11  1  0.20388200  0.70490500  0.47982300  1
  P  P12  1  0.03346200  0.90913200  0.83813500  1
  P  P13  1  0.96653800  0.09086800  0.16186500  1
  P  P14  1  0.53346200  0.09086800  0.66186500  1
  P  P15  1  0.46653800  0.90913200  0.33813500  1
  O  O16  1  0.11795600  0.78985000  0.76824500  1
  O  O17  1  0.88204400  0.21015000  0.23175500  1
  O  O18  1  0.61795600  0.21015000  0.73175500  1
  O  O19  1  0.38204400  0.78985000  0.26824500  1
  O  O20  1  0.36231600  0.18204400  0.64906600  1
  O  O21  1  0.63768400  0.81795600  0.35093400  1
  O  O22  1  0.86231600  0.81795600  0.85093400  1
  O  O23  1  0.13768400  0.18204400  0.14906600  1
  O  O24  1  0.33269300  0.44171200  0.96835700  1
  O  O25  1  0.66730700  0.55828800  0.03164300  1
  O  O26  1  0.83269300  0.55828800  0.53164300  1
  O  O27  1  0.16730700  0.44171200  0.46835700  1
  O  O28  1  0.18590700  0.69514700  0.59052300  1
  O  O29  1  0.81409300  0.30485300  0.40947700  1
  O  O30  1  0.68590700  0.30485300  0.90947700  1
  O  O31  1  0.31409300  0.69514700  0.09052300  1
  O  O32  1  0.11178900  0.77508100  0.95278500  1
  O  O33  1  0.88821100  0.22491900  0.04721500  1
  O  O34  1  0.61178900  0.22491900  0.54721500  1
  O  O35  1  0.38821100  0.77508100  0.45278500  1
  O  O36  1  0.05312000  0.21044100  0.79963800  1
  O  O37  1  0.94688000  0.78955900  0.20036200  1
  O  O38  1  0.55312000  0.78955900  0.70036200  1
  O  O39  1  0.44688000  0.21044100  0.29963800  1
  O  O40  1  0.39125400  0.93788400  0.90205600  1
  O  O41  1  0.60874600  0.06211600  0.09794400  1
  O  O42  1  0.89125400  0.06211600  0.59794400  1
  O  O43  1  0.10874600  0.93788400  0.40205600  1
