# generated using pymatgen
data_Eu5Sn3H
_symmetry_space_group_name_H-M   'P 1'
_cell_length_a   9.65630323
_cell_length_b   9.65630323
_cell_length_c   9.65630323
_cell_angle_alpha   128.47363653
_cell_angle_beta   128.47363653
_cell_angle_gamma   75.85900211
_symmetry_Int_Tables_number   1
_chemical_formula_structural   Eu5Sn3H
_chemical_formula_sum   'Eu10 Sn6 H2'
_cell_volume   536.69318816
_cell_formula_units_Z   2
loop_
 _symmetry_equiv_pos_site_id
 _symmetry_equiv_pos_as_xyz
  1  'x, y, z'
loop_
 _atom_site_type_symbol
 _atom_site_label
 _atom_site_symmetry_multiplicity
 _atom_site_fract_x
 _atom_site_fract_y
 _atom_site_fract_z
 _atom_site_occupancy
  Eu  Eu0  1  0.50000000  0.50000000  0.00000000  1
  Eu  Eu1  1  0.00000000  0.00000000  0.00000000  1
  Eu  Eu2  1  0.51357500  0.01357500  0.82964700  1
  Eu  Eu3  1  0.18392800  0.68392800  0.17035300  1
  Eu  Eu4  1  0.01357500  0.18392800  0.50000000  1
  Eu  Eu5  1  0.68392800  0.51357500  0.50000000  1
  Eu  Eu6  1  0.48642500  0.98642500  0.17035300  1
  Eu  Eu7  1  0.81607200  0.31607200  0.82964700  1
  Eu  Eu8  1  0.98642500  0.81607200  0.50000000  1
  Eu  Eu9  1  0.31607200  0.48642500  0.50000000  1
  Sn  Sn10  1  0.25000000  0.25000000  0.00000000  1
  Sn  Sn11  1  0.75000000  0.75000000  0.00000000  1
  Sn  Sn12  1  0.87588400  0.37588400  0.25176800  1
  Sn  Sn13  1  0.12411600  0.62411600  0.74823200  1
  Sn  Sn14  1  0.37588400  0.12411600  0.50000000  1
  Sn  Sn15  1  0.62411600  0.87588400  0.50000000  1
  H  H16  1  0.25000000  0.75000000  0.50000000  1
  H  H17  1  0.75000000  0.25000000  0.50000000  1
