# generated using pymatgen
data_Rb4Ge3B6O17
_symmetry_space_group_name_H-M   'P 1'
_cell_length_a   6.98883375
_cell_length_b   6.98883375
_cell_length_c   20.69349276
_cell_angle_alpha   77.88987403
_cell_angle_beta   77.88987403
_cell_angle_gamma   60.81764495
_symmetry_Int_Tables_number   1
_chemical_formula_structural   Rb4Ge3B6O17
_chemical_formula_sum   'Rb8 Ge6 B12 O34'
_cell_volume   855.94993257
_cell_formula_units_Z   2
loop_
 _symmetry_equiv_pos_site_id
 _symmetry_equiv_pos_as_xyz
  1  'x, y, z'
loop_
 _atom_site_type_symbol
 _atom_site_label
 _atom_site_symmetry_multiplicity
 _atom_site_fract_x
 _atom_site_fract_y
 _atom_site_fract_z
 _atom_site_occupancy
  Rb  Rb0  1  0.65214300  0.31349200  0.92143700  1
  Rb  Rb1  1  0.31349200  0.65214300  0.42143700  1
  Rb  Rb2  1  0.93591000  0.44681200  0.15872000  1
  Rb  Rb3  1  0.44681200  0.93591000  0.65872000  1
  Rb  Rb4  1  0.12276500  0.65997700  0.60710100  1
  Rb  Rb5  1  0.65997700  0.12276500  0.10710100  1
  Rb  Rb6  1  0.42192100  0.94016800  0.84390400  1
  Rb  Rb7  1  0.94016800  0.42192100  0.34390400  1
  Ge  Ge8  1  0.95765400  0.64218200  0.96290500  1
  Ge  Ge9  1  0.64218200  0.95765400  0.46290500  1
  Ge  Ge10  1  0.08860500  0.63195600  0.80400800  1
  Ge  Ge11  1  0.63195600  0.08860500  0.30400800  1
  Ge  Ge12  1  0.28961700  0.73836500  0.13449500  1
  Ge  Ge13  1  0.73836500  0.28961700  0.63449500  1
  B  B14  1  0.08341900  0.94312400  0.24961400  1
  B  B15  1  0.94312400  0.08341900  0.74961400  1
  B  B16  1  0.36258700  0.55217800  0.26312100  1
  B  B17  1  0.55217800  0.36258700  0.76312100  1
  B  B18  1  0.51072500  0.87422400  0.02139400  1
  B  B19  1  0.87422400  0.51072500  0.52139400  1
  B  B20  1  0.22968400  0.78258500  0.00338800  1
  B  B21  1  0.78258500  0.22968400  0.50338800  1
  B  B22  1  0.85571500  0.46491600  0.75667700  1
  B  B23  1  0.46491600  0.85571500  0.25667700  1
  B  B24  1  0.13469000  0.17639000  0.00679100  1
  B  B25  1  0.17639000  0.13469000  0.50679100  1
  O  O26  1  0.18596100  0.68205100  0.07321300  1
  O  O27  1  0.68205100  0.18596100  0.57321300  1
  O  O28  1  0.40555600  0.35132200  0.31174600  1
  O  O29  1  0.35132200  0.40555600  0.81174600  1
  O  O30  1  0.91860900  0.63145800  0.75030900  1
  O  O31  1  0.63145800  0.91860900  0.25030900  1
  O  O32  1  0.51361300  0.79287600  0.09506200  1
  O  O33  1  0.79287600  0.51361300  0.59506200  1
  O  O34  1  0.38854300  0.49873100  0.19408400  1
  O  O35  1  0.49873100  0.38854300  0.69408400  1
  O  O36  1  0.07017200  0.95947600  0.17615200  1
  O  O37  1  0.95947600  0.07017200  0.67615200  1
  O  O38  1  0.87345100  0.11463600  0.27911500  1
  O  O39  1  0.11463600  0.87345100  0.77911500  1
  O  O40  1  0.92508300  0.61571800  0.88221800  1
  O  O41  1  0.61571800  0.92508300  0.38221800  1
  O  O42  1  0.72165400  0.14251800  0.78407900  1
  O  O43  1  0.14251800  0.72165400  0.28407900  1
  O  O44  1  0.45462900  0.75205400  0.98649800  1
  O  O45  1  0.75205400  0.45462900  0.48649800  1
  O  O46  1  0.06818300  0.02953900  0.99802000  1
  O  O47  1  0.02953900  0.06818300  0.49802000  1
  O  O48  1  0.34638000  0.11851300  0.01426100  1
  O  O49  1  0.11851300  0.34638000  0.51426100  1
  O  O50  1  0.63284200  0.53120500  0.76358800  1
  O  O51  1  0.53120500  0.63284200  0.26358800  1
  O  O52  1  0.25177600  0.01492300  0.25387800  1
  O  O53  1  0.01492300  0.25177600  0.75387800  1
  O  O54  1  0.96758300  0.39479500  0.01181800  1
  O  O55  1  0.39479500  0.96758300  0.51181800  1
  O  O56  1  0.72577000  0.86889100  0.99438900  1
  O  O57  1  0.86889100  0.72577000  0.49438900  1
  O  O58  1  0.19320100  0.67862400  0.95478400  1
  O  O59  1  0.67862400  0.19320100  0.45478400  1
