# generated using pymatgen
data_GdSi3Ni8
_symmetry_space_group_name_H-M   'P 1'
_cell_length_a   7.54146333
_cell_length_b   7.54146333
_cell_length_c   7.49067426
_cell_angle_alpha   80.28467683
_cell_angle_beta   80.28467683
_cell_angle_gamma   130.40432683
_symmetry_Int_Tables_number   1
_chemical_formula_structural   GdSi3Ni8
_chemical_formula_sum   'Gd2 Si6 Ni16'
_cell_volume   296.99391619
_cell_formula_units_Z   2
loop_
 _symmetry_equiv_pos_site_id
 _symmetry_equiv_pos_as_xyz
  1  'x, y, z'
loop_
 _atom_site_type_symbol
 _atom_site_label
 _atom_site_symmetry_multiplicity
 _atom_site_fract_x
 _atom_site_fract_y
 _atom_site_fract_z
 _atom_site_occupancy
  Gd  Gd0  1  0.36870100  0.63129900  0.75000000  1
  Gd  Gd1  1  0.63129900  0.36870100  0.25000000  1
  Si  Si2  1  0.81356400  0.72308800  0.82564800  1
  Si  Si3  1  0.27691200  0.18643600  0.67435200  1
  Si  Si4  1  0.18643600  0.27691200  0.17435200  1
  Si  Si5  1  0.72308800  0.81356400  0.32564800  1
  Si  Si6  1  0.00000000  0.50000000  0.50000000  1
  Si  Si7  1  0.50000000  0.00000000  0.00000000  1
  Ni  Ni8  1  0.13854700  0.80292300  0.92064300  1
  Ni  Ni9  1  0.19707700  0.86145300  0.57935700  1
  Ni  Ni10  1  0.86145300  0.19707700  0.07935700  1
  Ni  Ni11  1  0.80292300  0.13854700  0.42064300  1
  Ni  Ni12  1  0.85113700  0.43272600  0.82982300  1
  Ni  Ni13  1  0.56727400  0.14886300  0.67017700  1
  Ni  Ni14  1  0.14886300  0.56727400  0.17017700  1
  Ni  Ni15  1  0.43272600  0.85113700  0.32982300  1
  Ni  Ni16  1  0.71138200  0.56088000  0.56950800  1
  Ni  Ni17  1  0.43912000  0.28861800  0.93049200  1
  Ni  Ni18  1  0.28861800  0.43912000  0.43049200  1
  Ni  Ni19  1  0.56088000  0.71138200  0.06950800  1
  Ni  Ni20  1  0.87703000  0.12297000  0.75000000  1
  Ni  Ni21  1  0.12297000  0.87703000  0.25000000  1
  Ni  Ni22  1  0.00000000  0.00000000  0.50000000  1
  Ni  Ni23  1  0.00000000  0.00000000  0.00000000  1
