# generated using pymatgen
data_YZnRh
_symmetry_space_group_name_H-M   'P 1'
_cell_length_a   4.11036000
_cell_length_b   6.96955600
_cell_length_c   8.05779700
_cell_angle_alpha   90.00000000
_cell_angle_beta   90.00000000
_cell_angle_gamma   90.00000000
_symmetry_Int_Tables_number   1
_chemical_formula_structural   YZnRh
_chemical_formula_sum   'Y4 Zn4 Rh4'
_cell_volume   230.83480647
_cell_formula_units_Z   4
loop_
 _symmetry_equiv_pos_site_id
 _symmetry_equiv_pos_as_xyz
  1  'x, y, z'
loop_
 _atom_site_type_symbol
 _atom_site_label
 _atom_site_symmetry_multiplicity
 _atom_site_fract_x
 _atom_site_fract_y
 _atom_site_fract_z
 _atom_site_occupancy
  Y  Y0  1  0.25000000  0.53193300  0.18525800  1
  Y  Y1  1  0.75000000  0.46806700  0.81474200  1
  Y  Y2  1  0.75000000  0.96806700  0.68525800  1
  Y  Y3  1  0.25000000  0.03193300  0.31474200  1
  Zn  Zn4  1  0.25000000  0.64281700  0.56526200  1
  Zn  Zn5  1  0.75000000  0.35718300  0.43473800  1
  Zn  Zn6  1  0.75000000  0.85718300  0.06526200  1
  Zn  Zn7  1  0.25000000  0.14281700  0.93473800  1
  Rh  Rh8  1  0.25000000  0.76195600  0.87820100  1
  Rh  Rh9  1  0.75000000  0.23804400  0.12179900  1
  Rh  Rh10  1  0.75000000  0.73804400  0.37820100  1
  Rh  Rh11  1  0.25000000  0.26195600  0.62179900  1
