# generated using pymatgen
data_KVN2
_symmetry_space_group_name_H-M   'P 1'
_cell_length_a   5.71496100
_cell_length_b   11.49090200
_cell_length_c   16.02342800
_cell_angle_alpha   90.00000000
_cell_angle_beta   90.00000000
_cell_angle_gamma   90.00000000
_symmetry_Int_Tables_number   1
_chemical_formula_structural   KVN2
_chemical_formula_sum   'K16 V16 N32'
_cell_volume   1052.25942665
_cell_formula_units_Z   16
loop_
 _symmetry_equiv_pos_site_id
 _symmetry_equiv_pos_as_xyz
  1  'x, y, z'
loop_
 _atom_site_type_symbol
 _atom_site_label
 _atom_site_symmetry_multiplicity
 _atom_site_fract_x
 _atom_site_fract_y
 _atom_site_fract_z
 _atom_site_occupancy
  K  K0  1  0.24485900  0.00098200  0.43687000  1
  K  K1  1  0.74485900  0.49901800  0.56313000  1
  K  K2  1  0.75514100  0.50098200  0.06313000  1
  K  K3  1  0.25514100  0.99901800  0.93687000  1
  K  K4  1  0.75514100  0.99901800  0.56313000  1
  K  K5  1  0.25514100  0.50098200  0.43687000  1
  K  K6  1  0.24485900  0.49901800  0.93687000  1
  K  K7  1  0.74485900  0.00098200  0.06313000  1
  K  K8  1  0.30991800  0.25771200  0.31208300  1
  K  K9  1  0.80991800  0.24228800  0.68791700  1
  K  K10  1  0.69008200  0.75771200  0.18791700  1
  K  K11  1  0.19008200  0.74228800  0.81208300  1
  K  K12  1  0.69008200  0.74228800  0.68791700  1
  K  K13  1  0.19008200  0.75771200  0.31208300  1
  K  K14  1  0.30991800  0.24228800  0.81208300  1
  K  K15  1  0.80991800  0.25771200  0.18791700  1
  V  V16  1  0.73916600  0.00761800  0.31253000  1
  V  V17  1  0.23916600  0.49238200  0.68747000  1
  V  V18  1  0.26083400  0.50761800  0.18747000  1
  V  V19  1  0.76083400  0.99238200  0.81253000  1
  V  V20  1  0.26083400  0.99238200  0.68747000  1
  V  V21  1  0.76083400  0.50761800  0.31253000  1
  V  V22  1  0.73916600  0.49238200  0.81253000  1
  V  V23  1  0.23916600  0.00761800  0.18747000  1
  V  V24  1  0.78805300  0.26142200  0.43825600  1
  V  V25  1  0.28805300  0.23857800  0.56174400  1
  V  V26  1  0.21194700  0.76142200  0.06174400  1
  V  V27  1  0.71194700  0.73857800  0.93825600  1
  V  V28  1  0.21194700  0.73857800  0.56174400  1
  V  V29  1  0.71194700  0.76142200  0.43825600  1
  V  V30  1  0.78805300  0.23857800  0.93825600  1
  V  V31  1  0.28805300  0.26142200  0.06174400  1
  N  N32  1  0.08632600  0.26981200  0.47737700  1
  N  N33  1  0.58632600  0.23018800  0.52262300  1
  N  N34  1  0.91367400  0.76981200  0.02262300  1
  N  N35  1  0.41367400  0.73018800  0.97737700  1
  N  N36  1  0.91367400  0.73018800  0.52262300  1
  N  N37  1  0.41367400  0.76981200  0.47737700  1
  N  N38  1  0.08632600  0.23018800  0.97737700  1
  N  N39  1  0.58632600  0.26981200  0.02262300  1
  N  N40  1  0.70751500  0.39998100  0.39300700  1
  N  N41  1  0.20751500  0.10001900  0.60699300  1
  N  N42  1  0.29248500  0.89998100  0.10699300  1
  N  N43  1  0.79248500  0.60001900  0.89300700  1
  N  N44  1  0.29248500  0.60001900  0.60699300  1
  N  N45  1  0.79248500  0.89998100  0.39300700  1
  N  N46  1  0.70751500  0.10001900  0.89300700  1
  N  N47  1  0.20751500  0.39998100  0.10699300  1
  N  N48  1  0.76911700  0.15117100  0.35752700  1
  N  N49  1  0.26911700  0.34882900  0.64247300  1
  N  N50  1  0.23088300  0.65117100  0.14247300  1
  N  N51  1  0.73088300  0.84882900  0.85752700  1
  N  N52  1  0.23088300  0.84882900  0.64247300  1
  N  N53  1  0.73088300  0.65117100  0.35752700  1
  N  N54  1  0.76911700  0.34882900  0.85752700  1
  N  N55  1  0.26911700  0.15117100  0.14247300  1
  N  N56  1  0.55359300  0.48892500  0.22806000  1
  N  N57  1  0.05359300  0.01107500  0.77194000  1
  N  N58  1  0.44640700  0.98892500  0.27194000  1
  N  N59  1  0.94640700  0.51107500  0.72806000  1
  N  N60  1  0.44640700  0.51107500  0.77194000  1
  N  N61  1  0.94640700  0.98892500  0.22806000  1
  N  N62  1  0.55359300  0.01107500  0.72806000  1
  N  N63  1  0.05359300  0.48892500  0.27194000  1
