# generated using pymatgen
data_Th2NiC2
_symmetry_space_group_name_H-M   'P 1'
_cell_length_a   6.70671043
_cell_length_b   6.70671043
_cell_length_c   6.70671043
_cell_angle_alpha   147.35715526
_cell_angle_beta   147.35715526
_cell_angle_gamma   46.83524505
_symmetry_Int_Tables_number   1
_chemical_formula_structural   Th2NiC2
_chemical_formula_sum   'Th2 Ni1 C2'
_cell_volume   87.44782881
_cell_formula_units_Z   1
loop_
 _symmetry_equiv_pos_site_id
 _symmetry_equiv_pos_as_xyz
  1  'x, y, z'
loop_
 _atom_site_type_symbol
 _atom_site_label
 _atom_site_symmetry_multiplicity
 _atom_site_fract_x
 _atom_site_fract_y
 _atom_site_fract_z
 _atom_site_occupancy
  Th  Th0  1  0.35389000  0.35389000  0.00000000  1
  Th  Th1  1  0.64611000  0.64611000  0.00000000  1
  Ni  Ni2  1  0.00000000  0.00000000  0.00000000  1
  C  C3  1  0.15623300  0.15623300  0.00000000  1
  C  C4  1  0.84376700  0.84376700  0.00000000  1
