# generated using pymatgen
data_LiYS2
_symmetry_space_group_name_H-M   'P 1'
_cell_length_a   6.58499774
_cell_length_b   6.58499774
_cell_length_c   6.58499749
_cell_angle_alpha   34.59085480
_cell_angle_beta   34.59085480
_cell_angle_gamma   34.59085274
_symmetry_Int_Tables_number   1
_chemical_formula_structural   LiYS2
_chemical_formula_sum   'Li1 Y1 S2'
_cell_volume   82.11357867
_cell_formula_units_Z   1
loop_
 _symmetry_equiv_pos_site_id
 _symmetry_equiv_pos_as_xyz
  1  'x, y, z'
loop_
 _atom_site_type_symbol
 _atom_site_label
 _atom_site_symmetry_multiplicity
 _atom_site_fract_x
 _atom_site_fract_y
 _atom_site_fract_z
 _atom_site_occupancy
  Li  Li0  1  0.50000000  0.50000000  0.50000000  1
  Y  Y1  1  0.00000000  0.00000000  0.00000000  1
  S  S2  1  0.24971300  0.24971300  0.24971300  1
  S  S3  1  0.75028700  0.75028700  0.75028700  1
