# generated using pymatgen
data_SmCo5P3
_symmetry_space_group_name_H-M   'P 1'
_cell_length_a   3.68021300
_cell_length_b   10.37025300
_cell_length_c   11.81361000
_cell_angle_alpha   90.00000000
_cell_angle_beta   90.00000000
_cell_angle_gamma   90.00000000
_symmetry_Int_Tables_number   1
_chemical_formula_structural   SmCo5P3
_chemical_formula_sum   'Sm4 Co20 P12'
_cell_volume   450.86335298
_cell_formula_units_Z   4
loop_
 _symmetry_equiv_pos_site_id
 _symmetry_equiv_pos_as_xyz
  1  'x, y, z'
loop_
 _atom_site_type_symbol
 _atom_site_label
 _atom_site_symmetry_multiplicity
 _atom_site_fract_x
 _atom_site_fract_y
 _atom_site_fract_z
 _atom_site_occupancy
  Sm  Sm0  1  0.25000000  0.58331400  0.70252400  1
  Sm  Sm1  1  0.25000000  0.91668600  0.20252400  1
  Sm  Sm2  1  0.75000000  0.41668600  0.29747600  1
  Sm  Sm3  1  0.75000000  0.08331400  0.79747600  1
  Co  Co4  1  0.25000000  0.71438200  0.99007300  1
  Co  Co5  1  0.25000000  0.78561800  0.49007300  1
  Co  Co6  1  0.75000000  0.28561800  0.00992700  1
  Co  Co7  1  0.75000000  0.21438200  0.50992700  1
  Co  Co8  1  0.25000000  0.40598800  0.48893600  1
  Co  Co9  1  0.25000000  0.09401200  0.98893600  1
  Co  Co10  1  0.75000000  0.59401200  0.51106400  1
  Co  Co11  1  0.75000000  0.90598800  0.01106400  1
  Co  Co12  1  0.25000000  0.22083900  0.17566400  1
  Co  Co13  1  0.25000000  0.27916100  0.67566400  1
  Co  Co14  1  0.75000000  0.77916100  0.82433600  1
  Co  Co15  1  0.75000000  0.72083900  0.32433600  1
  Co  Co16  1  0.25000000  0.88202600  0.69724600  1
  Co  Co17  1  0.25000000  0.61797400  0.19724600  1
  Co  Co18  1  0.75000000  0.11797400  0.30275400  1
  Co  Co19  1  0.75000000  0.38202600  0.80275400  1
  Co  Co20  1  0.25000000  0.46825900  0.93234500  1
  Co  Co21  1  0.25000000  0.03174100  0.43234500  1
  Co  Co22  1  0.75000000  0.53174100  0.06765500  1
  Co  Co23  1  0.75000000  0.96825900  0.56765500  1
  P  P24  1  0.25000000  0.41818700  0.11125000  1
  P  P25  1  0.25000000  0.08181300  0.61125000  1
  P  P26  1  0.75000000  0.58181300  0.88875000  1
  P  P27  1  0.75000000  0.91818700  0.38875000  1
  P  P28  1  0.25000000  0.27280600  0.86990600  1
  P  P29  1  0.25000000  0.22719400  0.36990600  1
  P  P30  1  0.75000000  0.72719400  0.13009400  1
  P  P31  1  0.75000000  0.77280600  0.63009400  1
  P  P32  1  0.25000000  0.60355100  0.39188000  1
  P  P33  1  0.25000000  0.89644900  0.89188000  1
  P  P34  1  0.75000000  0.39644900  0.60812000  1
  P  P35  1  0.75000000  0.10355100  0.10812000  1
