# generated using pymatgen
data_CaMgGe
_symmetry_space_group_name_H-M   'P 1'
_cell_length_a   4.46098800
_cell_length_b   7.53601500
_cell_length_c   8.41929500
_cell_angle_alpha   90.00000000
_cell_angle_beta   90.00000000
_cell_angle_gamma   90.00000000
_symmetry_Int_Tables_number   1
_chemical_formula_structural   CaMgGe
_chemical_formula_sum   'Ca4 Mg4 Ge4'
_cell_volume   283.04046956
_cell_formula_units_Z   4
loop_
 _symmetry_equiv_pos_site_id
 _symmetry_equiv_pos_as_xyz
  1  'x, y, z'
loop_
 _atom_site_type_symbol
 _atom_site_label
 _atom_site_symmetry_multiplicity
 _atom_site_fract_x
 _atom_site_fract_y
 _atom_site_fract_z
 _atom_site_occupancy
  Ca  Ca0  1  0.75000000  0.47952100  0.67951200  1
  Ca  Ca1  1  0.25000000  0.52047900  0.32048800  1
  Ca  Ca2  1  0.75000000  0.97952100  0.82048800  1
  Ca  Ca3  1  0.25000000  0.02047900  0.17951200  1
  Mg  Mg4  1  0.75000000  0.35733800  0.06197600  1
  Mg  Mg5  1  0.25000000  0.64266200  0.93802400  1
  Mg  Mg6  1  0.75000000  0.85733800  0.43802400  1
  Mg  Mg7  1  0.25000000  0.14266200  0.56197600  1
  Ge  Ge8  1  0.75000000  0.73211600  0.11682200  1
  Ge  Ge9  1  0.25000000  0.26788400  0.88317800  1
  Ge  Ge10  1  0.75000000  0.23211600  0.38317800  1
  Ge  Ge11  1  0.25000000  0.76788400  0.61682200  1
