# generated using pymatgen
data_Nd2(ReB2)3
_symmetry_space_group_name_H-M   'P 1'
_cell_length_a   6.32091155
_cell_length_b   6.32091155
_cell_length_c   7.62509722
_cell_angle_alpha   90.45884083
_cell_angle_beta   90.45884083
_cell_angle_gamma   114.76860942
_symmetry_Int_Tables_number   1
_chemical_formula_structural   Nd2(ReB2)3
_chemical_formula_sum   'Nd4 Re6 B12'
_cell_volume   276.59615567
_cell_formula_units_Z   2
loop_
 _symmetry_equiv_pos_site_id
 _symmetry_equiv_pos_as_xyz
  1  'x, y, z'
loop_
 _atom_site_type_symbol
 _atom_site_label
 _atom_site_symmetry_multiplicity
 _atom_site_fract_x
 _atom_site_fract_y
 _atom_site_fract_z
 _atom_site_occupancy
  Nd  Nd0  1  0.09329900  0.44091700  0.32543300  1
  Nd  Nd1  1  0.55908300  0.90670100  0.17456700  1
  Nd  Nd2  1  0.90670100  0.55908300  0.67456700  1
  Nd  Nd3  1  0.44091700  0.09329900  0.82543300  1
  Re  Re4  1  0.58383600  0.41616400  0.25000000  1
  Re  Re5  1  0.41616400  0.58383600  0.75000000  1
  Re  Re6  1  0.98909000  0.80369200  0.08726100  1
  Re  Re7  1  0.19630800  0.01091000  0.41273900  1
  Re  Re8  1  0.01091000  0.19630800  0.91273900  1
  Re  Re9  1  0.80369200  0.98909000  0.58726100  1
  B  B10  1  0.24259900  0.15149100  0.13182800  1
  B  B11  1  0.84850900  0.75740100  0.36817200  1
  B  B12  1  0.75740100  0.84850900  0.86817200  1
  B  B13  1  0.15149100  0.24259900  0.63182800  1
  B  B14  1  0.58624200  0.15898900  0.48032000  1
  B  B15  1  0.84101100  0.41375800  0.01968000  1
  B  B16  1  0.41375800  0.84101100  0.51968000  1
  B  B17  1  0.15898900  0.58624200  0.98032000  1
  B  B18  1  0.44090100  0.34966800  0.53403500  1
  B  B19  1  0.65033200  0.55909900  0.96596500  1
  B  B20  1  0.55909900  0.65033200  0.46596500  1
  B  B21  1  0.34966800  0.44090100  0.03403500  1
