# generated using pymatgen
data_GaPPt5
_symmetry_space_group_name_H-M   'P 1'
_cell_length_a   3.95326800
_cell_length_b   3.95326800
_cell_length_c   6.93914700
_cell_angle_alpha   90.00000000
_cell_angle_beta   90.00000000
_cell_angle_gamma   90.00000000
_symmetry_Int_Tables_number   1
_chemical_formula_structural   GaPPt5
_chemical_formula_sum   'Ga1 P1 Pt5'
_cell_volume   108.44726452
_cell_formula_units_Z   1
loop_
 _symmetry_equiv_pos_site_id
 _symmetry_equiv_pos_as_xyz
  1  'x, y, z'
loop_
 _atom_site_type_symbol
 _atom_site_label
 _atom_site_symmetry_multiplicity
 _atom_site_fract_x
 _atom_site_fract_y
 _atom_site_fract_z
 _atom_site_occupancy
  Ga  Ga0  1  0.50000000  0.50000000  0.00000000  1
  P  P1  1  0.00000000  0.00000000  0.50000000  1
  Pt  Pt2  1  0.00000000  0.50000000  0.29071700  1
  Pt  Pt3  1  0.00000000  0.50000000  0.70928300  1
  Pt  Pt4  1  0.50000000  0.00000000  0.29071700  1
  Pt  Pt5  1  0.50000000  0.00000000  0.70928300  1
  Pt  Pt6  1  0.00000000  0.00000000  0.00000000  1
