# generated using pymatgen
data_CaVF5
_symmetry_space_group_name_H-M   'P 1'
_cell_length_a   5.64211852
_cell_length_b   5.64211852
_cell_length_c   7.83197405
_cell_angle_alpha   69.67128260
_cell_angle_beta   69.67128260
_cell_angle_gamma   71.45453872
_symmetry_Int_Tables_number   1
_chemical_formula_structural   CaVF5
_chemical_formula_sum   'Ca2 V2 F10'
_cell_volume   213.63485856
_cell_formula_units_Z   2
loop_
 _symmetry_equiv_pos_site_id
 _symmetry_equiv_pos_as_xyz
  1  'x, y, z'
loop_
 _atom_site_type_symbol
 _atom_site_label
 _atom_site_symmetry_multiplicity
 _atom_site_fract_x
 _atom_site_fract_y
 _atom_site_fract_z
 _atom_site_occupancy
  Ca  Ca0  1  0.54526500  0.45473500  0.75000000  1
  Ca  Ca1  1  0.45473500  0.54526500  0.25000000  1
  V  V2  1  0.00000000  0.00000000  0.50000000  1
  V  V3  1  0.00000000  0.00000000  0.00000000  1
  F  F4  1  0.09007700  0.90992300  0.25000000  1
  F  F5  1  0.90992300  0.09007700  0.75000000  1
  F  F6  1  0.75614100  0.78188400  0.11969200  1
  F  F7  1  0.21811600  0.24385900  0.38030800  1
  F  F8  1  0.69644100  0.28633700  0.46576600  1
  F  F9  1  0.71366300  0.30355900  0.03423400  1
  F  F10  1  0.30355900  0.71366300  0.53423400  1
  F  F11  1  0.28633700  0.69644100  0.96576600  1
  F  F12  1  0.78188400  0.75614100  0.61969200  1
  F  F13  1  0.24385900  0.21811600  0.88030800  1
