# generated using pymatgen
data_ZrPt
_symmetry_space_group_name_H-M   'P 1'
_cell_length_a   5.49822898
_cell_length_b   5.49822898
_cell_length_c   4.34382800
_cell_angle_alpha   90.00000000
_cell_angle_beta   90.00000000
_cell_angle_gamma   143.56925978
_symmetry_Int_Tables_number   1
_chemical_formula_structural   ZrPt
_chemical_formula_sum   'Zr2 Pt2'
_cell_volume   77.98220224
_cell_formula_units_Z   2
loop_
 _symmetry_equiv_pos_site_id
 _symmetry_equiv_pos_as_xyz
  1  'x, y, z'
loop_
 _atom_site_type_symbol
 _atom_site_label
 _atom_site_symmetry_multiplicity
 _atom_site_fract_x
 _atom_site_fract_y
 _atom_site_fract_z
 _atom_site_occupancy
  Zr  Zr0  1  0.85880700  0.14119300  0.75000000  1
  Zr  Zr1  1  0.14119300  0.85880700  0.25000000  1
  Pt  Pt2  1  0.59151500  0.40848500  0.75000000  1
  Pt  Pt3  1  0.40848500  0.59151500  0.25000000  1
