# generated using pymatgen
data_Cu5SeCl5O4
_symmetry_space_group_name_H-M   'P 1'
_cell_length_a   6.32074500
_cell_length_b   9.41456308
_cell_length_c   9.66131897
_cell_angle_alpha   91.55061716
_cell_angle_beta   90.00000000
_cell_angle_gamma   90.00000000
_symmetry_Int_Tables_number   1
_chemical_formula_structural   Cu5SeCl5O4
_chemical_formula_sum   'Cu10 Se2 Cl10 O8'
_cell_volume   574.70608618
_cell_formula_units_Z   2
loop_
 _symmetry_equiv_pos_site_id
 _symmetry_equiv_pos_as_xyz
  1  'x, y, z'
loop_
 _atom_site_type_symbol
 _atom_site_label
 _atom_site_symmetry_multiplicity
 _atom_site_fract_x
 _atom_site_fract_y
 _atom_site_fract_z
 _atom_site_occupancy
  Cu  Cu0  1  0.25054400  0.12516800  0.98588200  1
  Cu  Cu1  1  0.75054400  0.87483200  0.01411800  1
  Cu  Cu2  1  0.25184000  0.71663700  0.50406700  1
  Cu  Cu3  1  0.75184000  0.28336300  0.49593300  1
  Cu  Cu4  1  0.25036600  0.89302300  0.22674400  1
  Cu  Cu5  1  0.75036600  0.10697700  0.77325600  1
  Cu  Cu6  1  0.50018800  0.00015100  0.50014900  1
  Cu  Cu7  1  0.00018800  0.99984900  0.49985100  1
  Cu  Cu8  1  0.38512800  0.40869100  0.79169900  1
  Cu  Cu9  1  0.88512800  0.59130900  0.20830100  1
  Se  Se10  1  0.75059400  0.75977300  0.68126800  1
  Se  Se11  1  0.25059400  0.24022700  0.31873200  1
  Cl  Cl12  1  0.24997200  0.50773100  0.60369600  1
  Cl  Cl13  1  0.74997200  0.49226900  0.39630400  1
  Cl  Cl14  1  0.25026100  0.87626400  0.99292900  1
  Cl  Cl15  1  0.75026100  0.12373600  0.00707100  1
  Cl  Cl16  1  0.25123200  0.12189700  0.75271200  1
  Cl  Cl17  1  0.75123200  0.87810300  0.24728800  1
  Cl  Cl18  1  0.23574500  0.64620100  0.25907300  1
  Cl  Cl19  1  0.73574500  0.35379900  0.74092700  1
  Cl  Cl20  1  0.25398400  0.36920900  0.99946100  1
  Cl  Cl21  1  0.75398400  0.63079100  0.00053900  1
  O  O22  1  0.25052200  0.91023400  0.42680000  1
  O  O23  1  0.75052200  0.08976600  0.57320000  1
  O  O24  1  0.75000900  0.89660900  0.80878800  1
  O  O25  1  0.25000900  0.10339100  0.19121200  1
  O  O26  1  0.53570000  0.81327400  0.58199500  1
  O  O27  1  0.03570000  0.18672600  0.41800500  1
  O  O28  1  0.46511600  0.18703000  0.41812200  1
  O  O29  1  0.96511600  0.81297000  0.58187800  1
