# generated using pymatgen
data_SrSbSe3
_symmetry_space_group_name_H-M   'P 1'
_cell_length_a   4.21029400
_cell_length_b   15.85201100
_cell_length_c   33.67001800
_cell_angle_alpha   90.00000000
_cell_angle_beta   90.00000000
_cell_angle_gamma   90.00000000
_symmetry_Int_Tables_number   1
_chemical_formula_structural   SrSbSe3
_chemical_formula_sum   'Sr16 Sb16 Se48'
_cell_volume   2247.19177575
_cell_formula_units_Z   16
loop_
 _symmetry_equiv_pos_site_id
 _symmetry_equiv_pos_as_xyz
  1  'x, y, z'
loop_
 _atom_site_type_symbol
 _atom_site_label
 _atom_site_symmetry_multiplicity
 _atom_site_fract_x
 _atom_site_fract_y
 _atom_site_fract_z
 _atom_site_occupancy
  Sr  Sr0  1  0.75007500  0.81355400  0.17490500  1
  Sr  Sr1  1  0.25007500  0.68644600  0.82509500  1
  Sr  Sr2  1  0.74992500  0.18644600  0.67490500  1
  Sr  Sr3  1  0.24992500  0.31355400  0.32509500  1
  Sr  Sr4  1  0.25357600  0.38424400  0.45235300  1
  Sr  Sr5  1  0.75357600  0.11575600  0.54764700  1
  Sr  Sr6  1  0.24642400  0.61575600  0.95235300  1
  Sr  Sr7  1  0.74642400  0.88424400  0.04764700  1
  Sr  Sr8  1  0.77019400  0.03119800  0.42403200  1
  Sr  Sr9  1  0.27019400  0.46880200  0.57596800  1
  Sr  Sr10  1  0.72980600  0.96880200  0.92403200  1
  Sr  Sr11  1  0.22980600  0.53119800  0.07596800  1
  Sr  Sr12  1  0.24643100  0.45650100  0.20517800  1
  Sr  Sr13  1  0.74643100  0.04349900  0.79482200  1
  Sr  Sr14  1  0.25356900  0.54349900  0.70517800  1
  Sr  Sr15  1  0.75356900  0.95650100  0.29482200  1
  Sb  Sb16  1  0.27180300  0.19985900  0.89130700  1
  Sb  Sb17  1  0.77180300  0.30014100  0.10869300  1
  Sb  Sb18  1  0.22819700  0.80014100  0.39130700  1
  Sb  Sb19  1  0.72819700  0.69985900  0.60869300  1
  Sb  Sb20  1  0.27041200  0.12882300  0.01468800  1
  Sb  Sb21  1  0.77041200  0.37117700  0.98531200  1
  Sb  Sb22  1  0.22958800  0.87117700  0.51468800  1
  Sb  Sb23  1  0.72958800  0.62882300  0.48531200  1
  Sb  Sb24  1  0.76125000  0.20371600  0.22483100  1
  Sb  Sb25  1  0.26125000  0.29628400  0.77516900  1
  Sb  Sb26  1  0.73875000  0.79628400  0.72483100  1
  Sb  Sb27  1  0.23875000  0.70371600  0.27516900  1
  Sb  Sb28  1  0.25634500  0.05343000  0.13623900  1
  Sb  Sb29  1  0.75634500  0.44657000  0.86376100  1
  Sb  Sb30  1  0.24365500  0.94657000  0.63623900  1
  Sb  Sb31  1  0.74365500  0.55343000  0.36376100  1
  Se  Se32  1  0.22455500  0.25578300  0.16487400  1
  Se  Se33  1  0.72455500  0.24421700  0.83512600  1
  Se  Se34  1  0.27544500  0.74421700  0.66487400  1
  Se  Se35  1  0.77544500  0.75578300  0.33512600  1
  Se  Se36  1  0.74233300  0.10339600  0.06937000  1
  Se  Se37  1  0.24233300  0.39660400  0.93063000  1
  Se  Se38  1  0.75766700  0.89660400  0.56937000  1
  Se  Se39  1  0.25766700  0.60339600  0.43063000  1
  Se  Se40  1  0.72574500  0.16842000  0.95035200  1
  Se  Se41  1  0.22574500  0.33158000  0.04964800  1
  Se  Se42  1  0.77425500  0.83158000  0.45035200  1
  Se  Se43  1  0.27425500  0.66842000  0.54964800  1
  Se  Se44  1  0.73740200  0.22775400  0.46384400  1
  Se  Se45  1  0.23740200  0.27224600  0.53615600  1
  Se  Se46  1  0.76259800  0.77224600  0.96384400  1
  Se  Se47  1  0.26259800  0.72775400  0.03615600  1
  Se  Se48  1  0.24470300  0.89465800  0.11604800  1
  Se  Se49  1  0.74470300  0.60534200  0.88395200  1
  Se  Se50  1  0.25529700  0.10534200  0.61604800  1
  Se  Se51  1  0.75529700  0.39465800  0.38395200  1
  Se  Se52  1  0.25828200  0.02892900  0.49241900  1
  Se  Se53  1  0.75828200  0.47107100  0.50758100  1
  Se  Se54  1  0.24171800  0.97107100  0.99241900  1
  Se  Se55  1  0.74171800  0.52892900  0.00758100  1
  Se  Se56  1  0.25466100  0.52667300  0.31263700  1
  Se  Se57  1  0.75466100  0.97332700  0.68736300  1
  Se  Se58  1  0.24533900  0.47332700  0.81263700  1
  Se  Se59  1  0.74533900  0.02667300  0.18736300  1
  Se  Se60  1  0.25587400  0.95723500  0.36435300  1
  Se  Se61  1  0.75587400  0.54276500  0.63564700  1
  Se  Se62  1  0.24412600  0.04276500  0.86435300  1
  Se  Se63  1  0.74412600  0.45723500  0.13564700  1
  Se  Se64  1  0.74628500  0.16547600  0.35212900  1
  Se  Se65  1  0.24628500  0.33452400  0.64787100  1
  Se  Se66  1  0.75371500  0.83452400  0.85212900  1
  Se  Se67  1  0.25371500  0.66547600  0.14787100  1
  Se  Se68  1  0.24952400  0.85965700  0.24179300  1
  Se  Se69  1  0.74952400  0.64034300  0.75820700  1
  Se  Se70  1  0.25047600  0.14034300  0.74179300  1
  Se  Se71  1  0.75047600  0.35965700  0.25820700  1
  Se  Se72  1  0.20728600  0.14008800  0.27331200  1
  Se  Se73  1  0.70728600  0.35991200  0.72668800  1
  Se  Se74  1  0.29271400  0.85991200  0.77331200  1
  Se  Se75  1  0.79271400  0.64008800  0.22668800  1
  Se  Se76  1  0.36963600  0.19399900  0.40776700  1
  Se  Se77  1  0.86963600  0.30600100  0.59223300  1
  Se  Se78  1  0.13036400  0.80600100  0.90776700  1
  Se  Se79  1  0.63036400  0.69399900  0.09223300  1
