# generated using pymatgen
data_NdCrGeO5
_symmetry_space_group_name_H-M   'P 1'
_cell_length_a   5.87993700
_cell_length_b   7.58483500
_cell_length_c   8.63670600
_cell_angle_alpha   90.00000000
_cell_angle_beta   90.00000000
_cell_angle_gamma   90.00000000
_symmetry_Int_Tables_number   1
_chemical_formula_structural   NdCrGeO5
_chemical_formula_sum   'Nd4 Cr4 Ge4 O20'
_cell_volume   385.18285392
_cell_formula_units_Z   4
loop_
 _symmetry_equiv_pos_site_id
 _symmetry_equiv_pos_as_xyz
  1  'x, y, z'
loop_
 _atom_site_type_symbol
 _atom_site_label
 _atom_site_symmetry_multiplicity
 _atom_site_fract_x
 _atom_site_fract_y
 _atom_site_fract_z
 _atom_site_occupancy
  Nd  Nd0  1  0.50000000  0.35863800  0.32582400  1
  Nd  Nd1  1  0.50000000  0.64136200  0.67417600  1
  Nd  Nd2  1  0.50000000  0.14136200  0.82582400  1
  Nd  Nd3  1  0.50000000  0.85863800  0.17417600  1
  Cr  Cr4  1  0.24658000  0.00000000  0.50000000  1
  Cr  Cr5  1  0.75342000  0.00000000  0.50000000  1
  Cr  Cr6  1  0.75342000  0.50000000  0.00000000  1
  Cr  Cr7  1  0.24658000  0.50000000  0.00000000  1
  Ge  Ge8  1  0.00000000  0.11565400  0.14305800  1
  Ge  Ge9  1  0.00000000  0.88434600  0.85694200  1
  Ge  Ge10  1  0.00000000  0.38434600  0.64305800  1
  Ge  Ge11  1  0.00000000  0.61565400  0.35694200  1
  O  O12  1  0.24286200  0.10478700  0.28206100  1
  O  O13  1  0.75713800  0.89521300  0.71793900  1
  O  O14  1  0.24286200  0.89521300  0.71793900  1
  O  O15  1  0.75713800  0.39521300  0.78206100  1
  O  O16  1  0.75713800  0.10478700  0.28206100  1
  O  O17  1  0.24286200  0.60478700  0.21793900  1
  O  O18  1  0.75713800  0.60478700  0.21793900  1
  O  O19  1  0.24286200  0.39521300  0.78206100  1
  O  O20  1  0.00000000  0.33805000  0.07629600  1
  O  O21  1  0.00000000  0.66195000  0.92370400  1
  O  O22  1  0.00000000  0.16195000  0.57629600  1
  O  O23  1  0.00000000  0.83805000  0.42370400  1
  O  O24  1  0.50000000  0.33550000  0.05231400  1
  O  O25  1  0.50000000  0.66450000  0.94768600  1
  O  O26  1  0.50000000  0.16450000  0.55231400  1
  O  O27  1  0.50000000  0.83550000  0.44768600  1
  O  O28  1  0.20701200  0.00000000  0.00000000  1
  O  O29  1  0.79298800  0.00000000  0.00000000  1
  O  O30  1  0.79298800  0.50000000  0.50000000  1
  O  O31  1  0.20701200  0.50000000  0.50000000  1
