# generated using pymatgen
data_SmS2
_symmetry_space_group_name_H-M   'P 1'
_cell_length_a   3.99136300
_cell_length_b   7.96718500
_cell_length_c   8.06109270
_cell_angle_alpha   89.90238288
_cell_angle_beta   90.00000000
_cell_angle_gamma   90.00000000
_symmetry_Int_Tables_number   1
_chemical_formula_structural   SmS2
_chemical_formula_sum   'Sm4 S8'
_cell_volume   256.34179075
_cell_formula_units_Z   4
loop_
 _symmetry_equiv_pos_site_id
 _symmetry_equiv_pos_as_xyz
  1  'x, y, z'
loop_
 _atom_site_type_symbol
 _atom_site_label
 _atom_site_symmetry_multiplicity
 _atom_site_fract_x
 _atom_site_fract_y
 _atom_site_fract_z
 _atom_site_occupancy
  Sm  Sm0  1  0.28524400  0.12907200  0.72473200  1
  Sm  Sm1  1  0.78524400  0.37092800  0.27526800  1
  Sm  Sm2  1  0.71475600  0.87092800  0.27526800  1
  Sm  Sm3  1  0.21475600  0.62907200  0.72473200  1
  S  S4  1  0.83980500  0.10939900  0.99743000  1
  S  S5  1  0.33980500  0.39060100  0.00257000  1
  S  S6  1  0.16019500  0.89060100  0.00257000  1
  S  S7  1  0.66019500  0.60939900  0.99743000  1
  S  S8  1  0.25986500  0.12513300  0.36769300  1
  S  S9  1  0.75986500  0.37486700  0.63230700  1
  S  S10  1  0.74013500  0.87486700  0.63230700  1
  S  S11  1  0.24013500  0.62513300  0.36769300  1
