# generated using pymatgen
data_TmCuS2
_symmetry_space_group_name_H-M   'P 1'
_cell_length_a   3.91673800
_cell_length_b   6.22134000
_cell_length_c   13.26269200
_cell_angle_alpha   90.00000000
_cell_angle_beta   90.00000000
_cell_angle_gamma   90.00000000
_symmetry_Int_Tables_number   1
_chemical_formula_structural   TmCuS2
_chemical_formula_sum   'Tm4 Cu4 S8'
_cell_volume   323.17677447
_cell_formula_units_Z   4
loop_
 _symmetry_equiv_pos_site_id
 _symmetry_equiv_pos_as_xyz
  1  'x, y, z'
loop_
 _atom_site_type_symbol
 _atom_site_label
 _atom_site_symmetry_multiplicity
 _atom_site_fract_x
 _atom_site_fract_y
 _atom_site_fract_z
 _atom_site_occupancy
  Tm  Tm0  1  0.25000000  0.50206700  0.13344200  1
  Tm  Tm1  1  0.75000000  0.49793300  0.86655800  1
  Tm  Tm2  1  0.75000000  0.00206700  0.36655800  1
  Tm  Tm3  1  0.25000000  0.99793300  0.63344200  1
  Cu  Cu4  1  0.25000000  0.12318000  0.95446800  1
  Cu  Cu5  1  0.75000000  0.62318000  0.54553200  1
  Cu  Cu6  1  0.75000000  0.87682000  0.04553200  1
  Cu  Cu7  1  0.25000000  0.37682000  0.45446800  1
  S  S8  1  0.25000000  0.26240600  0.79389200  1
  S  S9  1  0.75000000  0.73759400  0.20610800  1
  S  S10  1  0.75000000  0.76240600  0.70610800  1
  S  S11  1  0.25000000  0.23759400  0.29389200  1
  S  S12  1  0.25000000  0.74325400  0.95959700  1
  S  S13  1  0.25000000  0.75674600  0.45959700  1
  S  S14  1  0.75000000  0.24325400  0.54040300  1
  S  S15  1  0.75000000  0.25674600  0.04040300  1
