# generated using pymatgen
data_Rb2NiP4(HO2)8
_symmetry_space_group_name_H-M   'P 1'
_cell_length_a   7.04593666
_cell_length_b   7.41333469
_cell_length_c   7.76468606
_cell_angle_alpha   82.50858725
_cell_angle_beta   71.69131090
_cell_angle_gamma   86.92842224
_symmetry_Int_Tables_number   1
_chemical_formula_structural   Rb2NiP4(HO2)8
_chemical_formula_sum   'Rb2 Ni1 P4 H8 O16'
_cell_volume   381.72744629
_cell_formula_units_Z   1
loop_
 _symmetry_equiv_pos_site_id
 _symmetry_equiv_pos_as_xyz
  1  'x, y, z'
loop_
 _atom_site_type_symbol
 _atom_site_label
 _atom_site_symmetry_multiplicity
 _atom_site_fract_x
 _atom_site_fract_y
 _atom_site_fract_z
 _atom_site_occupancy
  Rb  Rb0  1  0.40273600  0.28431400  0.21129100  1
  Rb  Rb1  1  0.59726400  0.71568600  0.78870900  1
  Ni  Ni2  1  0.00000000  0.50000000  0.00000000  1
  P  P3  1  0.73851300  0.79927700  0.25200400  1
  P  P4  1  0.26148700  0.20072300  0.74799600  1
  P  P5  1  0.14970600  0.73889200  0.26090700  1
  P  P6  1  0.85029400  0.26110800  0.73909300  1
  H  H7  1  0.42030400  0.73429000  0.41374500  1
  H  H8  1  0.57969600  0.26571000  0.58625500  1
  H  H9  1  0.23432800  0.96901600  0.04242700  1
  H  H10  1  0.76567200  0.03098400  0.95757300  1
  H  H11  1  0.88182800  0.31687000  0.34460700  1
  H  H12  1  0.11817200  0.68313000  0.65539300  1
  H  H13  1  0.88309000  0.18071000  0.20022800  1
  H  H14  1  0.11691000  0.81929000  0.79977200  1
  O  O15  1  0.74810900  0.64801600  0.13543100  1
  O  O16  1  0.25189100  0.35198400  0.86456900  1
  O  O17  1  0.55099000  0.78318900  0.42724400  1
  O  O18  1  0.44901000  0.21681100  0.57275600  1
  O  O19  1  0.76045700  0.99248600  0.15259900  1
  O  O20  1  0.23954300  0.00751400  0.84740100  1
  O  O21  1  0.91154900  0.76985100  0.35224800  1
  O  O22  1  0.08845100  0.23014900  0.64775200  1
  O  O23  1  0.18644900  0.61551100  0.11197100  1
  O  O24  1  0.81355100  0.38448900  0.88802900  1
  O  O25  1  0.22643000  0.66885400  0.41940600  1
  O  O26  1  0.77357000  0.33114600  0.58059400  1
  O  O27  1  0.24036500  0.93246100  0.17535500  1
  O  O28  1  0.75963500  0.06753900  0.82464500  1
  O  O29  1  0.94700400  0.29047300  0.21696600  1
  O  O30  1  0.05299600  0.70952700  0.78303400  1
