# generated using pymatgen
data_Ba2Mg(PO4)2
_symmetry_space_group_name_H-M   'P 1'
_cell_length_a   8.96467700
_cell_length_b   5.39517800
_cell_length_c   17.16086930
_cell_angle_alpha   72.19544547
_cell_angle_beta   90.00000000
_cell_angle_gamma   90.00000000
_symmetry_Int_Tables_number   1
_chemical_formula_structural   Ba2Mg(PO4)2
_chemical_formula_sum   'Ba8 Mg4 P8 O32'
_cell_volume   790.25016364
_cell_formula_units_Z   4
loop_
 _symmetry_equiv_pos_site_id
 _symmetry_equiv_pos_as_xyz
  1  'x, y, z'
loop_
 _atom_site_type_symbol
 _atom_site_label
 _atom_site_symmetry_multiplicity
 _atom_site_fract_x
 _atom_site_fract_y
 _atom_site_fract_z
 _atom_site_occupancy
  Ba  Ba0  1  0.65756700  0.52456700  0.22861500  1
  Ba  Ba1  1  0.15756700  0.47543300  0.27138500  1
  Ba  Ba2  1  0.34243300  0.47543300  0.77138500  1
  Ba  Ba3  1  0.84243300  0.52456700  0.72861500  1
  Ba  Ba4  1  0.20396500  0.68143800  0.51971100  1
  Ba  Ba5  1  0.70396500  0.31856200  0.98028900  1
  Ba  Ba6  1  0.79603500  0.31856200  0.48028900  1
  Ba  Ba7  1  0.29603500  0.68143800  0.01971100  1
  Mg  Mg8  1  0.98362400  0.90675400  0.86608900  1
  Mg  Mg9  1  0.48362400  0.09324600  0.63391100  1
  Mg  Mg10  1  0.51637600  0.90675400  0.36608900  1
  Mg  Mg11  1  0.01637600  0.09324600  0.13391100  1
  P  P12  1  0.41178300  0.31370000  0.42249900  1
  P  P13  1  0.89146700  0.91662500  0.33333500  1
  P  P14  1  0.08821700  0.31370000  0.92249900  1
  P  P15  1  0.58821700  0.68630000  0.57750100  1
  P  P16  1  0.60853300  0.91662500  0.83333500  1
  P  P17  1  0.10853300  0.08337500  0.66666500  1
  P  P18  1  0.39146700  0.08337500  0.16666500  1
  P  P19  1  0.91178300  0.68630000  0.07750100  1
  O  O20  1  0.89100900  0.20452300  0.33452100  1
  O  O21  1  0.39100900  0.79547700  0.16547900  1
  O  O22  1  0.10899100  0.79547700  0.66547900  1
  O  O23  1  0.60899100  0.20452300  0.83452100  1
  O  O24  1  0.72805300  0.81380300  0.33229600  1
  O  O25  1  0.22805300  0.18619700  0.16770400  1
  O  O26  1  0.27194700  0.18619700  0.66770400  1
  O  O27  1  0.77194700  0.81380300  0.83229600  1
  O  O28  1  0.97331600  0.73746100  0.41017800  1
  O  O29  1  0.47331600  0.26253900  0.08982200  1
  O  O30  1  0.02668400  0.26253900  0.58982200  1
  O  O31  1  0.52668400  0.73746100  0.91017800  1
  O  O32  1  0.97265400  0.89721100  0.25498700  1
  O  O33  1  0.47265400  0.10278900  0.24501300  1
  O  O34  1  0.02734600  0.10278900  0.74501300  1
  O  O35  1  0.52734600  0.89721100  0.75498700  1
  O  O36  1  0.86430700  0.39917300  0.12319300  1
  O  O37  1  0.36430700  0.60082700  0.37680700  1
  O  O38  1  0.13569300  0.60082700  0.87680700  1
  O  O39  1  0.63569300  0.39917300  0.62319300  1
  O  O40  1  0.58526600  0.72926700  0.48500700  1
  O  O41  1  0.08526600  0.27073300  0.01499300  1
  O  O42  1  0.41473400  0.27073300  0.51499300  1
  O  O43  1  0.91473400  0.72926700  0.98500700  1
  O  O44  1  0.69881500  0.87793900  0.59902000  1
  O  O45  1  0.19881500  0.12206100  0.90098000  1
  O  O46  1  0.30118500  0.12206100  0.40098000  1
  O  O47  1  0.80118500  0.87793900  0.09902000  1
  O  O48  1  0.43434100  0.73706100  0.61263900  1
  O  O49  1  0.93434100  0.26293900  0.88736100  1
  O  O50  1  0.56565900  0.26293900  0.38736100  1
  O  O51  1  0.06565900  0.73706100  0.11263900  1
