# generated using pymatgen
data_HfGaRh
_symmetry_space_group_name_H-M   'P 1'
_cell_length_a   7.26666209
_cell_length_b   7.26666209
_cell_length_c   3.31377000
_cell_angle_alpha   90.00000000
_cell_angle_beta   90.00000000
_cell_angle_gamma   120.00000085
_symmetry_Int_Tables_number   1
_chemical_formula_structural   HfGaRh
_chemical_formula_sum   'Hf3 Ga3 Rh3'
_cell_volume   151.53847797
_cell_formula_units_Z   3
loop_
 _symmetry_equiv_pos_site_id
 _symmetry_equiv_pos_as_xyz
  1  'x, y, z'
loop_
 _atom_site_type_symbol
 _atom_site_label
 _atom_site_symmetry_multiplicity
 _atom_site_fract_x
 _atom_site_fract_y
 _atom_site_fract_z
 _atom_site_occupancy
  Hf  Hf0  1  0.39566100  0.00000000  0.50000000  1
  Hf  Hf1  1  0.00000000  0.39566100  0.50000000  1
  Hf  Hf2  1  0.60433900  0.60433900  0.50000000  1
  Ga  Ga3  1  0.72937000  0.00000000  0.00000000  1
  Ga  Ga4  1  0.00000000  0.72937000  0.00000000  1
  Ga  Ga5  1  0.27063000  0.27063000  0.00000000  1
  Rh  Rh6  1  0.33333300  0.66666700  0.00000000  1
  Rh  Rh7  1  0.66666700  0.33333300  0.00000000  1
  Rh  Rh8  1  0.00000000  0.00000000  0.50000000  1
