# generated using pymatgen
data_Yb3Ge13Ir4
_symmetry_space_group_name_H-M   'P 1'
_cell_length_a   9.05544900
_cell_length_b   9.05544900
_cell_length_c   9.05544900
_cell_angle_alpha   90.00000000
_cell_angle_beta   90.00000000
_cell_angle_gamma   90.00000000
_symmetry_Int_Tables_number   1
_chemical_formula_structural   Yb3Ge13Ir4
_chemical_formula_sum   'Yb6 Ge26 Ir8'
_cell_volume   742.55729146
_cell_formula_units_Z   2
loop_
 _symmetry_equiv_pos_site_id
 _symmetry_equiv_pos_as_xyz
  1  'x, y, z'
loop_
 _atom_site_type_symbol
 _atom_site_label
 _atom_site_symmetry_multiplicity
 _atom_site_fract_x
 _atom_site_fract_y
 _atom_site_fract_z
 _atom_site_occupancy
  Yb  Yb0  1  0.00000000  0.50000000  0.75000000  1
  Yb  Yb1  1  0.50000000  0.25000000  0.00000000  1
  Yb  Yb2  1  0.75000000  0.00000000  0.50000000  1
  Yb  Yb3  1  0.00000000  0.50000000  0.25000000  1
  Yb  Yb4  1  0.50000000  0.75000000  0.00000000  1
  Yb  Yb5  1  0.25000000  0.00000000  0.50000000  1
  Ge  Ge6  1  0.50000000  0.50000000  0.50000000  1
  Ge  Ge7  1  0.00000000  0.00000000  0.00000000  1
  Ge  Ge8  1  0.80675400  0.35513100  0.50000000  1
  Ge  Ge9  1  0.64486900  0.50000000  0.80675400  1
  Ge  Ge10  1  0.50000000  0.19324600  0.64486900  1
  Ge  Ge11  1  0.19324600  0.64486900  0.50000000  1
  Ge  Ge12  1  0.35513100  0.50000000  0.19324600  1
  Ge  Ge13  1  0.50000000  0.80675400  0.35513100  1
  Ge  Ge14  1  0.80675400  0.64486900  0.50000000  1
  Ge  Ge15  1  0.64486900  0.50000000  0.19324600  1
  Ge  Ge16  1  0.19324600  0.35513100  0.50000000  1
  Ge  Ge17  1  0.35513100  0.50000000  0.80675400  1
  Ge  Ge18  1  0.50000000  0.80675400  0.64486900  1
  Ge  Ge19  1  0.50000000  0.19324600  0.35513100  1
  Ge  Ge20  1  0.30675400  0.00000000  0.85513100  1
  Ge  Ge21  1  0.14486900  0.30675400  0.00000000  1
  Ge  Ge22  1  0.00000000  0.14486900  0.69324600  1
  Ge  Ge23  1  0.69324600  0.00000000  0.14486900  1
  Ge  Ge24  1  0.85513100  0.69324600  0.00000000  1
  Ge  Ge25  1  0.00000000  0.85513100  0.30675400  1
  Ge  Ge26  1  0.30675400  0.00000000  0.14486900  1
  Ge  Ge27  1  0.14486900  0.69324600  0.00000000  1
  Ge  Ge28  1  0.69324600  0.00000000  0.85513100  1
  Ge  Ge29  1  0.85513100  0.30675400  0.00000000  1
  Ge  Ge30  1  0.00000000  0.14486900  0.30675400  1
  Ge  Ge31  1  0.00000000  0.85513100  0.69324600  1
  Ir  Ir32  1  0.75000000  0.25000000  0.75000000  1
  Ir  Ir33  1  0.25000000  0.75000000  0.25000000  1
  Ir  Ir34  1  0.75000000  0.75000000  0.25000000  1
  Ir  Ir35  1  0.25000000  0.25000000  0.75000000  1
  Ir  Ir36  1  0.25000000  0.75000000  0.75000000  1
  Ir  Ir37  1  0.75000000  0.25000000  0.25000000  1
  Ir  Ir38  1  0.25000000  0.25000000  0.25000000  1
  Ir  Ir39  1  0.75000000  0.75000000  0.75000000  1
