# generated using pymatgen
data_Li2MgSiO4
_symmetry_space_group_name_H-M   'P 1'
_cell_length_a   10.80212800
_cell_length_b   5.07057200
_cell_length_c   8.10218977
_cell_angle_alpha   51.70571577
_cell_angle_beta   90.00000000
_cell_angle_gamma   90.00000000
_symmetry_Int_Tables_number   1
_chemical_formula_structural   Li2MgSiO4
_chemical_formula_sum   'Li8 Mg4 Si4 O16'
_cell_volume   348.29626298
_cell_formula_units_Z   4
loop_
 _symmetry_equiv_pos_site_id
 _symmetry_equiv_pos_as_xyz
  1  'x, y, z'
loop_
 _atom_site_type_symbol
 _atom_site_label
 _atom_site_symmetry_multiplicity
 _atom_site_fract_x
 _atom_site_fract_y
 _atom_site_fract_z
 _atom_site_occupancy
  Li  Li0  1  0.83792200  0.68898300  0.00425100  1
  Li  Li1  1  0.33792200  0.31101700  0.49574900  1
  Li  Li2  1  0.16207800  0.31101700  0.99574900  1
  Li  Li3  1  0.66207800  0.68898300  0.50425100  1
  Li  Li4  1  0.92605400  0.53288600  0.76305500  1
  Li  Li5  1  0.42605400  0.46711400  0.73694500  1
  Li  Li6  1  0.07394600  0.46711400  0.23694500  1
  Li  Li7  1  0.57394600  0.53288600  0.26305500  1
  Mg  Mg8  1  0.83552600  0.19052700  0.50154500  1
  Mg  Mg9  1  0.16447400  0.80947300  0.49845500  1
  Mg  Mg10  1  0.66447400  0.19052700  0.00154500  1
  Mg  Mg11  1  0.33552600  0.80947300  0.99845500  1
  Si  Si12  1  0.08743000  0.06339400  0.74775600  1
  Si  Si13  1  0.41257000  0.06339400  0.24775600  1
  Si  Si14  1  0.91257000  0.93660600  0.25224400  1
  Si  Si15  1  0.58743000  0.93660600  0.75224400  1
  O  O16  1  0.16138600  0.74668600  0.95913600  1
  O  O17  1  0.83861400  0.25331400  0.04086400  1
  O  O18  1  0.33861400  0.74668600  0.45913600  1
  O  O19  1  0.59106100  0.60739500  0.75525400  1
  O  O20  1  0.66138600  0.25331400  0.54086400  1
  O  O21  1  0.84060600  0.83252400  0.46639500  1
  O  O22  1  0.34060600  0.16747600  0.03360500  1
  O  O23  1  0.15939400  0.16747600  0.53360500  1
  O  O24  1  0.44314400  0.04530300  0.74864000  1
  O  O25  1  0.09106100  0.39260500  0.74474600  1
  O  O26  1  0.40893900  0.39260500  0.24474600  1
  O  O27  1  0.90893900  0.60739500  0.25525400  1
  O  O28  1  0.05685600  0.04530300  0.24864000  1
  O  O29  1  0.94314400  0.95469700  0.75136000  1
  O  O30  1  0.55685600  0.95469700  0.25136000  1
  O  O31  1  0.65939400  0.83252400  0.96639500  1
