# generated using pymatgen
data_NaMg149
_symmetry_space_group_name_H-M   'P 1'
_cell_length_a   15.96398677
_cell_length_b   15.96401255
_cell_length_c   15.66680923
_cell_angle_alpha   90.00000000
_cell_angle_beta   90.00000000
_cell_angle_gamma   120.00005547
_symmetry_Int_Tables_number   1
_chemical_formula_structural   NaMg149
_chemical_formula_sum   'Na1 Mg149'
_cell_volume   3457.75616109
_cell_formula_units_Z   1
loop_
 _symmetry_equiv_pos_site_id
 _symmetry_equiv_pos_as_xyz
  1  'x, y, z'
loop_
 _atom_site_type_symbol
 _atom_site_label
 _atom_site_symmetry_multiplicity
 _atom_site_fract_x
 _atom_site_fract_y
 _atom_site_fract_z
 _atom_site_occupancy
  Na  Na0  1  -0.00000096  -0.00000048  0.00000000  1
  Mg  Mg1  1  0.79988257  0.20011936  0.00000000  1
  Mg  Mg2  1  0.40023653  0.20011876  0.00000000  1
  Mg  Mg3  1  0.60014626  0.20029386  0.00000000  1
  Mg  Mg4  1  0.00121162  0.20354336  0.00000000  1
  Mg  Mg5  1  0.20233188  0.20354304  0.00000000  1
  Mg  Mg6  1  0.79970732  0.39985316  0.00000000  1
  Mg  Mg7  1  0.60014626  0.39985240  0.00000000  1
  Mg  Mg8  1  0.40065693  0.40088674  0.00000000  1
  Mg  Mg9  1  0.00022971  0.40088838  0.00000000  1
  Mg  Mg10  1  0.20097035  0.40194182  0.00000000  1
  Mg  Mg11  1  0.00022971  0.59934133  0.00000000  1
  Mg  Mg12  1  0.59911179  0.59934258  0.00000000  1
  Mg  Mg13  1  0.79988257  0.59976320  0.00000000  1
  Mg  Mg14  1  0.39975707  0.60024313  0.00000000  1
  Mg  Mg15  1  0.20048390  0.60024195  0.00000000  1
  Mg  Mg16  1  0.00121162  0.79766826  0.00000000  1
  Mg  Mg17  1  0.79645678  0.79766964  0.00000000  1
  Mg  Mg18  1  0.59805837  0.79902919  0.00000000  1
  Mg  Mg19  1  0.20097035  0.79902853  0.00000000  1
  Mg  Mg20  1  0.39975707  0.79951393  0.00000000  1
  Mg  Mg21  1  0.20233188  0.99878784  0.00000000  1
  Mg  Mg22  1  0.79645678  0.99878714  0.00000000  1
  Mg  Mg23  1  0.40065693  0.99977018  0.00000000  1
  Mg  Mg24  1  0.59911179  0.99976922  0.00000000  1
  Mg  Mg25  1  0.26530107  0.13265103  0.16598129  1
  Mg  Mg26  1  0.86734995  0.13265091  0.16597997  1
  Mg  Mg27  1  0.86734995  0.73469905  0.16597997  1
  Mg  Mg28  1  0.66666724  0.33333312  0.16649239  1
  Mg  Mg29  1  0.66691556  0.13314237  0.16663442  1
  Mg  Mg30  1  0.46622846  0.13314329  0.16663505  1
  Mg  Mg31  1  0.46622846  0.33308516  0.16663505  1
  Mg  Mg32  1  0.86685709  0.33308491  0.16663493  1
  Mg  Mg33  1  0.86685709  0.53377118  0.16663493  1
  Mg  Mg34  1  0.66691556  0.53377320  0.16663442  1
  Mg  Mg35  1  0.46660440  0.53339461  0.16714121  1
  Mg  Mg36  1  0.06678867  0.53339484  0.16714120  1
  Mg  Mg37  1  0.46660440  0.93320979  0.16714121  1
  Mg  Mg38  1  0.26696076  0.53392212  0.16717143  1
  Mg  Mg39  1  0.26696076  0.73303864  0.16717143  1
  Mg  Mg40  1  0.46607646  0.73303873  0.16717056  1
  Mg  Mg41  1  0.26724947  0.33454650  0.16729354  1
  Mg  Mg42  1  0.06729596  0.33454615  0.16729373  1
  Mg  Mg43  1  0.06729596  0.73275081  0.16729373  1
  Mg  Mg44  1  0.66545444  0.73275110  0.16729414  1
  Mg  Mg45  1  0.66545444  0.93270334  0.16729414  1
  Mg  Mg46  1  0.26724947  0.93270296  0.16729354  1
  Mg  Mg47  1  0.06770284  0.13540548  0.16897117  1
  Mg  Mg48  1  0.06770284  0.93229736  0.16897117  1
  Mg  Mg49  1  0.86459476  0.93229688  0.16897148  1
  Mg  Mg50  1  0.40006150  0.20003025  0.33299053  1
  Mg  Mg51  1  0.79997006  0.20003019  0.33299135  1
  Mg  Mg52  1  0.79997006  0.59993987  0.33299135  1
  Mg  Mg53  1  0.60010256  0.20020590  0.33318262  1
  Mg  Mg54  1  0.79979429  0.39989714  0.33318287  1
  Mg  Mg55  1  0.60010256  0.39989666  0.33318262  1
  Mg  Mg56  1  0.00000027  0.00000013  0.33338952  1
  Mg  Mg57  1  0.59971593  0.00019168  0.33370469  1
  Mg  Mg58  1  0.40047535  0.00019032  0.33370531  1
  Mg  Mg59  1  0.99980872  0.40028404  0.33370407  1
  Mg  Mg60  1  0.40047535  0.40028403  0.33370531  1
  Mg  Mg61  1  0.59971593  0.59952425  0.33370469  1
  Mg  Mg62  1  0.99980872  0.59952467  0.33370407  1
  Mg  Mg63  1  0.39999138  0.60000917  0.33375806  1
  Mg  Mg64  1  0.20001895  0.60000947  0.33375760  1
  Mg  Mg65  1  0.39999138  0.79998321  0.33375806  1
  Mg  Mg66  1  0.20020269  0.40040545  0.33383747  1
  Mg  Mg67  1  0.59959340  0.79979720  0.33383862  1
  Mg  Mg68  1  0.20020269  0.79979724  0.33383747  1
  Mg  Mg69  1  0.79945323  0.00011689  0.33385080  1
  Mg  Mg70  1  0.20066345  0.00011555  0.33385020  1
  Mg  Mg71  1  0.20066345  0.20054791  0.33385020  1
  Mg  Mg72  1  0.99988421  0.20054809  0.33385057  1
  Mg  Mg73  1  0.79945323  0.79933634  0.33385080  1
  Mg  Mg74  1  0.99988421  0.79933612  0.33385057  1
  Mg  Mg75  1  0.06676496  0.13352962  0.50000000  1
  Mg  Mg76  1  0.86647582  0.13352320  0.50000000  1
  Mg  Mg77  1  0.26704802  0.13352401  0.50000000  1
  Mg  Mg78  1  0.46692832  0.13372330  0.50000000  1
  Mg  Mg79  1  0.66679625  0.13372364  0.50000000  1
  Mg  Mg80  1  0.86627678  0.33320342  0.50000000  1
  Mg  Mg81  1  0.46692832  0.33320402  0.50000000  1
  Mg  Mg82  1  0.66666774  0.33333337  0.50000000  1
  Mg  Mg83  1  0.06692558  0.33377861  0.50000000  1
  Mg  Mg84  1  0.26685237  0.33377819  0.50000000  1
  Mg  Mg85  1  0.86627678  0.53307336  0.50000000  1
  Mg  Mg86  1  0.66679625  0.53307261  0.50000000  1
  Mg  Mg87  1  0.46660993  0.53339096  0.50000000  1
  Mg  Mg88  1  0.06678118  0.53339109  0.50000000  1
  Mg  Mg89  1  0.26683524  0.53367000  0.50000000  1
  Mg  Mg90  1  0.86647582  0.73295262  0.50000000  1
  Mg  Mg91  1  0.66622235  0.73314775  0.50000000  1
  Mg  Mg92  1  0.06692558  0.73314697  0.50000000  1
  Mg  Mg93  1  0.26683524  0.73316524  0.50000000  1
  Mg  Mg94  1  0.46633038  0.73316569  0.50000000  1
  Mg  Mg95  1  0.66622235  0.93307460  0.50000000  1
  Mg  Mg96  1  0.26685237  0.93307418  0.50000000  1
  Mg  Mg97  1  0.46660993  0.93321896  0.50000000  1
  Mg  Mg98  1  0.86647214  0.93323607  0.50000000  1
  Mg  Mg99  1  0.06676496  0.93323534  0.50000000  1
  Mg  Mg100  1  0.79945323  0.00011689  0.66614920  1
  Mg  Mg101  1  0.20066345  0.00011555  0.66614980  1
  Mg  Mg102  1  0.20066345  0.20054791  0.66614980  1
  Mg  Mg103  1  0.99988421  0.20054809  0.66614943  1
  Mg  Mg104  1  0.79945323  0.79933634  0.66614920  1
  Mg  Mg105  1  0.99988421  0.79933612  0.66614943  1
  Mg  Mg106  1  0.20020269  0.40040545  0.66616253  1
  Mg  Mg107  1  0.59959340  0.79979720  0.66616138  1
  Mg  Mg108  1  0.20020269  0.79979724  0.66616253  1
  Mg  Mg109  1  0.39999138  0.60000917  0.66624194  1
  Mg  Mg110  1  0.20001895  0.60000947  0.66624240  1
  Mg  Mg111  1  0.39999138  0.79998321  0.66624194  1
  Mg  Mg112  1  0.59971593  0.00019168  0.66629531  1
  Mg  Mg113  1  0.40047535  0.00019032  0.66629469  1
  Mg  Mg114  1  0.99980872  0.40028404  0.66629593  1
  Mg  Mg115  1  0.40047535  0.40028403  0.66629469  1
  Mg  Mg116  1  0.59971593  0.59952425  0.66629531  1
  Mg  Mg117  1  0.99980872  0.59952467  0.66629593  1
  Mg  Mg118  1  0.00000027  0.00000013  0.66661048  1
  Mg  Mg119  1  0.60010256  0.20020590  0.66681738  1
  Mg  Mg120  1  0.79979429  0.39989714  0.66681713  1
  Mg  Mg121  1  0.60010256  0.39989666  0.66681738  1
  Mg  Mg122  1  0.40006150  0.20003025  0.66700947  1
  Mg  Mg123  1  0.79997006  0.20003019  0.66700865  1
  Mg  Mg124  1  0.79997006  0.59993987  0.66700865  1
  Mg  Mg125  1  0.06770284  0.13540548  0.83102883  1
  Mg  Mg126  1  0.06770284  0.93229736  0.83102883  1
  Mg  Mg127  1  0.86459476  0.93229688  0.83102852  1
  Mg  Mg128  1  0.26724947  0.33454650  0.83270646  1
  Mg  Mg129  1  0.06729596  0.33454615  0.83270627  1
  Mg  Mg130  1  0.06729596  0.73275081  0.83270627  1
  Mg  Mg131  1  0.66545444  0.73275110  0.83270586  1
  Mg  Mg132  1  0.66545444  0.93270334  0.83270586  1
  Mg  Mg133  1  0.26724947  0.93270296  0.83270646  1
  Mg  Mg134  1  0.26696076  0.53392212  0.83282957  1
  Mg  Mg135  1  0.26696076  0.73303864  0.83282957  1
  Mg  Mg136  1  0.46607646  0.73303873  0.83283044  1
  Mg  Mg137  1  0.46660440  0.53339461  0.83285879  1
  Mg  Mg138  1  0.06678867  0.53339484  0.83285880  1
  Mg  Mg139  1  0.46660440  0.93320979  0.83285879  1
  Mg  Mg140  1  0.66691556  0.13314237  0.83336558  1
  Mg  Mg141  1  0.46622846  0.13314329  0.83336495  1
  Mg  Mg142  1  0.46622846  0.33308516  0.83336495  1
  Mg  Mg143  1  0.86685709  0.33308491  0.83336507  1
  Mg  Mg144  1  0.86685709  0.53377118  0.83336507  1
  Mg  Mg145  1  0.66691556  0.53377320  0.83336558  1
  Mg  Mg146  1  0.66666724  0.33333312  0.83350761  1
  Mg  Mg147  1  0.26530107  0.13265103  0.83401971  1
  Mg  Mg148  1  0.86734995  0.13265091  0.83402103  1
  Mg  Mg149  1  0.86734995  0.73469905  0.83402103  1
