# generated using pymatgen
data_NaYMnWO6
_symmetry_space_group_name_H-M   'P 1'
_cell_length_a   5.47628826
_cell_length_b   5.67769200
_cell_length_c   7.99926004
_cell_angle_alpha   90.00000000
_cell_angle_beta   90.13834227
_cell_angle_gamma   90.00000000
_symmetry_Int_Tables_number   1
_chemical_formula_structural   NaYMnWO6
_chemical_formula_sum   'Na2 Y2 Mn2 W2 O12'
_cell_volume   248.71769206
_cell_formula_units_Z   2
loop_
 _symmetry_equiv_pos_site_id
 _symmetry_equiv_pos_as_xyz
  1  'x, y, z'
loop_
 _atom_site_type_symbol
 _atom_site_label
 _atom_site_symmetry_multiplicity
 _atom_site_fract_x
 _atom_site_fract_y
 _atom_site_fract_z
 _atom_site_occupancy
  Na  Na0  1  0.25323100  0.73751600  0.00096600  1
  Na  Na1  1  0.74676900  0.23751600  0.99903400  1
  Y  Y2  1  0.26600800  0.83642200  0.50175100  1
  Y  Y3  1  0.73399200  0.33642200  0.49824900  1
  Mn  Mn4  1  0.75283900  0.78023200  0.24299200  1
  Mn  Mn5  1  0.24716100  0.28023200  0.75700800  1
  W  W6  1  0.76267900  0.76964100  0.75651000  1
  W  W7  1  0.23732100  0.26964100  0.24349000  1
  O  O8  1  0.56905600  0.04515600  0.67709700  1
  O  O9  1  0.43094400  0.54515600  0.32290300  1
  O  O10  1  0.53038100  0.07872000  0.32104500  1
  O  O11  1  0.46961900  0.57872000  0.67895500  1
  O  O12  1  0.93784900  0.43605800  0.22487800  1
  O  O13  1  0.06215100  0.93605800  0.77512200  1
  O  O14  1  0.91066900  0.46520800  0.78474600  1
  O  O15  1  0.08933100  0.96520800  0.21525400  1
  O  O16  1  0.86634100  0.72546700  0.50693600  1
  O  O17  1  0.13365900  0.22546700  0.49306400  1
  O  O18  1  0.67030700  0.80898800  0.97948500  1
  O  O19  1  0.32969300  0.30898800  0.02051500  1
