# generated using pymatgen
data_TaFeB
_symmetry_space_group_name_H-M   'P 1'
_cell_length_a   5.98010488
_cell_length_b   5.98010488
_cell_length_c   3.20388100
_cell_angle_alpha   90.00000000
_cell_angle_beta   90.00000000
_cell_angle_gamma   120.00000976
_symmetry_Int_Tables_number   1
_chemical_formula_structural   TaFeB
_chemical_formula_sum   'Ta3 Fe3 B3'
_cell_volume   99.22579058
_cell_formula_units_Z   3
loop_
 _symmetry_equiv_pos_site_id
 _symmetry_equiv_pos_as_xyz
  1  'x, y, z'
loop_
 _atom_site_type_symbol
 _atom_site_label
 _atom_site_symmetry_multiplicity
 _atom_site_fract_x
 _atom_site_fract_y
 _atom_site_fract_z
 _atom_site_occupancy
  Ta  Ta0  1  0.41165100  0.00000000  0.50000000  1
  Ta  Ta1  1  0.00000000  0.41165100  0.50000000  1
  Ta  Ta2  1  0.58834900  0.58834900  0.50000000  1
  Fe  Fe3  1  0.76037500  0.00000000  0.00000000  1
  Fe  Fe4  1  0.00000000  0.76037500  0.00000000  1
  Fe  Fe5  1  0.23962500  0.23962500  0.00000000  1
  B  B6  1  0.33333300  0.66666700  0.00000000  1
  B  B7  1  0.66666700  0.33333300  0.00000000  1
  B  B8  1  0.00000000  0.00000000  0.50000000  1
