# generated using pymatgen
data_Sr4CuIr2O9
_symmetry_space_group_name_H-M   'P 1'
_cell_length_a   8.07284100
_cell_length_b   9.80417442
_cell_length_c   9.85074091
_cell_angle_alpha   119.63833919
_cell_angle_beta   90.12610532
_cell_angle_gamma   90.03088564
_symmetry_Int_Tables_number   1
_chemical_formula_structural   Sr4CuIr2O9
_chemical_formula_sum   'Sr12 Cu3 Ir6 O27'
_cell_volume   677.65141471
_cell_formula_units_Z   3
loop_
 _symmetry_equiv_pos_site_id
 _symmetry_equiv_pos_as_xyz
  1  'x, y, z'
loop_
 _atom_site_type_symbol
 _atom_site_label
 _atom_site_symmetry_multiplicity
 _atom_site_fract_x
 _atom_site_fract_y
 _atom_site_fract_z
 _atom_site_occupancy
  Sr  Sr0  1  0.25448200  0.69390500  0.66685200  1
  Sr  Sr1  1  0.25247500  0.32974200  0.02296200  1
  Sr  Sr2  1  0.25249800  0.98864300  0.32411800  1
  Sr  Sr3  1  0.75196600  0.02684500  0.33902000  1
  Sr  Sr4  1  0.74472800  0.67079500  0.69280900  1
  Sr  Sr5  1  0.74406000  0.31604300  0.98687700  1
  Sr  Sr6  1  0.00098500  0.00403900  0.67816500  1
  Sr  Sr7  1  0.99949900  0.32184400  0.32275200  1
  Sr  Sr8  1  0.99944000  0.67554200  0.00516500  1
  Sr  Sr9  1  0.49703500  0.00665300  0.65297500  1
  Sr  Sr10  1  0.50051600  0.35899500  0.35881000  1
  Sr  Sr11  1  0.50354700  0.64157200  0.00719100  1
  Cu  Cu12  1  0.49998800  0.99997700  0.06181300  1
  Cu  Cu13  1  0.73420900  0.72589500  0.38912200  1
  Cu  Cu14  1  0.26609700  0.38976300  0.72641100  1
  Ir  Ir15  1  0.07880000  0.66110300  0.32968800  1
  Ir  Ir16  1  0.92108200  0.33359500  0.66459400  1
  Ir  Ir17  1  0.15573400  0.99836100  0.99712700  1
  Ir  Ir18  1  0.84415000  0.99765700  0.99578800  1
  Ir  Ir19  1  0.39065800  0.66245800  0.33114700  1
  Ir  Ir20  1  0.60926700  0.33346100  0.66428000  1
  O  O21  1  0.30899000  0.15526400  0.16448500  1
  O  O22  1  0.31187600  0.84056100  0.00162200  1
  O  O23  1  0.28848200  0.00572600  0.83195500  1
  O  O24  1  0.70991800  0.99501600  0.82651900  1
  O  O25  1  0.69124500  0.15943900  0.15810700  1
  O  O26  1  0.68866500  0.84296800  0.00757900  1
  O  O27  1  0.23694300  0.64309600  0.15204600  1
  O  O28  1  0.23678400  0.84624400  0.49217500  1
  O  O29  1  0.23625400  0.50220000  0.35181600  1
  O  O30  1  0.76398500  0.49635600  0.84935100  1
  O  O31  1  0.76293100  0.15474100  0.64475500  1
  O  O32  1  0.76329400  0.35435900  0.50497900  1
  O  O33  1  0.05069200  0.17876500  0.49040900  1
  O  O34  1  0.07736000  0.50175000  0.68853100  1
  O  O35  1  0.07824500  0.31824600  0.81163500  1
  O  O36  1  0.92361700  0.68425200  0.49732200  1
  O  O37  1  0.94676900  0.48741200  0.17619100  1
  O  O38  1  0.92213200  0.80878600  0.31416500  1
  O  O39  1  0.47378900  0.17398100  0.48779100  1
  O  O40  1  0.45550500  0.50679500  0.68670300  1
  O  O41  1  0.45595700  0.31947600  0.81878400  1
  O  O42  1  0.54343600  0.68476300  0.50488700  1
  O  O43  1  0.52535100  0.48391000  0.17185300  1
  O  O44  1  0.54646300  0.81668300  0.31881100  1
  O  O45  1  0.00107400  0.99498600  0.16482000  1
  O  O46  1  0.00040900  0.83258200  0.83016700  1
  O  O47  1  0.99861800  0.16225700  0.99247600  1
