# generated using pymatgen
data_Sr5Re3IO15
_symmetry_space_group_name_H-M   'P 1'
_cell_length_a   7.60539900
_cell_length_b   10.85831800
_cell_length_c   19.02156900
_cell_angle_alpha   90.00000000
_cell_angle_beta   90.00000000
_cell_angle_gamma   90.00000000
_symmetry_Int_Tables_number   1
_chemical_formula_structural   Sr5Re3IO15
_chemical_formula_sum   'Sr20 Re12 I4 O60'
_cell_volume   1570.83618404
_cell_formula_units_Z   4
loop_
 _symmetry_equiv_pos_site_id
 _symmetry_equiv_pos_as_xyz
  1  'x, y, z'
loop_
 _atom_site_type_symbol
 _atom_site_label
 _atom_site_symmetry_multiplicity
 _atom_site_fract_x
 _atom_site_fract_y
 _atom_site_fract_z
 _atom_site_occupancy
  Sr  Sr0  1  0.25833600  0.39304500  0.10297000  1
  Sr  Sr1  1  0.74166400  0.60695500  0.89703000  1
  Sr  Sr2  1  0.24166400  0.89304500  0.89703000  1
  Sr  Sr3  1  0.74166400  0.60695500  0.60297000  1
  Sr  Sr4  1  0.75833600  0.10695500  0.10297000  1
  Sr  Sr5  1  0.25833600  0.39304500  0.39703000  1
  Sr  Sr6  1  0.75833600  0.10695500  0.39703000  1
  Sr  Sr7  1  0.24166400  0.89304500  0.60297000  1
  Sr  Sr8  1  0.28617900  0.47518100  0.75000000  1
  Sr  Sr9  1  0.71382100  0.52481900  0.25000000  1
  Sr  Sr10  1  0.21382100  0.97518100  0.25000000  1
  Sr  Sr11  1  0.78617900  0.02481900  0.75000000  1
  Sr  Sr12  1  0.00168400  0.25444000  0.58476000  1
  Sr  Sr13  1  0.99831600  0.74556000  0.41524000  1
  Sr  Sr14  1  0.49831600  0.75444000  0.41524000  1
  Sr  Sr15  1  0.99831600  0.74556000  0.08476000  1
  Sr  Sr16  1  0.50168400  0.24556000  0.58476000  1
  Sr  Sr17  1  0.00168400  0.25444000  0.91524000  1
  Sr  Sr18  1  0.50168400  0.24556000  0.91524000  1
  Sr  Sr19  1  0.49831600  0.75444000  0.08476000  1
  Re  Re20  1  0.22123600  0.14686400  0.75000000  1
  Re  Re21  1  0.77876400  0.85313600  0.25000000  1
  Re  Re22  1  0.27876400  0.64686400  0.25000000  1
  Re  Re23  1  0.72123600  0.35313600  0.75000000  1
  Re  Re24  1  0.20644900  0.55885600  0.55677200  1
  Re  Re25  1  0.79355100  0.44114400  0.44322800  1
  Re  Re26  1  0.29355100  0.05885600  0.44322800  1
  Re  Re27  1  0.79355100  0.44114400  0.05677200  1
  Re  Re28  1  0.70644900  0.94114400  0.55677200  1
  Re  Re29  1  0.20644900  0.55885600  0.94322800  1
  Re  Re30  1  0.70644900  0.94114400  0.94322800  1
  Re  Re31  1  0.29355100  0.05885600  0.05677200  1
  I  I32  1  0.10503000  0.75502100  0.75000000  1
  I  I33  1  0.89497000  0.24497900  0.25000000  1
  I  I34  1  0.39497000  0.25502100  0.25000000  1
  I  I35  1  0.60503000  0.74497900  0.75000000  1
  O  O36  1  0.12544100  0.10705500  0.11413000  1
  O  O37  1  0.87455900  0.89294500  0.88587000  1
  O  O38  1  0.37455900  0.60705500  0.88587000  1
  O  O39  1  0.87455900  0.89294500  0.61413000  1
  O  O40  1  0.62544100  0.39294500  0.11413000  1
  O  O41  1  0.12544100  0.10705500  0.38587000  1
  O  O42  1  0.62544100  0.39294500  0.38587000  1
  O  O43  1  0.37455900  0.60705500  0.61413000  1
  O  O44  1  0.22617300  0.09975900  0.53488900  1
  O  O45  1  0.77382700  0.90024100  0.46511100  1
  O  O46  1  0.27382700  0.59975900  0.46511100  1
  O  O47  1  0.77382700  0.90024100  0.03488900  1
  O  O48  1  0.72617300  0.40024100  0.53488900  1
  O  O49  1  0.22617300  0.09975900  0.96511100  1
  O  O50  1  0.72617300  0.40024100  0.96511100  1
  O  O51  1  0.27382700  0.59975900  0.03488900  1
  O  O52  1  0.41791800  0.06372100  0.75000000  1
  O  O53  1  0.58208200  0.93627900  0.25000000  1
  O  O54  1  0.08208200  0.56372100  0.25000000  1
  O  O55  1  0.91791800  0.43627900  0.75000000  1
  O  O56  1  0.25190200  0.27227900  0.68309000  1
  O  O57  1  0.74809800  0.72772100  0.31691000  1
  O  O58  1  0.24809800  0.77227900  0.31691000  1
  O  O59  1  0.74809800  0.72772100  0.18309000  1
  O  O60  1  0.75190200  0.22772100  0.68309000  1
  O  O61  1  0.25190200  0.27227900  0.81691000  1
  O  O62  1  0.75190200  0.22772100  0.81691000  1
  O  O63  1  0.24809800  0.77227900  0.18309000  1
  O  O64  1  0.03797400  0.48855800  0.61347000  1
  O  O65  1  0.96202600  0.51144200  0.38653000  1
  O  O66  1  0.46202600  0.98855800  0.38653000  1
  O  O67  1  0.96202600  0.51144200  0.11347000  1
  O  O68  1  0.53797400  0.01144200  0.61347000  1
  O  O69  1  0.03797400  0.48855800  0.88653000  1
  O  O70  1  0.53797400  0.01144200  0.88653000  1
  O  O71  1  0.46202600  0.98855800  0.11347000  1
  O  O72  1  0.05676800  0.69292400  0.55066600  1
  O  O73  1  0.94323200  0.30707600  0.44933400  1
  O  O74  1  0.44323200  0.19292400  0.44933400  1
  O  O75  1  0.94323200  0.30707600  0.05066600  1
  O  O76  1  0.55676800  0.80707600  0.55066600  1
  O  O77  1  0.05676800  0.69292400  0.94933400  1
  O  O78  1  0.55676800  0.80707600  0.94933400  1
  O  O79  1  0.44323200  0.19292400  0.05066600  1
  O  O80  1  0.07969600  0.07321500  0.68286400  1
  O  O81  1  0.92030400  0.92678500  0.31713600  1
  O  O82  1  0.42030400  0.57321500  0.31713600  1
  O  O83  1  0.92030400  0.92678500  0.18286400  1
  O  O84  1  0.57969600  0.42678500  0.68286400  1
  O  O85  1  0.07969600  0.07321500  0.81713600  1
  O  O86  1  0.57969600  0.42678500  0.81713600  1
  O  O87  1  0.42030400  0.57321500  0.18286400  1
  O  O88  1  0.26436100  0.39697700  0.53163700  1
  O  O89  1  0.73563900  0.60302300  0.46836300  1
  O  O90  1  0.23563900  0.89697700  0.46836300  1
  O  O91  1  0.73563900  0.60302300  0.03163700  1
  O  O92  1  0.76436100  0.10302300  0.53163700  1
  O  O93  1  0.26436100  0.39697700  0.96836300  1
  O  O94  1  0.76436100  0.10302300  0.96836300  1
  O  O95  1  0.23563900  0.89697700  0.03163700  1
