# generated using pymatgen
data_Ca5(GaAs3)2
_symmetry_space_group_name_H-M   'P 1'
_cell_length_a   4.17458100
_cell_length_b   11.44401900
_cell_length_c   13.28657000
_cell_angle_alpha   90.00000000
_cell_angle_beta   90.00000000
_cell_angle_gamma   90.00000000
_symmetry_Int_Tables_number   1
_chemical_formula_structural   Ca5(GaAs3)2
_chemical_formula_sum   'Ca10 Ga4 As12'
_cell_volume   634.75238633
_cell_formula_units_Z   2
loop_
 _symmetry_equiv_pos_site_id
 _symmetry_equiv_pos_as_xyz
  1  'x, y, z'
loop_
 _atom_site_type_symbol
 _atom_site_label
 _atom_site_symmetry_multiplicity
 _atom_site_fract_x
 _atom_site_fract_y
 _atom_site_fract_z
 _atom_site_occupancy
  Ca  Ca0  1  0.50000000  0.08907700  0.75157200  1
  Ca  Ca1  1  0.50000000  0.58907700  0.74842800  1
  Ca  Ca2  1  0.50000000  0.32492200  0.51402400  1
  Ca  Ca3  1  0.50000000  0.67507800  0.48597600  1
  Ca  Ca4  1  0.50000000  0.82492200  0.98597600  1
  Ca  Ca5  1  0.50000000  0.91092300  0.24842800  1
  Ca  Ca6  1  0.50000000  0.17507800  0.01402400  1
  Ca  Ca7  1  0.50000000  0.50000000  0.00000000  1
  Ca  Ca8  1  0.50000000  0.00000000  0.50000000  1
  Ca  Ca9  1  0.50000000  0.41092300  0.25157200  1
  Ga  Ga10  1  0.00000000  0.82787800  0.78749000  1
  Ga  Ga11  1  0.00000000  0.17212200  0.21251000  1
  Ga  Ga12  1  0.00000000  0.67212200  0.28749000  1
  Ga  Ga13  1  0.00000000  0.32787800  0.71251000  1
  As  As14  1  0.50000000  0.83941300  0.68035800  1
  As  As15  1  0.00000000  0.48054400  0.40642300  1
  As  As16  1  0.50000000  0.16058700  0.31964200  1
  As  As17  1  0.00000000  0.01945600  0.90642300  1
  As  As18  1  0.00000000  0.84474200  0.40284200  1
  As  As19  1  0.00000000  0.98054400  0.09357700  1
  As  As20  1  0.00000000  0.34474200  0.09715800  1
  As  As21  1  0.00000000  0.51945600  0.59357700  1
  As  As22  1  0.00000000  0.15525800  0.59715800  1
  As  As23  1  0.00000000  0.65525800  0.90284200  1
  As  As24  1  0.50000000  0.66058700  0.18035800  1
  As  As25  1  0.50000000  0.33941300  0.81964200  1
