# generated using pymatgen
data_Yb5(Ni2Sn5)2
_symmetry_space_group_name_H-M   'P 1'
_cell_length_a   13.93300100
_cell_length_b   13.93300100
_cell_length_c   4.50039500
_cell_angle_alpha   90.00000000
_cell_angle_beta   90.00000000
_cell_angle_gamma   90.00000000
_symmetry_Int_Tables_number   1
_chemical_formula_structural   Yb5(Ni2Sn5)2
_chemical_formula_sum   'Yb10 Ni8 Sn20'
_cell_volume   873.65500666
_cell_formula_units_Z   2
loop_
 _symmetry_equiv_pos_site_id
 _symmetry_equiv_pos_as_xyz
  1  'x, y, z'
loop_
 _atom_site_type_symbol
 _atom_site_label
 _atom_site_symmetry_multiplicity
 _atom_site_fract_x
 _atom_site_fract_y
 _atom_site_fract_z
 _atom_site_occupancy
  Yb  Yb0  1  0.00000000  0.00000000  0.00000000  1
  Yb  Yb1  1  0.50000000  0.50000000  0.00000000  1
  Yb  Yb2  1  0.17925100  0.67925100  0.50000000  1
  Yb  Yb3  1  0.82074900  0.32074900  0.50000000  1
  Yb  Yb4  1  0.67925100  0.82074900  0.50000000  1
  Yb  Yb5  1  0.32074900  0.17925100  0.50000000  1
  Yb  Yb6  1  0.89234300  0.60765700  0.50000000  1
  Yb  Yb7  1  0.10765700  0.39234300  0.50000000  1
  Yb  Yb8  1  0.39234300  0.89234300  0.50000000  1
  Yb  Yb9  1  0.60765700  0.10765700  0.50000000  1
  Ni  Ni10  1  0.25399900  0.53285600  0.00000000  1
  Ni  Ni11  1  0.74600100  0.46714400  0.00000000  1
  Ni  Ni12  1  0.75399900  0.96714400  0.00000000  1
  Ni  Ni13  1  0.24600100  0.03285600  0.00000000  1
  Ni  Ni14  1  0.46714400  0.25399900  0.00000000  1
  Ni  Ni15  1  0.53285600  0.74600100  0.00000000  1
  Ni  Ni16  1  0.03285600  0.75399900  0.00000000  1
  Ni  Ni17  1  0.96714400  0.24600100  0.00000000  1
  Sn  Sn18  1  0.35089500  0.69848900  0.00000000  1
  Sn  Sn19  1  0.64910500  0.30151100  0.00000000  1
  Sn  Sn20  1  0.85089500  0.80151100  0.00000000  1
  Sn  Sn21  1  0.14910500  0.19848900  0.00000000  1
  Sn  Sn22  1  0.30151100  0.35089500  0.00000000  1
  Sn  Sn23  1  0.69848900  0.64910500  0.00000000  1
  Sn  Sn24  1  0.19848900  0.85089500  0.00000000  1
  Sn  Sn25  1  0.80151100  0.14910500  0.00000000  1
  Sn  Sn26  1  0.33634100  0.50985700  0.50000000  1
  Sn  Sn27  1  0.66365900  0.49014300  0.50000000  1
  Sn  Sn28  1  0.83634100  0.99014300  0.50000000  1
  Sn  Sn29  1  0.16365900  0.00985700  0.50000000  1
  Sn  Sn30  1  0.49014300  0.33634100  0.50000000  1
  Sn  Sn31  1  0.50985700  0.66365900  0.50000000  1
  Sn  Sn32  1  0.00985700  0.83634100  0.50000000  1
  Sn  Sn33  1  0.99014300  0.16365900  0.50000000  1
  Sn  Sn34  1  0.07098500  0.57098500  0.00000000  1
  Sn  Sn35  1  0.92901500  0.42901500  0.00000000  1
  Sn  Sn36  1  0.57098500  0.92901500  0.00000000  1
  Sn  Sn37  1  0.42901500  0.07098500  0.00000000  1
