# generated using pymatgen
data_Y3Ga2
_symmetry_space_group_name_H-M   'P 1'
_cell_length_a   11.13364984
_cell_length_b   11.13364984
_cell_length_c   11.13364984
_cell_angle_alpha   116.58831824
_cell_angle_beta   116.58831824
_cell_angle_gamma   96.01832010
_symmetry_Int_Tables_number   1
_chemical_formula_structural   Y3Ga2
_chemical_formula_sum   'Y24 Ga16'
_cell_volume   1020.11321073
_cell_formula_units_Z   8
loop_
 _symmetry_equiv_pos_site_id
 _symmetry_equiv_pos_as_xyz
  1  'x, y, z'
loop_
 _atom_site_type_symbol
 _atom_site_label
 _atom_site_symmetry_multiplicity
 _atom_site_fract_x
 _atom_site_fract_y
 _atom_site_fract_z
 _atom_site_occupancy
  Y  Y0  1  0.14773200  0.64773200  0.50000000  1
  Y  Y1  1  0.64773200  0.14773200  0.50000000  1
  Y  Y2  1  0.85226800  0.35226800  0.50000000  1
  Y  Y3  1  0.35226800  0.85226800  0.50000000  1
  Y  Y4  1  0.66862000  0.16862000  0.83724100  1
  Y  Y5  1  0.33138000  0.83138000  0.16275900  1
  Y  Y6  1  0.16862000  0.33138000  0.50000000  1
  Y  Y7  1  0.83138000  0.66862000  0.50000000  1
  Y  Y8  1  0.06714200  0.93127300  0.27092300  1
  Y  Y9  1  0.66035000  0.79621900  0.72907700  1
  Y  Y10  1  0.56714200  0.29621900  0.13586900  1
  Y  Y11  1  0.16035000  0.43127300  0.86413100  1
  Y  Y12  1  0.79621900  0.06714200  0.13586900  1
  Y  Y13  1  0.93127300  0.66035000  0.86413100  1
  Y  Y14  1  0.43127300  0.56714200  0.27092300  1
  Y  Y15  1  0.29621900  0.16035000  0.72907700  1
  Y  Y16  1  0.93285800  0.06872700  0.72907700  1
  Y  Y17  1  0.33965000  0.20378100  0.27092300  1
  Y  Y18  1  0.43285800  0.70378100  0.86413100  1
  Y  Y19  1  0.83965000  0.56872700  0.13586900  1
  Y  Y20  1  0.20378100  0.93285800  0.86413100  1
  Y  Y21  1  0.06872700  0.33965000  0.13586900  1
  Y  Y22  1  0.56872700  0.43285800  0.72907700  1
  Y  Y23  1  0.70378100  0.83965000  0.27092300  1
  Ga  Ga24  1  0.75000000  0.75000000  0.00000000  1
  Ga  Ga25  1  0.25000000  0.25000000  0.00000000  1
  Ga  Ga26  1  0.00000000  0.00000000  0.00000000  1
  Ga  Ga27  1  0.50000000  0.50000000  0.00000000  1
  Ga  Ga28  1  0.11620200  0.61620200  0.73240400  1
  Ga  Ga29  1  0.88379800  0.38379800  0.26759600  1
  Ga  Ga30  1  0.61620200  0.88379800  0.50000000  1
  Ga  Ga31  1  0.38379800  0.11620200  0.50000000  1
  Ga  Ga32  1  0.87858600  0.37858600  0.85606300  1
  Ga  Ga33  1  0.52252300  0.02252300  0.14393700  1
  Ga  Ga34  1  0.37858600  0.52252300  0.50000000  1
  Ga  Ga35  1  0.02252300  0.87858600  0.50000000  1
  Ga  Ga36  1  0.12141400  0.62141400  0.14393700  1
  Ga  Ga37  1  0.47747700  0.97747700  0.85606300  1
  Ga  Ga38  1  0.62141400  0.47747700  0.50000000  1
  Ga  Ga39  1  0.97747700  0.12141400  0.50000000  1
