# generated using pymatgen
data_GaH15N5Cl3
_symmetry_space_group_name_H-M   'P 1'
_cell_length_a   6.91663800
_cell_length_b   10.79641900
_cell_length_c   13.80101700
_cell_angle_alpha   90.00000000
_cell_angle_beta   90.00000000
_cell_angle_gamma   90.00000000
_symmetry_Int_Tables_number   1
_chemical_formula_structural   GaH15N5Cl3
_chemical_formula_sum   'Ga4 H60 N20 Cl12'
_cell_volume   1030.58986688
_cell_formula_units_Z   4
loop_
 _symmetry_equiv_pos_site_id
 _symmetry_equiv_pos_as_xyz
  1  'x, y, z'
loop_
 _atom_site_type_symbol
 _atom_site_label
 _atom_site_symmetry_multiplicity
 _atom_site_fract_x
 _atom_site_fract_y
 _atom_site_fract_z
 _atom_site_occupancy
  Ga  Ga0  1  0.82011600  0.75000000  0.10369000  1
  Ga  Ga1  1  0.67988400  0.75000000  0.60369000  1
  Ga  Ga2  1  0.17988400  0.25000000  0.89631000  1
  Ga  Ga3  1  0.32011600  0.25000000  0.39631000  1
  H  H4  1  0.99715800  0.75000000  0.27347900  1
  H  H5  1  0.50284200  0.75000000  0.77347900  1
  H  H6  1  0.00284200  0.25000000  0.72652100  1
  H  H7  1  0.49715800  0.25000000  0.22652100  1
  H  H8  1  0.13273100  0.67246500  0.19457600  1
  H  H9  1  0.36726900  0.82753500  0.69457600  1
  H  H10  1  0.86726900  0.17246500  0.80542400  1
  H  H11  1  0.63273100  0.32753500  0.30542400  1
  H  H12  1  0.86726900  0.32753500  0.80542400  1
  H  H13  1  0.63273100  0.17246500  0.30542400  1
  H  H14  1  0.13273100  0.82753500  0.19457600  1
  H  H15  1  0.36726900  0.67246500  0.69457600  1
  H  H16  1  0.45267400  0.75000000  0.03805100  1
  H  H17  1  0.04732600  0.75000000  0.53805100  1
  H  H18  1  0.54732600  0.25000000  0.96194900  1
  H  H19  1  0.95267400  0.25000000  0.46194900  1
  H  H20  1  0.59696200  0.67281100  0.96348700  1
  H  H21  1  0.90303800  0.82718900  0.46348700  1
  H  H22  1  0.40303800  0.17281100  0.03651300  1
  H  H23  1  0.09696200  0.32718900  0.53651300  1
  H  H24  1  0.40303800  0.32718900  0.03651300  1
  H  H25  1  0.09696200  0.17281100  0.53651300  1
  H  H26  1  0.59696200  0.82718900  0.96348700  1
  H  H27  1  0.90303800  0.67281100  0.46348700  1
  H  H28  1  0.66717100  0.75000000  0.28733200  1
  H  H29  1  0.83282900  0.75000000  0.78733200  1
  H  H30  1  0.33282900  0.25000000  0.71266800  1
  H  H31  1  0.16717100  0.25000000  0.21266800  1
  H  H32  1  0.52616200  0.67271200  0.21250600  1
  H  H33  1  0.97383800  0.82728800  0.71250600  1
  H  H34  1  0.47383800  0.17271200  0.78749400  1
  H  H35  1  0.02616200  0.32728800  0.28749400  1
  H  H36  1  0.47383800  0.32728800  0.78749400  1
  H  H37  1  0.02616200  0.17271200  0.28749400  1
  H  H38  1  0.52616200  0.82728800  0.21250600  1
  H  H39  1  0.97383800  0.67271200  0.71250600  1
  H  H40  1  0.78236200  0.52137000  0.03563700  1
  H  H41  1  0.71763800  0.97863000  0.53563700  1
  H  H42  1  0.21763800  0.02137000  0.96436300  1
  H  H43  1  0.28236200  0.47863000  0.46436300  1
  H  H44  1  0.21763800  0.47863000  0.96436300  1
  H  H45  1  0.28236200  0.02137000  0.46436300  1
  H  H46  1  0.78236200  0.97863000  0.03563700  1
  H  H47  1  0.71763800  0.52137000  0.53563700  1
  H  H48  1  0.95960000  0.52353800  0.11614000  1
  H  H49  1  0.54040000  0.97646200  0.61614000  1
  H  H50  1  0.04040000  0.02353800  0.88386000  1
  H  H51  1  0.45960000  0.47646200  0.38386000  1
  H  H52  1  0.04040000  0.47646200  0.88386000  1
  H  H53  1  0.45960000  0.02353800  0.38386000  1
  H  H54  1  0.95960000  0.97646200  0.11614000  1
  H  H55  1  0.54040000  0.52353800  0.61614000  1
  H  H56  1  0.73142700  0.51874600  0.15291400  1
  H  H57  1  0.76857300  0.98125400  0.65291400  1
  H  H58  1  0.26857300  0.01874600  0.84708600  1
  H  H59  1  0.23142700  0.48125400  0.34708600  1
  H  H60  1  0.26857300  0.48125400  0.84708600  1
  H  H61  1  0.23142700  0.01874600  0.34708600  1
  H  H62  1  0.73142700  0.98125400  0.15291400  1
  H  H63  1  0.76857300  0.51874600  0.65291400  1
  N  N64  1  0.04723400  0.75000000  0.20387900  1
  N  N65  1  0.45276600  0.75000000  0.70387900  1
  N  N66  1  0.95276600  0.25000000  0.79612100  1
  N  N67  1  0.54723400  0.25000000  0.29612100  1
  N  N68  1  0.58765100  0.75000000  0.00723700  1
  N  N69  1  0.91234900  0.75000000  0.50723700  1
  N  N70  1  0.41234900  0.25000000  0.99276300  1
  N  N71  1  0.08765100  0.25000000  0.49276300  1
  N  N72  1  0.61334200  0.75000000  0.21824400  1
  N  N73  1  0.88665800  0.75000000  0.71824400  1
  N  N74  1  0.38665800  0.25000000  0.78175600  1
  N  N75  1  0.11334200  0.25000000  0.28175600  1
  N  N76  1  0.82321800  0.55614900  0.10212100  1
  N  N77  1  0.67678200  0.94385100  0.60212100  1
  N  N78  1  0.17678200  0.05614900  0.89787900  1
  N  N79  1  0.32321800  0.44385100  0.39787900  1
  N  N80  1  0.17678200  0.44385100  0.89787900  1
  N  N81  1  0.32321800  0.05614900  0.39787900  1
  N  N82  1  0.82321800  0.94385100  0.10212100  1
  N  N83  1  0.67678200  0.55614900  0.60212100  1
  Cl  Cl84  1  0.04826400  0.75000000  0.97338200  1
  Cl  Cl85  1  0.45173600  0.75000000  0.47338200  1
  Cl  Cl86  1  0.95173600  0.25000000  0.02661800  1
  Cl  Cl87  1  0.54826400  0.25000000  0.52661800  1
  Cl  Cl88  1  0.83505900  0.50126300  0.35246500  1
  Cl  Cl89  1  0.66494100  0.99873700  0.85246500  1
  Cl  Cl90  1  0.16494100  0.00126300  0.64753500  1
  Cl  Cl91  1  0.33505900  0.49873700  0.14753500  1
  Cl  Cl92  1  0.16494100  0.49873700  0.64753500  1
  Cl  Cl93  1  0.33505900  0.00126300  0.14753500  1
  Cl  Cl94  1  0.83505900  0.99873700  0.35246500  1
  Cl  Cl95  1  0.66494100  0.50126300  0.85246500  1
