# generated using pymatgen
data_AgSbS(OF3)2
_symmetry_space_group_name_H-M   'P 1'
_cell_length_a   8.40833800
_cell_length_b   7.83621400
_cell_length_c   13.73955915
_cell_angle_alpha   56.08404127
_cell_angle_beta   90.00000000
_cell_angle_gamma   90.00000000
_symmetry_Int_Tables_number   1
_chemical_formula_structural   AgSbS(OF3)2
_chemical_formula_sum   'Ag4 Sb4 S4 O8 F24'
_cell_volume   751.26379151
_cell_formula_units_Z   4
loop_
 _symmetry_equiv_pos_site_id
 _symmetry_equiv_pos_as_xyz
  1  'x, y, z'
loop_
 _atom_site_type_symbol
 _atom_site_label
 _atom_site_symmetry_multiplicity
 _atom_site_fract_x
 _atom_site_fract_y
 _atom_site_fract_z
 _atom_site_occupancy
  Ag  Ag0  1  0.26056500  0.70916600  0.53324400  1
  Ag  Ag1  1  0.23943500  0.70916600  0.03324400  1
  Ag  Ag2  1  0.73943500  0.29083400  0.46675600  1
  Ag  Ag3  1  0.76056500  0.29083400  0.96675600  1
  Sb  Sb4  1  0.23974600  0.36767700  0.37647400  1
  Sb  Sb5  1  0.26025400  0.36767700  0.87647400  1
  Sb  Sb6  1  0.76025400  0.63232300  0.62352600  1
  Sb  Sb7  1  0.73974600  0.63232300  0.12352600  1
  S  S8  1  0.43027800  0.00040900  0.22701100  1
  S  S9  1  0.06972200  0.00040900  0.72701100  1
  S  S10  1  0.56972200  0.99959100  0.77298900  1
  S  S11  1  0.93027800  0.99959100  0.27298900  1
  O  O12  1  0.45753500  0.87175500  0.35270500  1
  O  O13  1  0.04246500  0.87175500  0.85270500  1
  O  O14  1  0.54246500  0.12824500  0.64729500  1
  O  O15  1  0.95753500  0.12824500  0.14729500  1
  O  O16  1  0.57141200  0.07896900  0.15363700  1
  O  O17  1  0.92858800  0.07896900  0.65363700  1
  O  O18  1  0.42858800  0.92103100  0.84636300  1
  O  O19  1  0.07141200  0.92103100  0.34636300  1
  F  F20  1  0.27524500  0.07983200  0.49273700  1
  F  F21  1  0.22475500  0.07983200  0.99273700  1
  F  F22  1  0.72475500  0.92016800  0.50726300  1
  F  F23  1  0.77524500  0.92016800  0.00726300  1
  F  F24  1  0.20457800  0.65293400  0.25589800  1
  F  F25  1  0.29542200  0.65293400  0.75589800  1
  F  F26  1  0.79542200  0.34706600  0.74410200  1
  F  F27  1  0.70457800  0.34706600  0.24410200  1
  F  F28  1  0.46141100  0.42126600  0.38266900  1
  F  F29  1  0.03858900  0.42126600  0.88266900  1
  F  F30  1  0.53858900  0.57873400  0.61733100  1
  F  F31  1  0.96141100  0.57873400  0.11733100  1
  F  F32  1  0.27920400  0.32583500  0.25330600  1
  F  F33  1  0.22079600  0.32583500  0.75330600  1
  F  F34  1  0.72079600  0.67416500  0.74669400  1
  F  F35  1  0.77920400  0.67416500  0.24669400  1
  F  F36  1  0.01735400  0.30689800  0.37839400  1
  F  F37  1  0.48264600  0.30689800  0.87839400  1
  F  F38  1  0.98264600  0.69310200  0.62160600  1
  F  F39  1  0.51735400  0.69310200  0.12160600  1
  F  F40  1  0.19870300  0.42273100  0.49454300  1
  F  F41  1  0.30129700  0.42273100  0.99454300  1
  F  F42  1  0.80129700  0.57726900  0.50545700  1
  F  F43  1  0.69870300  0.57726900  0.00545700  1
