# generated using pymatgen
data_Y5(FeTe)2
_symmetry_space_group_name_H-M   'P 1'
_cell_length_a   7.82780594
_cell_length_b   7.82780594
_cell_length_c   15.25044300
_cell_angle_alpha   90.00000000
_cell_angle_beta   90.00000000
_cell_angle_gamma   150.67929638
_symmetry_Int_Tables_number   1
_chemical_formula_structural   Y5(FeTe)2
_chemical_formula_sum   'Y10 Fe4 Te4'
_cell_volume   457.60470590
_cell_formula_units_Z   2
loop_
 _symmetry_equiv_pos_site_id
 _symmetry_equiv_pos_as_xyz
  1  'x, y, z'
loop_
 _atom_site_type_symbol
 _atom_site_label
 _atom_site_symmetry_multiplicity
 _atom_site_fract_x
 _atom_site_fract_y
 _atom_site_fract_z
 _atom_site_occupancy
  Y  Y0  1  0.96189300  0.03810700  0.38068300  1
  Y  Y1  1  0.03810700  0.96189300  0.61931700  1
  Y  Y2  1  0.03810700  0.96189300  0.88068300  1
  Y  Y3  1  0.96189300  0.03810700  0.11931700  1
  Y  Y4  1  0.74279700  0.25720300  0.62869000  1
  Y  Y5  1  0.25720300  0.74279700  0.37131000  1
  Y  Y6  1  0.25720300  0.74279700  0.12869000  1
  Y  Y7  1  0.74279700  0.25720300  0.87131000  1
  Y  Y8  1  0.39671200  0.60328800  0.75000000  1
  Y  Y9  1  0.60328800  0.39671200  0.25000000  1
  Fe  Fe10  1  0.83015600  0.16984400  0.25000000  1
  Fe  Fe11  1  0.16984400  0.83015600  0.75000000  1
  Fe  Fe12  1  0.40582900  0.59417100  0.25000000  1
  Fe  Fe13  1  0.59417100  0.40582900  0.75000000  1
  Te  Te14  1  0.61770200  0.38229800  0.03950500  1
  Te  Te15  1  0.38229800  0.61770200  0.96049500  1
  Te  Te16  1  0.38229800  0.61770200  0.53950500  1
  Te  Te17  1  0.61770200  0.38229800  0.46049500  1
