# generated using pymatgen
data_ErAsPd
_symmetry_space_group_name_H-M   'P 1'
_cell_length_a   4.11319400
_cell_length_b   7.01989800
_cell_length_c   7.94386300
_cell_angle_alpha   90.00000000
_cell_angle_beta   90.00000000
_cell_angle_gamma   90.00000000
_symmetry_Int_Tables_number   1
_chemical_formula_structural   ErAsPd
_chemical_formula_sum   'Er4 As4 Pd4'
_cell_volume   229.37270758
_cell_formula_units_Z   4
loop_
 _symmetry_equiv_pos_site_id
 _symmetry_equiv_pos_as_xyz
  1  'x, y, z'
loop_
 _atom_site_type_symbol
 _atom_site_label
 _atom_site_symmetry_multiplicity
 _atom_site_fract_x
 _atom_site_fract_y
 _atom_site_fract_z
 _atom_site_occupancy
  Er  Er0  1  0.25000000  0.53221200  0.19087500  1
  Er  Er1  1  0.75000000  0.46778800  0.80912500  1
  Er  Er2  1  0.25000000  0.03221200  0.30912500  1
  Er  Er3  1  0.75000000  0.96778800  0.69087500  1
  As  As4  1  0.25000000  0.74709700  0.87872900  1
  As  As5  1  0.75000000  0.25290300  0.12127100  1
  As  As6  1  0.25000000  0.24709700  0.62127100  1
  As  As7  1  0.75000000  0.75290300  0.37872900  1
  Pd  Pd8  1  0.75000000  0.35773800  0.43761500  1
  Pd  Pd9  1  0.25000000  0.64226200  0.56238500  1
  Pd  Pd10  1  0.75000000  0.85773800  0.06238500  1
  Pd  Pd11  1  0.25000000  0.14226200  0.93761500  1
