# generated using pymatgen
data_Na2SrMnV2O8
_symmetry_space_group_name_H-M   'P 1'
_cell_length_a   5.64822100
_cell_length_b   9.79197700
_cell_length_c   14.00242428
_cell_angle_alpha   89.94156432
_cell_angle_beta   90.00000000
_cell_angle_gamma   90.00000000
_symmetry_Int_Tables_number   1
_chemical_formula_structural   Na2SrMnV2O8
_chemical_formula_sum   'Na8 Sr4 Mn4 V8 O32'
_cell_volume   774.43517934
_cell_formula_units_Z   4
loop_
 _symmetry_equiv_pos_site_id
 _symmetry_equiv_pos_as_xyz
  1  'x, y, z'
loop_
 _atom_site_type_symbol
 _atom_site_label
 _atom_site_symmetry_multiplicity
 _atom_site_fract_x
 _atom_site_fract_y
 _atom_site_fract_z
 _atom_site_occupancy
  Na  Na0  1  0.47707400  0.81896900  0.91551200  1
  Na  Na1  1  0.97707400  0.68103100  0.08448800  1
  Na  Na2  1  0.52292600  0.18103100  0.08448800  1
  Na  Na3  1  0.02292600  0.31896900  0.91551200  1
  Na  Na4  1  0.51749800  0.15025800  0.58555600  1
  Na  Na5  1  0.01749800  0.34974200  0.41444400  1
  Na  Na6  1  0.48250200  0.84974200  0.41444400  1
  Na  Na7  1  0.98250200  0.65025800  0.58555600  1
  Sr  Sr8  1  0.56107800  0.46095500  0.75032200  1
  Sr  Sr9  1  0.06107800  0.03904500  0.24967800  1
  Sr  Sr10  1  0.43892200  0.53904500  0.24967800  1
  Sr  Sr11  1  0.93892200  0.96095500  0.75032200  1
  Mn  Mn12  1  0.50000000  0.50000000  0.50000000  1
  Mn  Mn13  1  0.00000000  0.00000000  0.50000000  1
  Mn  Mn14  1  0.50000000  0.50000000  0.00000000  1
  Mn  Mn15  1  0.00000000  0.00000000  0.00000000  1
  V  V16  1  0.46719400  0.81716400  0.63718900  1
  V  V17  1  0.96719400  0.68283600  0.36281100  1
  V  V18  1  0.53280600  0.18283600  0.36281100  1
  V  V19  1  0.03280600  0.31716400  0.63718900  1
  V  V20  1  0.48006100  0.14881100  0.86317300  1
  V  V21  1  0.98006100  0.35118900  0.13682700  1
  V  V22  1  0.51993900  0.85118900  0.13682700  1
  V  V23  1  0.01993900  0.64881100  0.86317300  1
  O  O24  1  0.49732100  0.64022500  0.61907500  1
  O  O25  1  0.99732100  0.85977500  0.38092500  1
  O  O26  1  0.50267900  0.35977500  0.38092500  1
  O  O27  1  0.00267900  0.14022500  0.61907500  1
  O  O28  1  0.68768900  0.90755700  0.57535300  1
  O  O29  1  0.18768900  0.59244300  0.42464700  1
  O  O30  1  0.31231100  0.09244300  0.42464700  1
  O  O31  1  0.81231100  0.40755700  0.57535300  1
  O  O32  1  0.19223400  0.08212700  0.87678700  1
  O  O33  1  0.69223400  0.41787300  0.12321300  1
  O  O34  1  0.80776600  0.91787300  0.12321300  1
  O  O35  1  0.30776600  0.58212700  0.87678700  1
  O  O36  1  0.69111700  0.03888400  0.91359900  1
  O  O37  1  0.19111700  0.46111600  0.08640100  1
  O  O38  1  0.30888300  0.96111600  0.08640100  1
  O  O39  1  0.80888300  0.53888400  0.91359900  1
  O  O40  1  0.48753100  0.30418200  0.92537700  1
  O  O41  1  0.98753100  0.19581800  0.07462300  1
  O  O42  1  0.51246900  0.69581800  0.07462300  1
  O  O43  1  0.01246900  0.80418200  0.92537700  1
  O  O44  1  0.19280300  0.86833900  0.59164100  1
  O  O45  1  0.69280300  0.63166100  0.40835900  1
  O  O46  1  0.80719700  0.13166100  0.40835900  1
  O  O47  1  0.30719700  0.36833900  0.59164100  1
  O  O48  1  0.48530000  0.86243300  0.75496100  1
  O  O49  1  0.98530000  0.63756700  0.24503900  1
  O  O50  1  0.51470000  0.13756700  0.24503900  1
  O  O51  1  0.01470000  0.36243300  0.75496100  1
  O  O52  1  0.55548100  0.18455200  0.74719200  1
  O  O53  1  0.05548100  0.31544800  0.25280800  1
  O  O54  1  0.44451900  0.81544800  0.25280800  1
  O  O55  1  0.94451900  0.68455200  0.74719200  1
