# generated using pymatgen
data_Lu6Ta4Al43
_symmetry_space_group_name_H-M   'P 1'
_cell_length_a   11.12238169
_cell_length_b   11.12238169
_cell_length_c   17.62001100
_cell_angle_alpha   90.00000000
_cell_angle_beta   90.00000000
_cell_angle_gamma   119.99999813
_symmetry_Int_Tables_number   1
_chemical_formula_structural   Lu6Ta4Al43
_chemical_formula_sum   'Lu12 Ta8 Al86'
_cell_volume   1887.69751614
_cell_formula_units_Z   2
loop_
 _symmetry_equiv_pos_site_id
 _symmetry_equiv_pos_as_xyz
  1  'x, y, z'
loop_
 _atom_site_type_symbol
 _atom_site_label
 _atom_site_symmetry_multiplicity
 _atom_site_fract_x
 _atom_site_fract_y
 _atom_site_fract_z
 _atom_site_occupancy
  Lu  Lu0  1  0.53069700  0.00000000  0.59639100  1
  Lu  Lu1  1  0.46930300  0.00000000  0.40360900  1
  Lu  Lu2  1  0.00000000  0.53069700  0.59639100  1
  Lu  Lu3  1  0.46930300  0.00000000  0.09639100  1
  Lu  Lu4  1  0.00000000  0.53069700  0.90360900  1
  Lu  Lu5  1  0.00000000  0.46930300  0.40360900  1
  Lu  Lu6  1  0.53069700  0.00000000  0.90360900  1
  Lu  Lu7  1  0.00000000  0.46930300  0.09639100  1
  Lu  Lu8  1  0.46930300  0.46930300  0.59639100  1
  Lu  Lu9  1  0.53069700  0.53069700  0.40360900  1
  Lu  Lu10  1  0.53069700  0.53069700  0.09639100  1
  Lu  Lu11  1  0.46930300  0.46930300  0.90360900  1
  Ta  Ta12  1  0.00000000  0.00000000  0.50000000  1
  Ta  Ta13  1  0.00000000  0.00000000  0.00000000  1
  Ta  Ta14  1  0.72511800  0.00000000  0.75000000  1
  Ta  Ta15  1  0.27488200  0.00000000  0.25000000  1
  Ta  Ta16  1  0.00000000  0.72511800  0.75000000  1
  Ta  Ta17  1  0.00000000  0.27488200  0.25000000  1
  Ta  Ta18  1  0.27488200  0.27488200  0.75000000  1
  Ta  Ta19  1  0.72511800  0.72511800  0.25000000  1
  Al  Al20  1  0.14980100  0.59548000  0.75000000  1
  Al  Al21  1  0.85019900  0.40452000  0.25000000  1
  Al  Al22  1  0.40452000  0.55432100  0.75000000  1
  Al  Al23  1  0.59548000  0.14980100  0.75000000  1
  Al  Al24  1  0.59548000  0.44567900  0.25000000  1
  Al  Al25  1  0.40452000  0.85019900  0.25000000  1
  Al  Al26  1  0.44567900  0.85019900  0.75000000  1
  Al  Al27  1  0.55432100  0.40452000  0.75000000  1
  Al  Al28  1  0.55432100  0.14980100  0.25000000  1
  Al  Al29  1  0.44567900  0.59548000  0.25000000  1
  Al  Al30  1  0.85019900  0.44567900  0.75000000  1
  Al  Al31  1  0.14980100  0.55432100  0.25000000  1
  Al  Al32  1  0.15943400  0.00000000  0.11495900  1
  Al  Al33  1  0.84056600  0.00000000  0.88504100  1
  Al  Al34  1  0.00000000  0.15943400  0.11495900  1
  Al  Al35  1  0.84056600  0.00000000  0.61495900  1
  Al  Al36  1  0.00000000  0.15943400  0.38504100  1
  Al  Al37  1  0.00000000  0.84056600  0.88504100  1
  Al  Al38  1  0.15943400  0.00000000  0.38504100  1
  Al  Al39  1  0.00000000  0.84056600  0.61495900  1
  Al  Al40  1  0.84056600  0.84056600  0.11495900  1
  Al  Al41  1  0.15943400  0.15943400  0.88504100  1
  Al  Al42  1  0.15943400  0.15943400  0.61495900  1
  Al  Al43  1  0.84056600  0.84056600  0.38504100  1
  Al  Al44  1  0.24703600  0.49407100  0.50000000  1
  Al  Al45  1  0.75296400  0.50592900  0.50000000  1
  Al  Al46  1  0.50592900  0.75296400  0.50000000  1
  Al  Al47  1  0.75296400  0.50592900  0.00000000  1
  Al  Al48  1  0.49407100  0.24703600  0.00000000  1
  Al  Al49  1  0.49407100  0.24703600  0.50000000  1
  Al  Al50  1  0.24703600  0.49407100  0.00000000  1
  Al  Al51  1  0.50592900  0.75296400  0.00000000  1
  Al  Al52  1  0.24703600  0.75296400  0.50000000  1
  Al  Al53  1  0.75296400  0.24703600  0.50000000  1
  Al  Al54  1  0.75296400  0.24703600  0.00000000  1
  Al  Al55  1  0.24703600  0.75296400  0.00000000  1
  Al  Al56  1  0.14741800  0.00000000  0.75000000  1
  Al  Al57  1  0.85258200  0.00000000  0.25000000  1
  Al  Al58  1  0.00000000  0.14741800  0.75000000  1
  Al  Al59  1  0.00000000  0.85258200  0.25000000  1
  Al  Al60  1  0.85258200  0.85258200  0.75000000  1
  Al  Al61  1  0.14741800  0.14741800  0.25000000  1
  Al  Al62  1  0.33333300  0.66666700  0.62614800  1
  Al  Al63  1  0.66666700  0.33333300  0.37385200  1
  Al  Al64  1  0.66666700  0.33333300  0.12614800  1
  Al  Al65  1  0.66666700  0.33333300  0.87385200  1
  Al  Al66  1  0.33333300  0.66666700  0.87385200  1
  Al  Al67  1  0.33333300  0.66666700  0.12614800  1
  Al  Al68  1  0.33333300  0.66666700  0.37385200  1
  Al  Al69  1  0.66666700  0.33333300  0.62614800  1
  Al  Al70  1  0.25700100  0.00000000  0.53035100  1
  Al  Al71  1  0.74299900  0.00000000  0.46964900  1
  Al  Al72  1  0.00000000  0.25700100  0.53035100  1
  Al  Al73  1  0.74299900  0.00000000  0.03035100  1
  Al  Al74  1  0.00000000  0.25700100  0.96964900  1
  Al  Al75  1  0.00000000  0.74299900  0.46964900  1
  Al  Al76  1  0.25700100  0.00000000  0.96964900  1
  Al  Al77  1  0.00000000  0.74299900  0.03035100  1
  Al  Al78  1  0.74299900  0.74299900  0.53035100  1
  Al  Al79  1  0.25700100  0.25700100  0.46964900  1
  Al  Al80  1  0.25700100  0.25700100  0.03035100  1
  Al  Al81  1  0.74299900  0.74299900  0.96964900  1
  Al  Al82  1  0.15701800  0.39512500  0.66293600  1
  Al  Al83  1  0.84298200  0.60487500  0.33706400  1
  Al  Al84  1  0.60487500  0.76189300  0.66293600  1
  Al  Al85  1  0.84298200  0.60487500  0.16293600  1
  Al  Al86  1  0.39512500  0.15701800  0.83706400  1
  Al  Al87  1  0.39512500  0.23810700  0.33706400  1
  Al  Al88  1  0.15701800  0.39512500  0.83706400  1
  Al  Al89  1  0.60487500  0.84298200  0.16293600  1
  Al  Al90  1  0.23810700  0.84298200  0.66293600  1
  Al  Al91  1  0.39512500  0.23810700  0.16293600  1
  Al  Al92  1  0.76189300  0.60487500  0.83706400  1
  Al  Al93  1  0.76189300  0.15701800  0.33706400  1
  Al  Al94  1  0.60487500  0.76189300  0.83706400  1
  Al  Al95  1  0.23810700  0.39512500  0.16293600  1
  Al  Al96  1  0.60487500  0.84298200  0.33706400  1
  Al  Al97  1  0.39512500  0.15701800  0.66293600  1
  Al  Al98  1  0.76189300  0.15701800  0.16293600  1
  Al  Al99  1  0.23810700  0.39512500  0.33706400  1
  Al  Al100  1  0.23810700  0.84298200  0.83706400  1
  Al  Al101  1  0.76189300  0.60487500  0.66293600  1
  Al  Al102  1  0.84298200  0.23810700  0.83706400  1
  Al  Al103  1  0.15701800  0.76189300  0.16293600  1
  Al  Al104  1  0.15701800  0.76189300  0.33706400  1
  Al  Al105  1  0.84298200  0.23810700  0.66293600  1
