# generated using pymatgen
data_Cs6Si2O7
_symmetry_space_group_name_H-M   'P 1'
_cell_length_a   9.64442700
_cell_length_b   7.28968400
_cell_length_c   12.23294019
_cell_angle_alpha   53.43392512
_cell_angle_beta   90.00000000
_cell_angle_gamma   90.00000000
_symmetry_Int_Tables_number   1
_chemical_formula_structural   Cs6Si2O7
_chemical_formula_sum   'Cs12 Si4 O14'
_cell_volume   690.75439865
_cell_formula_units_Z   2
loop_
 _symmetry_equiv_pos_site_id
 _symmetry_equiv_pos_as_xyz
  1  'x, y, z'
loop_
 _atom_site_type_symbol
 _atom_site_label
 _atom_site_symmetry_multiplicity
 _atom_site_fract_x
 _atom_site_fract_y
 _atom_site_fract_z
 _atom_site_occupancy
  Cs  Cs0  1  0.35585500  0.52091600  0.59690000  1
  Cs  Cs1  1  0.14414500  0.52091600  0.09690000  1
  Cs  Cs2  1  0.64414500  0.47908400  0.40310000  1
  Cs  Cs3  1  0.97277600  0.70581500  0.54483400  1
  Cs  Cs4  1  0.47277600  0.29418500  0.95516600  1
  Cs  Cs5  1  0.02722400  0.29418500  0.45516600  1
  Cs  Cs6  1  0.52722400  0.70581500  0.04483400  1
  Cs  Cs7  1  0.27599900  0.88878200  0.72721500  1
  Cs  Cs8  1  0.77599900  0.11121800  0.77278500  1
  Cs  Cs9  1  0.72400100  0.11121800  0.27278500  1
  Cs  Cs10  1  0.22400100  0.88878200  0.22721500  1
  Cs  Cs11  1  0.85585500  0.47908400  0.90310000  1
  Si  Si12  1  0.62847200  0.84148000  0.61781000  1
  Si  Si13  1  0.87152800  0.84148000  0.11781000  1
  Si  Si14  1  0.37152800  0.15852000  0.38219000  1
  Si  Si15  1  0.12847200  0.15852000  0.88219000  1
  O  O16  1  0.26862600  0.99531400  0.93777600  1
  O  O17  1  0.00000000  0.00000000  0.00000000  1
  O  O18  1  0.50000000  0.00000000  0.50000000  1
  O  O19  1  0.92446900  0.77728000  0.26528500  1
  O  O20  1  0.76862600  0.00468600  0.56222400  1
  O  O21  1  0.73137400  0.00468600  0.06222400  1
  O  O22  1  0.23137400  0.99531400  0.43777600  1
  O  O23  1  0.65399000  0.61046000  0.62445500  1
  O  O24  1  0.15399000  0.38954000  0.87554500  1
  O  O25  1  0.34601000  0.38954000  0.37554500  1
  O  O26  1  0.84601000  0.61046000  0.12445500  1
  O  O27  1  0.57553100  0.77728000  0.76528500  1
  O  O28  1  0.07553100  0.22272000  0.73471500  1
  O  O29  1  0.42446900  0.22272000  0.23471500  1
