# generated using pymatgen
data_Th2Si3Ir
_symmetry_space_group_name_H-M   'P 1'
_cell_length_a   7.72166141
_cell_length_b   7.72166141
_cell_length_c   7.72166141
_cell_angle_alpha   149.19551176
_cell_angle_beta   148.14776896
_cell_angle_gamma   44.90065658
_symmetry_Int_Tables_number   1
_chemical_formula_structural   Th2Si3Ir
_chemical_formula_sum   'Th2 Si3 Ir1'
_cell_volume   124.03997138
_cell_formula_units_Z   1
loop_
 _symmetry_equiv_pos_site_id
 _symmetry_equiv_pos_as_xyz
  1  'x, y, z'
loop_
 _atom_site_type_symbol
 _atom_site_label
 _atom_site_symmetry_multiplicity
 _atom_site_fract_x
 _atom_site_fract_y
 _atom_site_fract_z
 _atom_site_occupancy
  Th  Th0  1  0.75195600  0.25195600  0.50000000  1
  Th  Th1  1  0.00029100  0.00029100  0.00000000  1
  Si  Si2  1  0.58396800  0.58396800  0.00000000  1
  Si  Si3  1  0.33151500  0.83151500  0.50000000  1
  Si  Si4  1  0.41719500  0.41719500  0.00000000  1
  Ir  Ir5  1  0.16507600  0.66507600  0.50000000  1
