# generated using pymatgen
data_DySiRh
_symmetry_space_group_name_H-M   'P 1'
_cell_length_a   4.26024500
_cell_length_b   6.93366200
_cell_length_c   7.38183300
_cell_angle_alpha   90.00000000
_cell_angle_beta   90.00000000
_cell_angle_gamma   90.00000000
_symmetry_Int_Tables_number   1
_chemical_formula_structural   DySiRh
_chemical_formula_sum   'Dy4 Si4 Rh4'
_cell_volume   218.05269481
_cell_formula_units_Z   4
loop_
 _symmetry_equiv_pos_site_id
 _symmetry_equiv_pos_as_xyz
  1  'x, y, z'
loop_
 _atom_site_type_symbol
 _atom_site_label
 _atom_site_symmetry_multiplicity
 _atom_site_fract_x
 _atom_site_fract_y
 _atom_site_fract_z
 _atom_site_occupancy
  Dy  Dy0  1  0.25000000  0.49850900  0.18921300  1
  Dy  Dy1  1  0.75000000  0.50149100  0.81078700  1
  Dy  Dy2  1  0.75000000  0.00149100  0.68921300  1
  Dy  Dy3  1  0.25000000  0.99850900  0.31078700  1
  Si  Si4  1  0.25000000  0.79613800  0.89575700  1
  Si  Si5  1  0.75000000  0.20386200  0.10424300  1
  Si  Si6  1  0.75000000  0.70386200  0.39575700  1
  Si  Si7  1  0.25000000  0.29613800  0.60424300  1
  Rh  Rh8  1  0.25000000  0.65398200  0.56965100  1
  Rh  Rh9  1  0.75000000  0.34601800  0.43034900  1
  Rh  Rh10  1  0.75000000  0.84601800  0.06965100  1
  Rh  Rh11  1  0.25000000  0.15398200  0.93034900  1
