# generated using pymatgen
data_Gd(Ni2B)6
_symmetry_space_group_name_H-M   'P 1'
_cell_length_a   6.03278664
_cell_length_b   6.03278664
_cell_length_c   10.97341100
_cell_angle_alpha   90.00000000
_cell_angle_beta   90.00000000
_cell_angle_gamma   104.80948391
_symmetry_Int_Tables_number   1
_chemical_formula_structural   Gd(Ni2B)6
_chemical_formula_sum   'Gd2 Ni24 B12'
_cell_volume   386.10526722
_cell_formula_units_Z   2
loop_
 _symmetry_equiv_pos_site_id
 _symmetry_equiv_pos_as_xyz
  1  'x, y, z'
loop_
 _atom_site_type_symbol
 _atom_site_label
 _atom_site_symmetry_multiplicity
 _atom_site_fract_x
 _atom_site_fract_y
 _atom_site_fract_z
 _atom_site_occupancy
  Gd  Gd0  1  0.83422000  0.83422000  0.49734900  1
  Gd  Gd1  1  0.16578000  0.16578000  0.99734900  1
  Ni  Ni2  1  0.56505600  0.56505600  0.91885000  1
  Ni  Ni3  1  0.43494400  0.43494400  0.41885000  1
  Ni  Ni4  1  0.78235900  0.78235900  0.09926800  1
  Ni  Ni5  1  0.21764100  0.21764100  0.59926800  1
  Ni  Ni6  1  0.54338800  0.80493500  0.73396400  1
  Ni  Ni7  1  0.80493500  0.54338800  0.73396400  1
  Ni  Ni8  1  0.45661200  0.19506500  0.23396400  1
  Ni  Ni9  1  0.19506500  0.45661200  0.23396400  1
  Ni  Ni10  1  0.14537500  0.88155700  0.75539800  1
  Ni  Ni11  1  0.88155700  0.14537500  0.75539800  1
  Ni  Ni12  1  0.85462500  0.11844300  0.25539800  1
  Ni  Ni13  1  0.11844300  0.85462500  0.25539800  1
  Ni  Ni14  1  0.65890500  0.27129700  0.56793500  1
  Ni  Ni15  1  0.27129700  0.65890500  0.56793500  1
  Ni  Ni16  1  0.34109500  0.72870300  0.06793500  1
  Ni  Ni17  1  0.72870300  0.34109500  0.06793500  1
  Ni  Ni18  1  0.63036500  0.99568000  0.93689300  1
  Ni  Ni19  1  0.99568000  0.63036500  0.93689300  1
  Ni  Ni20  1  0.36963500  0.00432000  0.43689300  1
  Ni  Ni21  1  0.00432000  0.36963500  0.43689300  1
  Ni  Ni22  1  0.47374100  0.21250700  0.77599000  1
  Ni  Ni23  1  0.21250700  0.47374100  0.77599000  1
  Ni  Ni24  1  0.52625900  0.78749300  0.27599000  1
  Ni  Ni25  1  0.78749300  0.52625900  0.27599000  1
  B  B26  1  0.83605100  0.83605100  0.83806300  1
  B  B27  1  0.16394900  0.16394900  0.33806300  1
  B  B28  1  0.48816200  0.48816200  0.65393500  1
  B  B29  1  0.51183800  0.51183800  0.15393500  1
  B  B30  1  0.32586600  0.75631200  0.88515500  1
  B  B31  1  0.75631200  0.32586600  0.88515500  1
  B  B32  1  0.67413400  0.24368800  0.38515500  1
  B  B33  1  0.24368800  0.67413400  0.38515500  1
  B  B34  1  0.40170900  0.98847500  0.62243200  1
  B  B35  1  0.98847500  0.40170900  0.62243200  1
  B  B36  1  0.59829100  0.01152500  0.12243200  1
  B  B37  1  0.01152500  0.59829100  0.12243200  1
