# generated using pymatgen
data_Na3CoF6
_symmetry_space_group_name_H-M   'P 1'
_cell_length_a   5.62044811
_cell_length_b   5.79273800
_cell_length_c   7.95569961
_cell_angle_alpha   90.00000000
_cell_angle_beta   88.91471037
_cell_angle_gamma   90.00000000
_symmetry_Int_Tables_number   1
_chemical_formula_structural   Na3CoF6
_chemical_formula_sum   'Na6 Co2 F12'
_cell_volume   258.97347830
_cell_formula_units_Z   2
loop_
 _symmetry_equiv_pos_site_id
 _symmetry_equiv_pos_as_xyz
  1  'x, y, z'
loop_
 _atom_site_type_symbol
 _atom_site_label
 _atom_site_symmetry_multiplicity
 _atom_site_fract_x
 _atom_site_fract_y
 _atom_site_fract_z
 _atom_site_occupancy
  Na  Na0  1  0.00706600  0.45253000  0.26165600  1
  Na  Na1  1  0.99293400  0.54747000  0.73834400  1
  Na  Na2  1  0.49293400  0.95253000  0.23834400  1
  Na  Na3  1  0.50706600  0.04747000  0.76165600  1
  Na  Na4  1  0.00000000  0.00000000  0.50000000  1
  Na  Na5  1  0.50000000  0.50000000  0.00000000  1
  Co  Co6  1  0.00000000  0.00000000  0.00000000  1
  Co  Co7  1  0.50000000  0.50000000  0.50000000  1
  F  F8  1  0.15853500  0.71404200  0.06746400  1
  F  F9  1  0.84146500  0.28595800  0.93253600  1
  F  F10  1  0.34146500  0.21404200  0.43253600  1
  F  F11  1  0.65853500  0.78595800  0.56746400  1
  F  F12  1  0.89870800  0.05943000  0.22505500  1
  F  F13  1  0.10129200  0.94057000  0.77494500  1
  F  F14  1  0.60129200  0.55943000  0.27494500  1
  F  F15  1  0.39870800  0.44057000  0.72505500  1
  F  F16  1  0.29694600  0.16738100  0.03995700  1
  F  F17  1  0.70305400  0.83261900  0.96004300  1
  F  F18  1  0.20305400  0.66738100  0.46004300  1
  F  F19  1  0.79694600  0.33261900  0.53995700  1
