# generated using pymatgen
data_CaMg3SiN4
_symmetry_space_group_name_H-M   'P 1'
_cell_length_a   10.56176327
_cell_length_b   10.56176327
_cell_length_c   10.56176327
_cell_angle_alpha   114.08202001
_cell_angle_beta   114.08202001
_cell_angle_gamma   100.59770814
_symmetry_Int_Tables_number   1
_chemical_formula_structural   CaMg3SiN4
_chemical_formula_sum   'Ca8 Mg24 Si8 N32'
_cell_volume   891.00924739
_cell_formula_units_Z   8
loop_
 _symmetry_equiv_pos_site_id
 _symmetry_equiv_pos_as_xyz
  1  'x, y, z'
loop_
 _atom_site_type_symbol
 _atom_site_label
 _atom_site_symmetry_multiplicity
 _atom_site_fract_x
 _atom_site_fract_y
 _atom_site_fract_z
 _atom_site_occupancy
  Ca  Ca0  1  0.19507200  0.23151800  0.49221400  1
  Ca  Ca1  1  0.73930400  0.70285800  0.50778600  1
  Ca  Ca2  1  0.98151800  0.98930400  0.53644600  1
  Ca  Ca3  1  0.45285800  0.44507200  0.46355400  1
  Ca  Ca4  1  0.55492800  0.01848200  0.00778600  1
  Ca  Ca5  1  0.01069600  0.54714200  0.99221400  1
  Ca  Ca6  1  0.76848200  0.26069600  0.96355400  1
  Ca  Ca7  1  0.29714200  0.80492800  0.03644600  1
  Mg  Mg8  1  0.16716000  0.30706100  0.86756400  1
  Mg  Mg9  1  0.43949600  0.29959600  0.13243600  1
  Mg  Mg10  1  0.05706100  0.68949600  0.63990100  1
  Mg  Mg11  1  0.04959600  0.41716000  0.36009900  1
  Mg  Mg12  1  0.58284000  0.94293900  0.63243600  1
  Mg  Mg13  1  0.31050400  0.95040400  0.36756400  1
  Mg  Mg14  1  0.69293900  0.56050400  0.86009900  1
  Mg  Mg15  1  0.70040400  0.83284000  0.13990100  1
  Mg  Mg16  1  0.45231300  0.27432600  0.85600300  1
  Mg  Mg17  1  0.41832300  0.59631000  0.14399700  1
  Mg  Mg18  1  0.02432600  0.66832300  0.32201300  1
  Mg  Mg19  1  0.34631000  0.70231300  0.67798700  1
  Mg  Mg20  1  0.29768700  0.97567400  0.64399700  1
  Mg  Mg21  1  0.33167700  0.65369000  0.35600300  1
  Mg  Mg22  1  0.72567400  0.58167700  0.17798700  1
  Mg  Mg23  1  0.40369000  0.54768700  0.82201300  1
  Mg  Mg24  1  0.90720900  0.09213000  0.12651000  1
  Mg  Mg25  1  0.96562000  0.78069900  0.87349000  1
  Mg  Mg26  1  0.84213000  0.21562000  0.68492000  1
  Mg  Mg27  1  0.53069900  0.15720900  0.31508000  1
  Mg  Mg28  1  0.84279100  0.15787000  0.37349000  1
  Mg  Mg29  1  0.78438000  0.46930100  0.62651000  1
  Mg  Mg30  1  0.90787000  0.03438000  0.81508000  1
  Mg  Mg31  1  0.21930100  0.09279100  0.18492000  1
  Si  Si32  1  0.00093400  0.86013300  0.21906100  1
  Si  Si33  1  0.64107200  0.78187300  0.78093900  1
  Si  Si34  1  0.61013300  0.89107200  0.35919900  1
  Si  Si35  1  0.53187300  0.25093400  0.64080100  1
  Si  Si36  1  0.74906600  0.38986700  0.28093900  1
  Si  Si37  1  0.10892800  0.46812700  0.71906100  1
  Si  Si38  1  0.13986700  0.35892800  0.14080100  1
  Si  Si39  1  0.21812700  0.99906600  0.85919900  1
  N  N40  1  0.24701700  0.13833500  0.80751600  1
  N  N41  1  0.33081900  0.43950200  0.19248400  1
  N  N42  1  0.88833500  0.58081900  0.39131800  1
  N  N43  1  0.18950200  0.49701700  0.60868200  1
  N  N44  1  0.50298300  0.11166500  0.69248400  1
  N  N45  1  0.41918100  0.81049800  0.30751600  1
  N  N46  1  0.86166500  0.66918100  0.10868200  1
  N  N47  1  0.56049800  0.75298300  0.89131800  1
  N  N48  1  0.92678100  0.99702700  0.26788600  1
  N  N49  1  0.72914000  0.65889400  0.73211400  1
  N  N50  1  0.74702700  0.97914000  0.57024600  1
  N  N51  1  0.40889400  0.17678100  0.42975400  1
  N  N52  1  0.82321900  0.25297300  0.23211400  1
  N  N53  1  0.02086000  0.59110600  0.76788600  1
  N  N54  1  0.00297300  0.27086000  0.92975400  1
  N  N55  1  0.34110600  0.07321900  0.07024600  1
  N  N56  1  0.13548500  0.89660400  0.41353400  1
  N  N57  1  0.48307000  0.72195100  0.58646600  1
  N  N58  1  0.64660400  0.73307000  0.26112000  1
  N  N59  1  0.47195100  0.38548500  0.73888000  1
  N  N60  1  0.61451500  0.35339600  0.08646600  1
  N  N61  1  0.26693000  0.52804900  0.91353400  1
  N  N62  1  0.10339600  0.51693000  0.23888000  1
  N  N63  1  0.27804900  0.86451500  0.76112000  1
  N  N64  1  0.00260500  0.26970200  0.62383800  1
  N  N65  1  0.64586500  0.37876700  0.37616200  1
  N  N66  1  0.01970200  0.89586500  0.76709700  1
  N  N67  1  0.12876700  0.25260500  0.23290300  1
  N  N68  1  0.74739500  0.98029800  0.87616200  1
  N  N69  1  0.10413500  0.87123300  0.12383800  1
  N  N70  1  0.73029800  0.35413500  0.73290300  1
  N  N71  1  0.62123300  0.99739500  0.26709700  1
