# generated using pymatgen
data_MgP6(HN3)4
_symmetry_space_group_name_H-M   'P 1'
_cell_length_a   4.87681400
_cell_length_b   4.90308855
_cell_length_c   21.72405500
_cell_angle_alpha   90.00000000
_cell_angle_beta   90.00000000
_cell_angle_gamma   119.82289091
_symmetry_Int_Tables_number   1
_chemical_formula_structural   MgP6(HN3)4
_chemical_formula_sum   'Mg2 P12 H8 N24'
_cell_volume   450.66077840
_cell_formula_units_Z   2
loop_
 _symmetry_equiv_pos_site_id
 _symmetry_equiv_pos_as_xyz
  1  'x, y, z'
loop_
 _atom_site_type_symbol
 _atom_site_label
 _atom_site_symmetry_multiplicity
 _atom_site_fract_x
 _atom_site_fract_y
 _atom_site_fract_z
 _atom_site_occupancy
  Mg  Mg0  1  0.50000000  0.00000000  0.50000000  1
  Mg  Mg1  1  0.00000000  0.00000000  0.00000000  1
  P  P2  1  0.82992300  0.67090800  0.41277900  1
  P  P3  1  0.84098500  0.67090800  0.58722100  1
  P  P4  1  0.34098500  0.67090800  0.91277900  1
  P  P5  1  0.32992300  0.67090800  0.08722100  1
  P  P6  1  0.17007700  0.32909200  0.58722100  1
  P  P7  1  0.15901500  0.32909200  0.41277900  1
  P  P8  1  0.65901500  0.32909200  0.08722100  1
  P  P9  1  0.67007700  0.32909200  0.91277900  1
  P  P10  1  0.90601800  0.00000000  0.28896800  1
  P  P11  1  0.09398200  0.00000000  0.71103200  1
  P  P12  1  0.59398200  0.00000000  0.78896800  1
  P  P13  1  0.40601800  0.00000000  0.21103200  1
  H  H14  1  0.25232300  0.51748300  0.31274500  1
  H  H15  1  0.26516000  0.51748300  0.68725500  1
  H  H16  1  0.76516000  0.51748300  0.81274500  1
  H  H17  1  0.75232300  0.51748300  0.18725500  1
  H  H18  1  0.74767700  0.48251700  0.68725500  1
  H  H19  1  0.73484000  0.48251700  0.31274500  1
  H  H20  1  0.23484000  0.48251700  0.18725500  1
  H  H21  1  0.24767700  0.48251700  0.81274500  1
  N  N22  1  0.12934000  0.30386500  0.33460100  1
  N  N23  1  0.17452500  0.30386500  0.66539900  1
  N  N24  1  0.67452500  0.30386500  0.83460100  1
  N  N25  1  0.62934000  0.30386500  0.16539900  1
  N  N26  1  0.87066000  0.69613500  0.66539900  1
  N  N27  1  0.82547500  0.69613500  0.33460100  1
  N  N28  1  0.32547500  0.69613500  0.16539900  1
  N  N29  1  0.37066000  0.69613500  0.83460100  1
  N  N30  1  0.12761400  0.62921300  0.43410100  1
  N  N31  1  0.50159900  0.62921300  0.56589900  1
  N  N32  1  0.00159900  0.62921300  0.93410100  1
  N  N33  1  0.62761400  0.62921300  0.06589900  1
  N  N34  1  0.87238600  0.37078700  0.56589900  1
  N  N35  1  0.49840100  0.37078700  0.43410100  1
  N  N36  1  0.99840100  0.37078700  0.06589900  1
  N  N37  1  0.37238600  0.37078700  0.93410100  1
  N  N38  1  0.58173400  0.00000000  0.27306000  1
  N  N39  1  0.41826600  0.00000000  0.72694000  1
  N  N40  1  0.91826600  0.00000000  0.77306000  1
  N  N41  1  0.08173400  0.00000000  0.22694000  1
  N  N42  1  0.86985600  0.00000000  0.43736500  1
  N  N43  1  0.13014400  0.00000000  0.56263500  1
  N  N44  1  0.63014400  0.00000000  0.93736500  1
  N  N45  1  0.36985600  0.00000000  0.06263500  1
