# generated using pymatgen
data_Rb2AgPS4
_symmetry_space_group_name_H-M   'P 1'
_cell_length_a   6.72437100
_cell_length_b   7.03628932
_cell_length_c   11.14737588
_cell_angle_alpha   95.62048203
_cell_angle_beta   106.98833572
_cell_angle_gamma   111.13388023
_symmetry_Int_Tables_number   1
_chemical_formula_structural   Rb2AgPS4
_chemical_formula_sum   'Rb4 Ag2 P2 S8'
_cell_volume   458.11234244
_cell_formula_units_Z   2
loop_
 _symmetry_equiv_pos_site_id
 _symmetry_equiv_pos_as_xyz
  1  'x, y, z'
loop_
 _atom_site_type_symbol
 _atom_site_label
 _atom_site_symmetry_multiplicity
 _atom_site_fract_x
 _atom_site_fract_y
 _atom_site_fract_z
 _atom_site_occupancy
  Rb  Rb0  1  0.84936300  0.72874300  0.10048300  1
  Rb  Rb1  1  0.15063700  0.27125700  0.89951700  1
  Rb  Rb2  1  0.44077000  0.97803100  0.68782500  1
  Rb  Rb3  1  0.55923000  0.02196900  0.31217500  1
  Ag  Ag4  1  0.77945700  0.58732000  0.41682000  1
  Ag  Ag5  1  0.22054300  0.41268000  0.58318000  1
  P  P6  1  0.86652800  0.64281100  0.73248600  1
  P  P7  1  0.13347200  0.35718900  0.26751400  1
  S  S8  1  0.14680800  0.76796700  0.89734600  1
  S  S9  1  0.85319200  0.23203300  0.10265400  1
  S  S10  1  0.57296000  0.55969400  0.77970200  1
  S  S11  1  0.42704000  0.44030600  0.22029800  1
  S  S12  1  0.87535600  0.86085300  0.62105200  1
  S  S13  1  0.12464400  0.13914700  0.37894800  1
  S  S14  1  0.85112500  0.37481700  0.62616200  1
  S  S15  1  0.14887500  0.62518300  0.37383800  1
