# generated using pymatgen
data_Sr(As3Pt2)2
_symmetry_space_group_name_H-M   'P 1'
_cell_length_a   6.07258330
_cell_length_b   6.07258330
_cell_length_c   12.15198905
_cell_angle_alpha   89.32578824
_cell_angle_beta   89.32578824
_cell_angle_gamma   88.14957366
_symmetry_Int_Tables_number   1
_chemical_formula_structural   Sr(As3Pt2)2
_chemical_formula_sum   'Sr2 As12 Pt8'
_cell_volume   447.82624370
_cell_formula_units_Z   2
loop_
 _symmetry_equiv_pos_site_id
 _symmetry_equiv_pos_as_xyz
  1  'x, y, z'
loop_
 _atom_site_type_symbol
 _atom_site_label
 _atom_site_symmetry_multiplicity
 _atom_site_fract_x
 _atom_site_fract_y
 _atom_site_fract_z
 _atom_site_occupancy
  Sr  Sr0  1  0.59607600  0.40392400  0.25000000  1
  Sr  Sr1  1  0.40392400  0.59607600  0.75000000  1
  As  As2  1  0.86350200  0.90372400  0.69156900  1
  As  As3  1  0.09627600  0.13649800  0.80843100  1
  As  As4  1  0.13649800  0.09627600  0.30843100  1
  As  As5  1  0.90372400  0.86350200  0.19156900  1
  As  As6  1  0.12077800  0.37664000  0.05631300  1
  As  As7  1  0.62336000  0.87922200  0.44368700  1
  As  As8  1  0.87922200  0.62336000  0.94368700  1
  As  As9  1  0.37664000  0.12077800  0.55631300  1
  As  As10  1  0.61550000  0.12325500  0.94504200  1
  As  As11  1  0.87674500  0.38450000  0.55495800  1
  As  As12  1  0.12325500  0.61550000  0.44504200  1
  As  As13  1  0.38450000  0.87674500  0.05495800  1
  Pt  Pt14  1  0.07660400  0.49390200  0.25029400  1
  Pt  Pt15  1  0.50609800  0.92339600  0.24970600  1
  Pt  Pt16  1  0.50000000  0.50000000  0.50000000  1
  Pt  Pt17  1  0.50000000  0.50000000  0.00000000  1
  Pt  Pt18  1  0.00000000  0.00000000  0.50000000  1
  Pt  Pt19  1  0.00000000  0.00000000  0.00000000  1
  Pt  Pt20  1  0.49390200  0.07660400  0.75029400  1
  Pt  Pt21  1  0.92339600  0.50609800  0.74970600  1
