# generated using pymatgen
data_CsBi
_symmetry_space_group_name_H-M   'P 1'
_cell_length_a   7.89202700
_cell_length_b   14.70800200
_cell_length_c   15.65671788
_cell_angle_alpha   66.81948122
_cell_angle_beta   90.00000000
_cell_angle_gamma   90.00000000
_symmetry_Int_Tables_number   1
_chemical_formula_structural   CsBi
_chemical_formula_sum   'Cs16 Bi16'
_cell_volume   1670.65083670
_cell_formula_units_Z   16
loop_
 _symmetry_equiv_pos_site_id
 _symmetry_equiv_pos_as_xyz
  1  'x, y, z'
loop_
 _atom_site_type_symbol
 _atom_site_label
 _atom_site_symmetry_multiplicity
 _atom_site_fract_x
 _atom_site_fract_y
 _atom_site_fract_z
 _atom_site_occupancy
  Cs  Cs0  1  0.62711500  0.36425500  0.12160000  1
  Cs  Cs1  1  0.12711500  0.13574500  0.87840000  1
  Cs  Cs2  1  0.37288500  0.63574500  0.87840000  1
  Cs  Cs3  1  0.87288500  0.86425500  0.12160000  1
  Cs  Cs4  1  0.80063200  0.46714900  0.39544800  1
  Cs  Cs5  1  0.30063200  0.03285100  0.60455200  1
  Cs  Cs6  1  0.19936800  0.53285100  0.60455200  1
  Cs  Cs7  1  0.69936800  0.96714900  0.39544800  1
  Cs  Cs8  1  0.57478500  0.31151500  0.65875100  1
  Cs  Cs9  1  0.07478500  0.18848500  0.34124900  1
  Cs  Cs10  1  0.42521500  0.68848500  0.34124900  1
  Cs  Cs11  1  0.92521500  0.81151600  0.65875100  1
  Cs  Cs12  1  0.86536100  0.44748400  0.84715200  1
  Cs  Cs13  1  0.36536100  0.05251600  0.15284800  1
  Cs  Cs14  1  0.13463900  0.55251600  0.15284800  1
  Cs  Cs15  1  0.63463900  0.94748400  0.84715200  1
  Bi  Bi16  1  0.14698300  0.31596100  0.06375700  1
  Bi  Bi17  1  0.64698300  0.18403900  0.93624300  1
  Bi  Bi18  1  0.85301700  0.68403900  0.93624300  1
  Bi  Bi19  1  0.35301700  0.81596100  0.06375700  1
  Bi  Bi20  1  0.88743800  0.14887200  0.09939400  1
  Bi  Bi21  1  0.38743800  0.35112800  0.90060600  1
  Bi  Bi22  1  0.11256200  0.85112800  0.90060600  1
  Bi  Bi23  1  0.61256200  0.64887200  0.09939400  1
  Bi  Bi24  1  0.56129700  0.23067500  0.40365800  1
  Bi  Bi25  1  0.06129700  0.26932500  0.59634200  1
  Bi  Bi26  1  0.43870300  0.76932500  0.59634200  1
  Bi  Bi27  1  0.93870300  0.73067500  0.40365800  1
  Bi  Bi28  1  0.79763100  0.12724800  0.56945700  1
  Bi  Bi29  1  0.29763100  0.37275200  0.43054300  1
  Bi  Bi30  1  0.20236900  0.87275200  0.43054300  1
  Bi  Bi31  1  0.70236900  0.62724800  0.56945700  1
