# generated using pymatgen
data_RbNaTi2(PO5)2
_symmetry_space_group_name_H-M   'P 1'
_cell_length_a   6.39985800
_cell_length_b   10.70330500
_cell_length_c   12.98808000
_cell_angle_alpha   90.00000000
_cell_angle_beta   90.00000000
_cell_angle_gamma   90.00000000
_symmetry_Int_Tables_number   1
_chemical_formula_structural   RbNaTi2(PO5)2
_chemical_formula_sum   'Rb4 Na4 Ti8 P8 O40'
_cell_volume   889.67870208
_cell_formula_units_Z   4
loop_
 _symmetry_equiv_pos_site_id
 _symmetry_equiv_pos_as_xyz
  1  'x, y, z'
loop_
 _atom_site_type_symbol
 _atom_site_label
 _atom_site_symmetry_multiplicity
 _atom_site_fract_x
 _atom_site_fract_y
 _atom_site_fract_z
 _atom_site_occupancy
  Rb  Rb0  1  0.16148500  0.58139200  0.09753700  1
  Rb  Rb1  1  0.83851500  0.08139200  0.90246300  1
  Rb  Rb2  1  0.33851500  0.58139200  0.59753700  1
  Rb  Rb3  1  0.66148500  0.08139200  0.40246300  1
  Na  Na4  1  0.74148100  0.30142200  0.15074500  1
  Na  Na5  1  0.25851900  0.80142200  0.84925500  1
  Na  Na6  1  0.75851900  0.30142200  0.65074500  1
  Na  Na7  1  0.24148100  0.80142200  0.34925500  1
  Ti  Ti8  1  0.47550200  0.01100600  0.12757200  1
  Ti  Ti9  1  0.52449800  0.51100600  0.87242800  1
  Ti  Ti10  1  0.02449800  0.01100600  0.62757200  1
  Ti  Ti11  1  0.97550200  0.51100600  0.37242800  1
  Ti  Ti12  1  0.24768700  0.27005300  0.24952300  1
  Ti  Ti13  1  0.75231300  0.77005300  0.75047700  1
  Ti  Ti14  1  0.25231300  0.27005300  0.74952300  1
  Ti  Ti15  1  0.74768700  0.77005300  0.25047700  1
  P  P16  1  0.33816700  0.27420100  0.00007500  1
  P  P17  1  0.66183300  0.77420100  0.99992500  1
  P  P18  1  0.16183300  0.27420100  0.50007500  1
  P  P19  1  0.83816700  0.77420100  0.49992500  1
  P  P20  1  0.98313500  0.02647800  0.18475400  1
  P  P21  1  0.01686500  0.52647800  0.81524600  1
  P  P22  1  0.51686500  0.02647800  0.68475400  1
  P  P23  1  0.48313500  0.52647800  0.31524600  1
  O  O24  1  0.01451500  0.39043400  0.48980700  1
  O  O25  1  0.98548500  0.89043400  0.51019300  1
  O  O26  1  0.48548500  0.39043400  0.98980700  1
  O  O27  1  0.51451500  0.89043400  0.01019300  1
  O  O28  1  0.28700900  0.55317800  0.38082300  1
  O  O29  1  0.71299100  0.05317800  0.61917700  1
  O  O30  1  0.21299100  0.55317800  0.88082300  1
  O  O31  1  0.78700900  0.05317800  0.11917700  1
  O  O32  1  0.44506300  0.15702100  0.21912400  1
  O  O33  1  0.55493700  0.65702100  0.78087600  1
  O  O34  1  0.05493700  0.15702100  0.71912400  1
  O  O35  1  0.94506300  0.65702100  0.28087600  1
  O  O36  1  0.01327400  0.40032300  0.27202500  1
  O  O37  1  0.98672600  0.90032300  0.72797500  1
  O  O38  1  0.48672600  0.40032300  0.77202500  1
  O  O39  1  0.51327400  0.90032300  0.22797500  1
  O  O40  1  0.45088200  0.41491000  0.24051600  1
  O  O41  1  0.54911800  0.91491000  0.75948400  1
  O  O42  1  0.04911800  0.41491000  0.74051600  1
  O  O43  1  0.95088200  0.91491000  0.25948400  1
  O  O44  1  0.16873200  0.00019500  0.11271300  1
  O  O45  1  0.83126800  0.50019500  0.88728700  1
  O  O46  1  0.33126800  0.00019500  0.61271300  1
  O  O47  1  0.66873200  0.50019500  0.38728700  1
  O  O48  1  0.47398800  0.15778400  0.01487400  1
  O  O49  1  0.52601200  0.65778400  0.98512600  1
  O  O50  1  0.02601200  0.15778400  0.51487400  1
  O  O51  1  0.97398800  0.65778400  0.48512600  1
  O  O52  1  0.01937400  0.14571200  0.25141000  1
  O  O53  1  0.98062600  0.64571200  0.74859000  1
  O  O54  1  0.48062600  0.14571200  0.75141000  1
  O  O55  1  0.51937400  0.64571200  0.24859000  1
  O  O56  1  0.29666000  0.25982600  0.40048900  1
  O  O57  1  0.70334000  0.75982600  0.59951100  1
  O  O58  1  0.20334000  0.25982600  0.90048900  1
  O  O59  1  0.79666000  0.75982600  0.09951100  1
  O  O60  1  0.18884200  0.29786300  0.09331300  1
  O  O61  1  0.81115800  0.79786300  0.90668700  1
  O  O62  1  0.31115800  0.29786300  0.59331300  1
  O  O63  1  0.68884200  0.79786300  0.40668700  1
