# generated using pymatgen
data_Sr3(CoO3)2
_symmetry_space_group_name_H-M   'P 1'
_cell_length_a   6.59276213
_cell_length_b   6.59255845
_cell_length_c   6.59281858
_cell_angle_alpha   93.46354088
_cell_angle_beta   93.46492119
_cell_angle_gamma   93.46306114
_symmetry_Int_Tables_number   1
_chemical_formula_structural   Sr3(CoO3)2
_chemical_formula_sum   'Sr6 Co4 O12'
_cell_volume   284.90791120
_cell_formula_units_Z   2
loop_
 _symmetry_equiv_pos_site_id
 _symmetry_equiv_pos_as_xyz
  1  'x, y, z'
loop_
 _atom_site_type_symbol
 _atom_site_label
 _atom_site_symmetry_multiplicity
 _atom_site_fract_x
 _atom_site_fract_y
 _atom_site_fract_z
 _atom_site_occupancy
  Sr  Sr0  1  0.61941400  0.88059000  0.25000600  1
  Sr  Sr1  1  0.88058200  0.24999800  0.61941300  1
  Sr  Sr2  1  0.24999500  0.61941500  0.88058500  1
  Sr  Sr3  1  0.11941400  0.74999600  0.38058200  1
  Sr  Sr4  1  0.75000400  0.38058900  0.11941100  1
  Sr  Sr5  1  0.38059100  0.11941400  0.75000000  1
  Co  Co6  1  0.49999300  0.50000200  0.50001100  1
  Co  Co7  1  0.00000500  0.99998800  0.00000000  1
  Co  Co8  1  0.24999600  0.25000900  0.24999400  1
  Co  Co9  1  0.75000600  0.75000600  0.74998900  1
  O  O10  1  0.52963000  0.21715200  0.40453000  1
  O  O11  1  0.21715200  0.40451700  0.52964300  1
  O  O12  1  0.40451500  0.52962500  0.21712800  1
  O  O13  1  0.02964300  0.90451100  0.71713000  1
  O  O14  1  0.90453200  0.71716200  0.02965100  1
  O  O15  1  0.71713300  0.02962700  0.90453100  1
  O  O16  1  0.47034700  0.78285300  0.59548100  1
  O  O17  1  0.78287600  0.59548400  0.47037100  1
  O  O18  1  0.59546000  0.47036100  0.78284400  1
  O  O19  1  0.97037600  0.09547500  0.28285900  1
  O  O20  1  0.09549100  0.28286700  0.97036600  1
  O  O21  1  0.28284300  0.97035900  0.09547400  1
