# generated using pymatgen
data_Ag3PS4
_symmetry_space_group_name_H-M   'P 1'
_cell_length_a   6.61614000
_cell_length_b   6.91924100
_cell_length_c   7.75803400
_cell_angle_alpha   90.00000000
_cell_angle_beta   90.00000000
_cell_angle_gamma   90.00000000
_symmetry_Int_Tables_number   1
_chemical_formula_structural   Ag3PS4
_chemical_formula_sum   'Ag6 P2 S8'
_cell_volume   355.15245622
_cell_formula_units_Z   2
loop_
 _symmetry_equiv_pos_site_id
 _symmetry_equiv_pos_as_xyz
  1  'x, y, z'
loop_
 _atom_site_type_symbol
 _atom_site_label
 _atom_site_symmetry_multiplicity
 _atom_site_fract_x
 _atom_site_fract_y
 _atom_site_fract_z
 _atom_site_occupancy
  Ag  Ag0  1  0.92449400  0.80991700  0.26518700  1
  Ag  Ag1  1  0.42449400  0.19008300  0.23481300  1
  Ag  Ag2  1  0.42449400  0.19008300  0.76518700  1
  Ag  Ag3  1  0.92449400  0.80991700  0.73481300  1
  Ag  Ag4  1  0.39245800  0.64060700  0.50000000  1
  Ag  Ag5  1  0.89245800  0.35939300  0.00000000  1
  P  P6  1  0.40416200  0.68767300  0.00000000  1
  P  P7  1  0.90416200  0.31232700  0.50000000  1
  S  S8  1  0.30378500  0.83289900  0.78007100  1
  S  S9  1  0.80378500  0.16710100  0.71992900  1
  S  S10  1  0.78362200  0.58925200  0.50000000  1
  S  S11  1  0.28362200  0.41074800  0.00000000  1
  S  S12  1  0.80378500  0.16710100  0.28007100  1
  S  S13  1  0.30378500  0.83289900  0.21992900  1
  S  S14  1  0.71610200  0.69068900  0.00000000  1
  S  S15  1  0.21610200  0.30931100  0.50000000  1
