# generated using pymatgen
data_Eu2MgWO6
_symmetry_space_group_name_H-M   'P 1'
_cell_length_a   5.66171207
_cell_length_b   5.66171207
_cell_length_c   5.66171207
_cell_angle_alpha   60.00000000
_cell_angle_beta   60.00000000
_cell_angle_gamma   60.00000000
_symmetry_Int_Tables_number   1
_chemical_formula_structural   Eu2MgWO6
_chemical_formula_sum   'Eu2 Mg1 W1 O6'
_cell_volume   128.33004326
_cell_formula_units_Z   1
loop_
 _symmetry_equiv_pos_site_id
 _symmetry_equiv_pos_as_xyz
  1  'x, y, z'
loop_
 _atom_site_type_symbol
 _atom_site_label
 _atom_site_symmetry_multiplicity
 _atom_site_fract_x
 _atom_site_fract_y
 _atom_site_fract_z
 _atom_site_occupancy
  Eu  Eu0  1  0.25000000  0.25000000  0.25000000  1
  Eu  Eu1  1  0.75000000  0.75000000  0.75000000  1
  Mg  Mg2  1  0.50000000  0.50000000  0.50000000  1
  W  W3  1  0.00000000  0.00000000  0.00000000  1
  O  O4  1  0.75556900  0.24443100  0.24443100  1
  O  O5  1  0.24443100  0.75556900  0.75556900  1
  O  O6  1  0.24443100  0.75556900  0.24443100  1
  O  O7  1  0.75556900  0.24443100  0.75556900  1
  O  O8  1  0.24443100  0.24443100  0.75556900  1
  O  O9  1  0.75556900  0.75556900  0.24443100  1
