# generated using pymatgen
data_CsFeO2
_symmetry_space_group_name_H-M   'P 1'
_cell_length_a   6.12233840
_cell_length_b   6.12233699
_cell_length_c   6.12233840
_cell_angle_alpha   90.00000000
_cell_angle_beta   60.00001528
_cell_angle_gamma   120.00001528
_symmetry_Int_Tables_number   1
_chemical_formula_structural   CsFeO2
_chemical_formula_sum   'Cs2 Fe2 O4'
_cell_volume   162.26949855
_cell_formula_units_Z   2
loop_
 _symmetry_equiv_pos_site_id
 _symmetry_equiv_pos_as_xyz
  1  'x, y, z'
loop_
 _atom_site_type_symbol
 _atom_site_label
 _atom_site_symmetry_multiplicity
 _atom_site_fract_x
 _atom_site_fract_y
 _atom_site_fract_z
 _atom_site_occupancy
  Cs  Cs0  1  0.75000000  0.37500000  0.37500000  1
  Cs  Cs1  1  0.25000000  0.62500000  0.62500000  1
  Fe  Fe2  1  0.74999900  0.87500100  0.87500100  1
  Fe  Fe3  1  0.25000100  0.12500000  0.12499800  1
  O  O4  1  0.50000000  0.50000000  0.00000000  1
  O  O5  1  0.50000000  0.00000000  0.00000000  1
  O  O6  1  0.00000000  0.00000000  0.50000000  1
  O  O7  1  0.00000000  0.00000000  0.00000000  1
