# generated using pymatgen
data_TmGePd2
_symmetry_space_group_name_H-M   'P 1'
_cell_length_a   5.60196000
_cell_length_b   7.17908900
_cell_length_c   7.25604000
_cell_angle_alpha   90.00000000
_cell_angle_beta   90.00000000
_cell_angle_gamma   90.00000000
_symmetry_Int_Tables_number   1
_chemical_formula_structural   TmGePd2
_chemical_formula_sum   'Tm4 Ge4 Pd8'
_cell_volume   291.81593875
_cell_formula_units_Z   4
loop_
 _symmetry_equiv_pos_site_id
 _symmetry_equiv_pos_as_xyz
  1  'x, y, z'
loop_
 _atom_site_type_symbol
 _atom_site_label
 _atom_site_symmetry_multiplicity
 _atom_site_fract_x
 _atom_site_fract_y
 _atom_site_fract_z
 _atom_site_occupancy
  Tm  Tm0  1  0.35606100  0.75000000  0.02324400  1
  Tm  Tm1  1  0.14393900  0.75000000  0.52324400  1
  Tm  Tm2  1  0.64393900  0.25000000  0.97675600  1
  Tm  Tm3  1  0.85606100  0.25000000  0.47675600  1
  Ge  Ge4  1  0.63908700  0.75000000  0.37914000  1
  Ge  Ge5  1  0.86091300  0.75000000  0.87914000  1
  Ge  Ge6  1  0.36091300  0.25000000  0.62086000  1
  Ge  Ge7  1  0.13908700  0.25000000  0.12086000  1
  Pd  Pd8  1  0.91199900  0.55156300  0.18428800  1
  Pd  Pd9  1  0.58800100  0.94843700  0.68428800  1
  Pd  Pd10  1  0.08800100  0.05156300  0.81571200  1
  Pd  Pd11  1  0.41199900  0.44843700  0.31571200  1
  Pd  Pd12  1  0.08800100  0.44843700  0.81571200  1
  Pd  Pd13  1  0.41199900  0.05156300  0.31571200  1
  Pd  Pd14  1  0.91199900  0.94843700  0.18428800  1
  Pd  Pd15  1  0.58800100  0.55156300  0.68428800  1
