# generated using pymatgen
data_TiTeAs
_symmetry_space_group_name_H-M   'P 1'
_cell_length_a   7.18995508
_cell_length_b   7.18995508
_cell_length_c   7.18995508
_cell_angle_alpha   151.01511166
_cell_angle_beta   136.71563454
_cell_angle_gamma   52.93595080
_symmetry_Int_Tables_number   1
_chemical_formula_structural   TiTeAs
_chemical_formula_sum   'Ti2 Te2 As2'
_cell_volume   122.83730015
_cell_formula_units_Z   2
loop_
 _symmetry_equiv_pos_site_id
 _symmetry_equiv_pos_as_xyz
  1  'x, y, z'
loop_
 _atom_site_type_symbol
 _atom_site_label
 _atom_site_symmetry_multiplicity
 _atom_site_fract_x
 _atom_site_fract_y
 _atom_site_fract_z
 _atom_site_occupancy
  Ti  Ti0  1  0.88177800  0.38177800  0.50000000  1
  Ti  Ti1  1  0.11822200  0.61822200  0.50000000  1
  Te  Te2  1  0.70948100  0.70948100  0.00000000  1
  Te  Te3  1  0.29051900  0.29051900  0.00000000  1
  As  As4  1  0.74886000  0.00000000  0.74886000  1
  As  As5  1  0.25114000  0.00000000  0.25114000  1
