# generated using pymatgen
data_La2Ni2I
_symmetry_space_group_name_H-M   'P 1'
_cell_length_a   4.16257415
_cell_length_b   4.16257415
_cell_length_c   8.91793300
_cell_angle_alpha   90.00000000
_cell_angle_beta   90.00000000
_cell_angle_gamma   120.00000235
_symmetry_Int_Tables_number   1
_chemical_formula_structural   La2Ni2I
_chemical_formula_sum   'La2 Ni2 I1'
_cell_volume   133.81931176
_cell_formula_units_Z   1
loop_
 _symmetry_equiv_pos_site_id
 _symmetry_equiv_pos_as_xyz
  1  'x, y, z'
loop_
 _atom_site_type_symbol
 _atom_site_label
 _atom_site_symmetry_multiplicity
 _atom_site_fract_x
 _atom_site_fract_y
 _atom_site_fract_z
 _atom_site_occupancy
  La  La0  1  0.00000000  0.00000000  0.21048500  1
  La  La1  1  0.00000000  0.00000000  0.78951500  1
  Ni  Ni2  1  0.33333300  0.66666700  0.00000000  1
  Ni  Ni3  1  0.66666700  0.33333300  0.00000000  1
  I  I4  1  0.66666700  0.33333300  0.50000000  1
