# generated using pymatgen
data_RbSm2CuSe4
_symmetry_space_group_name_H-M   'P 1'
_cell_length_a   7.57440201
_cell_length_b   7.57440201
_cell_length_c   14.60538900
_cell_angle_alpha   90.00000000
_cell_angle_beta   90.00000000
_cell_angle_gamma   147.76005992
_symmetry_Int_Tables_number   1
_chemical_formula_structural   RbSm2CuSe4
_chemical_formula_sum   'Rb2 Sm4 Cu2 Se8'
_cell_volume   447.00933149
_cell_formula_units_Z   2
loop_
 _symmetry_equiv_pos_site_id
 _symmetry_equiv_pos_as_xyz
  1  'x, y, z'
loop_
 _atom_site_type_symbol
 _atom_site_label
 _atom_site_symmetry_multiplicity
 _atom_site_fract_x
 _atom_site_fract_y
 _atom_site_fract_z
 _atom_site_occupancy
  Rb  Rb0  1  0.89095900  0.10904100  0.75000000  1
  Rb  Rb1  1  0.10904100  0.89095900  0.25000000  1
  Sm  Sm2  1  0.36558000  0.63442000  0.06320900  1
  Sm  Sm3  1  0.63442000  0.36558000  0.93679100  1
  Sm  Sm4  1  0.36558000  0.63442000  0.43679100  1
  Sm  Sm5  1  0.63442000  0.36558000  0.56320900  1
  Cu  Cu6  1  0.16220900  0.83779100  0.75000000  1
  Cu  Cu7  1  0.83779100  0.16220900  0.25000000  1
  Se  Se8  1  0.42938500  0.57061500  0.25000000  1
  Se  Se9  1  0.57061500  0.42938500  0.75000000  1
  Se  Se10  1  0.73771900  0.26228100  0.11196600  1
  Se  Se11  1  0.26228100  0.73771900  0.88803400  1
  Se  Se12  1  0.00000000  0.00000000  0.50000000  1
  Se  Se13  1  0.00000000  0.00000000  0.00000000  1
  Se  Se14  1  0.73771900  0.26228100  0.38803400  1
  Se  Se15  1  0.26228100  0.73771900  0.61196600  1
