# generated using pymatgen
data_Na3VH11IO13
_symmetry_space_group_name_H-M   'P 1'
_cell_length_a   6.30672412
_cell_length_b   9.03130637
_cell_length_c   11.45427059
_cell_angle_alpha   70.05336694
_cell_angle_beta   83.90163493
_cell_angle_gamma   80.69655111
_symmetry_Int_Tables_number   1
_chemical_formula_structural   Na3VH11IO13
_chemical_formula_sum   'Na6 V2 H22 I2 O26'
_cell_volume   604.28877291
_cell_formula_units_Z   2
loop_
 _symmetry_equiv_pos_site_id
 _symmetry_equiv_pos_as_xyz
  1  'x, y, z'
loop_
 _atom_site_type_symbol
 _atom_site_label
 _atom_site_symmetry_multiplicity
 _atom_site_fract_x
 _atom_site_fract_y
 _atom_site_fract_z
 _atom_site_occupancy
  Na  Na0  1  0.32576200  0.92706200  0.84029000  1
  Na  Na1  1  0.67423800  0.07293800  0.15971000  1
  Na  Na2  1  0.39868600  0.52475200  0.14742700  1
  Na  Na3  1  0.60131400  0.47524800  0.85257300  1
  Na  Na4  1  0.42185600  0.76811900  0.57367000  1
  Na  Na5  1  0.57814400  0.23188000  0.42633000  1
  V  V6  1  0.94818900  0.82385300  0.46206600  1
  V  V7  1  0.05181100  0.17614700  0.53793400  1
  H  H8  1  0.29359800  0.86520400  0.29653000  1
  H  H9  1  0.70640200  0.13479600  0.70347000  1
  H  H10  1  0.55441200  0.81561900  0.06452100  1
  H  H11  1  0.44558800  0.18438100  0.93547900  1
  H  H12  1  0.87634400  0.84092900  0.00607600  1
  H  H13  1  0.12365600  0.15907100  0.99392400  1
  H  H14  1  0.88592100  0.75135800  0.15001900  1
  H  H15  1  0.11407900  0.24864200  0.84998100  1
  H  H16  1  0.19105700  0.40889600  0.01074500  1
  H  H17  1  0.80894300  0.59110400  0.98925500  1
  H  H18  1  0.00524400  0.48165400  0.29241300  1
  H  H19  1  0.99475600  0.51834600  0.70758700  1
  H  H20  1  0.07371900  0.62856300  0.31975800  1
  H  H21  1  0.92628100  0.37143700  0.68024200  1
  H  H22  1  0.31465300  0.86417000  0.09528300  1
  H  H23  1  0.68534700  0.13583000  0.90471700  1
  H  H24  1  0.15162000  0.59030600  0.92509900  1
  H  H25  1  0.84838000  0.40969400  0.07490100  1
  H  H26  1  0.35478200  0.43433000  0.64576000  1
  H  H27  1  0.64521800  0.56567000  0.35424000  1
  H  H28  1  0.39887000  0.57693100  0.38154400  1
  H  H29  1  0.60113000  0.42306900  0.61845600  1
  I  I30  1  0.84935600  0.86183300  0.72125600  1
  I  I31  1  0.15064400  0.13816700  0.27874400  1
  O  O32  1  0.02533200  0.72353800  0.64120500  1
  O  O33  1  0.97466800  0.27646200  0.35879500  1
  O  O34  1  0.67326300  0.03444700  0.77247000  1
  O  O35  1  0.32673700  0.96555300  0.22753000  1
  O  O36  1  0.95952700  0.76160100  0.87675800  1
  O  O37  1  0.04047300  0.23839900  0.12324200  1
  O  O38  1  0.78488100  0.97949300  0.55032600  1
  O  O39  1  0.21511900  0.02050700  0.44967400  1
  O  O40  1  0.08618100  0.99209800  0.68383000  1
  O  O41  1  0.91381900  0.00790200  0.31617000  1
  O  O42  1  0.61108900  0.75816300  0.75300300  1
  O  O43  1  0.38891100  0.24183700  0.24699700  1
  O  O44  1  0.74739500  0.73352400  0.45042500  1
  O  O45  1  0.25260500  0.26647600  0.54957500  1
  O  O46  1  0.18071500  0.72443700  0.41317300  1
  O  O47  1  0.81928500  0.27556300  0.58682700  1
  O  O48  1  0.40648300  0.80242100  0.04926700  1
  O  O49  1  0.59351700  0.19757900  0.95073300  1
  O  O50  1  0.81330800  0.84777700  0.08732400  1
  O  O51  1  0.18669200  0.15222300  0.91267600  1
  O  O52  1  0.26412000  0.50216900  0.96480300  1
  O  O53  1  0.73588000  0.49783100  0.03519700  1
  O  O54  1  0.48015900  0.48006000  0.65508400  1
  O  O55  1  0.51984100  0.51994000  0.34491600  1
  O  O56  1  0.03911300  0.59209900  0.25229900  1
  O  O57  1  0.96088700  0.40790100  0.74770100  1
