# generated using pymatgen
data_RbLa(MoO4)2
_symmetry_space_group_name_H-M   'P 1'
_cell_length_a   6.49589800
_cell_length_b   6.49589800
_cell_length_c   9.81151300
_cell_angle_alpha   90.00000000
_cell_angle_beta   90.00000000
_cell_angle_gamma   90.00000000
_symmetry_Int_Tables_number   1
_chemical_formula_structural   RbLa(MoO4)2
_chemical_formula_sum   'Rb2 La2 Mo4 O16'
_cell_volume   414.01338060
_cell_formula_units_Z   2
loop_
 _symmetry_equiv_pos_site_id
 _symmetry_equiv_pos_as_xyz
  1  'x, y, z'
loop_
 _atom_site_type_symbol
 _atom_site_label
 _atom_site_symmetry_multiplicity
 _atom_site_fract_x
 _atom_site_fract_y
 _atom_site_fract_z
 _atom_site_occupancy
  Rb  Rb0  1  0.00000000  0.00000000  0.50000000  1
  Rb  Rb1  1  0.50000000  0.50000000  0.00000000  1
  La  La2  1  0.00000000  0.00000000  0.00000000  1
  La  La3  1  0.50000000  0.50000000  0.50000000  1
  Mo  Mo4  1  0.00000000  0.50000000  0.75000000  1
  Mo  Mo5  1  0.00000000  0.50000000  0.25000000  1
  Mo  Mo6  1  0.50000000  0.00000000  0.75000000  1
  Mo  Mo7  1  0.50000000  0.00000000  0.25000000  1
  O  O8  1  0.80617100  0.60947500  0.64074600  1
  O  O9  1  0.19382900  0.39052500  0.64074600  1
  O  O10  1  0.60947500  0.80617100  0.35925400  1
  O  O11  1  0.60947500  0.19382900  0.64074600  1
  O  O12  1  0.39052500  0.80617100  0.64074600  1
  O  O13  1  0.19382900  0.60947500  0.35925400  1
  O  O14  1  0.80617100  0.39052500  0.35925400  1
  O  O15  1  0.39052500  0.19382900  0.35925400  1
  O  O16  1  0.10947500  0.30617100  0.14074600  1
  O  O17  1  0.69382900  0.10947500  0.14074600  1
  O  O18  1  0.30617100  0.89052500  0.14074600  1
  O  O19  1  0.10947500  0.69382900  0.85925400  1
  O  O20  1  0.89052500  0.30617100  0.85925400  1
  O  O21  1  0.89052500  0.69382900  0.14074600  1
  O  O22  1  0.30617100  0.10947500  0.85925400  1
  O  O23  1  0.69382900  0.89052500  0.85925400  1
