# generated using pymatgen
data_V5Te8
_symmetry_space_group_name_H-M   'P 1'
_cell_length_a   7.40594495
_cell_length_b   7.40594495
_cell_length_c   8.99714599
_cell_angle_alpha   54.71035195
_cell_angle_beta   54.71035195
_cell_angle_gamma   64.33571348
_symmetry_Int_Tables_number   1
_chemical_formula_structural   V5Te8
_chemical_formula_sum   'V5 Te8'
_cell_volume   325.10281709
_cell_formula_units_Z   1
loop_
 _symmetry_equiv_pos_site_id
 _symmetry_equiv_pos_as_xyz
  1  'x, y, z'
loop_
 _atom_site_type_symbol
 _atom_site_label
 _atom_site_symmetry_multiplicity
 _atom_site_fract_x
 _atom_site_fract_y
 _atom_site_fract_z
 _atom_site_occupancy
  V  V0  1  0.71163000  0.28837000  0.50000000  1
  V  V1  1  0.28837000  0.71163000  0.50000000  1
  V  V2  1  0.71747900  0.71747900  0.04900400  1
  V  V3  1  0.28252100  0.28252100  0.95099600  1
  V  V4  1  0.00000000  0.00000000  0.00000000  1
  Te  Te5  1  0.42866100  0.42866100  0.34573800  1
  Te  Te6  1  0.57133900  0.57133900  0.65426200  1
  Te  Te7  1  0.53916100  0.04628700  0.16638500  1
  Te  Te8  1  0.46083900  0.95371300  0.83361500  1
  Te  Te9  1  0.95371300  0.46083900  0.83361500  1
  Te  Te10  1  0.04628700  0.53916100  0.16638500  1
  Te  Te11  1  0.98673700  0.98673700  0.32040500  1
  Te  Te12  1  0.01326300  0.01326300  0.67959500  1
