# generated using pymatgen
data_Dy3SbO7
_symmetry_space_group_name_H-M   'P 1'
_cell_length_a   6.48443020
_cell_length_b   6.48443020
_cell_length_c   7.51077100
_cell_angle_alpha   90.00000000
_cell_angle_beta   90.00000000
_cell_angle_gamma   109.21555077
_symmetry_Int_Tables_number   1
_chemical_formula_structural   Dy3SbO7
_chemical_formula_sum   'Dy6 Sb2 O14'
_cell_volume   298.21686914
_cell_formula_units_Z   2
loop_
 _symmetry_equiv_pos_site_id
 _symmetry_equiv_pos_as_xyz
  1  'x, y, z'
loop_
 _atom_site_type_symbol
 _atom_site_label
 _atom_site_symmetry_multiplicity
 _atom_site_fract_x
 _atom_site_fract_y
 _atom_site_fract_z
 _atom_site_occupancy
  Dy  Dy0  1  0.99995800  0.46795800  0.74830000  1
  Dy  Dy1  1  0.00004200  0.53204200  0.24830000  1
  Dy  Dy2  1  0.53204200  0.00004200  0.75170000  1
  Dy  Dy3  1  0.46795800  0.99995800  0.25170000  1
  Dy  Dy4  1  0.51389900  0.51389900  0.50000000  1
  Dy  Dy5  1  0.48610100  0.48610100  0.00000000  1
  Sb  Sb6  1  0.99927800  0.99927800  0.50000000  1
  Sb  Sb7  1  0.00072200  0.00072200  0.00000000  1
  O  O8  1  0.63814000  0.36186000  0.75000000  1
  O  O9  1  0.36186000  0.63814000  0.25000000  1
  O  O10  1  0.92926700  0.07073300  0.75000000  1
  O  O11  1  0.07073300  0.92926700  0.25000000  1
  O  O12  1  0.92085500  0.67451600  0.52838500  1
  O  O13  1  0.07914500  0.32548400  0.02838500  1
  O  O14  1  0.32548400  0.07914500  0.97161500  1
  O  O15  1  0.67451600  0.92085500  0.47161500  1
  O  O16  1  0.37076200  0.62923800  0.75000000  1
  O  O17  1  0.62923800  0.37076200  0.25000000  1
  O  O18  1  0.93794300  0.68324400  0.96711900  1
  O  O19  1  0.06205700  0.31675600  0.46711900  1
  O  O20  1  0.31675600  0.06205700  0.53288100  1
  O  O21  1  0.68324400  0.93794300  0.03288100  1
