# generated using pymatgen
data_NaFe2P2HO8
_symmetry_space_group_name_H-M   'P 1'
_cell_length_a   5.26360455
_cell_length_b   8.71642536
_cell_length_c   9.08586267
_cell_angle_alpha   95.64370316
_cell_angle_beta   99.54730254
_cell_angle_gamma   105.99364034
_symmetry_Int_Tables_number   1
_chemical_formula_structural   NaFe2P2HO8
_chemical_formula_sum   'Na2 Fe4 P4 H2 O16'
_cell_volume   390.58324016
_cell_formula_units_Z   2
loop_
 _symmetry_equiv_pos_site_id
 _symmetry_equiv_pos_as_xyz
  1  'x, y, z'
loop_
 _atom_site_type_symbol
 _atom_site_label
 _atom_site_symmetry_multiplicity
 _atom_site_fract_x
 _atom_site_fract_y
 _atom_site_fract_z
 _atom_site_occupancy
  Na  Na0  1  0.59321300  0.81653000  0.32352200  1
  Na  Na1  1  0.40586000  0.18323300  0.67628000  1
  Fe  Fe2  1  0.22319500  0.10924000  0.26334500  1
  Fe  Fe3  1  0.31115800  0.61540300  0.90088900  1
  Fe  Fe4  1  0.77679200  0.89087700  0.73624900  1
  Fe  Fe5  1  0.68957800  0.38474800  0.09956000  1
  P  P6  1  0.15165900  0.75060500  0.57874900  1
  P  P7  1  0.84844100  0.24939400  0.42127000  1
  P  P8  1  0.88007300  0.75511400  0.06310100  1
  P  P9  1  0.11983400  0.24493500  0.93684400  1
  H  H10  1  0.07648100  0.56275600  0.38037900  1
  H  H11  1  0.92378600  0.43693900  0.61996300  1
  O  O12  1  0.89598700  0.80576700  0.55012400  1
  O  O13  1  0.10378400  0.19388300  0.44956200  1
  O  O14  1  0.70611700  0.75687000  0.90433900  1
  O  O15  1  0.29421500  0.24347300  0.09566900  1
  O  O16  1  0.40427700  0.89577800  0.64106600  1
  O  O17  1  0.59553500  0.10444500  0.35877800  1
  O  O18  1  0.07546100  0.08594100  0.83205300  1
  O  O19  1  0.92430700  0.91396300  0.16806600  1
  O  O20  1  0.11978000  0.61763600  0.68161800  1
  O  O21  1  0.88094700  0.38274400  0.31875200  1
  O  O22  1  0.14960000  0.72577400  0.04589200  1
  O  O23  1  0.85039600  0.27425500  0.95427000  1
  O  O24  1  0.30496600  0.38148400  0.86978900  1
  O  O25  1  0.69445200  0.61835400  0.12977000  1
  O  O26  1  0.19889200  0.67711800  0.42060600  1
  O  O27  1  0.80121400  0.32274200  0.57949400  1
