# generated using pymatgen
data_Sm5Rh4
_symmetry_space_group_name_H-M   'P 1'
_cell_length_a   7.50084300
_cell_length_b   7.64815500
_cell_length_c   14.92459900
_cell_angle_alpha   90.00000000
_cell_angle_beta   90.00000000
_cell_angle_gamma   90.00000000
_symmetry_Int_Tables_number   1
_chemical_formula_structural   Sm5Rh4
_chemical_formula_sum   'Sm20 Rh16'
_cell_volume   856.18857327
_cell_formula_units_Z   4
loop_
 _symmetry_equiv_pos_site_id
 _symmetry_equiv_pos_as_xyz
  1  'x, y, z'
loop_
 _atom_site_type_symbol
 _atom_site_label
 _atom_site_symmetry_multiplicity
 _atom_site_fract_x
 _atom_site_fract_y
 _atom_site_fract_z
 _atom_site_occupancy
  Sm  Sm0  1  0.66170700  0.16801400  0.62225700  1
  Sm  Sm1  1  0.16170700  0.33198600  0.87774300  1
  Sm  Sm2  1  0.33829300  0.83198600  0.12225700  1
  Sm  Sm3  1  0.83829300  0.66801400  0.37774300  1
  Sm  Sm4  1  0.33829300  0.83198600  0.37774300  1
  Sm  Sm5  1  0.83829300  0.66801400  0.12225700  1
  Sm  Sm6  1  0.66170700  0.16801400  0.87774300  1
  Sm  Sm7  1  0.16170700  0.33198600  0.62225700  1
  Sm  Sm8  1  0.50860900  0.68042700  0.59246400  1
  Sm  Sm9  1  0.00860900  0.81957300  0.90753600  1
  Sm  Sm10  1  0.49139100  0.31957300  0.09246400  1
  Sm  Sm11  1  0.99139100  0.18042700  0.40753600  1
  Sm  Sm12  1  0.49139100  0.31957300  0.40753600  1
  Sm  Sm13  1  0.99139100  0.18042700  0.09246400  1
  Sm  Sm14  1  0.50860900  0.68042700  0.90753600  1
  Sm  Sm15  1  0.00860900  0.81957300  0.59246400  1
  Sm  Sm16  1  0.82114300  0.51335500  0.75000000  1
  Sm  Sm17  1  0.32114300  0.98664500  0.75000000  1
  Sm  Sm18  1  0.17885700  0.48664500  0.25000000  1
  Sm  Sm19  1  0.67885700  0.01335500  0.25000000  1
  Rh  Rh20  1  0.67947200  0.96997500  0.45955200  1
  Rh  Rh21  1  0.17947200  0.53002500  0.04044800  1
  Rh  Rh22  1  0.32052800  0.03002500  0.95955200  1
  Rh  Rh23  1  0.82052800  0.46997500  0.54044800  1
  Rh  Rh24  1  0.32052800  0.03002500  0.54044800  1
  Rh  Rh25  1  0.82052800  0.46997500  0.95955200  1
  Rh  Rh26  1  0.67947200  0.96997500  0.04044800  1
  Rh  Rh27  1  0.17947200  0.53002500  0.45955200  1
  Rh  Rh28  1  0.45783300  0.39338500  0.75000000  1
  Rh  Rh29  1  0.95783300  0.10661500  0.75000000  1
  Rh  Rh30  1  0.54216700  0.60661500  0.25000000  1
  Rh  Rh31  1  0.04216700  0.89338500  0.25000000  1
  Rh  Rh32  1  0.69663900  0.85899500  0.75000000  1
  Rh  Rh33  1  0.19663900  0.64100500  0.75000000  1
  Rh  Rh34  1  0.30336100  0.14100500  0.25000000  1
  Rh  Rh35  1  0.80336100  0.35899500  0.25000000  1
