# generated using pymatgen
data_Ho3Ga15Ru4
_symmetry_space_group_name_H-M   'P 1'
_cell_length_a   8.80794800
_cell_length_b   9.63859400
_cell_length_c   17.84738600
_cell_angle_alpha   90.00000000
_cell_angle_beta   90.00000000
_cell_angle_gamma   90.00000000
_symmetry_Int_Tables_number   1
_chemical_formula_structural   Ho3Ga15Ru4
_chemical_formula_sum   'Ho12 Ga60 Ru16'
_cell_volume   1515.17587144
_cell_formula_units_Z   4
loop_
 _symmetry_equiv_pos_site_id
 _symmetry_equiv_pos_as_xyz
  1  'x, y, z'
loop_
 _atom_site_type_symbol
 _atom_site_label
 _atom_site_symmetry_multiplicity
 _atom_site_fract_x
 _atom_site_fract_y
 _atom_site_fract_z
 _atom_site_occupancy
  Ho  Ho0  1  0.37562800  0.25000000  0.16775100  1
  Ho  Ho1  1  0.62437200  0.75000000  0.83224900  1
  Ho  Ho2  1  0.12437200  0.75000000  0.66775100  1
  Ho  Ho3  1  0.87562800  0.25000000  0.33224900  1
  Ho  Ho4  1  0.37538400  0.25000000  0.74838700  1
  Ho  Ho5  1  0.62461600  0.75000000  0.25161300  1
  Ho  Ho6  1  0.12461600  0.75000000  0.24838700  1
  Ho  Ho7  1  0.87538400  0.25000000  0.75161300  1
  Ho  Ho8  1  0.12545600  0.25000000  0.52400400  1
  Ho  Ho9  1  0.87454400  0.75000000  0.47599600  1
  Ho  Ho10  1  0.37454400  0.75000000  0.02400400  1
  Ho  Ho11  1  0.62545600  0.25000000  0.97599600  1
  Ga  Ga12  1  0.12676100  0.06082400  0.25282300  1
  Ga  Ga13  1  0.87323900  0.93917600  0.74717700  1
  Ga  Ga14  1  0.37323900  0.93917600  0.75282300  1
  Ga  Ga15  1  0.87323900  0.56082400  0.74717700  1
  Ga  Ga16  1  0.62676100  0.06082400  0.24717700  1
  Ga  Ga17  1  0.12676100  0.43917600  0.25282300  1
  Ga  Ga18  1  0.62676100  0.43917600  0.24717700  1
  Ga  Ga19  1  0.37323900  0.56082400  0.75282300  1
  Ga  Ga20  1  0.00710900  0.25000000  0.16897500  1
  Ga  Ga21  1  0.99289100  0.75000000  0.83102500  1
  Ga  Ga22  1  0.49289100  0.75000000  0.66897500  1
  Ga  Ga23  1  0.50710900  0.25000000  0.33102500  1
  Ga  Ga24  1  0.13360200  0.25000000  0.04162100  1
  Ga  Ga25  1  0.86639800  0.75000000  0.95837900  1
  Ga  Ga26  1  0.36639800  0.75000000  0.54162100  1
  Ga  Ga27  1  0.63360200  0.25000000  0.45837900  1
  Ga  Ga28  1  0.37443400  0.57785300  0.33107900  1
  Ga  Ga29  1  0.62556600  0.42214700  0.66892100  1
  Ga  Ga30  1  0.12556600  0.42214700  0.83107900  1
  Ga  Ga31  1  0.62556600  0.07785300  0.66892100  1
  Ga  Ga32  1  0.87443400  0.57785300  0.16892100  1
  Ga  Ga33  1  0.37443400  0.92214700  0.33107900  1
  Ga  Ga34  1  0.87443400  0.92214700  0.16892100  1
  Ga  Ga35  1  0.12556600  0.07785300  0.83107900  1
  Ga  Ga36  1  0.22068600  0.25000000  0.35947400  1
  Ga  Ga37  1  0.77931400  0.75000000  0.64052600  1
  Ga  Ga38  1  0.27931400  0.75000000  0.85947400  1
  Ga  Ga39  1  0.72068600  0.25000000  0.14052600  1
  Ga  Ga40  1  0.12392100  0.08772400  0.67223500  1
  Ga  Ga41  1  0.87608000  0.91227600  0.32776500  1
  Ga  Ga42  1  0.37608000  0.91227600  0.17223500  1
  Ga  Ga43  1  0.87608000  0.58772400  0.32776500  1
  Ga  Ga44  1  0.62392000  0.08772400  0.82776500  1
  Ga  Ga45  1  0.12392100  0.41227600  0.67223500  1
  Ga  Ga46  1  0.62392000  0.41227600  0.82776500  1
  Ga  Ga47  1  0.37608000  0.58772400  0.17223500  1
  Ga  Ga48  1  0.37724900  0.06138900  0.46544100  1
  Ga  Ga49  1  0.62275100  0.93861100  0.53455900  1
  Ga  Ga50  1  0.12275100  0.93861100  0.96544100  1
  Ga  Ga51  1  0.62275100  0.56138900  0.53455900  1
  Ga  Ga52  1  0.87724900  0.06138900  0.03455900  1
  Ga  Ga53  1  0.37724900  0.43861100  0.46544100  1
  Ga  Ga54  1  0.87724900  0.43861100  0.03455900  1
  Ga  Ga55  1  0.12275100  0.56138900  0.96544100  1
  Ga  Ga56  1  0.45096400  0.25000000  0.57773800  1
  Ga  Ga57  1  0.54903600  0.75000000  0.42226200  1
  Ga  Ga58  1  0.04903600  0.75000000  0.07773800  1
  Ga  Ga59  1  0.95096400  0.25000000  0.92226200  1
  Ga  Ga60  1  0.30453200  0.25000000  0.91783700  1
  Ga  Ga61  1  0.69546800  0.75000000  0.08216300  1
  Ga  Ga62  1  0.19546800  0.75000000  0.41783700  1
  Ga  Ga63  1  0.80453200  0.25000000  0.58216300  1
  Ga  Ga64  1  0.37392300  0.06977200  0.03282300  1
  Ga  Ga65  1  0.62607700  0.93022800  0.96717700  1
  Ga  Ga66  1  0.12607700  0.93022800  0.53282300  1
  Ga  Ga67  1  0.62607700  0.56977200  0.96717700  1
  Ga  Ga68  1  0.87392300  0.06977200  0.46717700  1
  Ga  Ga69  1  0.37392300  0.43022800  0.03282300  1
  Ga  Ga70  1  0.87392300  0.43022800  0.46717700  1
  Ga  Ga71  1  0.12607700  0.56977200  0.53282300  1
  Ru  Ru72  1  0.11689300  0.00389200  0.39060400  1
  Ru  Ru73  1  0.88310700  0.99610800  0.60939600  1
  Ru  Ru74  1  0.38310700  0.99610800  0.89060400  1
  Ru  Ru75  1  0.88310700  0.50389200  0.60939600  1
  Ru  Ru76  1  0.61689300  0.00389200  0.10939600  1
  Ru  Ru77  1  0.11689300  0.49610800  0.39060400  1
  Ru  Ru78  1  0.61689300  0.49610800  0.10939600  1
  Ru  Ru79  1  0.38310700  0.50389200  0.89060400  1
  Ru  Ru80  1  0.13034700  0.00472900  0.11346000  1
  Ru  Ru81  1  0.86965300  0.99527100  0.88654000  1
  Ru  Ru82  1  0.36965300  0.99527100  0.61346000  1
  Ru  Ru83  1  0.86965300  0.50472900  0.88654000  1
  Ru  Ru84  1  0.63034700  0.00472900  0.38654000  1
  Ru  Ru85  1  0.13034700  0.49527100  0.11346000  1
  Ru  Ru86  1  0.63034700  0.49527100  0.38654000  1
  Ru  Ru87  1  0.36965300  0.50472900  0.61346000  1
