# generated using pymatgen
data_MgNi2P
_symmetry_space_group_name_H-M   'P 1'
_cell_length_a   5.02481500
_cell_length_b   6.34828100
_cell_length_c   6.43095400
_cell_angle_alpha   90.00000000
_cell_angle_beta   90.00000000
_cell_angle_gamma   90.00000000
_symmetry_Int_Tables_number   1
_chemical_formula_structural   MgNi2P
_chemical_formula_sum   'Mg4 Ni8 P4'
_cell_volume   205.14060031
_cell_formula_units_Z   4
loop_
 _symmetry_equiv_pos_site_id
 _symmetry_equiv_pos_as_xyz
  1  'x, y, z'
loop_
 _atom_site_type_symbol
 _atom_site_label
 _atom_site_symmetry_multiplicity
 _atom_site_fract_x
 _atom_site_fract_y
 _atom_site_fract_z
 _atom_site_occupancy
  Mg  Mg0  1  0.12628800  0.75000000  0.51823000  1
  Mg  Mg1  1  0.62628800  0.25000000  0.98177000  1
  Mg  Mg2  1  0.87371200  0.25000000  0.48177000  1
  Mg  Mg3  1  0.37371200  0.75000000  0.01823000  1
  Ni  Ni4  1  0.60016900  0.94707700  0.67532200  1
  Ni  Ni5  1  0.60016900  0.55292300  0.67532200  1
  Ni  Ni6  1  0.89983100  0.94707700  0.17532200  1
  Ni  Ni7  1  0.39983100  0.05292300  0.32467800  1
  Ni  Ni8  1  0.10016900  0.05292300  0.82467800  1
  Ni  Ni9  1  0.39983100  0.44707700  0.32467800  1
  Ni  Ni10  1  0.89983100  0.55292300  0.17532200  1
  Ni  Ni11  1  0.10016900  0.44707700  0.82467800  1
  P  P12  1  0.12269800  0.25000000  0.12565800  1
  P  P13  1  0.37730200  0.25000000  0.62565800  1
  P  P14  1  0.87730200  0.75000000  0.87434200  1
  P  P15  1  0.62269800  0.75000000  0.37434200  1
