# generated using pymatgen
data_Na2Mn3(PO4)3
_symmetry_space_group_name_H-M   'P 1'
_cell_length_a   8.79070344
_cell_length_b   8.79070344
_cell_length_c   6.74999562
_cell_angle_alpha   72.77931208
_cell_angle_beta   72.77931208
_cell_angle_gamma   92.68284704
_symmetry_Int_Tables_number   1
_chemical_formula_structural   Na2Mn3(PO4)3
_chemical_formula_sum   'Na4 Mn6 P6 O24'
_cell_volume   470.70134464
_cell_formula_units_Z   2
loop_
 _symmetry_equiv_pos_site_id
 _symmetry_equiv_pos_as_xyz
  1  'x, y, z'
loop_
 _atom_site_type_symbol
 _atom_site_label
 _atom_site_symmetry_multiplicity
 _atom_site_fract_x
 _atom_site_fract_y
 _atom_site_fract_z
 _atom_site_occupancy
  Na  Na0  1  0.98570200  0.01429800  0.25000000  1
  Na  Na1  1  0.01429800  0.98570200  0.75000000  1
  Na  Na2  1  0.50000000  0.50000000  0.00000000  1
  Na  Na3  1  0.50000000  0.50000000  0.50000000  1
  Mn  Mn4  1  0.26851900  0.73148100  0.25000000  1
  Mn  Mn5  1  0.73148100  0.26851900  0.75000000  1
  Mn  Mn6  1  0.38105200  0.06271000  0.36413700  1
  Mn  Mn7  1  0.61894800  0.93729000  0.63586300  1
  Mn  Mn8  1  0.93729000  0.61894800  0.13586300  1
  Mn  Mn9  1  0.06271000  0.38105200  0.86413700  1
  P  P10  1  0.65675200  0.87511300  0.12468200  1
  P  P11  1  0.34324800  0.12488700  0.87531800  1
  P  P12  1  0.12488700  0.34324800  0.37531800  1
  P  P13  1  0.87511300  0.65675200  0.62468200  1
  P  P14  1  0.71645500  0.28354500  0.25000000  1
  P  P15  1  0.28354500  0.71645500  0.75000000  1
  O  O16  1  0.54085800  0.26325100  0.24641000  1
  O  O17  1  0.45914200  0.73674900  0.75359000  1
  O  O18  1  0.73674900  0.45914200  0.25359000  1
  O  O19  1  0.26325100  0.54085800  0.74641000  1
  O  O20  1  0.59926300  0.95342300  0.31023100  1
  O  O21  1  0.40073700  0.04657700  0.68976900  1
  O  O22  1  0.04657700  0.40073700  0.18976900  1
  O  O23  1  0.95342300  0.59926300  0.81023100  1
  O  O24  1  0.32352700  0.99636200  0.10211800  1
  O  O25  1  0.67647300  0.00363800  0.89788200  1
  O  O26  1  0.00363800  0.67647300  0.39788200  1
  O  O27  1  0.99636200  0.32352700  0.60211800  1
  O  O28  1  0.74414900  0.17005400  0.45937300  1
  O  O29  1  0.25585100  0.82994600  0.54062700  1
  O  O30  1  0.82994600  0.25585100  0.04062700  1
  O  O31  1  0.17005400  0.74414900  0.95937300  1
  O  O32  1  0.53125600  0.72845400  0.17406800  1
  O  O33  1  0.46874400  0.27154600  0.82593200  1
  O  O34  1  0.27154600  0.46874400  0.32593200  1
  O  O35  1  0.72845400  0.53125600  0.67406800  1
  O  O36  1  0.82753400  0.82934900  0.11569000  1
  O  O37  1  0.17246600  0.17065100  0.88431000  1
  O  O38  1  0.17065100  0.17246600  0.38431000  1
  O  O39  1  0.82934900  0.82753400  0.61569000  1
