# generated using pymatgen
data_K6In3H12(N8O27)2
_symmetry_space_group_name_H-M   'P 1'
_cell_length_a   14.70317511
_cell_length_b   14.70317511
_cell_length_c   14.70317511
_cell_angle_alpha   109.47122063
_cell_angle_beta   109.47122063
_cell_angle_gamma   109.47122063
_symmetry_Int_Tables_number   1
_chemical_formula_structural   K6In3H12(N8O27)2
_chemical_formula_sum   'K12 In6 H24 N32 O108'
_cell_volume   2446.87339184
_cell_formula_units_Z   2
loop_
 _symmetry_equiv_pos_site_id
 _symmetry_equiv_pos_as_xyz
  1  'x, y, z'
loop_
 _atom_site_type_symbol
 _atom_site_label
 _atom_site_symmetry_multiplicity
 _atom_site_fract_x
 _atom_site_fract_y
 _atom_site_fract_z
 _atom_site_occupancy
  K  K0  1  0.00322889  0.75000000  0.25322889  1
  K  K1  1  0.49677111  0.25000000  0.24677111  1
  K  K2  1  0.75322889  0.25000000  0.50322889  1
  K  K3  1  0.74677111  0.75000000  0.99677111  1
  K  K4  1  0.75000000  0.25322889  0.00322889  1
  K  K5  1  0.25000000  0.24677111  0.49677111  1
  K  K6  1  0.25000000  0.50322889  0.75322889  1
  K  K7  1  0.75000000  0.99677111  0.74677111  1
  K  K8  1  0.25322889  0.00322889  0.75000000  1
  K  K9  1  0.24677111  0.49677111  0.25000000  1
  K  K10  1  0.50322889  0.75322889  0.25000000  1
  K  K11  1  0.99677111  0.74677111  0.75000000  1
  In  In12  1  0.37500000  0.75000000  0.62500000  1
  In  In13  1  0.12500000  0.25000000  0.87500000  1
  In  In14  1  0.75000000  0.62500000  0.37500000  1
  In  In15  1  0.25000000  0.87500000  0.12500000  1
  In  In16  1  0.62500000  0.37500000  0.75000000  1
  In  In17  1  0.87500000  0.12500000  0.25000000  1
  H  H18  1  0.29376408  0.02981335  0.33276959  1
  H  H19  1  0.80295624  0.47018665  0.26395073  1
  H  H20  1  0.69704376  0.46099449  0.16723041  1
  H  H21  1  0.20623592  0.03900551  0.23604927  1
  H  H22  1  0.83276959  0.52981335  0.79376408  1
  H  H23  1  0.76395073  0.97018665  0.30295624  1
  H  H24  1  0.66723041  0.96099449  0.19704376  1
  H  H25  1  0.73604927  0.53900551  0.70623592  1
  H  H26  1  0.02981335  0.33276959  0.29376408  1
  H  H27  1  0.47018665  0.26395073  0.80295624  1
  H  H28  1  0.46099449  0.16723041  0.69704376  1
  H  H29  1  0.03900551  0.23604927  0.20623592  1
  H  H30  1  0.52981335  0.79376408  0.83276959  1
  H  H31  1  0.97018665  0.30295624  0.76395073  1
  H  H32  1  0.96099449  0.19704376  0.66723041  1
  H  H33  1  0.53900551  0.70623592  0.73604927  1
  H  H34  1  0.33276959  0.29376408  0.02981335  1
  H  H35  1  0.26395073  0.80295624  0.47018665  1
  H  H36  1  0.16723041  0.69704376  0.46099449  1
  H  H37  1  0.23604927  0.20623592  0.03900551  1
  H  H38  1  0.79376408  0.83276959  0.52981335  1
  H  H39  1  0.30295624  0.76395073  0.97018665  1
  H  H40  1  0.19704376  0.66723041  0.96099449  1
  H  H41  1  0.70623592  0.73604927  0.53900551  1
  N  N42  1  0.50072825  0.31636873  0.49976778  1
  N  N43  1  0.68339904  0.18363127  0.18435952  1
  N  N44  1  0.81660096  0.50096048  0.00023222  1
  N  N45  1  0.99927175  0.99903952  0.31564048  1
  N  N46  1  0.99976778  0.81636873  0.00072825  1
  N  N47  1  0.68435952  0.68363127  0.18339904  1
  N  N48  1  0.50023222  0.00096048  0.31660096  1
  N  N49  1  0.81564048  0.49903952  0.49927175  1
  N  N50  1  0.31636873  0.49976778  0.50072825  1
  N  N51  1  0.18363127  0.18435952  0.68339904  1
  N  N52  1  0.50096048  0.00023222  0.81660096  1
  N  N53  1  0.99903952  0.31564048  0.99927175  1
  N  N54  1  0.81636873  0.00072825  0.99976778  1
  N  N55  1  0.68363127  0.18339904  0.68435952  1
  N  N56  1  0.00096048  0.31660096  0.50023222  1
  N  N57  1  0.49903952  0.49927175  0.81564048  1
  N  N58  1  0.49976778  0.50072825  0.31636873  1
  N  N59  1  0.18435952  0.68339904  0.18363127  1
  N  N60  1  0.00023222  0.81660096  0.50096048  1
  N  N61  1  0.31564048  0.99927175  0.99903952  1
  N  N62  1  0.00072825  0.99976778  0.81636873  1
  N  N63  1  0.18339904  0.68435952  0.68363127  1
  N  N64  1  0.31660096  0.50023222  0.00096048  1
  N  N65  1  0.49927175  0.81564048  0.49903952  1
  N  N66  1  0.33506363  -0.00000000  0.50000000  1
  N  N67  1  -0.00000000  0.50000000  0.33506363  1
  N  N68  1  0.50000000  0.33506363  -0.00000000  1
  N  N69  1  0.16493637  0.16493637  0.16493637  1
  N  N70  1  0.00000000  0.50000000  0.83506363  1
  N  N71  1  0.83506363  0.00000000  0.50000000  1
  N  N72  1  0.50000000  0.83506363  0.00000000  1
  N  N73  1  0.66493637  0.66493637  0.66493637  1
  O  O74  1  0.41138998  0.27137368  0.41170845  1
  O  O75  1  0.64033477  0.22862632  0.14001630  1
  O  O76  1  0.85966523  0.49968152  0.08829155  1
  O  O77  1  0.08861002  0.00031848  0.35998370  1
  O  O78  1  0.91170845  0.77137368  0.91138998  1
  O  O79  1  0.64001630  0.72862632  0.14033477  1
  O  O80  1  0.58829155  0.99968152  0.35966523  1
  O  O81  1  0.85998370  0.50031848  0.58861002  1
  O  O82  1  0.27137368  0.41170845  0.41138998  1
  O  O83  1  0.22862632  0.14001630  0.64033477  1
  O  O84  1  0.49968152  0.08829155  0.85966523  1
  O  O85  1  0.00031848  0.35998370  0.08861002  1
  O  O86  1  0.77137368  0.91138998  0.91170845  1
  O  O87  1  0.72862632  0.14033477  0.64001630  1
  O  O88  1  0.99968152  0.35966523  0.58829155  1
  O  O89  1  0.50031848  0.58861002  0.85998370  1
  O  O90  1  0.41170845  0.41138998  0.27137368  1
  O  O91  1  0.14001630  0.64033477  0.22862632  1
  O  O92  1  0.08829155  0.85966523  0.49968152  1
  O  O93  1  0.35998370  0.08861002  0.00031848  1
  O  O94  1  0.91138998  0.91170845  0.77137368  1
  O  O95  1  0.14033477  0.64001630  0.72862632  1
  O  O96  1  0.35966523  0.58829155  0.99968152  1
  O  O97  1  0.58861002  0.85998370  0.50031848  1
  O  O98  1  0.15617739  0.75313047  0.16190978  1
  O  O99  1  0.90877931  0.74686953  0.40304692  1
  O  O100  1  0.59122069  0.49426761  0.33809022  1
  O  O101  1  0.34382261  0.00573239  0.09695308  1
  O  O102  1  0.66190978  0.25313047  0.65617739  1
  O  O103  1  0.90304692  0.24686953  0.40877931  1
  O  O104  1  0.83809022  0.99426761  0.09122069  1
  O  O105  1  0.59695308  0.50573239  0.84382261  1
  O  O106  1  0.75313047  0.16190978  0.15617739  1
  O  O107  1  0.74686953  0.40304692  0.90877931  1
  O  O108  1  0.49426761  0.33809022  0.59122069  1
  O  O109  1  0.00573239  0.09695308  0.34382261  1
  O  O110  1  0.25313047  0.65617739  0.66190978  1
  O  O111  1  0.24686953  0.40877931  0.90304692  1
  O  O112  1  0.99426761  0.09122069  0.83809022  1
  O  O113  1  0.50573239  0.84382261  0.59695308  1
  O  O114  1  0.16190978  0.15617739  0.75313047  1
  O  O115  1  0.40304692  0.90877931  0.74686953  1
  O  O116  1  0.33809022  0.59122069  0.49426761  1
  O  O117  1  0.09695308  0.34382261  0.00573239  1
  O  O118  1  0.65617739  0.66190978  0.25313047  1
  O  O119  1  0.40877931  0.90304692  0.24686953  1
  O  O120  1  0.09122069  0.83809022  0.99426761  1
  O  O121  1  0.84382261  0.59695308  0.50573239  1
  O  O122  1  0.49572712  0.08816899  0.33778524  1
  O  O123  1  0.74961625  0.41183101  0.40755813  1
  O  O124  1  0.75038375  0.65794188  0.16221476  1
  O  O125  1  0.00427288  0.84205812  0.09244187  1
  O  O126  1  0.83778524  0.58816899  0.99572712  1
  O  O127  1  0.90755813  0.91183101  0.24961625  1
  O  O128  1  0.66221476  0.15794188  0.25038375  1
  O  O129  1  0.59244187  0.34205812  0.50427288  1
  O  O130  1  0.08816899  0.33778524  0.49572712  1
  O  O131  1  0.41183101  0.40755813  0.74961625  1
  O  O132  1  0.65794188  0.16221476  0.75038375  1
  O  O133  1  0.84205812  0.09244187  0.00427288  1
  O  O134  1  0.58816899  0.99572712  0.83778524  1
  O  O135  1  0.91183101  0.24961625  0.90755813  1
  O  O136  1  0.15794188  0.25038375  0.66221476  1
  O  O137  1  0.34205812  0.50427288  0.59244187  1
  O  O138  1  0.33778524  0.49572712  0.08816899  1
  O  O139  1  0.40755813  0.74961625  0.41183101  1
  O  O140  1  0.16221476  0.75038375  0.65794188  1
  O  O141  1  0.09244187  0.00427288  0.84205812  1
  O  O142  1  0.99572712  0.83778524  0.58816899  1
  O  O143  1  0.24961625  0.90755813  0.91183101  1
  O  O144  1  0.25038375  0.66221476  0.15794188  1
  O  O145  1  0.50427288  0.59244187  0.34205812  1
  O  O146  1  0.35215350  0.07558222  0.47378487  1
  O  O147  1  0.89820264  0.42441778  0.27657128  1
  O  O148  1  0.60179736  0.37836864  0.02621513  1
  O  O149  1  0.14784650  0.12163136  0.22342872  1
  O  O150  1  0.97378487  0.57558222  0.85215350  1
  O  O151  1  0.77657128  0.92441778  0.39820264  1
  O  O152  1  0.52621513  0.87836864  0.10179736  1
  O  O153  1  0.72342872  0.62163136  0.64784650  1
  O  O154  1  0.07558222  0.47378487  0.35215350  1
  O  O155  1  0.42441778  0.27657128  0.89820264  1
  O  O156  1  0.37836864  0.02621513  0.60179736  1
  O  O157  1  0.12163136  0.22342872  0.14784650  1
  O  O158  1  0.57558222  0.85215350  0.97378487  1
  O  O159  1  0.92441778  0.39820264  0.77657128  1
  O  O160  1  0.87836864  0.10179736  0.52621513  1
  O  O161  1  0.62163136  0.64784650  0.72342872  1
  O  O162  1  0.47378487  0.35215350  0.07558222  1
  O  O163  1  0.27657128  0.89820264  0.42441778  1
  O  O164  1  0.02621513  0.60179736  0.37836864  1
  O  O165  1  0.22342872  0.14784650  0.12163136  1
  O  O166  1  0.85215350  0.97378487  0.57558222  1
  O  O167  1  0.39820264  0.77657128  0.92441778  1
  O  O168  1  0.10179736  0.52621513  0.87836864  1
  O  O169  1  0.64784650  0.72342872  0.62163136  1
  O  O170  1  0.24894352  0.75000000  0.49894352  1
  O  O171  1  0.25105648  0.25000000  0.00105648  1
  O  O172  1  0.99894352  0.25000000  0.74894352  1
  O  O173  1  0.50105648  0.75000000  0.75105648  1
  O  O174  1  0.75000000  0.49894352  0.24894352  1
  O  O175  1  0.25000000  0.00105648  0.25105648  1
  O  O176  1  0.25000000  0.74894352  0.99894352  1
  O  O177  1  0.75000000  0.75105648  0.50105648  1
  O  O178  1  0.49894352  0.24894352  0.75000000  1
  O  O179  1  0.00105648  0.25105648  0.25000000  1
  O  O180  1  0.74894352  0.99894352  0.25000000  1
  O  O181  1  0.75105648  0.50105648  0.75000000  1
