# generated using pymatgen
data_NaAlF4
_symmetry_space_group_name_H-M   'P 1'
_cell_length_a   7.76482029
_cell_length_b   7.76482029
_cell_length_c   5.32193400
_cell_angle_alpha   90.00000000
_cell_angle_beta   90.00000000
_cell_angle_gamma   152.67010618
_symmetry_Int_Tables_number   1
_chemical_formula_structural   NaAlF4
_chemical_formula_sum   'Na2 Al2 F8'
_cell_volume   147.31670958
_cell_formula_units_Z   2
loop_
 _symmetry_equiv_pos_site_id
 _symmetry_equiv_pos_as_xyz
  1  'x, y, z'
loop_
 _atom_site_type_symbol
 _atom_site_label
 _atom_site_symmetry_multiplicity
 _atom_site_fract_x
 _atom_site_fract_y
 _atom_site_fract_z
 _atom_site_occupancy
  Na  Na0  1  0.69371500  0.30628500  0.75000000  1
  Na  Na1  1  0.30628500  0.69371500  0.25000000  1
  Al  Al2  1  0.91456900  0.08543100  0.75000000  1
  Al  Al3  1  0.08543100  0.91456900  0.25000000  1
  F  F4  1  0.82953200  0.17046800  0.51248900  1
  F  F5  1  0.17046800  0.82953200  0.48751100  1
  F  F6  1  0.82953200  0.17046800  0.98751100  1
  F  F7  1  0.17046800  0.82953200  0.01248900  1
  F  F8  1  0.00000000  0.00000000  0.00000000  1
  F  F9  1  0.00000000  0.00000000  0.50000000  1
  F  F10  1  0.41830800  0.58169200  0.75000000  1
  F  F11  1  0.58169200  0.41830800  0.25000000  1
