# generated using pymatgen
data_Ba3CaTa2O9
_symmetry_space_group_name_H-M   'P 1'
_cell_length_a   5.97325785
_cell_length_b   5.97325785
_cell_length_c   7.36804600
_cell_angle_alpha   90.00000000
_cell_angle_beta   90.00000000
_cell_angle_gamma   119.99999836
_symmetry_Int_Tables_number   1
_chemical_formula_structural   Ba3CaTa2O9
_chemical_formula_sum   'Ba3 Ca1 Ta2 O9'
_cell_volume   227.66983496
_cell_formula_units_Z   1
loop_
 _symmetry_equiv_pos_site_id
 _symmetry_equiv_pos_as_xyz
  1  'x, y, z'
loop_
 _atom_site_type_symbol
 _atom_site_label
 _atom_site_symmetry_multiplicity
 _atom_site_fract_x
 _atom_site_fract_y
 _atom_site_fract_z
 _atom_site_occupancy
  Ba  Ba0  1  0.66666700  0.33333300  0.33232300  1
  Ba  Ba1  1  0.33333300  0.66666700  0.66767700  1
  Ba  Ba2  1  0.00000000  0.00000000  0.00000000  1
  Ca  Ca3  1  0.00000000  0.00000000  0.50000000  1
  Ta  Ta4  1  0.66666700  0.33333300  0.83168900  1
  Ta  Ta5  1  0.33333300  0.66666700  0.16831100  1
  O  O6  1  0.17724800  0.82275200  0.31317000  1
  O  O7  1  0.82275200  0.17724800  0.68683000  1
  O  O8  1  0.50000000  0.50000000  0.00000000  1
  O  O9  1  0.00000000  0.50000000  0.00000000  1
  O  O10  1  0.64550400  0.82275200  0.31317000  1
  O  O11  1  0.35449600  0.17724800  0.68683000  1
  O  O12  1  0.17724800  0.35449600  0.31317000  1
  O  O13  1  0.82275200  0.64550400  0.68683000  1
  O  O14  1  0.50000000  0.00000000  0.00000000  1
