# generated using pymatgen
data_Rb2CeCl5
_symmetry_space_group_name_H-M   'P 1'
_cell_length_a   8.22874200
_cell_length_b   9.07256300
_cell_length_c   13.61984700
_cell_angle_alpha   90.00000000
_cell_angle_beta   90.00000000
_cell_angle_gamma   90.00000000
_symmetry_Int_Tables_number   1
_chemical_formula_structural   Rb2CeCl5
_chemical_formula_sum   'Rb8 Ce4 Cl20'
_cell_volume   1016.80030407
_cell_formula_units_Z   4
loop_
 _symmetry_equiv_pos_site_id
 _symmetry_equiv_pos_as_xyz
  1  'x, y, z'
loop_
 _atom_site_type_symbol
 _atom_site_label
 _atom_site_symmetry_multiplicity
 _atom_site_fract_x
 _atom_site_fract_y
 _atom_site_fract_z
 _atom_site_occupancy
  Rb  Rb0  1  0.53240000  0.49930700  0.82594500  1
  Rb  Rb1  1  0.46760000  0.50069300  0.17405500  1
  Rb  Rb2  1  0.03240000  0.50069300  0.67405500  1
  Rb  Rb3  1  0.46760000  0.99930700  0.17405500  1
  Rb  Rb4  1  0.96760000  0.49930700  0.32594500  1
  Rb  Rb5  1  0.53240000  0.00069300  0.82594500  1
  Rb  Rb6  1  0.96760000  0.00069300  0.32594500  1
  Rb  Rb7  1  0.03240000  0.99930700  0.67405500  1
  Ce  Ce8  1  0.57051800  0.75000000  0.50303700  1
  Ce  Ce9  1  0.42948200  0.25000000  0.49696300  1
  Ce  Ce10  1  0.07051800  0.25000000  0.99696300  1
  Ce  Ce11  1  0.92948200  0.75000000  0.00303700  1
  Cl  Cl12  1  0.82964900  0.75000000  0.80506700  1
  Cl  Cl13  1  0.17035100  0.25000000  0.19493300  1
  Cl  Cl14  1  0.32964900  0.25000000  0.69493300  1
  Cl  Cl15  1  0.67035100  0.75000000  0.30506700  1
  Cl  Cl16  1  0.36171500  0.75000000  0.66486700  1
  Cl  Cl17  1  0.63828500  0.25000000  0.33513300  1
  Cl  Cl18  1  0.86171500  0.25000000  0.83513300  1
  Cl  Cl19  1  0.13828500  0.75000000  0.16486700  1
  Cl  Cl20  1  0.91222300  0.75000000  0.51128100  1
  Cl  Cl21  1  0.08777700  0.25000000  0.48871900  1
  Cl  Cl22  1  0.41222300  0.25000000  0.98871900  1
  Cl  Cl23  1  0.58777700  0.75000000  0.01128100  1
  Cl  Cl24  1  0.65085100  0.03801500  0.58096700  1
  Cl  Cl25  1  0.34914900  0.96198500  0.41903300  1
  Cl  Cl26  1  0.15085100  0.96198500  0.91903300  1
  Cl  Cl27  1  0.34914900  0.53801500  0.41903300  1
  Cl  Cl28  1  0.84914900  0.03801500  0.08096700  1
  Cl  Cl29  1  0.65085100  0.46198500  0.58096700  1
  Cl  Cl30  1  0.84914900  0.46198500  0.08096700  1
  Cl  Cl31  1  0.15085100  0.53801500  0.91903300  1
