# generated using pymatgen
data_K3W2(O2F3)2
_symmetry_space_group_name_H-M   'P 1'
_cell_length_a   8.42483026
_cell_length_b   8.42483026
_cell_length_c   8.64943321
_cell_angle_alpha   71.45053244
_cell_angle_beta   71.45053244
_cell_angle_gamma   90.83619959
_symmetry_Int_Tables_number   1
_chemical_formula_structural   K3W2(O2F3)2
_chemical_formula_sum   'K6 W4 O8 F12'
_cell_volume   547.18894702
_cell_formula_units_Z   2
loop_
 _symmetry_equiv_pos_site_id
 _symmetry_equiv_pos_as_xyz
  1  'x, y, z'
loop_
 _atom_site_type_symbol
 _atom_site_label
 _atom_site_symmetry_multiplicity
 _atom_site_fract_x
 _atom_site_fract_y
 _atom_site_fract_z
 _atom_site_occupancy
  K  K0  1  0.95242500  0.74173300  0.99906600  1
  K  K1  1  0.25826700  0.04757500  0.50093400  1
  K  K2  1  0.04757500  0.25826700  0.00093400  1
  K  K3  1  0.74173300  0.95242500  0.49906600  1
  K  K4  1  0.50000000  0.50000000  0.00000000  1
  K  K5  1  0.50000000  0.50000000  0.50000000  1
  W  W6  1  0.02227400  0.43066400  0.36683100  1
  W  W7  1  0.56933600  0.97772600  0.13316900  1
  W  W8  1  0.97772600  0.56933600  0.63316900  1
  W  W9  1  0.43066400  0.02227400  0.86683100  1
  O  O10  1  0.93539600  0.34315500  0.62278000  1
  O  O11  1  0.65684500  0.06460400  0.87722000  1
  O  O12  1  0.06460400  0.65684500  0.37722000  1
  O  O13  1  0.34315500  0.93539600  0.12278000  1
  O  O14  1  0.83349600  0.45396900  0.31776000  1
  O  O15  1  0.54603100  0.16650400  0.18224000  1
  O  O16  1  0.16650400  0.54603100  0.68224000  1
  O  O17  1  0.45396900  0.83349600  0.81776000  1
  F  F18  1  0.15771800  0.50234300  0.11013500  1
  F  F19  1  0.49765700  0.84228200  0.38986500  1
  F  F20  1  0.84228200  0.49765700  0.88986500  1
  F  F21  1  0.50234300  0.15771800  0.61013500  1
  F  F22  1  0.02660400  0.19389200  0.35384900  1
  F  F23  1  0.80610800  0.97339600  0.14615100  1
  F  F24  1  0.97339600  0.80610800  0.64615100  1
  F  F25  1  0.19389200  0.02660400  0.85384900  1
  F  F26  1  0.73910200  0.61304300  0.62548000  1
  F  F27  1  0.38695700  0.26089800  0.87452000  1
  F  F28  1  0.26089800  0.38695700  0.37452000  1
  F  F29  1  0.61304300  0.73910200  0.12548000  1
