# generated using pymatgen
data_Ho3(Al3Os)4
_symmetry_space_group_name_H-M   'P 1'
_cell_length_a   8.83353413
_cell_length_b   8.83353413
_cell_length_c   9.56594400
_cell_angle_alpha   90.00000000
_cell_angle_beta   90.00000000
_cell_angle_gamma   120.00000098
_symmetry_Int_Tables_number   1
_chemical_formula_structural   Ho3(Al3Os)4
_chemical_formula_sum   'Ho6 Al24 Os8'
_cell_volume   646.43884305
_cell_formula_units_Z   2
loop_
 _symmetry_equiv_pos_site_id
 _symmetry_equiv_pos_as_xyz
  1  'x, y, z'
loop_
 _atom_site_type_symbol
 _atom_site_label
 _atom_site_symmetry_multiplicity
 _atom_site_fract_x
 _atom_site_fract_y
 _atom_site_fract_z
 _atom_site_occupancy
  Ho  Ho0  1  0.19330500  0.38661000  0.25000000  1
  Ho  Ho1  1  0.80669500  0.61339000  0.75000000  1
  Ho  Ho2  1  0.61339000  0.80669500  0.25000000  1
  Ho  Ho3  1  0.38661000  0.19330500  0.75000000  1
  Ho  Ho4  1  0.19330500  0.80669500  0.25000000  1
  Ho  Ho5  1  0.80669500  0.19330500  0.75000000  1
  Al  Al6  1  0.33333300  0.66666700  0.01551500  1
  Al  Al7  1  0.66666700  0.33333300  0.98448500  1
  Al  Al8  1  0.66666700  0.33333300  0.51551500  1
  Al  Al9  1  0.33333300  0.66666700  0.48448500  1
  Al  Al10  1  0.16269800  0.32539600  0.57624600  1
  Al  Al11  1  0.83730200  0.67460400  0.42375400  1
  Al  Al12  1  0.67460400  0.83730200  0.57624600  1
  Al  Al13  1  0.83730200  0.67460400  0.07624600  1
  Al  Al14  1  0.32539600  0.16269800  0.42375400  1
  Al  Al15  1  0.16269800  0.32539600  0.92375400  1
  Al  Al16  1  0.16269800  0.83730200  0.57624600  1
  Al  Al17  1  0.32539600  0.16269800  0.07624600  1
  Al  Al18  1  0.83730200  0.16269800  0.42375400  1
  Al  Al19  1  0.67460400  0.83730200  0.92375400  1
  Al  Al20  1  0.83730200  0.16269800  0.07624600  1
  Al  Al21  1  0.16269800  0.83730200  0.92375400  1
  Al  Al22  1  0.55988300  0.11976700  0.25000000  1
  Al  Al23  1  0.44011700  0.88023300  0.75000000  1
  Al  Al24  1  0.88023300  0.44011700  0.25000000  1
  Al  Al25  1  0.11976700  0.55988300  0.75000000  1
  Al  Al26  1  0.55988300  0.44011700  0.25000000  1
  Al  Al27  1  0.44011700  0.55988300  0.75000000  1
  Al  Al28  1  0.00000000  0.00000000  0.25000000  1
  Al  Al29  1  0.00000000  0.00000000  0.75000000  1
  Os  Os30  1  0.50000000  0.00000000  0.00000000  1
  Os  Os31  1  0.00000000  0.50000000  0.00000000  1
  Os  Os32  1  0.50000000  0.00000000  0.50000000  1
  Os  Os33  1  0.50000000  0.50000000  0.00000000  1
  Os  Os34  1  0.00000000  0.50000000  0.50000000  1
  Os  Os35  1  0.50000000  0.50000000  0.50000000  1
  Os  Os36  1  0.00000000  0.00000000  0.00000000  1
  Os  Os37  1  0.00000000  0.00000000  0.50000000  1
