# generated using pymatgen
data_YCr4(CuO4)3
_symmetry_space_group_name_H-M   'P 1'
_cell_length_a   6.39911776
_cell_length_b   6.39916802
_cell_length_c   6.39910974
_cell_angle_alpha   70.42333088
_cell_angle_beta   70.53023683
_cell_angle_gamma   109.36781971
_symmetry_Int_Tables_number   1
_chemical_formula_structural   YCr4(CuO4)3
_chemical_formula_sum   'Y1 Cr4 Cu3 O12'
_cell_volume   201.71446288
_cell_formula_units_Z   1
loop_
 _symmetry_equiv_pos_site_id
 _symmetry_equiv_pos_as_xyz
  1  'x, y, z'
loop_
 _atom_site_type_symbol
 _atom_site_label
 _atom_site_symmetry_multiplicity
 _atom_site_fract_x
 _atom_site_fract_y
 _atom_site_fract_z
 _atom_site_occupancy
  Y  Y0  1  0.99999500  0.99999800  0.00000600  1
  Cr  Cr1  1  0.00000400  0.50000100  0.00000300  1
  Cr  Cr2  1  0.49999500  0.49999900  0.49999600  1
  Cr  Cr3  1  0.50000700  0.00001000  0.99999600  1
  Cr  Cr4  1  0.99999500  0.99998900  0.50000100  1
  Cu  Cu5  1  0.50000100  0.99999700  0.49999900  1
  Cu  Cu6  1  0.49999900  0.50000100  0.00000200  1
  Cu  Cu7  1  0.99999900  0.50000100  0.50000100  1
  O  O8  1  0.86107100  0.69346900  0.83241700  1
  O  O9  1  0.47411200  0.30653200  0.83239500  1
  O  O10  1  0.52588500  0.69347500  0.16759700  1
  O  O11  1  0.13892900  0.30652500  0.16759000  1
  O  O12  1  0.83333200  0.13910300  0.69422200  1
  O  O13  1  0.83333200  0.52757100  0.30576300  1
  O  O14  1  0.16666300  0.47242600  0.69424000  1
  O  O15  1  0.16668000  0.86090000  0.30576700  1
  O  O16  1  0.30712100  0.16800800  0.52486600  1
  O  O17  1  0.69288600  0.16802400  0.13911500  1
  O  O18  1  0.30712900  0.83199300  0.86088500  1
  O  O19  1  0.69286500  0.83197800  0.47513800  1
