# generated using pymatgen
data_TmSiPt
_symmetry_space_group_name_H-M   'P 1'
_cell_length_a   4.27097400
_cell_length_b   6.92226700
_cell_length_c   7.42988200
_cell_angle_alpha   90.00000000
_cell_angle_beta   90.00000000
_cell_angle_gamma   90.00000000
_symmetry_Int_Tables_number   1
_chemical_formula_structural   TmSiPt
_chemical_formula_sum   'Tm4 Si4 Pt4'
_cell_volume   219.66314162
_cell_formula_units_Z   4
loop_
 _symmetry_equiv_pos_site_id
 _symmetry_equiv_pos_as_xyz
  1  'x, y, z'
loop_
 _atom_site_type_symbol
 _atom_site_label
 _atom_site_symmetry_multiplicity
 _atom_site_fract_x
 _atom_site_fract_y
 _atom_site_fract_z
 _atom_site_occupancy
  Tm  Tm0  1  0.25000000  0.49743600  0.70016300  1
  Tm  Tm1  1  0.25000000  0.99743600  0.79983700  1
  Tm  Tm2  1  0.75000000  0.50256400  0.29983700  1
  Tm  Tm3  1  0.75000000  0.00256400  0.20016300  1
  Si  Si4  1  0.25000000  0.81463500  0.41173600  1
  Si  Si5  1  0.25000000  0.31463500  0.08826400  1
  Si  Si6  1  0.75000000  0.18536500  0.58826400  1
  Si  Si7  1  0.75000000  0.68536500  0.91173600  1
  Pt  Pt8  1  0.25000000  0.20185400  0.41423900  1
  Pt  Pt9  1  0.25000000  0.70185400  0.08576100  1
  Pt  Pt10  1  0.75000000  0.79814600  0.58576100  1
  Pt  Pt11  1  0.75000000  0.29814600  0.91423900  1
