# generated using pymatgen
data_Mn3WO6
_symmetry_space_group_name_H-M   'P 1'
_cell_length_a   6.31170664
_cell_length_b   6.31170646
_cell_length_c   6.31170696
_cell_angle_alpha   91.25053154
_cell_angle_beta   91.25053725
_cell_angle_gamma   91.25053318
_symmetry_Int_Tables_number   1
_chemical_formula_structural   Mn3WO6
_chemical_formula_sum   'Mn6 W2 O12'
_cell_volume   251.26118488
_cell_formula_units_Z   2
loop_
 _symmetry_equiv_pos_site_id
 _symmetry_equiv_pos_as_xyz
  1  'x, y, z'
loop_
 _atom_site_type_symbol
 _atom_site_label
 _atom_site_symmetry_multiplicity
 _atom_site_fract_x
 _atom_site_fract_y
 _atom_site_fract_z
 _atom_site_occupancy
  Mn  Mn0  1  0.75017000  0.44273300  0.93949000  1
  Mn  Mn1  1  0.44273300  0.93949000  0.75017000  1
  Mn  Mn2  1  0.24983000  0.55726700  0.06051000  1
  Mn  Mn3  1  0.06051000  0.24983000  0.55726700  1
  Mn  Mn4  1  0.55726700  0.06051000  0.24983000  1
  Mn  Mn5  1  0.93949000  0.75017000  0.44273300  1
  W  W6  1  0.00000000  0.00000000  0.00000000  1
  W  W7  1  0.50000000  0.50000000  0.50000000  1
  O  O8  1  0.92815600  0.70556000  0.06618900  1
  O  O9  1  0.70556000  0.06618900  0.92815600  1
  O  O10  1  0.06618900  0.92815600  0.70556000  1
  O  O11  1  0.07184400  0.29444000  0.93381100  1
  O  O12  1  0.29444000  0.93381100  0.07184400  1
  O  O13  1  0.93381100  0.07184400  0.29444000  1
  O  O14  1  0.44861700  0.58983500  0.79300400  1
  O  O15  1  0.58983500  0.79300400  0.44861700  1
  O  O16  1  0.20699600  0.55138300  0.41016500  1
  O  O17  1  0.41016500  0.20699600  0.55138300  1
  O  O18  1  0.55138300  0.41016500  0.20699600  1
  O  O19  1  0.79300400  0.44861700  0.58983500  1
