# generated using pymatgen
data_Nd9Al5S21
_symmetry_space_group_name_H-M   'P 1'
_cell_length_a   11.73938731
_cell_length_b   11.73938731
_cell_length_c   11.73938757
_cell_angle_alpha   95.07434377
_cell_angle_beta   95.07434377
_cell_angle_gamma   95.07434649
_symmetry_Int_Tables_number   1
_chemical_formula_structural   Nd9Al5S21
_chemical_formula_sum   'Nd18 Al10 S42'
_cell_volume   1597.61197876
_cell_formula_units_Z   2
loop_
 _symmetry_equiv_pos_site_id
 _symmetry_equiv_pos_as_xyz
  1  'x, y, z'
loop_
 _atom_site_type_symbol
 _atom_site_label
 _atom_site_symmetry_multiplicity
 _atom_site_fract_x
 _atom_site_fract_y
 _atom_site_fract_z
 _atom_site_occupancy
  Nd  Nd0  1  0.25870300  0.12238700  0.88389100  1
  Nd  Nd1  1  0.92292100  0.77703600  0.54244700  1
  Nd  Nd2  1  0.59906900  0.45061300  0.23013400  1
  Nd  Nd3  1  0.45061300  0.23013400  0.59906900  1
  Nd  Nd4  1  0.12238700  0.88389100  0.25870300  1
  Nd  Nd5  1  0.77703600  0.54244700  0.92292100  1
  Nd  Nd6  1  0.54244700  0.92292100  0.77703600  1
  Nd  Nd7  1  0.23013400  0.59906900  0.45061300  1
  Nd  Nd8  1  0.88389100  0.25870300  0.12238700  1
  Nd  Nd9  1  0.41754900  0.56160900  0.79334800  1
  Nd  Nd10  1  0.07076500  0.21733900  0.45074300  1
  Nd  Nd11  1  0.75551300  0.89552700  0.12454500  1
  Nd  Nd12  1  0.21733900  0.45074300  0.07076500  1
  Nd  Nd13  1  0.89552700  0.12454500  0.75551300  1
  Nd  Nd14  1  0.56160900  0.79334800  0.41754900  1
  Nd  Nd15  1  0.12454500  0.75551300  0.89552700  1
  Nd  Nd16  1  0.79334800  0.41754900  0.56160900  1
  Nd  Nd17  1  0.45074300  0.07076500  0.21733900  1
  Al  Al18  1  0.95249300  0.61060200  0.27727100  1
  Al  Al19  1  0.61060200  0.27727100  0.95249300  1
  Al  Al20  1  0.27727100  0.95249300  0.61060200  1
  Al  Al21  1  0.45156800  0.77316300  0.11571400  1
  Al  Al22  1  0.11571400  0.45156800  0.77316300  1
  Al  Al23  1  0.77316300  0.11571400  0.45156800  1
  Al  Al24  1  0.14592100  0.14592100  0.14592100  1
  Al  Al25  1  0.82711600  0.82711600  0.82711600  1
  Al  Al26  1  0.32751800  0.32751800  0.32751800  1
  Al  Al27  1  0.64607900  0.64607900  0.64607900  1
  S  S28  1  0.82715000  0.49113100  0.15833700  1
  S  S29  1  0.49113100  0.15833700  0.82715000  1
  S  S30  1  0.15833700  0.82715000  0.49113100  1
  S  S31  1  0.65815500  0.99299800  0.32557400  1
  S  S32  1  0.32557400  0.65815500  0.99299800  1
  S  S33  1  0.99299800  0.32557400  0.65815500  1
  S  S34  1  0.98647100  0.55223200  0.45467100  1
  S  S35  1  0.64106100  0.21753200  0.12832200  1
  S  S36  1  0.30194300  0.89618900  0.79086200  1
  S  S37  1  0.89618900  0.79086200  0.30194300  1
  S  S38  1  0.55223200  0.45467100  0.98647100  1
  S  S39  1  0.21753200  0.12832200  0.64106100  1
  S  S40  1  0.12832200  0.64106100  0.21753200  1
  S  S41  1  0.79086200  0.30194300  0.89618900  1
  S  S42  1  0.45467100  0.98647100  0.55223200  1
  S  S43  1  0.52204500  0.92815600  0.03411900  1
  S  S44  1  0.18811200  0.61116900  0.70124000  1
  S  S45  1  0.84013400  0.27410300  0.37000600  1
  S  S46  1  0.61116900  0.70124000  0.18811200  1
  S  S47  1  0.27410300  0.37000600  0.84013400  1
  S  S48  1  0.92815600  0.03411900  0.52204500  1
  S  S49  1  0.37000600  0.84013400  0.27410300  1
  S  S50  1  0.03411900  0.52204500  0.92815600  1
  S  S51  1  0.70124000  0.18811200  0.61116900  1
  S  S52  1  0.69002400  0.59780200  0.45016000  1
  S  S53  1  0.33370900  0.24624100  0.11117300  1
  S  S54  1  0.99813600  0.90460600  0.76394100  1
  S  S55  1  0.90460600  0.76394100  0.99813600  1
  S  S56  1  0.59780200  0.45016000  0.69002400  1
  S  S57  1  0.24624100  0.11117300  0.33370900  1
  S  S58  1  0.11117300  0.33370900  0.24624100  1
  S  S59  1  0.76394100  0.99813600  0.90460600  1
  S  S60  1  0.45016000  0.69002400  0.59780200  1
  S  S61  1  0.62848500  0.71471000  0.85026900  1
  S  S62  1  0.27765900  0.37611900  0.51268100  1
  S  S63  1  0.96913300  0.05802300  0.20883000  1
  S  S64  1  0.37611900  0.51268100  0.27765900  1
  S  S65  1  0.05802300  0.20883000  0.96913300  1
  S  S66  1  0.71471000  0.85026900  0.62848500  1
  S  S67  1  0.20883000  0.96913300  0.05802300  1
  S  S68  1  0.85026900  0.62848500  0.71471000  1
  S  S69  1  0.51268100  0.27765900  0.37611900  1
