# generated using pymatgen
data_TlSb3F18
_symmetry_space_group_name_H-M   'P 1'
_cell_length_a   9.73042814
_cell_length_b   9.73042814
_cell_length_c   8.87579500
_cell_angle_alpha   90.00000000
_cell_angle_beta   90.00000000
_cell_angle_gamma   120.00000096
_symmetry_Int_Tables_number   1
_chemical_formula_structural   TlSb3F18
_chemical_formula_sum   'Tl2 Sb6 F36'
_cell_volume   727.78280408
_cell_formula_units_Z   2
loop_
 _symmetry_equiv_pos_site_id
 _symmetry_equiv_pos_as_xyz
  1  'x, y, z'
loop_
 _atom_site_type_symbol
 _atom_site_label
 _atom_site_symmetry_multiplicity
 _atom_site_fract_x
 _atom_site_fract_y
 _atom_site_fract_z
 _atom_site_occupancy
  Tl  Tl0  1  0.33333300  0.66666700  0.57157600  1
  Tl  Tl1  1  0.66666700  0.33333300  0.42842400  1
  Sb  Sb2  1  0.98169500  0.34641200  0.75674600  1
  Sb  Sb3  1  0.36471700  0.01830500  0.75674600  1
  Sb  Sb4  1  0.65358800  0.63528300  0.75674600  1
  Sb  Sb5  1  0.01830500  0.65358800  0.24325400  1
  Sb  Sb6  1  0.63528300  0.98169500  0.24325400  1
  Sb  Sb7  1  0.34641200  0.36471700  0.24325400  1
  F  F8  1  0.47209500  0.86093800  0.40337700  1
  F  F9  1  0.38884300  0.52790500  0.40337700  1
  F  F10  1  0.13906200  0.61115700  0.40337700  1
  F  F11  1  0.52790500  0.13906200  0.59662300  1
  F  F12  1  0.61115700  0.47209500  0.59662300  1
  F  F13  1  0.86093800  0.38884300  0.59662300  1
  F  F14  1  0.10709100  0.32116500  0.90249100  1
  F  F15  1  0.21407400  0.89290900  0.90249100  1
  F  F16  1  0.67883500  0.78592600  0.90249100  1
  F  F17  1  0.89290900  0.67883500  0.09750900  1
  F  F18  1  0.78592600  0.10709100  0.09750900  1
  F  F19  1  0.32116500  0.21407400  0.09750900  1
  F  F20  1  0.86422000  0.39080100  0.89670100  1
  F  F21  1  0.52658200  0.13578000  0.89670100  1
  F  F22  1  0.60919900  0.47341800  0.89670100  1
  F  F23  1  0.13578000  0.60919900  0.10329900  1
  F  F24  1  0.47341800  0.86422000  0.10329900  1
  F  F25  1  0.39080100  0.52658200  0.10329900  1
  F  F26  1  0.23703500  0.88078500  0.59464100  1
  F  F27  1  0.64375000  0.76296500  0.59464100  1
  F  F28  1  0.11921500  0.35625000  0.59464100  1
  F  F29  1  0.76296500  0.11921500  0.40535900  1
  F  F30  1  0.35625000  0.23703500  0.40535900  1
  F  F31  1  0.88078500  0.64375000  0.40535900  1
  F  F32  1  0.83743900  0.12875000  0.73249600  1
  F  F33  1  0.29131100  0.16256100  0.73249600  1
  F  F34  1  0.87125000  0.70868900  0.73249600  1
  F  F35  1  0.16256100  0.87125000  0.26750400  1
  F  F36  1  0.70868900  0.83743900  0.26750400  1
  F  F37  1  0.12875000  0.29131100  0.26750400  1
  F  F38  1  0.13452400  0.58145800  0.74348200  1
  F  F39  1  0.44693400  0.86547600  0.74348200  1
  F  F40  1  0.41854200  0.55306600  0.74348200  1
  F  F41  1  0.86547600  0.41854200  0.25651800  1
  F  F42  1  0.55306600  0.13452400  0.25651800  1
  F  F43  1  0.58145800  0.44693400  0.25651800  1
