# generated using pymatgen
data_CaAs3F15
_symmetry_space_group_name_H-M   'P 1'
_cell_length_a   10.30291600
_cell_length_b   10.65922100
_cell_length_c   11.20509600
_cell_angle_alpha   90.00000000
_cell_angle_beta   90.00000000
_cell_angle_gamma   90.00000000
_symmetry_Int_Tables_number   1
_chemical_formula_structural   CaAs3F15
_chemical_formula_sum   'Ca4 As12 F60'
_cell_volume   1230.55550431
_cell_formula_units_Z   4
loop_
 _symmetry_equiv_pos_site_id
 _symmetry_equiv_pos_as_xyz
  1  'x, y, z'
loop_
 _atom_site_type_symbol
 _atom_site_label
 _atom_site_symmetry_multiplicity
 _atom_site_fract_x
 _atom_site_fract_y
 _atom_site_fract_z
 _atom_site_occupancy
  Ca  Ca0  1  0.99980000  0.12829700  0.87128100  1
  Ca  Ca1  1  0.00020000  0.62829700  0.62871900  1
  Ca  Ca2  1  0.49980000  0.37170300  0.12871900  1
  Ca  Ca3  1  0.50020000  0.87170300  0.37128100  1
  As  As4  1  0.75563000  0.06700300  0.15662900  1
  As  As5  1  0.24437000  0.56700300  0.34337100  1
  As  As6  1  0.25563000  0.43299700  0.84337100  1
  As  As7  1  0.74437000  0.93299700  0.65662900  1
  As  As8  1  0.74426500  0.43303500  0.84351900  1
  As  As9  1  0.25573500  0.93303500  0.65648100  1
  As  As10  1  0.24426500  0.06696500  0.15648100  1
  As  As11  1  0.75573500  0.56696500  0.34351900  1
  As  As12  1  0.98485500  0.75310700  0.98952900  1
  As  As13  1  0.01514500  0.25310700  0.51047100  1
  As  As14  1  0.48485500  0.74689300  0.01047100  1
  As  As15  1  0.51514500  0.24689300  0.48952900  1
  F  F16  1  0.64825600  0.00281500  0.26834400  1
  F  F17  1  0.35174400  0.50281500  0.23165600  1
  F  F18  1  0.14825600  0.49718500  0.73165600  1
  F  F19  1  0.85174400  0.99718500  0.76834400  1
  F  F20  1  0.85151000  0.49741300  0.73208600  1
  F  F21  1  0.14849000  0.99741300  0.76791400  1
  F  F22  1  0.35151000  0.00258700  0.26791400  1
  F  F23  1  0.64849000  0.50258700  0.23208600  1
  F  F24  1  0.85381900  0.93417500  0.16788900  1
  F  F25  1  0.14618100  0.43417500  0.33211100  1
  F  F26  1  0.35381900  0.56582500  0.83211100  1
  F  F27  1  0.64618100  0.06582500  0.66788900  1
  F  F28  1  0.64679400  0.56597200  0.83292100  1
  F  F29  1  0.35320600  0.06597200  0.66707900  1
  F  F30  1  0.14679400  0.93402800  0.16707900  1
  F  F31  1  0.85320600  0.43402800  0.33292100  1
  F  F32  1  0.65147000  0.20320700  0.14843700  1
  F  F33  1  0.34853000  0.70320700  0.35156300  1
  F  F34  1  0.15147000  0.29679300  0.85156300  1
  F  F35  1  0.84853000  0.79679300  0.64843700  1
  F  F36  1  0.84808200  0.29688500  0.85145700  1
  F  F37  1  0.15191800  0.79688500  0.64854300  1
  F  F38  1  0.34808200  0.20311500  0.14854300  1
  F  F39  1  0.65191800  0.70311500  0.35145700  1
  F  F40  1  0.00767200  0.91536800  0.95200400  1
  F  F41  1  0.99232800  0.41536800  0.54799600  1
  F  F42  1  0.50767200  0.58463200  0.04799600  1
  F  F43  1  0.49232800  0.08463200  0.45200400  1
  F  F44  1  0.00746400  0.70221200  0.83774100  1
  F  F45  1  0.99253600  0.20221200  0.66225900  1
  F  F46  1  0.50746400  0.79778800  0.16225900  1
  F  F47  1  0.49253600  0.29778800  0.33774100  1
  F  F48  1  0.84476000  0.14372000  0.26620200  1
  F  F49  1  0.15524000  0.64372000  0.23379800  1
  F  F50  1  0.34476000  0.35628000  0.73379800  1
  F  F51  1  0.65524000  0.85628000  0.76620200  1
  F  F52  1  0.65545200  0.35625700  0.73317700  1
  F  F53  1  0.34454800  0.85625700  0.76682300  1
  F  F54  1  0.15545200  0.14374300  0.26682300  1
  F  F55  1  0.84454800  0.64374300  0.23317700  1
  F  F56  1  0.66041400  0.99902600  0.04469200  1
  F  F57  1  0.33958600  0.49902600  0.45530800  1
  F  F58  1  0.16041400  0.50097400  0.95530800  1
  F  F59  1  0.83958600  0.00097400  0.54469200  1
  F  F60  1  0.84023200  0.49970400  0.95588000  1
  F  F61  1  0.15976800  0.99970400  0.54412000  1
  F  F62  1  0.34023200  0.00029600  0.04412000  1
  F  F63  1  0.65976800  0.50029600  0.45588000  1
  F  F64  1  0.85812400  0.13370300  0.04284600  1
  F  F65  1  0.14187600  0.63370300  0.45715400  1
  F  F66  1  0.35812400  0.36629700  0.95715400  1
  F  F67  1  0.64187600  0.86629700  0.54284600  1
  F  F68  1  0.64188500  0.36592000  0.95681500  1
  F  F69  1  0.35811500  0.86592000  0.54318500  1
  F  F70  1  0.14188500  0.13408000  0.04318500  1
  F  F71  1  0.85811500  0.63408000  0.45681500  1
  F  F72  1  0.81630300  0.76024600  0.97780200  1
  F  F73  1  0.18369700  0.26024500  0.52219800  1
  F  F74  1  0.31630300  0.73975400  0.02219800  1
  F  F75  1  0.68369700  0.23975400  0.47780200  1
