# generated using pymatgen
data_CeTl(PO3)4
_symmetry_space_group_name_H-M   'P 1'
_cell_length_a   9.20044200
_cell_length_b   10.66851600
_cell_length_c   13.13690029
_cell_angle_alpha   54.83286571
_cell_angle_beta   90.00000000
_cell_angle_gamma   90.00000000
_symmetry_Int_Tables_number   1
_chemical_formula_structural   CeTl(PO3)4
_chemical_formula_sum   'Ce4 Tl4 P16 O48'
_cell_volume   1054.09634659
_cell_formula_units_Z   4
loop_
 _symmetry_equiv_pos_site_id
 _symmetry_equiv_pos_as_xyz
  1  'x, y, z'
loop_
 _atom_site_type_symbol
 _atom_site_label
 _atom_site_symmetry_multiplicity
 _atom_site_fract_x
 _atom_site_fract_y
 _atom_site_fract_z
 _atom_site_occupancy
  Ce  Ce0  1  0.22645600  0.81554300  0.18415400  1
  Ce  Ce1  1  0.77354400  0.18445700  0.81584600  1
  Ce  Ce2  1  0.72645600  0.18445700  0.31584600  1
  Ce  Ce3  1  0.27354400  0.81554300  0.68415400  1
  Tl  Tl4  1  0.93528700  0.74613900  0.46042200  1
  Tl  Tl5  1  0.06471300  0.25386100  0.53957800  1
  Tl  Tl6  1  0.43528700  0.25386100  0.03957800  1
  Tl  Tl7  1  0.56471300  0.74613900  0.96042200  1
  P  P8  1  0.97546300  0.52573800  0.22369000  1
  P  P9  1  0.02453700  0.47426200  0.77631000  1
  P  P10  1  0.47546300  0.47426200  0.27631000  1
  P  P11  1  0.52453700  0.52573800  0.72369000  1
  P  P12  1  0.59651100  0.88447100  0.26042700  1
  P  P13  1  0.40348900  0.11552900  0.73957300  1
  P  P14  1  0.09651100  0.11552900  0.23957300  1
  P  P15  1  0.90348900  0.88447100  0.76042700  1
  P  P16  1  0.89724400  0.30142500  0.02240800  1
  P  P17  1  0.10275600  0.69857500  0.97759200  1
  P  P18  1  0.39724400  0.69857500  0.47759200  1
  P  P19  1  0.60275600  0.30142500  0.52240800  1
  P  P20  1  0.82607400  0.81782100  0.14145000  1
  P  P21  1  0.17392600  0.18217900  0.85855000  1
  P  P22  1  0.32607400  0.18217900  0.35855000  1
  P  P23  1  0.67392600  0.81782100  0.64145000  1
  O  O24  1  0.70745400  0.77435400  0.24893300  1
  O  O25  1  0.29254600  0.22564600  0.75106700  1
  O  O26  1  0.20745400  0.22564600  0.25106700  1
  O  O27  1  0.79254600  0.77435400  0.74893300  1
  O  O28  1  0.75552400  0.91879400  0.01566500  1
  O  O29  1  0.24447600  0.08120600  0.98433500  1
  O  O30  1  0.25552400  0.08120600  0.48433500  1
  O  O31  1  0.74447600  0.91879400  0.51566500  1
  O  O32  1  0.18103500  0.98745300  0.25165400  1
  O  O33  1  0.81896500  0.01254700  0.74834600  1
  O  O34  1  0.68103500  0.01254700  0.24834600  1
  O  O35  1  0.31896500  0.98745300  0.75165400  1
  O  O36  1  0.58751400  0.43149900  0.21763600  1
  O  O37  1  0.41248600  0.56850100  0.78236400  1
  O  O38  1  0.08751400  0.56850100  0.28236400  1
  O  O39  1  0.91248600  0.43149900  0.71763600  1
  O  O40  1  0.91096700  0.36796100  0.30460000  1
  O  O41  1  0.08903300  0.63203900  0.69540000  1
  O  O42  1  0.41096700  0.63203900  0.19540000  1
  O  O43  1  0.58903300  0.36796100  0.80460000  1
  O  O44  1  0.34174600  0.79966200  0.51415600  1
  O  O45  1  0.65825400  0.20033800  0.48584400  1
  O  O46  1  0.84174600  0.20033800  0.98584400  1
  O  O47  1  0.15825400  0.79966200  0.01415600  1
  O  O48  1  0.46785900  0.92652600  0.17534500  1
  O  O49  1  0.53214100  0.07347400  0.82465500  1
  O  O50  1  0.96785900  0.07347400  0.32465500  1
  O  O51  1  0.03214100  0.92652600  0.67534500  1
  O  O52  1  0.55047100  0.76438100  0.40345400  1
  O  O53  1  0.44952900  0.23561900  0.59654600  1
  O  O54  1  0.05047100  0.23561900  0.09654600  1
  O  O55  1  0.94952900  0.76438100  0.90345400  1
  O  O56  1  0.96451600  0.86491100  0.17120300  1
  O  O57  1  0.03548400  0.13508900  0.82879700  1
  O  O58  1  0.46451600  0.13508900  0.32879700  1
  O  O59  1  0.53548400  0.86491100  0.67120300  1
  O  O60  1  0.84408500  0.65060500  0.16679700  1
  O  O61  1  0.15591500  0.34939500  0.83320300  1
  O  O62  1  0.34408500  0.34939500  0.33320300  1
  O  O63  1  0.65591500  0.65060500  0.66679700  1
  O  O64  1  0.79734000  0.33964300  0.09134300  1
  O  O65  1  0.20266000  0.66035700  0.90865700  1
  O  O66  1  0.29734000  0.66035700  0.40865700  1
  O  O67  1  0.70266000  0.33964300  0.59134300  1
  O  O68  1  0.54047000  0.45754400  0.39851200  1
  O  O69  1  0.45953000  0.54245600  0.60148800  1
  O  O70  1  0.04047000  0.54245600  0.10148800  1
  O  O71  1  0.95953000  0.45754400  0.89851200  1
