# generated using pymatgen
data_PH5CO3
_symmetry_space_group_name_H-M   'P 1'
_cell_length_a   15.38820100
_cell_length_b   5.89334700
_cell_length_c   10.25163135
_cell_angle_alpha   90.00000000
_cell_angle_beta   108.34863708
_cell_angle_gamma   90.00000000
_symmetry_Int_Tables_number   1
_chemical_formula_structural   PH5CO3
_chemical_formula_sum   'P8 H40 C8 O24'
_cell_volume   882.43277149
_cell_formula_units_Z   8
loop_
 _symmetry_equiv_pos_site_id
 _symmetry_equiv_pos_as_xyz
  1  'x, y, z'
loop_
 _atom_site_type_symbol
 _atom_site_label
 _atom_site_symmetry_multiplicity
 _atom_site_fract_x
 _atom_site_fract_y
 _atom_site_fract_z
 _atom_site_occupancy
  P  P0  1  0.41435500  0.13923800  0.10977300  1
  P  P1  1  0.58564500  0.63923800  0.39022700  1
  P  P2  1  0.58564500  0.86076200  0.89022700  1
  P  P3  1  0.41435500  0.36076200  0.60977300  1
  P  P4  1  0.08622800  0.63303000  0.19063700  1
  P  P5  1  0.91377200  0.13303000  0.30936300  1
  P  P6  1  0.91377200  0.36697000  0.80936300  1
  P  P7  1  0.08622800  0.86697000  0.69063700  1
  H  H8  1  0.44444800  0.93510600  0.30279500  1
  H  H9  1  0.55555200  0.43510600  0.19720500  1
  H  H10  1  0.55555200  0.06489400  0.69720500  1
  H  H11  1  0.44444800  0.56489400  0.80279500  1
  H  H12  1  0.43136600  0.87318400  0.96320700  1
  H  H13  1  0.56863400  0.37318400  0.53679300  1
  H  H14  1  0.56863400  0.12681600  0.03679300  1
  H  H15  1  0.43136600  0.62681600  0.46320700  1
  H  H16  1  0.32485400  0.39750000  0.94610000  1
  H  H17  1  0.67514600  0.89750000  0.55390000  1
  H  H18  1  0.67514600  0.60250000  0.05390000  1
  H  H19  1  0.32485400  0.10250000  0.44610000  1
  H  H20  1  0.26217200  0.27876900  0.05165900  1
  H  H21  1  0.73782800  0.77876900  0.44834100  1
  H  H22  1  0.73782800  0.72123100  0.94834100  1
  H  H23  1  0.26217200  0.22123100  0.55165900  1
  H  H24  1  0.34525800  0.49959400  0.11737400  1
  H  H25  1  0.65474200  0.99959400  0.38262600  1
  H  H26  1  0.65474200  0.50040600  0.88262600  1
  H  H27  1  0.34525800  0.00040600  0.61737400  1
  H  H28  1  0.05291000  0.44348300  0.35790600  1
  H  H29  1  0.94709000  0.94348300  0.14209400  1
  H  H30  1  0.94709000  0.55651700  0.64209400  1
  H  H31  1  0.05291000  0.05651700  0.85790600  1
  H  H32  1  0.06418700  0.35809700  0.03134200  1
  H  H33  1  0.93581300  0.85809700  0.46865800  1
  H  H34  1  0.93581300  0.64190300  0.96865800  1
  H  H35  1  0.06418700  0.14190300  0.53134200  1
  H  H36  1  0.16563500  0.98405700  0.25738900  1
  H  H37  1  0.83436500  0.48405700  0.24261100  1
  H  H38  1  0.83436500  0.01594300  0.74261100  1
  H  H39  1  0.16563500  0.51594300  0.75738900  1
  H  H40  1  0.24157600  0.74372700  0.27797900  1
  H  H41  1  0.75842400  0.24372700  0.22202100  1
  H  H42  1  0.75842400  0.25627300  0.72202100  1
  H  H43  1  0.24157600  0.75627300  0.77797900  1
  H  H44  1  0.18522700  0.85955900  0.10987500  1
  H  H45  1  0.81477300  0.35955900  0.39012500  1
  H  H46  1  0.81477300  0.14044100  0.89012500  1
  H  H47  1  0.18522700  0.64044100  0.60987500  1
  C  C48  1  0.32790000  0.34975500  0.05060200  1
  C  C49  1  0.67210000  0.84975500  0.44939800  1
  C  C50  1  0.67210000  0.65024500  0.94939800  1
  C  C51  1  0.32790000  0.15024500  0.55060200  1
  C  C52  1  0.17906500  0.82477800  0.21155400  1
  C  C53  1  0.82093500  0.32477800  0.28844600  1
  C  C54  1  0.82093500  0.17522200  0.78844600  1
  C  C55  1  0.17906500  0.67522200  0.71155400  1
  O  O56  1  0.40783400  0.07418000  0.25478400  1
  O  O57  1  0.59216600  0.57418000  0.24521600  1
  O  O58  1  0.59216600  0.92582000  0.74521600  1
  O  O59  1  0.40783400  0.42582000  0.75478400  1
  O  O60  1  0.38612700  0.92669200  0.01285600  1
  O  O61  1  0.61387300  0.42669200  0.48714400  1
  O  O62  1  0.61387300  0.07330800  0.98714400  1
  O  O63  1  0.38612700  0.57330800  0.51285600  1
  O  O64  1  0.50914100  0.22532000  0.11500600  1
  O  O65  1  0.49085900  0.72532000  0.38499400  1
  O  O66  1  0.49085900  0.77468000  0.88499400  1
  O  O67  1  0.50914100  0.27468000  0.61500600  1
  O  O68  1  0.08989800  0.57991500  0.34233600  1
  O  O69  1  0.91010200  0.07991500  0.15766400  1
  O  O70  1  0.91010200  0.42008500  0.65766400  1
  O  O71  1  0.08989800  0.92008500  0.84233600  1
  O  O72  1  0.10930600  0.40908100  0.12487100  1
  O  O73  1  0.89069400  0.90908100  0.37512900  1
  O  O74  1  0.89069400  0.59091900  0.87512900  1
  O  O75  1  0.10930600  0.09091900  0.62487100  1
  O  O76  1  0.99483100  0.73317300  0.10345600  1
  O  O77  1  0.00516900  0.23317300  0.39654400  1
  O  O78  1  0.00516900  0.26682700  0.89654400  1
  O  O79  1  0.99483100  0.76682700  0.60345600  1
