# generated using pymatgen
data_Cs8Na4Y3HoCl24
_symmetry_space_group_name_H-M   'P 1'
_cell_length_a   7.70403800
_cell_length_b   7.70403800
_cell_length_c   21.78964400
_cell_angle_alpha   90.00000000
_cell_angle_beta   90.00000000
_cell_angle_gamma   90.00000000
_symmetry_Int_Tables_number   1
_chemical_formula_structural   Cs8Na4Y3HoCl24
_chemical_formula_sum   'Cs8 Na4 Y3 Ho1 Cl24'
_cell_volume   1293.26334142
_cell_formula_units_Z   1
loop_
 _symmetry_equiv_pos_site_id
 _symmetry_equiv_pos_as_xyz
  1  'x, y, z'
loop_
 _atom_site_type_symbol
 _atom_site_label
 _atom_site_symmetry_multiplicity
 _atom_site_fract_x
 _atom_site_fract_y
 _atom_site_fract_z
 _atom_site_occupancy
  Cs  Cs0  1  0.00000000  0.50000000  0.37501400  1
  Cs  Cs1  1  0.50000000  0.00000000  0.12493400  1
  Cs  Cs2  1  0.00000000  0.50000000  0.87506600  1
  Cs  Cs3  1  0.50000000  0.00000000  0.62498600  1
  Cs  Cs4  1  0.00000000  0.50000000  0.12493400  1
  Cs  Cs5  1  0.50000000  0.00000000  0.87506600  1
  Cs  Cs6  1  0.00000000  0.50000000  0.62498600  1
  Cs  Cs7  1  0.50000000  0.00000000  0.37501400  1
  Na  Na8  1  0.00000000  0.00000000  0.24989800  1
  Na  Na9  1  0.50000000  0.50000000  0.00000000  1
  Na  Na10  1  0.00000000  0.00000000  0.75010200  1
  Na  Na11  1  0.50000000  0.50000000  0.50000000  1
  Y  Y12  1  0.50000000  0.50000000  0.75000000  1
  Y  Y13  1  0.00000000  0.00000000  0.50000000  1
  Y  Y14  1  0.50000000  0.50000000  0.25000000  1
  Ho  Ho15  1  0.00000000  0.00000000  0.00000000  1
  Cl  Cl16  1  0.00000000  0.00000000  0.37854300  1
  Cl  Cl17  1  0.50000000  0.50000000  0.12846200  1
  Cl  Cl18  1  0.00000000  0.00000000  0.87939100  1
  Cl  Cl19  1  0.50000000  0.50000000  0.62854700  1
  Cl  Cl20  1  0.25706600  0.74293400  0.24999800  1
  Cl  Cl21  1  0.75868000  0.24132000  0.00000000  1
  Cl  Cl22  1  0.25706600  0.74293400  0.75000200  1
  Cl  Cl23  1  0.75706200  0.24293800  0.50000000  1
  Cl  Cl24  1  0.74293400  0.74293400  0.24999800  1
  Cl  Cl25  1  0.24132000  0.24132000  0.00000000  1
  Cl  Cl26  1  0.74293400  0.74293400  0.75000200  1
  Cl  Cl27  1  0.24293800  0.24293800  0.50000000  1
  Cl  Cl28  1  0.00000000  0.00000000  0.12060900  1
  Cl  Cl29  1  0.50000000  0.50000000  0.87153800  1
  Cl  Cl30  1  0.00000000  0.00000000  0.62145700  1
  Cl  Cl31  1  0.50000000  0.50000000  0.37145300  1
  Cl  Cl32  1  0.74293400  0.25706600  0.24999800  1
  Cl  Cl33  1  0.24132000  0.75868000  0.00000000  1
  Cl  Cl34  1  0.74293400  0.25706600  0.75000200  1
  Cl  Cl35  1  0.24293800  0.75706200  0.50000000  1
  Cl  Cl36  1  0.25706600  0.25706600  0.24999800  1
  Cl  Cl37  1  0.75868000  0.75868000  0.00000000  1
  Cl  Cl38  1  0.25706600  0.25706600  0.75000200  1
  Cl  Cl39  1  0.75706200  0.75706200  0.50000000  1
