# generated using pymatgen
data_SrLaMnNbO6
_symmetry_space_group_name_H-M   'P 1'
_cell_length_a   8.19854782
_cell_length_b   8.19848349
_cell_length_c   9.95611742
_cell_angle_alpha   66.35035041
_cell_angle_beta   66.35015409
_cell_angle_gamma   91.42024299
_symmetry_Int_Tables_number   1
_chemical_formula_structural   SrLaMnNbO6
_chemical_formula_sum   'Sr4 La4 Mn4 Nb4 O24'
_cell_volume   547.59579222
_cell_formula_units_Z   4
loop_
 _symmetry_equiv_pos_site_id
 _symmetry_equiv_pos_as_xyz
  1  'x, y, z'
loop_
 _atom_site_type_symbol
 _atom_site_label
 _atom_site_symmetry_multiplicity
 _atom_site_fract_x
 _atom_site_fract_y
 _atom_site_fract_z
 _atom_site_occupancy
  Sr  Sr0  1  0.39850900  0.85834100  0.25112000  1
  Sr  Sr1  1  0.89850400  0.35835000  0.25111000  1
  Sr  Sr2  1  0.10835100  0.14851600  0.75110800  1
  Sr  Sr3  1  0.60835100  0.64851300  0.75110800  1
  La  La4  1  0.09170600  0.64275700  0.75414500  1
  La  La5  1  0.59170300  0.14275400  0.75414100  1
  La  La6  1  0.39275000  0.34171200  0.25413300  1
  La  La7  1  0.89274800  0.84169900  0.25415200  1
  Mn  Mn8  1  0.50144200  0.99609700  0.50128700  1
  Mn  Mn9  1  0.74609300  0.75144400  0.00129000  1
  Mn  Mn10  1  0.00145400  0.49608100  0.50131100  1
  Mn  Mn11  1  0.24608500  0.25144100  0.00132400  1
  Nb  Nb12  1  0.75027800  0.24802900  0.00086000  1
  Nb  Nb13  1  0.25028100  0.74803600  0.00085900  1
  Nb  Nb14  1  0.49803300  0.50027300  0.50086100  1
  Nb  Nb15  1  0.99802600  0.00027600  0.50086400  1
  O  O16  1  0.26165900  0.98871300  0.45124200  1
  O  O17  1  0.76166100  0.48871600  0.45124000  1
  O  O18  1  0.73871700  0.51166000  0.95124100  1
  O  O19  1  0.23871500  0.01166100  0.95124300  1
  O  O20  1  0.23728200  0.52887800  0.55162900  1
  O  O21  1  0.73728500  0.02887800  0.55162600  1
  O  O22  1  0.77887700  0.98728000  0.05162800  1
  O  O23  1  0.27887600  0.48727800  0.05162700  1
  O  O24  1  0.57455700  0.76455800  0.45024300  1
  O  O25  1  0.07456300  0.26455800  0.45024300  1
  O  O26  1  0.01455500  0.32455700  0.95024100  1
  O  O27  1  0.51455700  0.82456000  0.95024200  1
  O  O28  1  0.94106900  0.74084600  0.53942800  1
  O  O29  1  0.44107300  0.24084100  0.53943200  1
  O  O30  1  0.49084000  0.19106900  0.03943300  1
  O  O31  1  0.99083800  0.69107100  0.03943600  1
  O  O32  1  0.93589000  0.90211700  0.73928100  1
  O  O33  1  0.43589300  0.40212000  0.73928100  1
  O  O34  1  0.15212500  0.68589200  0.23928100  1
  O  O35  1  0.65212200  0.18589100  0.23928000  1
  O  O36  1  0.55485900  0.58240700  0.26075600  1
  O  O37  1  0.05486000  0.08240700  0.26076000  1
  O  O38  1  0.33240800  0.80486200  0.76075700  1
  O  O39  1  0.83240500  0.30485700  0.76076000  1
