# generated using pymatgen
data_Tm2Sc3Si4
_symmetry_space_group_name_H-M   'P 1'
_cell_length_a   7.05907400
_cell_length_b   7.34642700
_cell_length_c   13.93006700
_cell_angle_alpha   90.00000000
_cell_angle_beta   90.00000000
_cell_angle_gamma   90.00000000
_symmetry_Int_Tables_number   1
_chemical_formula_structural   Tm2Sc3Si4
_chemical_formula_sum   'Tm8 Sc12 Si16'
_cell_volume   722.39895212
_cell_formula_units_Z   4
loop_
 _symmetry_equiv_pos_site_id
 _symmetry_equiv_pos_as_xyz
  1  'x, y, z'
loop_
 _atom_site_type_symbol
 _atom_site_label
 _atom_site_symmetry_multiplicity
 _atom_site_fract_x
 _atom_site_fract_y
 _atom_site_fract_z
 _atom_site_occupancy
  Tm  Tm0  1  0.01220700  0.17557500  0.09688100  1
  Tm  Tm1  1  0.98779300  0.82442500  0.90311900  1
  Tm  Tm2  1  0.48779300  0.67557500  0.90311900  1
  Tm  Tm3  1  0.98779300  0.82442500  0.59688100  1
  Tm  Tm4  1  0.51220700  0.32442500  0.09688100  1
  Tm  Tm5  1  0.01220700  0.17557500  0.40311900  1
  Tm  Tm6  1  0.51220700  0.32442500  0.40311900  1
  Tm  Tm7  1  0.48779300  0.67557500  0.59688100  1
  Sc  Sc8  1  0.16092500  0.50379100  0.75000000  1
  Sc  Sc9  1  0.83907500  0.49620900  0.25000000  1
  Sc  Sc10  1  0.33907500  0.00379100  0.25000000  1
  Sc  Sc11  1  0.66092500  0.99620900  0.75000000  1
  Sc  Sc12  1  0.33020300  0.17688500  0.62477100  1
  Sc  Sc13  1  0.66979700  0.82311500  0.37522900  1
  Sc  Sc14  1  0.16979700  0.67688500  0.37522900  1
  Sc  Sc15  1  0.66979700  0.82311500  0.12477100  1
  Sc  Sc16  1  0.83020300  0.32311500  0.62477100  1
  Sc  Sc17  1  0.33020300  0.17688500  0.87522900  1
  Sc  Sc18  1  0.83020300  0.32311500  0.87522900  1
  Sc  Sc19  1  0.16979700  0.67688500  0.12477100  1
  Si  Si20  1  0.03274600  0.11629400  0.75000000  1
  Si  Si21  1  0.96725400  0.88370600  0.25000000  1
  Si  Si22  1  0.46725400  0.61629400  0.25000000  1
  Si  Si23  1  0.53274600  0.38370600  0.75000000  1
  Si  Si24  1  0.28500900  0.87184400  0.75000000  1
  Si  Si25  1  0.71499100  0.12815600  0.25000000  1
  Si  Si26  1  0.21499100  0.37184400  0.25000000  1
  Si  Si27  1  0.78500900  0.62815600  0.75000000  1
  Si  Si28  1  0.15903500  0.46522300  0.53945800  1
  Si  Si29  1  0.84096500  0.53477700  0.46054200  1
  Si  Si30  1  0.34096500  0.96522300  0.46054200  1
  Si  Si31  1  0.84096500  0.53477700  0.03945800  1
  Si  Si32  1  0.65903500  0.03477700  0.53945800  1
  Si  Si33  1  0.15903500  0.46522300  0.96054200  1
  Si  Si34  1  0.65903500  0.03477700  0.96054200  1
  Si  Si35  1  0.34096500  0.96522300  0.03945800  1
