# generated using pymatgen
data_TlSbAs2PbS6
_symmetry_space_group_name_H-M   'P 1'
_cell_length_a   24.68092500
_cell_length_b   6.07682000
_cell_length_c   8.53919451
_cell_angle_alpha   66.30804744
_cell_angle_beta   90.00000000
_cell_angle_gamma   90.00000000
_symmetry_Int_Tables_number   1
_chemical_formula_structural   TlSbAs2PbS6
_chemical_formula_sum   'Tl4 Sb4 As8 Pb4 S24'
_cell_volume   1172.78109148
_cell_formula_units_Z   4
loop_
 _symmetry_equiv_pos_site_id
 _symmetry_equiv_pos_as_xyz
  1  'x, y, z'
loop_
 _atom_site_type_symbol
 _atom_site_label
 _atom_site_symmetry_multiplicity
 _atom_site_fract_x
 _atom_site_fract_y
 _atom_site_fract_z
 _atom_site_occupancy
  Tl  Tl0  1  0.93795600  0.76508400  0.09825000  1
  Tl  Tl1  1  0.06204400  0.23491600  0.90175000  1
  Tl  Tl2  1  0.43795600  0.23491600  0.40175000  1
  Tl  Tl3  1  0.56204400  0.76508400  0.59825000  1
  Sb  Sb4  1  0.57082100  0.95270600  0.03748000  1
  Sb  Sb5  1  0.42917900  0.04729400  0.96252000  1
  Sb  Sb6  1  0.07082100  0.04729400  0.46252000  1
  Sb  Sb7  1  0.92917900  0.95270600  0.53748000  1
  As  As8  1  0.65355100  0.34164200  0.18886500  1
  As  As9  1  0.34644900  0.65835800  0.81113500  1
  As  As10  1  0.15355100  0.65835800  0.31113500  1
  As  As11  1  0.84644900  0.34164200  0.68886500  1
  As  As12  1  0.83473000  0.34514500  0.09550400  1
  As  As13  1  0.16527000  0.65485500  0.90449600  1
  As  As14  1  0.33473000  0.65485500  0.40449600  1
  As  As15  1  0.66527000  0.34514500  0.59550400  1
  Pb  Pb16  1  0.74569500  0.86402200  0.05658100  1
  Pb  Pb17  1  0.25430500  0.13597800  0.94341900  1
  Pb  Pb18  1  0.24569500  0.13597800  0.44341900  1
  Pb  Pb19  1  0.75430500  0.86402200  0.55658100  1
  S  S20  1  0.48774800  0.88400300  0.22750000  1
  S  S21  1  0.51225200  0.11599700  0.77250000  1
  S  S22  1  0.98774800  0.11599700  0.27250000  1
  S  S23  1  0.01225200  0.88400300  0.72750000  1
  S  S24  1  0.66423900  0.93920300  0.28857400  1
  S  S25  1  0.33576100  0.06079700  0.71142600  1
  S  S26  1  0.16423900  0.06079700  0.21142600  1
  S  S27  1  0.83576100  0.93920300  0.78857400  1
  S  S28  1  0.83540200  0.95065900  0.27224700  1
  S  S29  1  0.16459800  0.04934100  0.72775300  1
  S  S30  1  0.33540200  0.04934100  0.22775300  1
  S  S31  1  0.66459800  0.95065900  0.77224700  1
  S  S32  1  0.74121200  0.36724200  0.43965000  1
  S  S33  1  0.25878800  0.63275800  0.56035000  1
  S  S34  1  0.24121200  0.63275800  0.06035000  1
  S  S35  1  0.75878800  0.36724200  0.93965000  1
  S  S36  1  0.41471900  0.62135800  0.00729700  1
  S  S37  1  0.58528100  0.37864200  0.99270300  1
  S  S38  1  0.91471900  0.37864200  0.49270300  1
  S  S39  1  0.08528100  0.62135800  0.50729700  1
  S  S40  1  0.59647400  0.35020700  0.40284700  1
  S  S41  1  0.40352600  0.64979300  0.59715300  1
  S  S42  1  0.09647400  0.64979300  0.09715300  1
  S  S43  1  0.90352600  0.35020700  0.90284700  1
