# generated using pymatgen
data_MgGaCu
_symmetry_space_group_name_H-M   'P 1'
_cell_length_a   5.12037581
_cell_length_b   5.12037581
_cell_length_c   8.36690500
_cell_angle_alpha   90.00000000
_cell_angle_beta   90.00000000
_cell_angle_gamma   119.00709469
_symmetry_Int_Tables_number   1
_chemical_formula_structural   MgGaCu
_chemical_formula_sum   'Mg4 Ga4 Cu4'
_cell_volume   191.84830109
_cell_formula_units_Z   4
loop_
 _symmetry_equiv_pos_site_id
 _symmetry_equiv_pos_as_xyz
  1  'x, y, z'
loop_
 _atom_site_type_symbol
 _atom_site_label
 _atom_site_symmetry_multiplicity
 _atom_site_fract_x
 _atom_site_fract_y
 _atom_site_fract_z
 _atom_site_occupancy
  Mg  Mg0  1  0.66757100  0.33242900  0.31792300  1
  Mg  Mg1  1  0.33601500  0.66398500  0.19912800  1
  Mg  Mg2  1  0.33601500  0.66398500  0.80087200  1
  Mg  Mg3  1  0.66757100  0.33242900  0.68207700  1
  Ga  Ga4  1  0.16425400  0.83574600  0.50000000  1
  Ga  Ga5  1  0.33602600  0.16583100  0.00000000  1
  Ga  Ga6  1  0.83416900  0.66397400  0.00000000  1
  Ga  Ga7  1  0.83210400  0.16789600  0.00000000  1
  Cu  Cu8  1  0.99982800  0.00017200  0.24890500  1
  Cu  Cu9  1  0.99982800  0.00017200  0.75109500  1
  Cu  Cu10  1  0.66114100  0.83413700  0.50000000  1
  Cu  Cu11  1  0.16586300  0.33885900  0.50000000  1
