# generated using pymatgen
data_Rb2Ti4O9
_symmetry_space_group_name_H-M   'P 1'
_cell_length_a   3.82676700
_cell_length_b   9.89890889
_cell_length_c   12.19058822
_cell_angle_alpha   106.25267949
_cell_angle_beta   90.00000000
_cell_angle_gamma   101.14498253
_symmetry_Int_Tables_number   1
_chemical_formula_structural   Rb2Ti4O9
_chemical_formula_sum   'Rb4 Ti8 O18'
_cell_volume   434.25612432
_cell_formula_units_Z   2
loop_
 _symmetry_equiv_pos_site_id
 _symmetry_equiv_pos_as_xyz
  1  'x, y, z'
loop_
 _atom_site_type_symbol
 _atom_site_label
 _atom_site_symmetry_multiplicity
 _atom_site_fract_x
 _atom_site_fract_y
 _atom_site_fract_z
 _atom_site_occupancy
  Rb  Rb0  1  0.58412800  0.16825500  0.58675800  1
  Rb  Rb1  1  0.41587200  0.83174500  0.41324200  1
  Rb  Rb2  1  0.51714000  0.03427900  0.83302300  1
  Rb  Rb3  1  0.48286000  0.96572100  0.16697700  1
  Ti  Ti4  1  0.75360100  0.50720300  0.33300700  1
  Ti  Ti5  1  0.24639900  0.49279700  0.66699300  1
  Ti  Ti6  1  0.20489300  0.40978500  0.89786600  1
  Ti  Ti7  1  0.79510700  0.59021500  0.10213400  1
  Ti  Ti8  1  0.83456100  0.66912200  0.87430800  1
  Ti  Ti9  1  0.16543900  0.33087800  0.12569200  1
  Ti  Ti10  1  0.87163000  0.74326100  0.63662100  1
  Ti  Ti11  1  0.12837000  0.25673900  0.36337900  1
  O  O12  1  0.76708300  0.53416600  0.69940200  1
  O  O13  1  0.23291700  0.46583400  0.30059800  1
  O  O14  1  0.83342700  0.66685400  0.25526100  1
  O  O15  1  0.16657300  0.33314600  0.74473900  1
  O  O16  1  0.12779500  0.25559000  0.96325100  1
  O  O17  1  0.87220500  0.74441000  0.03674900  1
  O  O18  1  0.30596300  0.61192700  0.85836800  1
  O  O19  1  0.69403700  0.38807300  0.14163200  1
  O  O20  1  0.95772300  0.91544500  0.62082200  1
  O  O21  1  0.04227700  0.08455500  0.37917800  1
  O  O22  1  0.81492100  0.62984300  0.47149400  1
  O  O23  1  0.18507900  0.37015700  0.52850600  1
  O  O24  1  0.73030700  0.46061300  0.92160400  1
  O  O25  1  0.26969300  0.53938700  0.07839600  1
  O  O26  1  0.65544400  0.31088800  0.35870400  1
  O  O27  1  0.34455600  0.68911200  0.64129600  1
  O  O28  1  0.90867900  0.81735900  0.81655600  1
  O  O29  1  0.09132100  0.18264100  0.18344400  1
