# generated using pymatgen
data_Pr2Au5F21
_symmetry_space_group_name_H-M   'P 1'
_cell_length_a   8.45678700
_cell_length_b   8.45678700
_cell_length_c   26.34042000
_cell_angle_alpha   90.00000000
_cell_angle_beta   90.00000000
_cell_angle_gamma   90.00000000
_symmetry_Int_Tables_number   1
_chemical_formula_structural   Pr2Au5F21
_chemical_formula_sum   'Pr8 Au20 F84'
_cell_volume   1883.79430645
_cell_formula_units_Z   4
loop_
 _symmetry_equiv_pos_site_id
 _symmetry_equiv_pos_as_xyz
  1  'x, y, z'
loop_
 _atom_site_type_symbol
 _atom_site_label
 _atom_site_symmetry_multiplicity
 _atom_site_fract_x
 _atom_site_fract_y
 _atom_site_fract_z
 _atom_site_occupancy
  Pr  Pr0  1  0.55132400  0.92854400  0.99803000  1
  Pr  Pr1  1  0.44867600  0.07145600  0.49803000  1
  Pr  Pr2  1  0.92854400  0.55132400  0.00197000  1
  Pr  Pr3  1  0.42854400  0.94867600  0.74803000  1
  Pr  Pr4  1  0.57145600  0.05132400  0.24803000  1
  Pr  Pr5  1  0.94867600  0.42854400  0.25197000  1
  Pr  Pr6  1  0.05132400  0.57145600  0.75197000  1
  Pr  Pr7  1  0.07145600  0.44867600  0.50197000  1
  Au  Au8  1  0.40473600  0.35663300  0.84438500  1
  Au  Au9  1  0.59526400  0.64336700  0.34438500  1
  Au  Au10  1  0.35663300  0.40473600  0.15561500  1
  Au  Au11  1  0.85663300  0.09526400  0.59438500  1
  Au  Au12  1  0.14336700  0.90473600  0.09438500  1
  Au  Au13  1  0.09526400  0.85663300  0.40561500  1
  Au  Au14  1  0.90473600  0.14336700  0.90561500  1
  Au  Au15  1  0.64336700  0.59526400  0.65561500  1
  Au  Au16  1  0.20460500  0.82145100  0.88912500  1
  Au  Au17  1  0.79539500  0.17854900  0.38912500  1
  Au  Au18  1  0.82145100  0.20460500  0.11087500  1
  Au  Au19  1  0.32145100  0.29539500  0.63912500  1
  Au  Au20  1  0.67854900  0.70460500  0.13912500  1
  Au  Au21  1  0.29539500  0.32145100  0.36087500  1
  Au  Au22  1  0.70460500  0.67854900  0.86087500  1
  Au  Au23  1  0.17854900  0.79539500  0.61087500  1
  Au  Au24  1  0.56477500  0.56477500  0.50000000  1
  Au  Au25  1  0.93522500  0.06477500  0.75000000  1
  Au  Au26  1  0.06477500  0.93522500  0.25000000  1
  Au  Au27  1  0.43522500  0.43522500  0.00000000  1
  F  F28  1  0.59039500  0.78385900  0.80502800  1
  F  F29  1  0.40960500  0.21614100  0.30502800  1
  F  F30  1  0.78385900  0.59039500  0.19497200  1
  F  F31  1  0.28385900  0.90960500  0.55502800  1
  F  F32  1  0.71614100  0.09039600  0.05502800  1
  F  F33  1  0.90960500  0.28385900  0.44497200  1
  F  F34  1  0.09039600  0.71614100  0.94497200  1
  F  F35  1  0.21614100  0.40960500  0.69497200  1
  F  F36  1  0.03825700  0.68943200  0.45465500  1
  F  F37  1  0.96174300  0.31056800  0.95465500  1
  F  F38  1  0.68943200  0.03825700  0.54534500  1
  F  F39  1  0.18943200  0.46174300  0.20465500  1
  F  F40  1  0.81056800  0.53825700  0.70465500  1
  F  F41  1  0.46174300  0.18943200  0.79534500  1
  F  F42  1  0.53825700  0.81056800  0.29534500  1
  F  F43  1  0.31056800  0.96174300  0.04534500  1
  F  F44  1  0.91312400  0.80185600  0.36483200  1
  F  F45  1  0.08687600  0.19814400  0.86483200  1
  F  F46  1  0.80185600  0.91312400  0.63516800  1
  F  F47  1  0.30185600  0.58687600  0.11483200  1
  F  F48  1  0.69814400  0.41312400  0.61483200  1
  F  F49  1  0.58687600  0.30185600  0.88516800  1
  F  F50  1  0.41312400  0.69814400  0.38516800  1
  F  F51  1  0.19814400  0.08687600  0.13516800  1
  F  F52  1  0.93466200  0.29692600  0.75229600  1
  F  F53  1  0.06533800  0.70307400  0.25229600  1
  F  F54  1  0.29692600  0.93466200  0.24770400  1
  F  F55  1  0.20307400  0.43466200  0.00229600  1
  F  F56  1  0.79692600  0.56533800  0.50229600  1
  F  F57  1  0.06444000  0.68188700  0.66450800  1
  F  F58  1  0.93556000  0.31811300  0.16450800  1
  F  F59  1  0.68188700  0.06444000  0.33549200  1
  F  F60  1  0.31811300  0.93556000  0.83549200  1
  F  F61  1  0.81811300  0.56444000  0.91450800  1
  F  F62  1  0.43556000  0.18188700  0.58549200  1
  F  F63  1  0.56444000  0.81811300  0.08549200  1
  F  F64  1  0.91852800  0.30076900  0.33901800  1
  F  F65  1  0.19923100  0.41852800  0.58901800  1
  F  F66  1  0.80076900  0.58147200  0.08901800  1
  F  F67  1  0.41852800  0.19923100  0.41098200  1
  F  F68  1  0.58147200  0.80076900  0.91098200  1
  F  F69  1  0.08147200  0.69923100  0.83901800  1
  F  F70  1  0.30076900  0.91852800  0.66098200  1
  F  F71  1  0.69923100  0.08147200  0.16098200  1
  F  F72  1  0.45031700  0.18125300  0.68977800  1
  F  F73  1  0.31874700  0.95031700  0.93977800  1
  F  F74  1  0.68125300  0.04968300  0.43977800  1
  F  F75  1  0.95031700  0.31874700  0.06022200  1
  F  F76  1  0.04968300  0.68125300  0.56022200  1
  F  F77  1  0.54968300  0.81874700  0.18977800  1
  F  F78  1  0.18125300  0.45031700  0.31022200  1
  F  F79  1  0.81874700  0.54968300  0.81022200  1
  F  F80  1  0.33170500  0.56941700  0.50009700  1
  F  F81  1  0.93058300  0.83170500  0.75009700  1
  F  F82  1  0.06941700  0.16829500  0.25009700  1
  F  F83  1  0.83170500  0.93058300  0.24990300  1
  F  F84  1  0.16829500  0.06941700  0.74990300  1
  F  F85  1  0.66829500  0.43058300  0.00009700  1
  F  F86  1  0.56941700  0.33170500  0.49990300  1
  F  F87  1  0.43058300  0.66829500  0.99990300  1
  F  F88  1  0.91268900  0.27969400  0.55119100  1
  F  F89  1  0.22030600  0.41268900  0.80119100  1
  F  F90  1  0.77969400  0.58731100  0.30119100  1
  F  F91  1  0.41268900  0.22030600  0.19880900  1
  F  F92  1  0.58731100  0.77969400  0.69880900  1
  F  F93  1  0.08731100  0.72030600  0.05119100  1
  F  F94  1  0.27969400  0.91268900  0.44880900  1
  F  F95  1  0.72030600  0.08731100  0.94880900  1
  F  F96  1  0.77762400  0.77762400  0.00000000  1
  F  F97  1  0.72237600  0.27762400  0.25000000  1
  F  F98  1  0.27762400  0.72237600  0.75000000  1
  F  F99  1  0.22237600  0.22237600  0.50000000  1
  F  F100  1  0.52598800  0.35640500  0.10786500  1
  F  F101  1  0.14359500  0.02598800  0.35786500  1
  F  F102  1  0.85640500  0.97401200  0.85786500  1
  F  F103  1  0.02598800  0.14359500  0.64213500  1
  F  F104  1  0.97401200  0.85640500  0.14213500  1
  F  F105  1  0.47401200  0.64359500  0.60786500  1
  F  F106  1  0.35640500  0.52598800  0.89213500  1
  F  F107  1  0.64359500  0.47401200  0.39213500  1
  F  F108  1  0.70307400  0.06533800  0.74770400  1
  F  F109  1  0.43466200  0.20307400  0.99770400  1
  F  F110  1  0.56533800  0.79692600  0.49770400  1
  F  F111  1  0.18188700  0.43556000  0.41450800  1
