# generated using pymatgen
data_NbAl2(SeCl4)2
_symmetry_space_group_name_H-M   'P 1'
_cell_length_a   10.24375100
_cell_length_b   9.28130600
_cell_length_c   18.74644063
_cell_angle_alpha   63.44455773
_cell_angle_beta   90.00000000
_cell_angle_gamma   90.00000000
_symmetry_Int_Tables_number   1
_chemical_formula_structural   NbAl2(SeCl4)2
_chemical_formula_sum   'Nb4 Al8 Se8 Cl32'
_cell_volume   1594.29369478
_cell_formula_units_Z   4
loop_
 _symmetry_equiv_pos_site_id
 _symmetry_equiv_pos_as_xyz
  1  'x, y, z'
loop_
 _atom_site_type_symbol
 _atom_site_label
 _atom_site_symmetry_multiplicity
 _atom_site_fract_x
 _atom_site_fract_y
 _atom_site_fract_z
 _atom_site_occupancy
  Nb  Nb0  1  0.10653600  0.41547900  0.55814000  1
  Nb  Nb1  1  0.39346400  0.41547900  0.05814000  1
  Nb  Nb2  1  0.89346400  0.58452100  0.44186000  1
  Nb  Nb3  1  0.60653600  0.58452100  0.94186000  1
  Al  Al4  1  0.35035900  0.10799300  0.58236800  1
  Al  Al5  1  0.14964100  0.10799300  0.08236800  1
  Al  Al6  1  0.64964100  0.89200700  0.41763200  1
  Al  Al7  1  0.85035900  0.89200700  0.91763200  1
  Al  Al8  1  0.23024200  0.43024000  0.73824000  1
  Al  Al9  1  0.26975800  0.43024000  0.23824000  1
  Al  Al10  1  0.76975800  0.56976000  0.26176000  1
  Al  Al11  1  0.73024200  0.56976000  0.76176000  1
  Se  Se12  1  0.01052400  0.70041600  0.53101100  1
  Se  Se13  1  0.48947600  0.70041600  0.03101100  1
  Se  Se14  1  0.98947600  0.29958400  0.46898900  1
  Se  Se15  1  0.51052400  0.29958400  0.96898900  1
  Se  Se16  1  0.86438500  0.30720100  0.57082300  1
  Se  Se17  1  0.63561500  0.30720100  0.07082300  1
  Se  Se18  1  0.13561500  0.69279900  0.42917700  1
  Se  Se19  1  0.36438500  0.69279900  0.92917700  1
  Cl  Cl20  1  0.52373800  0.10100300  0.64441700  1
  Cl  Cl21  1  0.97626200  0.10100300  0.14441700  1
  Cl  Cl22  1  0.47626200  0.89899700  0.35558300  1
  Cl  Cl23  1  0.02373800  0.89899700  0.85558300  1
  Cl  Cl24  1  0.32803600  0.93611700  0.53886600  1
  Cl  Cl25  1  0.17196400  0.93611700  0.03886600  1
  Cl  Cl26  1  0.67196400  0.06388300  0.46113400  1
  Cl  Cl27  1  0.82803600  0.06388300  0.96113400  1
  Cl  Cl28  1  0.17260700  0.10922500  0.65039000  1
  Cl  Cl29  1  0.32739300  0.10922500  0.15039000  1
  Cl  Cl30  1  0.82739300  0.89077500  0.34961000  1
  Cl  Cl31  1  0.67260700  0.89077500  0.84961000  1
  Cl  Cl32  1  0.31197200  0.35983000  0.48767800  1
  Cl  Cl33  1  0.18802800  0.35983000  0.98767800  1
  Cl  Cl34  1  0.68802800  0.64017000  0.51232200  1
  Cl  Cl35  1  0.81197200  0.64017000  0.01232200  1
  Cl  Cl36  1  0.33012700  0.23269300  0.82728100  1
  Cl  Cl37  1  0.16987300  0.23269300  0.32728100  1
  Cl  Cl38  1  0.66987300  0.76730700  0.17271900  1
  Cl  Cl39  1  0.83012700  0.76730700  0.67271900  1
  Cl  Cl40  1  0.03987300  0.35807200  0.70495000  1
  Cl  Cl41  1  0.46012700  0.35807200  0.20495000  1
  Cl  Cl42  1  0.96012700  0.64192800  0.29505000  1
  Cl  Cl43  1  0.53987300  0.64192800  0.79505000  1
  Cl  Cl44  1  0.19646100  0.62809800  0.76259100  1
  Cl  Cl45  1  0.30353900  0.62809800  0.26259100  1
  Cl  Cl46  1  0.80353900  0.37190200  0.23740900  1
  Cl  Cl47  1  0.69646100  0.37190200  0.73740900  1
  Cl  Cl48  1  0.31462200  0.49865300  0.61820700  1
  Cl  Cl49  1  0.18537800  0.49865300  0.11820700  1
  Cl  Cl50  1  0.68537800  0.50134700  0.38179300  1
  Cl  Cl51  1  0.81462200  0.50134700  0.88179300  1
