# generated using pymatgen
data_Be3Nb
_symmetry_space_group_name_H-M   'P 1'
_cell_length_a   7.50342778
_cell_length_b   7.50342778
_cell_length_c   7.50342751
_cell_angle_alpha   35.43005646
_cell_angle_beta   35.43005646
_cell_angle_gamma   35.43005710
_symmetry_Int_Tables_number   1
_chemical_formula_structural   Be3Nb
_chemical_formula_sum   'Be9 Nb3'
_cell_volume   126.85659471
_cell_formula_units_Z   3
loop_
 _symmetry_equiv_pos_site_id
 _symmetry_equiv_pos_as_xyz
  1  'x, y, z'
loop_
 _atom_site_type_symbol
 _atom_site_label
 _atom_site_symmetry_multiplicity
 _atom_site_fract_x
 _atom_site_fract_y
 _atom_site_fract_z
 _atom_site_occupancy
  Be  Be0  1  0.50000000  0.50000000  0.50000000  1
  Be  Be1  1  0.33436300  0.33436300  0.33436400  1
  Be  Be2  1  0.66563700  0.66563700  0.66563600  1
  Be  Be3  1  0.07564700  0.58376900  0.58376900  1
  Be  Be4  1  0.58376900  0.58376900  0.07564700  1
  Be  Be5  1  0.58376900  0.07564700  0.58376900  1
  Be  Be6  1  0.41623100  0.92435300  0.41623100  1
  Be  Be7  1  0.92435300  0.41623100  0.41623100  1
  Be  Be8  1  0.41623100  0.41623100  0.92435300  1
  Nb  Nb9  1  0.00000000  0.00000000  0.00000000  1
  Nb  Nb10  1  0.14027800  0.14027800  0.14027800  1
  Nb  Nb11  1  0.85972200  0.85972200  0.85972200  1
