# generated using pymatgen
data_La11(MnC6)3
_symmetry_space_group_name_H-M   'P 1'
_cell_length_a   10.28214942
_cell_length_b   10.28214942
_cell_length_c   10.28214949
_cell_angle_alpha   95.54260543
_cell_angle_beta   95.54260543
_cell_angle_gamma   95.54260090
_symmetry_Int_Tables_number   1
_chemical_formula_structural   La11(MnC6)3
_chemical_formula_sum   'La22 Mn6 C36'
_cell_volume   1070.74222485
_cell_formula_units_Z   2
loop_
 _symmetry_equiv_pos_site_id
 _symmetry_equiv_pos_as_xyz
  1  'x, y, z'
loop_
 _atom_site_type_symbol
 _atom_site_label
 _atom_site_symmetry_multiplicity
 _atom_site_fract_x
 _atom_site_fract_y
 _atom_site_fract_z
 _atom_site_occupancy
  La  La0  1  0.16453200  0.82683900  0.76774100  1
  La  La1  1  0.76774100  0.16453200  0.82683900  1
  La  La2  1  0.82683900  0.76774100  0.16453200  1
  La  La3  1  0.83546800  0.17316100  0.23225900  1
  La  La4  1  0.23225900  0.83546800  0.17316100  1
  La  La5  1  0.17316100  0.23225900  0.83546800  1
  La  La6  1  0.82357100  0.49539900  0.42327300  1
  La  La7  1  0.42327300  0.82357100  0.49539900  1
  La  La8  1  0.49539900  0.42327300  0.82357100  1
  La  La9  1  0.17642900  0.50460100  0.57672700  1
  La  La10  1  0.57672700  0.17642900  0.50460100  1
  La  La11  1  0.50460100  0.57672700  0.17642900  1
  La  La12  1  0.84143800  0.90242400  0.50920000  1
  La  La13  1  0.50920000  0.84143800  0.90242400  1
  La  La14  1  0.90242400  0.50920000  0.84143800  1
  La  La15  1  0.15856200  0.09757600  0.49080000  1
  La  La16  1  0.49080000  0.15856200  0.09757600  1
  La  La17  1  0.09757600  0.49080000  0.15856200  1
  La  La18  1  0.86325400  0.86325400  0.86325400  1
  La  La19  1  0.13674600  0.13674600  0.13674700  1
  La  La20  1  0.63935900  0.63935900  0.63935900  1
  La  La21  1  0.36064100  0.36064100  0.36064100  1
  Mn  Mn22  1  0.92064000  0.25336200  0.57439600  1
  Mn  Mn23  1  0.57439600  0.92064000  0.25336200  1
  Mn  Mn24  1  0.25336200  0.57439600  0.92064000  1
  Mn  Mn25  1  0.07936000  0.74663800  0.42560400  1
  Mn  Mn26  1  0.42560400  0.07936000  0.74663800  1
  Mn  Mn27  1  0.74663800  0.42560400  0.07936000  1
  C  C28  1  0.33728400  0.62991200  0.78731700  1
  C  C29  1  0.78731700  0.33728400  0.62991200  1
  C  C30  1  0.62991200  0.78731700  0.33728400  1
  C  C31  1  0.66271600  0.37008800  0.21268300  1
  C  C32  1  0.21268300  0.66271600  0.37008800  1
  C  C33  1  0.37008800  0.21268300  0.66271600  1
  C  C34  1  0.98923000  0.70301100  0.56032800  1
  C  C35  1  0.56032800  0.98923000  0.70301100  1
  C  C36  1  0.70301100  0.56032800  0.98923000  1
  C  C37  1  0.01077000  0.29698900  0.43967200  1
  C  C38  1  0.43967200  0.01077000  0.29698900  1
  C  C39  1  0.29698900  0.43967200  0.01077000  1
  C  C40  1  0.96546400  0.11899000  0.66337900  1
  C  C41  1  0.66337900  0.96546400  0.11899000  1
  C  C42  1  0.11899000  0.66337900  0.96546400  1
  C  C43  1  0.03453600  0.88101000  0.33662100  1
  C  C44  1  0.33662100  0.03453600  0.88101000  1
  C  C45  1  0.88101000  0.33662100  0.03453600  1
  C  C46  1  0.91134700  0.68483000  0.65733600  1
  C  C47  1  0.65733600  0.91134700  0.68483000  1
  C  C48  1  0.68483000  0.65733600  0.91134700  1
  C  C49  1  0.08865300  0.31517000  0.34266400  1
  C  C50  1  0.34266400  0.08865300  0.31517000  1
  C  C51  1  0.31517000  0.34266400  0.08865300  1
  C  C52  1  0.67184600  0.68630300  0.39744200  1
  C  C53  1  0.39744200  0.67184600  0.68630300  1
  C  C54  1  0.68630300  0.39744200  0.67184600  1
  C  C55  1  0.32815400  0.31369700  0.60255800  1
  C  C56  1  0.60255800  0.32815400  0.31369700  1
  C  C57  1  0.31369700  0.60255800  0.32815400  1
  C  C58  1  0.00013500  0.01826700  0.72850800  1
  C  C59  1  0.72850800  0.00013500  0.01826700  1
  C  C60  1  0.01826700  0.72850800  0.00013500  1
  C  C61  1  0.99986500  0.98173300  0.27149200  1
  C  C62  1  0.27149200  0.99986500  0.98173300  1
  C  C63  1  0.98173300  0.27149200  0.99986500  1
