# generated using pymatgen
data_SmRu2
_symmetry_space_group_name_H-M   'P 1'
_cell_length_a   5.30625197
_cell_length_b   5.30625197
_cell_length_c   9.12070600
_cell_angle_alpha   90.00000000
_cell_angle_beta   90.00000000
_cell_angle_gamma   119.99999967
_symmetry_Int_Tables_number   1
_chemical_formula_structural   SmRu2
_chemical_formula_sum   'Sm4 Ru8'
_cell_volume   222.40002314
_cell_formula_units_Z   4
loop_
 _symmetry_equiv_pos_site_id
 _symmetry_equiv_pos_as_xyz
  1  'x, y, z'
loop_
 _atom_site_type_symbol
 _atom_site_label
 _atom_site_symmetry_multiplicity
 _atom_site_fract_x
 _atom_site_fract_y
 _atom_site_fract_z
 _atom_site_occupancy
  Sm  Sm0  1  0.33333300  0.66666700  0.43232100  1
  Sm  Sm1  1  0.66666700  0.33333300  0.56767900  1
  Sm  Sm2  1  0.66666700  0.33333300  0.93232100  1
  Sm  Sm3  1  0.33333300  0.66666700  0.06767900  1
  Ru  Ru4  1  0.00000000  0.00000000  0.50000000  1
  Ru  Ru5  1  0.00000000  0.00000000  0.00000000  1
  Ru  Ru6  1  0.82896400  0.17103600  0.25000000  1
  Ru  Ru7  1  0.82896400  0.65792800  0.25000000  1
  Ru  Ru8  1  0.34207200  0.17103600  0.25000000  1
  Ru  Ru9  1  0.17103600  0.82896400  0.75000000  1
  Ru  Ru10  1  0.17103600  0.34207200  0.75000000  1
  Ru  Ru11  1  0.65792800  0.82896400  0.75000000  1
