# generated using pymatgen
data_SrLi2Ti6O14
_symmetry_space_group_name_H-M   'P 1'
_cell_length_a   10.09266650
_cell_length_b   10.09266650
_cell_length_c   11.56144200
_cell_angle_alpha   90.00000000
_cell_angle_beta   90.00000000
_cell_angle_gamma   112.01224979
_symmetry_Int_Tables_number   1
_chemical_formula_structural   SrLi2Ti6O14
_chemical_formula_sum   'Sr4 Li8 Ti24 O56'
_cell_volume   1091.82286342
_cell_formula_units_Z   4
loop_
 _symmetry_equiv_pos_site_id
 _symmetry_equiv_pos_as_xyz
  1  'x, y, z'
loop_
 _atom_site_type_symbol
 _atom_site_label
 _atom_site_symmetry_multiplicity
 _atom_site_fract_x
 _atom_site_fract_y
 _atom_site_fract_z
 _atom_site_occupancy
  Sr  Sr0  1  0.35336000  0.35336000  0.12105900  1
  Sr  Sr1  1  0.64664000  0.64664000  0.87894100  1
  Sr  Sr2  1  0.85336000  0.85336000  0.37894100  1
  Sr  Sr3  1  0.14664000  0.14664000  0.62105900  1
  Li  Li4  1  0.05855700  0.43098900  0.12167100  1
  Li  Li5  1  0.44144300  0.06901100  0.62167100  1
  Li  Li6  1  0.93098900  0.55855700  0.37832900  1
  Li  Li7  1  0.56901100  0.94144300  0.87832900  1
  Li  Li8  1  0.94144300  0.56901100  0.87832900  1
  Li  Li9  1  0.55855700  0.93098900  0.37832900  1
  Li  Li10  1  0.06901100  0.44144300  0.62167100  1
  Li  Li11  1  0.43098900  0.05855700  0.12167100  1
  Ti  Ti12  1  0.49100500  0.27587700  0.38505200  1
  Ti  Ti13  1  0.00899500  0.22412300  0.88505200  1
  Ti  Ti14  1  0.77587700  0.99100500  0.11494800  1
  Ti  Ti15  1  0.72412300  0.50899500  0.61494800  1
  Ti  Ti16  1  0.50899500  0.72412300  0.61494800  1
  Ti  Ti17  1  0.24303200  0.74303200  0.25000000  1
  Ti  Ti18  1  0.99100500  0.77587700  0.11494800  1
  Ti  Ti19  1  0.22412300  0.00899500  0.88505200  1
  Ti  Ti20  1  0.27587700  0.49100500  0.38505200  1
  Ti  Ti21  1  0.23499100  0.01763400  0.35955900  1
  Ti  Ti22  1  0.26500900  0.48236600  0.85955900  1
  Ti  Ti23  1  0.51763400  0.73499100  0.14044100  1
  Ti  Ti24  1  0.98236600  0.76500900  0.64044100  1
  Ti  Ti25  1  0.76500900  0.98236600  0.64044100  1
  Ti  Ti26  1  0.25696800  0.75696800  0.75000000  1
  Ti  Ti27  1  0.48236600  0.26500900  0.85955900  1
  Ti  Ti28  1  0.01763400  0.23499100  0.35955900  1
  Ti  Ti29  1  0.76059300  0.23940700  0.50000000  1
  Ti  Ti30  1  0.73940700  0.26059300  0.00000000  1
  Ti  Ti31  1  0.23940700  0.76059300  0.50000000  1
  Ti  Ti32  1  0.26059300  0.73940700  0.00000000  1
  Ti  Ti33  1  0.74303100  0.24303100  0.25000000  1
  Ti  Ti34  1  0.75696800  0.25696800  0.75000000  1
  Ti  Ti35  1  0.73499100  0.51763400  0.14044100  1
  O  O36  1  0.35496100  0.13939500  0.75892300  1
  O  O37  1  0.59011200  0.59011200  0.63377500  1
  O  O38  1  0.90988800  0.90988800  0.13377500  1
  O  O39  1  0.09011200  0.09011200  0.86622500  1
  O  O40  1  0.40988800  0.40988800  0.36622500  1
  O  O41  1  0.35540700  0.13987100  0.48284300  1
  O  O42  1  0.14459300  0.36012900  0.98284300  1
  O  O43  1  0.63987100  0.85540700  0.01715700  1
  O  O44  1  0.86012900  0.64459300  0.51715700  1
  O  O45  1  0.64459300  0.86012900  0.51715700  1
  O  O46  1  0.85540700  0.63987100  0.01715700  1
  O  O47  1  0.36012900  0.14459300  0.98284300  1
  O  O48  1  0.13987100  0.35540700  0.48284300  1
  O  O49  1  0.91639000  0.91639000  0.62286500  1
  O  O50  1  0.58361000  0.58361000  0.12286500  1
  O  O51  1  0.41639000  0.41639000  0.87713500  1
  O  O52  1  0.08361000  0.08361000  0.37713500  1
  O  O53  1  0.36060500  0.14503900  0.25892300  1
  O  O54  1  0.13939500  0.35496100  0.75892300  1
  O  O55  1  0.64503900  0.86060500  0.24107700  1
  O  O56  1  0.85496100  0.63939500  0.74107700  1
  O  O57  1  0.63939500  0.85496100  0.74107700  1
  O  O58  1  0.37116400  0.62883600  0.00000000  1
  O  O59  1  0.14503900  0.36060500  0.25892300  1
  O  O60  1  0.36736800  0.63263200  0.50000000  1
  O  O61  1  0.13263200  0.86736800  0.00000000  1
  O  O62  1  0.63263200  0.36736800  0.50000000  1
  O  O63  1  0.86736800  0.13263200  0.00000000  1
  O  O64  1  0.14606500  0.62072200  0.37823200  1
  O  O65  1  0.35393500  0.87927800  0.87823200  1
  O  O66  1  0.12072200  0.64606500  0.12176800  1
  O  O67  1  0.37927800  0.85393500  0.62176800  1
  O  O68  1  0.85393500  0.37927800  0.62176800  1
  O  O69  1  0.64606500  0.12072200  0.12176800  1
  O  O70  1  0.87927800  0.35393500  0.87823200  1
  O  O71  1  0.62072200  0.14606500  0.37823200  1
  O  O72  1  0.36337800  0.62786800  0.25000000  1
  O  O73  1  0.13662200  0.87213200  0.75000000  1
  O  O74  1  0.12786800  0.86337800  0.25000000  1
  O  O75  1  0.37213200  0.63662200  0.75000000  1
  O  O76  1  0.63662200  0.37213200  0.75000000  1
  O  O77  1  0.86337800  0.12786800  0.25000000  1
  O  O78  1  0.87213200  0.13662200  0.75000000  1
  O  O79  1  0.62786800  0.36337800  0.25000000  1
  O  O80  1  0.88046300  0.34810700  0.37186100  1
  O  O81  1  0.61953700  0.15189300  0.87186100  1
  O  O82  1  0.84810700  0.38046300  0.12813900  1
  O  O83  1  0.65189300  0.11953700  0.62813900  1
  O  O84  1  0.11953700  0.65189300  0.62813900  1
  O  O85  1  0.38046300  0.84810700  0.12813900  1
  O  O86  1  0.15189300  0.61953700  0.87186100  1
  O  O87  1  0.34810700  0.88046300  0.37186100  1
  O  O88  1  0.87116400  0.12883600  0.50000000  1
  O  O89  1  0.62883600  0.37116400  0.00000000  1
  O  O90  1  0.12883600  0.87116400  0.50000000  1
  O  O91  1  0.86060500  0.64503900  0.24107700  1
