# generated using pymatgen
data_KSnAuSe3
_symmetry_space_group_name_H-M   'P 1'
_cell_length_a   8.55751200
_cell_length_b   8.55751200
_cell_length_c   20.29680600
_cell_angle_alpha   90.00000000
_cell_angle_beta   90.00000000
_cell_angle_gamma   90.00000000
_symmetry_Int_Tables_number   1
_chemical_formula_structural   KSnAuSe3
_chemical_formula_sum   'K8 Sn8 Au8 Se24'
_cell_volume   1486.35563624
_cell_formula_units_Z   8
loop_
 _symmetry_equiv_pos_site_id
 _symmetry_equiv_pos_as_xyz
  1  'x, y, z'
loop_
 _atom_site_type_symbol
 _atom_site_label
 _atom_site_symmetry_multiplicity
 _atom_site_fract_x
 _atom_site_fract_y
 _atom_site_fract_z
 _atom_site_occupancy
  K  K0  1  0.50000000  0.50000000  0.24558300  1
  K  K1  1  0.50000000  0.50000000  0.74558300  1
  K  K2  1  0.00000000  0.00000000  0.39942300  1
  K  K3  1  0.00000000  0.00000000  0.89942300  1
  K  K4  1  0.00000000  0.00000000  0.60105100  1
  K  K5  1  0.00000000  0.00000000  0.10105100  1
  K  K6  1  0.50000000  0.50000000  0.44923000  1
  K  K7  1  0.50000000  0.50000000  0.94923000  1
  Sn  Sn8  1  0.00000000  0.50000000  0.08893500  1
  Sn  Sn9  1  0.50000000  0.00000000  0.08893500  1
  Sn  Sn10  1  0.00000000  0.50000000  0.58893500  1
  Sn  Sn11  1  0.50000000  0.00000000  0.58893500  1
  Sn  Sn12  1  0.00000000  0.50000000  0.91187500  1
  Sn  Sn13  1  0.50000000  0.00000000  0.91187500  1
  Sn  Sn14  1  0.00000000  0.50000000  0.41187500  1
  Sn  Sn15  1  0.50000000  0.00000000  0.41187500  1
  Au  Au16  1  0.99847100  0.68296300  0.24966500  1
  Au  Au17  1  0.00152900  0.31703700  0.24966500  1
  Au  Au18  1  0.31703700  0.99847100  0.24966500  1
  Au  Au19  1  0.68296300  0.00152900  0.24966500  1
  Au  Au20  1  0.00152900  0.68296300  0.74966500  1
  Au  Au21  1  0.99847100  0.31703700  0.74966500  1
  Au  Au22  1  0.68296300  0.99847100  0.74966500  1
  Au  Au23  1  0.31703700  0.00152900  0.74966500  1
  Se  Se24  1  0.33338500  0.15286000  0.49987600  1
  Se  Se25  1  0.66661500  0.84714000  0.49987600  1
  Se  Se26  1  0.84714000  0.33338500  0.49987600  1
  Se  Se27  1  0.15286000  0.66661500  0.49987600  1
  Se  Se28  1  0.66661500  0.15286000  0.99987600  1
  Se  Se29  1  0.33338500  0.84714000  0.99987600  1
  Se  Se30  1  0.15286000  0.33338500  0.99987600  1
  Se  Se31  1  0.84714000  0.66661500  0.99987600  1
  Se  Se32  1  0.32335400  0.81637100  0.34422400  1
  Se  Se33  1  0.67664600  0.18362900  0.34422400  1
  Se  Se34  1  0.18362900  0.32335400  0.34422400  1
  Se  Se35  1  0.81637100  0.67664600  0.34422400  1
  Se  Se36  1  0.67664600  0.81637100  0.84422400  1
  Se  Se37  1  0.32335400  0.18362900  0.84422400  1
  Se  Se38  1  0.81637100  0.32335400  0.84422400  1
  Se  Se39  1  0.18362900  0.67664600  0.84422400  1
  Se  Se40  1  0.67772500  0.18239400  0.65623300  1
  Se  Se41  1  0.32227500  0.81760600  0.65623300  1
  Se  Se42  1  0.81760600  0.67772500  0.65623300  1
  Se  Se43  1  0.18239400  0.32227500  0.65623300  1
  Se  Se44  1  0.32227500  0.18239400  0.15623300  1
  Se  Se45  1  0.67772500  0.81760600  0.15623300  1
  Se  Se46  1  0.18239400  0.67772500  0.15623300  1
  Se  Se47  1  0.81760600  0.32227500  0.15623300  1
