# generated using pymatgen
data_Ba5AlRu2O11
_symmetry_space_group_name_H-M   'P 1'
_cell_length_a   5.87861100
_cell_length_b   18.87667300
_cell_length_c   11.22318500
_cell_angle_alpha   90.00000000
_cell_angle_beta   90.00000000
_cell_angle_gamma   90.00000000
_symmetry_Int_Tables_number   1
_chemical_formula_structural   Ba5AlRu2O11
_chemical_formula_sum   'Ba20 Al4 Ru8 O44'
_cell_volume   1245.42132386
_cell_formula_units_Z   4
loop_
 _symmetry_equiv_pos_site_id
 _symmetry_equiv_pos_as_xyz
  1  'x, y, z'
loop_
 _atom_site_type_symbol
 _atom_site_label
 _atom_site_symmetry_multiplicity
 _atom_site_fract_x
 _atom_site_fract_y
 _atom_site_fract_z
 _atom_site_occupancy
  Ba  Ba0  1  0.75000000  0.93276800  0.47184200  1
  Ba  Ba1  1  0.25000000  0.06723200  0.52815800  1
  Ba  Ba2  1  0.25000000  0.56723200  0.97184200  1
  Ba  Ba3  1  0.75000000  0.43276800  0.02815800  1
  Ba  Ba4  1  0.75000000  0.47292100  0.39393100  1
  Ba  Ba5  1  0.25000000  0.52707900  0.60606900  1
  Ba  Ba6  1  0.25000000  0.02707900  0.89393100  1
  Ba  Ba7  1  0.75000000  0.97292100  0.10606900  1
  Ba  Ba8  1  0.75000000  0.63855200  0.19318200  1
  Ba  Ba9  1  0.25000000  0.36144800  0.80681800  1
  Ba  Ba10  1  0.25000000  0.86144800  0.69318200  1
  Ba  Ba11  1  0.75000000  0.13855200  0.30681800  1
  Ba  Ba12  1  0.75000000  0.67271800  0.54829500  1
  Ba  Ba13  1  0.25000000  0.32728200  0.45170500  1
  Ba  Ba14  1  0.25000000  0.82728200  0.04829500  1
  Ba  Ba15  1  0.75000000  0.17271800  0.95170500  1
  Ba  Ba16  1  0.75000000  0.74988300  0.87226800  1
  Ba  Ba17  1  0.25000000  0.25011700  0.12773200  1
  Ba  Ba18  1  0.25000000  0.75011700  0.37226800  1
  Ba  Ba19  1  0.75000000  0.24988300  0.62773200  1
  Al  Al20  1  0.75000000  0.81225000  0.23882700  1
  Al  Al21  1  0.25000000  0.18775000  0.76117300  1
  Al  Al22  1  0.25000000  0.68775000  0.73882700  1
  Al  Al23  1  0.75000000  0.31225000  0.26117300  1
  Ru  Ru24  1  0.75000000  0.93639500  0.79166900  1
  Ru  Ru25  1  0.25000000  0.06360500  0.20833100  1
  Ru  Ru26  1  0.25000000  0.56360500  0.29166900  1
  Ru  Ru27  1  0.75000000  0.43639500  0.70833100  1
  Ru  Ru28  1  0.75000000  0.56094200  0.79315200  1
  Ru  Ru29  1  0.25000000  0.43905800  0.20684800  1
  Ru  Ru30  1  0.25000000  0.93905800  0.29315200  1
  Ru  Ru31  1  0.75000000  0.06094200  0.70684800  1
  O  O32  1  0.98560400  0.98418400  0.67780600  1
  O  O33  1  0.01439600  0.01581600  0.32219400  1
  O  O34  1  0.01439600  0.51581600  0.17780600  1
  O  O35  1  0.48560400  0.01581600  0.32219400  1
  O  O36  1  0.98560400  0.48418400  0.82219400  1
  O  O37  1  0.51439600  0.98418400  0.67780600  1
  O  O38  1  0.51439600  0.48418400  0.82219400  1
  O  O39  1  0.48560400  0.51581600  0.17780600  1
  O  O40  1  0.98456300  0.90063500  0.89540600  1
  O  O41  1  0.01543700  0.09936500  0.10459400  1
  O  O42  1  0.01543700  0.59936500  0.39540600  1
  O  O43  1  0.48456300  0.09936500  0.10459400  1
  O  O44  1  0.98456300  0.40063500  0.60459400  1
  O  O45  1  0.51543700  0.90063500  0.89540600  1
  O  O46  1  0.51543700  0.40063500  0.60459400  1
  O  O47  1  0.48456300  0.59936500  0.39540600  1
  O  O48  1  0.75000000  0.85093200  0.69285000  1
  O  O49  1  0.25000000  0.14906800  0.30715000  1
  O  O50  1  0.25000000  0.64906800  0.19285000  1
  O  O51  1  0.75000000  0.35093200  0.80715000  1
  O  O52  1  0.75000000  0.75066000  0.35623700  1
  O  O53  1  0.25000000  0.24934000  0.64376300  1
  O  O54  1  0.25000000  0.74934000  0.85623700  1
  O  O55  1  0.75000000  0.25066000  0.14376300  1
  O  O56  1  0.75000000  0.77096700  0.09744100  1
  O  O57  1  0.25000000  0.22903300  0.90255900  1
  O  O58  1  0.25000000  0.72903300  0.59744100  1
  O  O59  1  0.75000000  0.27096700  0.40255900  1
  O  O60  1  0.49956100  0.63491000  0.75235200  1
  O  O61  1  0.50043900  0.36509000  0.24764800  1
  O  O62  1  0.50043900  0.86509000  0.25235200  1
  O  O63  1  0.99956100  0.36509000  0.24764800  1
  O  O64  1  0.49956100  0.13491000  0.74764800  1
  O  O65  1  0.00043900  0.63491000  0.75235200  1
  O  O66  1  0.00043900  0.13491000  0.74764800  1
  O  O67  1  0.99956100  0.86509000  0.25235200  1
  O  O68  1  0.75000000  0.53175400  0.61648200  1
  O  O69  1  0.25000000  0.46824600  0.38351800  1
  O  O70  1  0.25000000  0.96824600  0.11648200  1
  O  O71  1  0.75000000  0.03175400  0.88351800  1
  O  O72  1  0.75000000  0.59101800  0.95593900  1
  O  O73  1  0.25000000  0.40898200  0.04406100  1
  O  O74  1  0.25000000  0.90898200  0.45593900  1
  O  O75  1  0.75000000  0.09101800  0.54406100  1
