# generated using pymatgen
data_Ce4Se3N2
_symmetry_space_group_name_H-M   'P 1'
_cell_length_a   8.20388198
_cell_length_b   8.20388198
_cell_length_c   6.41681026
_cell_angle_alpha   89.85202138
_cell_angle_beta   89.85202138
_cell_angle_gamma   75.55015554
_symmetry_Int_Tables_number   1
_chemical_formula_structural   Ce4Se3N2
_chemical_formula_sum   'Ce8 Se6 N4'
_cell_volume   418.21096927
_cell_formula_units_Z   2
loop_
 _symmetry_equiv_pos_site_id
 _symmetry_equiv_pos_as_xyz
  1  'x, y, z'
loop_
 _atom_site_type_symbol
 _atom_site_label
 _atom_site_symmetry_multiplicity
 _atom_site_fract_x
 _atom_site_fract_y
 _atom_site_fract_z
 _atom_site_occupancy
  Ce  Ce0  1  0.80570100  0.44290600  0.02995000  1
  Ce  Ce1  1  0.55709400  0.19429900  0.47005000  1
  Ce  Ce2  1  0.19429900  0.55709400  0.97005000  1
  Ce  Ce3  1  0.44290600  0.80570100  0.52995000  1
  Ce  Ce4  1  0.24145200  0.08720100  0.07337200  1
  Ce  Ce5  1  0.91279900  0.75854800  0.42662800  1
  Ce  Ce6  1  0.75854800  0.91279900  0.92662800  1
  Ce  Ce7  1  0.08720100  0.24145200  0.57337200  1
  Se  Se8  1  0.90157700  0.09842300  0.25000000  1
  Se  Se9  1  0.09842300  0.90157700  0.75000000  1
  Se  Se10  1  0.48584400  0.74432500  0.03347900  1
  Se  Se11  1  0.25567500  0.51415600  0.46652100  1
  Se  Se12  1  0.51415600  0.25567500  0.96652100  1
  Se  Se13  1  0.74432500  0.48584400  0.53347900  1
  N  N14  1  0.91946700  0.66795200  0.08633200  1
  N  N15  1  0.33204800  0.08053300  0.41366800  1
  N  N16  1  0.08053300  0.33204800  0.91366800  1
  N  N17  1  0.66795200  0.91946700  0.58633200  1
