# generated using pymatgen
data_Na4Al3Si3CNO13
_symmetry_space_group_name_H-M   'P 1'
_cell_length_a   8.99688378
_cell_length_b   8.99688378
_cell_length_c   9.18848900
_cell_angle_alpha   90.00000000
_cell_angle_beta   90.00000000
_cell_angle_gamma   90.01097866
_symmetry_Int_Tables_number   1
_chemical_formula_structural   Na4Al3Si3CNO13
_chemical_formula_sum   'Na8 Al6 Si6 C2 N2 O26'
_cell_volume   743.75228394
_cell_formula_units_Z   2
loop_
 _symmetry_equiv_pos_site_id
 _symmetry_equiv_pos_as_xyz
  1  'x, y, z'
loop_
 _atom_site_type_symbol
 _atom_site_label
 _atom_site_symmetry_multiplicity
 _atom_site_fract_x
 _atom_site_fract_y
 _atom_site_fract_z
 _atom_site_occupancy
  Na  Na0  1  0.80852400  0.69138600  0.19725100  1
  Na  Na1  1  0.19147600  0.30861400  0.19725100  1
  Na  Na2  1  0.31108100  0.81096900  0.30361900  1
  Na  Na3  1  0.68891900  0.18903100  0.30361900  1
  Na  Na4  1  0.69138600  0.80852400  0.69725100  1
  Na  Na5  1  0.30861400  0.19147600  0.69725100  1
  Na  Na6  1  0.18903100  0.68891900  0.80361900  1
  Na  Na7  1  0.81096900  0.31108100  0.80361900  1
  Al  Al8  1  0.75085600  0.00017800  0.00021600  1
  Al  Al9  1  0.50000000  0.50000000  0.24986500  1
  Al  Al10  1  0.99982200  0.24914400  0.50021600  1
  Al  Al11  1  0.00017800  0.75085600  0.50021600  1
  Al  Al12  1  0.50000000  0.50000000  0.74986500  1
  Al  Al13  1  0.24914400  0.99982200  0.00021600  1
  Si  Si14  1  0.49985700  0.74858000  0.99986000  1
  Si  Si15  1  0.00000000  0.00000000  0.25005700  1
  Si  Si16  1  0.25142000  0.50014300  0.49986000  1
  Si  Si17  1  0.74858000  0.49985700  0.49986000  1
  Si  Si18  1  0.00000000  0.00000000  0.75005700  1
  Si  Si19  1  0.50014300  0.25142000  0.99986000  1
  C  C20  1  0.00000000  0.50000000  0.99999400  1
  C  C21  1  0.50000000  0.00000000  0.49999400  1
  N  N22  1  0.50000000  0.00000000  0.36935600  1
  N  N23  1  0.00000000  0.50000000  0.86935600  1
  O  O24  1  0.35552800  0.84536300  0.05220400  1
  O  O25  1  0.64447200  0.15463700  0.05220400  1
  O  O26  1  0.55550500  0.64994800  0.13998600  1
  O  O27  1  0.44449500  0.35005200  0.13998600  1
  O  O28  1  0.00000000  0.50000000  0.13407700  1
  O  O29  1  0.85955000  0.94429500  0.15024200  1
  O  O30  1  0.14045000  0.05570500  0.15024200  1
  O  O31  1  0.05502200  0.85895600  0.34923600  1
  O  O32  1  0.94497800  0.14104400  0.34923600  1
  O  O33  1  0.34951200  0.55477700  0.35895300  1
  O  O34  1  0.65048800  0.44522300  0.35895300  1
  O  O35  1  0.84679900  0.64322900  0.44675700  1
  O  O36  1  0.15320100  0.35677100  0.44675700  1
  O  O37  1  0.15463700  0.64447200  0.55220400  1
  O  O38  1  0.84536300  0.35552800  0.55220400  1
  O  O39  1  0.64994800  0.55550500  0.63998600  1
  O  O40  1  0.35005200  0.44449500  0.63998600  1
  O  O41  1  0.50000000  0.00000000  0.63407700  1
  O  O42  1  0.94429500  0.85955000  0.65024200  1
  O  O43  1  0.05570500  0.14045000  0.65024200  1
  O  O44  1  0.85895600  0.05502200  0.84923600  1
  O  O45  1  0.14104400  0.94497800  0.84923600  1
  O  O46  1  0.44522300  0.65048800  0.85895300  1
  O  O47  1  0.55477700  0.34951200  0.85895300  1
  O  O48  1  0.64322900  0.84679900  0.94675700  1
  O  O49  1  0.35677100  0.15320100  0.94675700  1
