# generated using pymatgen
data_KBa2I5
_symmetry_space_group_name_H-M   'P 1'
_cell_length_a   9.45140400
_cell_length_b   10.54810400
_cell_length_c   14.95878035
_cell_angle_alpha   89.81574962
_cell_angle_beta   90.00000000
_cell_angle_gamma   90.00000000
_symmetry_Int_Tables_number   1
_chemical_formula_structural   KBa2I5
_chemical_formula_sum   'K4 Ba8 I20'
_cell_volume   1491.29880575
_cell_formula_units_Z   4
loop_
 _symmetry_equiv_pos_site_id
 _symmetry_equiv_pos_as_xyz
  1  'x, y, z'
loop_
 _atom_site_type_symbol
 _atom_site_label
 _atom_site_symmetry_multiplicity
 _atom_site_fract_x
 _atom_site_fract_y
 _atom_site_fract_z
 _atom_site_occupancy
  K  K0  1  0.01441600  0.48954700  0.31927100  1
  K  K1  1  0.98558400  0.51045300  0.68072900  1
  K  K2  1  0.51441600  0.51045300  0.18072900  1
  K  K3  1  0.48558400  0.48954700  0.81927100  1
  Ba  Ba4  1  0.02445800  0.00079700  0.31991400  1
  Ba  Ba5  1  0.97554200  0.99920300  0.68008600  1
  Ba  Ba6  1  0.52445800  0.99920300  0.18008600  1
  Ba  Ba7  1  0.47554200  0.00079700  0.81991400  1
  Ba  Ba8  1  0.08005100  0.25064300  0.00820700  1
  Ba  Ba9  1  0.91994900  0.74935700  0.99179300  1
  Ba  Ba10  1  0.58005100  0.74935700  0.49179300  1
  Ba  Ba11  1  0.41994900  0.25064300  0.50820700  1
  I  I12  1  0.16717700  0.54153700  0.09280300  1
  I  I13  1  0.83282300  0.45846300  0.90719700  1
  I  I14  1  0.66717700  0.45846300  0.40719700  1
  I  I15  1  0.33282300  0.54153700  0.59280300  1
  I  I16  1  0.83354500  0.22302300  0.18519100  1
  I  I17  1  0.16645500  0.77697700  0.81480900  1
  I  I18  1  0.33354500  0.77697700  0.31480900  1
  I  I19  1  0.66645500  0.22302300  0.68519100  1
  I  I20  1  0.30270300  0.23438800  0.28019400  1
  I  I21  1  0.69729700  0.76561200  0.71980600  1
  I  I22  1  0.80270300  0.76561200  0.21980600  1
  I  I23  1  0.19729700  0.23438800  0.78019400  1
  I  I24  1  0.45980500  0.22324800  0.00234800  1
  I  I25  1  0.54019500  0.77675200  0.99765200  1
  I  I26  1  0.95980500  0.77675200  0.49765200  1
  I  I27  1  0.04019500  0.22324800  0.50234800  1
  I  I28  1  0.66519500  0.04564000  0.40426700  1
  I  I29  1  0.33480500  0.95436000  0.59573300  1
  I  I30  1  0.16519500  0.95436000  0.09573300  1
  I  I31  1  0.83480500  0.04564000  0.90426700  1
