# generated using pymatgen
data_Na6MgCl8
_symmetry_space_group_name_H-M   'P 1'
_cell_length_a   8.02147165
_cell_length_b   8.02147165
_cell_length_c   8.02147165
_cell_angle_alpha   60.00000000
_cell_angle_beta   60.00000000
_cell_angle_gamma   60.00000000
_symmetry_Int_Tables_number   1
_chemical_formula_structural   Na6MgCl8
_chemical_formula_sum   'Na6 Mg1 Cl8'
_cell_volume   364.96159103
_cell_formula_units_Z   1
loop_
 _symmetry_equiv_pos_site_id
 _symmetry_equiv_pos_as_xyz
  1  'x, y, z'
loop_
 _atom_site_type_symbol
 _atom_site_label
 _atom_site_symmetry_multiplicity
 _atom_site_fract_x
 _atom_site_fract_y
 _atom_site_fract_z
 _atom_site_occupancy
  Na  Na0  1  0.50000000  0.00000000  0.00000000  1
  Na  Na1  1  0.00000000  0.50000000  0.50000000  1
  Na  Na2  1  0.00000000  0.50000000  0.00000000  1
  Na  Na3  1  0.50000000  0.00000000  0.50000000  1
  Na  Na4  1  0.00000000  0.00000000  0.50000000  1
  Na  Na5  1  0.50000000  0.50000000  0.00000000  1
  Mg  Mg6  1  0.00000000  0.00000000  0.00000000  1
  Cl  Cl7  1  0.25000000  0.25000000  0.25000000  1
  Cl  Cl8  1  0.75000000  0.75000000  0.75000000  1
  Cl  Cl9  1  0.77500600  0.22499400  0.22499400  1
  Cl  Cl10  1  0.22499400  0.77500600  0.77500600  1
  Cl  Cl11  1  0.22499400  0.77500600  0.22499400  1
  Cl  Cl12  1  0.77500600  0.22499400  0.77500600  1
  Cl  Cl13  1  0.22499400  0.22499400  0.77500600  1
  Cl  Cl14  1  0.77500600  0.77500600  0.22499400  1
