# generated using pymatgen
data_Sm12Sn(GeS7)4
_symmetry_space_group_name_H-M   'P 1'
_cell_length_a   10.10195400
_cell_length_b   11.60787971
_cell_length_c   11.63550532
_cell_angle_alpha   119.86971562
_cell_angle_beta   115.71157730
_cell_angle_gamma   90.02006953
_symmetry_Int_Tables_number   1
_chemical_formula_structural   Sm12Sn(GeS7)4
_chemical_formula_sum   'Sm12 Sn1 Ge4 S28'
_cell_volume   1024.30166885
_cell_formula_units_Z   1
loop_
 _symmetry_equiv_pos_site_id
 _symmetry_equiv_pos_as_xyz
  1  'x, y, z'
loop_
 _atom_site_type_symbol
 _atom_site_label
 _atom_site_symmetry_multiplicity
 _atom_site_fract_x
 _atom_site_fract_y
 _atom_site_fract_z
 _atom_site_occupancy
  Sm  Sm0  1  0.77903600  0.47954500  0.65659000  1
  Sm  Sm1  1  0.76917900  0.98461100  0.62928200  1
  Sm  Sm2  1  0.86300900  0.28406400  0.23072100  1
  Sm  Sm3  1  0.87569800  0.76336600  0.22129000  1
  Sm  Sm4  1  0.36929900  0.23745700  0.13597000  1
  Sm  Sm5  1  0.34409500  0.71416700  0.12429900  1
  Sm  Sm6  1  0.21998700  0.59341900  0.34614200  1
  Sm  Sm7  1  0.23550300  0.08407000  0.36850600  1
  Sm  Sm8  1  0.12839800  0.78082700  0.76181300  1
  Sm  Sm9  1  0.12861900  0.31123700  0.78157600  1
  Sm  Sm10  1  0.63311600  0.83356400  0.86638500  1
  Sm  Sm11  1  0.65239600  0.35746000  0.87431400  1
  Sn  Sn12  1  0.00027400  0.02012100  0.99992200  1
  Ge  Ge13  1  0.66609400  0.62023200  0.33259400  1
  Ge  Ge14  1  0.66726600  0.11959100  0.33459500  1
  Ge  Ge15  1  0.33457300  0.53124800  0.66397100  1
  Ge  Ge16  1  0.33235300  0.03559300  0.67003600  1
  S  S17  1  0.67282400  0.43807300  0.34735000  1
  S  S18  1  0.66062600  0.92324500  0.31992200  1
  S  S19  1  0.33409100  0.34544300  0.66923300  1
  S  S20  1  0.33230500  0.84326900  0.66435300  1
  S  S21  1  0.89858200  0.27109200  0.47953600  1
  S  S22  1  0.89838600  0.77304800  0.48102100  1
  S  S23  1  0.58324600  0.08308900  0.10178100  1
  S  S24  1  0.58096600  0.58268000  0.10138800  1
  S  S25  1  0.51820400  0.24021100  0.41634800  1
  S  S26  1  0.52087200  0.74179700  0.41960100  1
  S  S27  1  0.10512400  0.53409000  0.50882100  1
  S  S28  1  0.09980200  0.04432100  0.52809700  1
  S  S29  1  0.41294500  0.72564100  0.89686800  1
  S  S30  1  0.42088600  0.23242700  0.90028200  1
  S  S31  1  0.47449600  0.56676700  0.57274100  1
  S  S32  1  0.48901500  0.07763600  0.59584300  1
  S  S33  1  0.73577500  0.60538400  0.90413100  1
  S  S34  1  0.75393800  0.08845800  0.90545100  1
  S  S35  1  0.15297600  0.25825900  0.24597300  1
  S  S36  1  0.16806000  0.78672800  0.26542100  1
  S  S37  1  0.09402300  0.56833100  0.83157800  1
  S  S38  1  0.09442700  0.05974400  0.84663200  1
  S  S39  1  0.26190400  0.44856300  0.09695500  1
  S  S40  1  0.25025200  0.94870400  0.08970700  1
  S  S41  1  0.83955900  0.77864100  0.74959400  1
  S  S42  1  0.83484000  0.26911600  0.73786800  1
  S  S43  1  0.90274700  0.48277400  0.16478000  1
  S  S44  1  0.91023600  0.98389000  0.16072000  1
