# generated using pymatgen
data_DyAg(WO4)2
_symmetry_space_group_name_H-M   'P 1'
_cell_length_a   7.39152572
_cell_length_b   7.39152572
_cell_length_c   7.33607771
_cell_angle_alpha   65.85628883
_cell_angle_beta   65.85628883
_cell_angle_gamma   94.17584625
_symmetry_Int_Tables_number   1
_chemical_formula_structural   DyAg(WO4)2
_chemical_formula_sum   'Dy2 Ag2 W4 O16'
_cell_volume   319.57094829
_cell_formula_units_Z   2
loop_
 _symmetry_equiv_pos_site_id
 _symmetry_equiv_pos_as_xyz
  1  'x, y, z'
loop_
 _atom_site_type_symbol
 _atom_site_label
 _atom_site_symmetry_multiplicity
 _atom_site_fract_x
 _atom_site_fract_y
 _atom_site_fract_z
 _atom_site_occupancy
  Dy  Dy0  1  0.69829600  0.30170400  0.00000000  1
  Dy  Dy1  1  0.30170400  0.69829600  0.00000000  1
  Ag  Ag2  1  0.68364800  0.68364800  0.48201600  1
  Ag  Ag3  1  0.31635200  0.31635200  0.51798400  1
  W  W4  1  0.21117000  0.21117000  0.03304600  1
  W  W5  1  0.78883000  0.78883000  0.96695400  1
  W  W6  1  0.83533700  0.16466300  0.50000000  1
  W  W7  1  0.16466300  0.83533700  0.50000000  1
  O  O8  1  0.35337200  0.10199400  0.24453500  1
  O  O9  1  0.64662800  0.89800600  0.75546500  1
  O  O10  1  0.89800600  0.64662800  0.75546500  1
  O  O11  1  0.10199400  0.35337200  0.24453500  1
  O  O12  1  0.68572800  0.21951300  0.35019900  1
  O  O13  1  0.31427200  0.78048700  0.64980100  1
  O  O14  1  0.78048700  0.31427200  0.64980100  1
  O  O15  1  0.21951300  0.68572800  0.35019900  1
  O  O16  1  0.69915100  0.96025700  0.08413700  1
  O  O17  1  0.30084900  0.03974300  0.91586300  1
  O  O18  1  0.03974300  0.30084900  0.91586300  1
  O  O19  1  0.96025700  0.69915100  0.08413700  1
  O  O20  1  0.97803200  0.97803200  0.34156300  1
  O  O21  1  0.02196800  0.02196800  0.65843700  1
  O  O22  1  0.55579900  0.55579900  0.13518500  1
  O  O23  1  0.44420100  0.44420100  0.86481500  1
