# generated using pymatgen
data_TbGa
_symmetry_space_group_name_H-M   'P 1'
_cell_length_a   5.89803674
_cell_length_b   5.89803674
_cell_length_c   4.09467200
_cell_angle_alpha   90.00000000
_cell_angle_beta   90.00000000
_cell_angle_gamma   136.66057094
_symmetry_Int_Tables_number   1
_chemical_formula_structural   TbGa
_chemical_formula_sum   'Tb2 Ga2'
_cell_volume   97.75975415
_cell_formula_units_Z   2
loop_
 _symmetry_equiv_pos_site_id
 _symmetry_equiv_pos_as_xyz
  1  'x, y, z'
loop_
 _atom_site_type_symbol
 _atom_site_label
 _atom_site_symmetry_multiplicity
 _atom_site_fract_x
 _atom_site_fract_y
 _atom_site_fract_z
 _atom_site_occupancy
  Tb  Tb0  1  0.86062700  0.13937300  0.75000000  1
  Tb  Tb1  1  0.13937300  0.86062700  0.25000000  1
  Ga  Ga2  1  0.57562900  0.42437100  0.75000000  1
  Ga  Ga3  1  0.42437100  0.57562900  0.25000000  1
