# generated using pymatgen
data_BiPdSe
_symmetry_space_group_name_H-M   'P 1'
_cell_length_a   6.53689600
_cell_length_b   6.53689600
_cell_length_c   6.53689600
_cell_angle_alpha   90.00000000
_cell_angle_beta   90.00000000
_cell_angle_gamma   90.00000000
_symmetry_Int_Tables_number   1
_chemical_formula_structural   BiPdSe
_chemical_formula_sum   'Bi4 Pd4 Se4'
_cell_volume   279.32816387
_cell_formula_units_Z   4
loop_
 _symmetry_equiv_pos_site_id
 _symmetry_equiv_pos_as_xyz
  1  'x, y, z'
loop_
 _atom_site_type_symbol
 _atom_site_label
 _atom_site_symmetry_multiplicity
 _atom_site_fract_x
 _atom_site_fract_y
 _atom_site_fract_z
 _atom_site_occupancy
  Bi  Bi0  1  0.12583000  0.62583000  0.87417000  1
  Bi  Bi1  1  0.62583000  0.87417000  0.12583000  1
  Bi  Bi2  1  0.87417000  0.12583000  0.62583000  1
  Bi  Bi3  1  0.37417000  0.37417000  0.37417000  1
  Pd  Pd4  1  0.49008100  0.99008100  0.50991900  1
  Pd  Pd5  1  0.99008100  0.50991900  0.49008100  1
  Pd  Pd6  1  0.50991900  0.49008100  0.99008100  1
  Pd  Pd7  1  0.00991900  0.00991900  0.00991900  1
  Se  Se8  1  0.87811500  0.37811500  0.12188500  1
  Se  Se9  1  0.37811500  0.12188500  0.87811500  1
  Se  Se10  1  0.12188500  0.87811500  0.37811500  1
  Se  Se11  1  0.62188500  0.62188500  0.62188500  1
