# generated using pymatgen
data_Lu5(Co2Si7)2
_symmetry_space_group_name_H-M   'P 1'
_cell_length_a   7.75771000
_cell_length_b   7.68161900
_cell_length_c   12.24377536
_cell_angle_alpha   81.17524862
_cell_angle_beta   90.00000000
_cell_angle_gamma   90.00000000
_symmetry_Int_Tables_number   1
_chemical_formula_structural   Lu5(Co2Si7)2
_chemical_formula_sum   'Lu10 Co8 Si28'
_cell_volume   720.99108282
_cell_formula_units_Z   2
loop_
 _symmetry_equiv_pos_site_id
 _symmetry_equiv_pos_as_xyz
  1  'x, y, z'
loop_
 _atom_site_type_symbol
 _atom_site_label
 _atom_site_symmetry_multiplicity
 _atom_site_fract_x
 _atom_site_fract_y
 _atom_site_fract_z
 _atom_site_occupancy
  Lu  Lu0  1  0.74849800  0.34238300  0.63488900  1
  Lu  Lu1  1  0.24849800  0.15761700  0.36511100  1
  Lu  Lu2  1  0.75150200  0.84238300  0.63488900  1
  Lu  Lu3  1  0.25150200  0.65761700  0.36511100  1
  Lu  Lu4  1  0.74906700  0.15997800  0.36545300  1
  Lu  Lu5  1  0.24906700  0.34002200  0.63454700  1
  Lu  Lu6  1  0.25093300  0.84002200  0.63454700  1
  Lu  Lu7  1  0.75093300  0.65997800  0.36545300  1
  Lu  Lu8  1  0.00000000  0.50000000  0.00000000  1
  Lu  Lu9  1  0.50000000  0.00000000  0.00000000  1
  Co  Co10  1  0.87302800  0.12808100  0.00041100  1
  Co  Co11  1  0.62697200  0.62808100  0.00041100  1
  Co  Co12  1  0.37302800  0.37191900  0.99958900  1
  Co  Co13  1  0.12697200  0.87191900  0.99958900  1
  Co  Co14  1  0.00018700  0.56100600  0.74976700  1
  Co  Co15  1  0.50018700  0.93899400  0.25023300  1
  Co  Co16  1  0.99981300  0.43899400  0.25023300  1
  Co  Co17  1  0.49981300  0.06100600  0.74976700  1
  Si  Si18  1  0.00572300  0.81846000  0.82136400  1
  Si  Si19  1  0.99955100  0.60984800  0.55989500  1
  Si  Si20  1  0.49955100  0.89015200  0.44010500  1
  Si  Si21  1  0.00044900  0.39015200  0.44010500  1
  Si  Si22  1  0.66631700  0.33390400  0.99989400  1
  Si  Si23  1  0.16631700  0.16609600  0.00010600  1
  Si  Si24  1  0.33368300  0.66609600  0.00010600  1
  Si  Si25  1  0.83368300  0.83390400  0.99989400  1
  Si  Si26  1  0.77363800  0.04993900  0.82211100  1
  Si  Si27  1  0.27363800  0.45006100  0.17788900  1
  Si  Si28  1  0.22636200  0.95006100  0.17788900  1
  Si  Si29  1  0.72636200  0.54993900  0.82211100  1
  Si  Si30  1  0.22639600  0.03831100  0.82209000  1
  Si  Si31  1  0.72639600  0.46168900  0.17791000  1
  Si  Si32  1  0.77360400  0.96168900  0.17791000  1
  Si  Si33  1  0.27360400  0.53831100  0.82209000  1
  Si  Si34  1  0.99467100  0.26877600  0.82172900  1
  Si  Si35  1  0.49467100  0.23122400  0.17827100  1
  Si  Si36  1  0.00532900  0.73122400  0.17827100  1
  Si  Si37  1  0.50532900  0.76877600  0.82172900  1
  Si  Si38  1  0.49427700  0.31846000  0.82136400  1
  Si  Si39  1  0.99427700  0.18154000  0.17863600  1
  Si  Si40  1  0.50572300  0.68154000  0.17863600  1
  Si  Si41  1  0.99972800  0.11101400  0.56073800  1
  Si  Si42  1  0.50027200  0.61101400  0.56073800  1
  Si  Si43  1  0.00027200  0.88898600  0.43926200  1
  Si  Si44  1  0.49972800  0.38898600  0.43926200  1
  Si  Si45  1  0.50044900  0.10984800  0.55989500  1
