# generated using pymatgen
data_Cs2PH5O6
_symmetry_space_group_name_H-M   'P 1'
_cell_length_a   7.79618007
_cell_length_b   8.34293668
_cell_length_c   14.23019000
_cell_angle_alpha   90.00000000
_cell_angle_beta   90.00000000
_cell_angle_gamma   119.78425638
_symmetry_Int_Tables_number   1
_chemical_formula_structural   Cs2PH5O6
_chemical_formula_sum   'Cs8 P4 H20 O24'
_cell_volume   803.30817424
_cell_formula_units_Z   4
loop_
 _symmetry_equiv_pos_site_id
 _symmetry_equiv_pos_as_xyz
  1  'x, y, z'
loop_
 _atom_site_type_symbol
 _atom_site_label
 _atom_site_symmetry_multiplicity
 _atom_site_fract_x
 _atom_site_fract_y
 _atom_site_fract_z
 _atom_site_occupancy
  Cs  Cs0  1  0.26013000  0.75679700  0.23315900  1
  Cs  Cs1  1  0.73987000  0.74320300  0.73315900  1
  Cs  Cs2  1  0.73987000  0.24320300  0.76684100  1
  Cs  Cs3  1  0.26013000  0.25679700  0.26684100  1
  Cs  Cs4  1  0.74972700  0.75591100  0.41504000  1
  Cs  Cs5  1  0.25027300  0.74408900  0.91504000  1
  Cs  Cs6  1  0.25027300  0.24408900  0.58496000  1
  Cs  Cs7  1  0.74972700  0.25591100  0.08496000  1
  P  P8  1  0.74552500  0.23697000  0.35602500  1
  P  P9  1  0.25447500  0.26303000  0.85602500  1
  P  P10  1  0.25447500  0.76303000  0.64397500  1
  P  P11  1  0.74552500  0.73697000  0.14397500  1
  H  H12  1  0.30907000  0.12061500  0.02131000  1
  H  H13  1  0.69093000  0.37938500  0.52131000  1
  H  H14  1  0.69093000  0.87938500  0.97869000  1
  H  H15  1  0.30907000  0.62061500  0.47869000  1
  H  H16  1  0.18619800  0.87906200  0.47654700  1
  H  H17  1  0.81380200  0.62093800  0.97654700  1
  H  H18  1  0.81380200  0.12093800  0.52345300  1
  H  H19  1  0.18619800  0.37906200  0.02345300  1
  H  H20  1  0.13848700  0.94855700  0.07783400  1
  H  H21  1  0.86151300  0.55144300  0.57783400  1
  H  H22  1  0.86151300  0.05144300  0.92216600  1
  H  H23  1  0.13848700  0.44855700  0.42216600  1
  H  H24  1  0.35833600  0.04961500  0.42005700  1
  H  H25  1  0.64166400  0.45038500  0.92005700  1
  H  H26  1  0.64166400  0.95038500  0.57994300  1
  H  H27  1  0.35833600  0.54961500  0.07994300  1
  H  H28  1  0.77503800  0.47838700  0.26799500  1
  H  H29  1  0.22496200  0.02161300  0.76799500  1
  H  H30  1  0.22496200  0.52161300  0.73200500  1
  H  H31  1  0.77503800  0.97838700  0.23200500  1
  O  O32  1  0.85990800  0.42995900  0.29596100  1
  O  O33  1  0.14009200  0.07004100  0.79596100  1
  O  O34  1  0.14009200  0.57004100  0.70403900  1
  O  O35  1  0.85990800  0.92995900  0.20403900  1
  O  O36  1  0.58529200  0.24704900  0.41515800  1
  O  O37  1  0.41470800  0.25295100  0.91515800  1
  O  O38  1  0.41470800  0.75295100  0.58484200  1
  O  O39  1  0.58529200  0.74704900  0.08484200  1
  O  O40  1  0.65716200  0.07697100  0.28411000  1
  O  O41  1  0.34283800  0.42302900  0.78411000  1
  O  O42  1  0.34283800  0.92302900  0.71589000  1
  O  O43  1  0.65716200  0.57697100  0.21589000  1
  O  O44  1  0.91064500  0.23765700  0.41554200  1
  O  O45  1  0.08935500  0.26234300  0.91554200  1
  O  O46  1  0.08935500  0.76234300  0.58445800  1
  O  O47  1  0.91064500  0.73765700  0.08445800  1
  O  O48  1  0.21513300  0.95300700  0.41760300  1
  O  O49  1  0.78486700  0.54699300  0.91760300  1
  O  O50  1  0.78486700  0.04699300  0.58239700  1
  O  O51  1  0.21513300  0.45300700  0.08239700  1
  O  O52  1  0.28115300  0.04489500  0.07946000  1
  O  O53  1  0.71884700  0.45510500  0.57946000  1
  O  O54  1  0.71884700  0.95510500  0.92054000  1
  O  O55  1  0.28115300  0.54489500  0.42054000  1
