# generated using pymatgen
data_La3Ir2
_symmetry_space_group_name_H-M   'P 1'
_cell_length_a   7.73028128
_cell_length_b   7.73028128
_cell_length_c   7.73028171
_cell_angle_alpha   71.00939512
_cell_angle_beta   71.00939512
_cell_angle_gamma   71.00939233
_symmetry_Int_Tables_number   1
_chemical_formula_structural   La3Ir2
_chemical_formula_sum   'La9 Ir6'
_cell_volume   400.38194556
_cell_formula_units_Z   3
loop_
 _symmetry_equiv_pos_site_id
 _symmetry_equiv_pos_as_xyz
  1  'x, y, z'
loop_
 _atom_site_type_symbol
 _atom_site_label
 _atom_site_symmetry_multiplicity
 _atom_site_fract_x
 _atom_site_fract_y
 _atom_site_fract_z
 _atom_site_occupancy
  La  La0  1  0.00000000  0.00000000  0.00000000  1
  La  La1  1  0.79845900  0.79845900  0.79845900  1
  La  La2  1  0.20154100  0.20154100  0.20154100  1
  La  La3  1  0.16302700  0.39146700  0.66840100  1
  La  La4  1  0.66840100  0.16302700  0.39146700  1
  La  La5  1  0.39146700  0.66840100  0.16302700  1
  La  La6  1  0.83697300  0.60853300  0.33159900  1
  La  La7  1  0.33159900  0.83697300  0.60853300  1
  La  La8  1  0.60853300  0.33159900  0.83697300  1
  Ir  Ir9  1  0.95939100  0.16204400  0.58846700  1
  Ir  Ir10  1  0.58846700  0.95939100  0.16204400  1
  Ir  Ir11  1  0.16204400  0.58846700  0.95939100  1
  Ir  Ir12  1  0.04060900  0.83795600  0.41153300  1
  Ir  Ir13  1  0.41153300  0.04060900  0.83795600  1
  Ir  Ir14  1  0.83795600  0.41153300  0.04060900  1
