# generated using pymatgen
data_KAsOF4
_symmetry_space_group_name_H-M   'P 1'
_cell_length_a   5.94945900
_cell_length_b   5.40248200
_cell_length_c   14.50008850
_cell_angle_alpha   70.53304096
_cell_angle_beta   90.00000000
_cell_angle_gamma   90.00000000
_symmetry_Int_Tables_number   1
_chemical_formula_structural   KAsOF4
_chemical_formula_sum   'K4 As4 O4 F16'
_cell_volume   439.41675783
_cell_formula_units_Z   4
loop_
 _symmetry_equiv_pos_site_id
 _symmetry_equiv_pos_as_xyz
  1  'x, y, z'
loop_
 _atom_site_type_symbol
 _atom_site_label
 _atom_site_symmetry_multiplicity
 _atom_site_fract_x
 _atom_site_fract_y
 _atom_site_fract_z
 _atom_site_occupancy
  K  K0  1  0.63115800  0.64280800  0.85239100  1
  K  K1  1  0.13115800  0.35719200  0.64760900  1
  K  K2  1  0.36884200  0.35719200  0.14760900  1
  K  K3  1  0.86884200  0.64280800  0.35239100  1
  As  As4  1  0.11784800  0.02727300  0.91694800  1
  As  As5  1  0.61784800  0.97272700  0.58305200  1
  As  As6  1  0.88215200  0.97272700  0.08305200  1
  As  As7  1  0.38215200  0.02727300  0.41694800  1
  O  O8  1  0.61876200  0.83233200  0.48451200  1
  O  O9  1  0.11876200  0.16766800  0.01548800  1
  O  O10  1  0.38123800  0.16766800  0.51548800  1
  O  O11  1  0.88123800  0.83233200  0.98451200  1
  F  F12  1  0.17534200  0.77835100  0.47421500  1
  F  F13  1  0.67534200  0.22164900  0.02578500  1
  F  F14  1  0.82465800  0.22164900  0.52578500  1
  F  F15  1  0.32465800  0.77835100  0.97421500  1
  F  F16  1  0.93557300  0.28000100  0.83857700  1
  F  F17  1  0.43557300  0.71999900  0.66142300  1
  F  F18  1  0.06442700  0.71999900  0.16142300  1
  F  F19  1  0.56442700  0.28000100  0.33857700  1
  F  F20  1  0.09762300  0.87752900  0.82357300  1
  F  F21  1  0.59762300  0.12247100  0.67642700  1
  F  F22  1  0.90237700  0.12247100  0.17642700  1
  F  F23  1  0.40237700  0.87752900  0.32357300  1
  F  F24  1  0.34631200  0.22719900  0.85322800  1
  F  F25  1  0.84631200  0.77280100  0.64677200  1
  F  F26  1  0.65368800  0.77280100  0.14677200  1
  F  F27  1  0.15368800  0.22719900  0.35322800  1
