# generated using pymatgen
data_KNaP6(PbO3)8
_symmetry_space_group_name_H-M   'P 1'
_cell_length_a   9.95253959
_cell_length_b   9.95253959
_cell_length_c   7.35091400
_cell_angle_alpha   90.00000000
_cell_angle_beta   90.00000000
_cell_angle_gamma   119.99999728
_symmetry_Int_Tables_number   1
_chemical_formula_structural   KNaP6(PbO3)8
_chemical_formula_sum   'K1 Na1 P6 Pb8 O24'
_cell_volume   630.57944975
_cell_formula_units_Z   1
loop_
 _symmetry_equiv_pos_site_id
 _symmetry_equiv_pos_as_xyz
  1  'x, y, z'
loop_
 _atom_site_type_symbol
 _atom_site_label
 _atom_site_symmetry_multiplicity
 _atom_site_fract_x
 _atom_site_fract_y
 _atom_site_fract_z
 _atom_site_occupancy
  K  K0  1  0.66666700  0.33333300  0.50952700  1
  Na  Na1  1  0.00000000  0.00000000  0.99396400  1
  P  P2  1  0.35069300  0.29054700  0.75111800  1
  P  P3  1  0.93985400  0.64930700  0.75111800  1
  P  P4  1  0.70945300  0.06014600  0.75111800  1
  P  P5  1  0.31024700  0.03950700  0.24452300  1
  P  P6  1  0.72926000  0.68975300  0.24452300  1
  P  P7  1  0.96049300  0.27074000  0.24452300  1
  Pb  Pb8  1  0.33201800  0.40538100  0.24976000  1
  Pb  Pb9  1  0.07336300  0.66798200  0.24976000  1
  Pb  Pb10  1  0.59461900  0.92663700  0.24976000  1
  Pb  Pb11  1  0.33209800  0.92541700  0.75282600  1
  Pb  Pb12  1  0.59331900  0.66790200  0.75282600  1
  Pb  Pb13  1  0.07458300  0.40668100  0.75282600  1
  Pb  Pb14  1  0.66666700  0.33333300  0.01269400  1
  Pb  Pb15  1  0.00000000  0.00000000  0.51219000  1
  O  O16  1  0.17199900  0.18724200  0.75350100  1
  O  O17  1  0.01524400  0.82800100  0.75350100  1
  O  O18  1  0.81275800  0.98475600  0.75350100  1
  O  O19  1  0.48873000  0.14186400  0.24043800  1
  O  O20  1  0.65313300  0.51127000  0.24043800  1
  O  O21  1  0.85813600  0.34686700  0.24043800  1
  O  O22  1  0.42768000  0.18592200  0.75389800  1
  O  O23  1  0.75824200  0.57232000  0.75389800  1
  O  O24  1  0.81407800  0.24175800  0.75389800  1
  O  O25  1  0.23154900  0.14258400  0.24434600  1
  O  O26  1  0.91103600  0.76845100  0.24434600  1
  O  O27  1  0.85741600  0.08896400  0.24434600  1
  O  O28  1  0.41442700  0.39994100  0.92057600  1
  O  O29  1  0.98551400  0.58557300  0.92057600  1
  O  O30  1  0.60005900  0.01448600  0.92057600  1
  O  O31  1  0.25155000  0.93468400  0.41806100  1
  O  O32  1  0.68313400  0.74845000  0.41806100  1
  O  O33  1  0.06531600  0.31686600  0.41806100  1
  O  O34  1  0.24893800  0.92660900  0.07909100  1
  O  O35  1  0.67767100  0.75106200  0.07909100  1
  O  O36  1  0.07339100  0.32232900  0.07909100  1
  O  O37  1  0.40901500  0.39944900  0.58239900  1
  O  O38  1  0.99043400  0.59098500  0.58239900  1
  O  O39  1  0.60055100  0.00956600  0.58239900  1
