# generated using pymatgen
data_Gd2GaSbO7
_symmetry_space_group_name_H-M   'P 1'
_cell_length_a   7.33476070
_cell_length_b   7.33476070
_cell_length_c   7.33476070
_cell_angle_alpha   120.52678004
_cell_angle_beta   119.44565515
_cell_angle_gamma   90.02642240
_symmetry_Int_Tables_number   1
_chemical_formula_structural   Gd2GaSbO7
_chemical_formula_sum   'Gd4 Ga2 Sb2 O14'
_cell_volume   279.05188770
_cell_formula_units_Z   2
loop_
 _symmetry_equiv_pos_site_id
 _symmetry_equiv_pos_as_xyz
  1  'x, y, z'
loop_
 _atom_site_type_symbol
 _atom_site_label
 _atom_site_symmetry_multiplicity
 _atom_site_fract_x
 _atom_site_fract_y
 _atom_site_fract_z
 _atom_site_occupancy
  Gd  Gd0  1  0.50000000  0.00000000  0.00000000  1
  Gd  Gd1  1  0.50000000  0.50000000  0.50000000  1
  Gd  Gd2  1  0.50000000  0.00000000  0.50000000  1
  Gd  Gd3  1  0.00000000  0.00000000  0.00000000  1
  Ga  Ga4  1  0.00000000  0.50000000  0.00000000  1
  Ga  Ga5  1  0.00000000  0.00000000  0.50000000  1
  Sb  Sb6  1  0.00000000  0.50000000  0.50000000  1
  Sb  Sb7  1  0.50000000  0.50000000  0.00000000  1
  O  O8  1  0.91790500  0.16790500  0.75000000  1
  O  O9  1  0.33161600  0.58161600  0.75000000  1
  O  O10  1  0.91615800  0.57993200  0.74543700  1
  O  O11  1  0.33449500  0.17072200  0.75456300  1
  O  O12  1  0.91615800  0.17072200  0.33622700  1
  O  O13  1  0.33449500  0.57993200  0.16377300  1
  O  O14  1  0.08209500  0.83209500  0.25000000  1
  O  O15  1  0.66838400  0.41838400  0.25000000  1
  O  O16  1  0.08384200  0.42006800  0.25456300  1
  O  O17  1  0.66550500  0.82927800  0.24543700  1
  O  O18  1  0.08384200  0.82927800  0.66377300  1
  O  O19  1  0.66550500  0.42006800  0.83622700  1
  O  O20  1  0.62360100  0.87360100  0.75000000  1
  O  O21  1  0.37639900  0.12639900  0.25000000  1
