# generated using pymatgen
data_Tb2TeS2
_symmetry_space_group_name_H-M   'P 1'
_cell_length_a   7.61610996
_cell_length_b   7.61610996
_cell_length_c   7.61610996
_cell_angle_alpha   147.73440820
_cell_angle_beta   138.65484691
_cell_angle_gamma   53.39275744
_symmetry_Int_Tables_number   1
_chemical_formula_structural   Tb2TeS2
_chemical_formula_sum   'Tb2 Te1 S2'
_cell_volume   154.86262359
_cell_formula_units_Z   1
loop_
 _symmetry_equiv_pos_site_id
 _symmetry_equiv_pos_as_xyz
  1  'x, y, z'
loop_
 _atom_site_type_symbol
 _atom_site_label
 _atom_site_symmetry_multiplicity
 _atom_site_fract_x
 _atom_site_fract_y
 _atom_site_fract_z
 _atom_site_occupancy
  Tb  Tb0  1  0.83388600  0.33388600  0.50000000  1
  Tb  Tb1  1  0.16611400  0.66611400  0.50000000  1
  Te  Te2  1  0.00000000  0.00000000  0.00000000  1
  S  S3  1  0.70547600  0.70547600  0.00000000  1
  S  S4  1  0.29452400  0.29452400  0.00000000  1
