# generated using pymatgen
data_Th(CoAs)2
_symmetry_space_group_name_H-M   'P 1'
_cell_length_a   4.17450800
_cell_length_b   4.17450800
_cell_length_c   9.40518500
_cell_angle_alpha   90.00000000
_cell_angle_beta   90.00000000
_cell_angle_gamma   90.00000000
_symmetry_Int_Tables_number   1
_chemical_formula_structural   Th(CoAs)2
_chemical_formula_sum   'Th2 Co4 As4'
_cell_volume   163.89961669
_cell_formula_units_Z   2
loop_
 _symmetry_equiv_pos_site_id
 _symmetry_equiv_pos_as_xyz
  1  'x, y, z'
loop_
 _atom_site_type_symbol
 _atom_site_label
 _atom_site_symmetry_multiplicity
 _atom_site_fract_x
 _atom_site_fract_y
 _atom_site_fract_z
 _atom_site_occupancy
  Th  Th0  1  0.00000000  0.50000000  0.24726600  1
  Th  Th1  1  0.50000000  0.00000000  0.75273400  1
  Co  Co2  1  0.00000000  0.00000000  0.00000000  1
  Co  Co3  1  0.50000000  0.50000000  0.00000000  1
  Co  Co4  1  0.00000000  0.50000000  0.61526800  1
  Co  Co5  1  0.50000000  0.00000000  0.38473200  1
  As  As6  1  0.00000000  0.00000000  0.50000000  1
  As  As7  1  0.50000000  0.50000000  0.50000000  1
  As  As8  1  0.00000000  0.50000000  0.86735200  1
  As  As9  1  0.50000000  0.00000000  0.13264800  1
