# generated using pymatgen
data_DyUTe4
_symmetry_space_group_name_H-M   'P 1'
_cell_length_a   7.97758785
_cell_length_b   7.97758785
_cell_length_c   7.97758785
_cell_angle_alpha   149.47630617
_cell_angle_beta   134.83736538
_cell_angle_gamma   55.49236806
_symmetry_Int_Tables_number   1
_chemical_formula_structural   DyUTe4
_chemical_formula_sum   'Dy1 U1 Te4'
_cell_volume   181.67219799
_cell_formula_units_Z   1
loop_
 _symmetry_equiv_pos_site_id
 _symmetry_equiv_pos_as_xyz
  1  'x, y, z'
loop_
 _atom_site_type_symbol
 _atom_site_label
 _atom_site_symmetry_multiplicity
 _atom_site_fract_x
 _atom_site_fract_y
 _atom_site_fract_z
 _atom_site_occupancy
  Dy  Dy0  1  0.13843100  0.13843100  0.00000000  1
  U  U1  1  0.86311800  0.86311800  0.00000000  1
  Te  Te2  1  0.70541900  0.20541900  0.50000000  1
  Te  Te3  1  0.29686800  0.79686800  0.50000000  1
  Te  Te4  1  0.74987000  0.49808200  0.25178700  1
  Te  Te5  1  0.24629500  0.49808200  0.74821300  1
