# generated using pymatgen
data_Tm
_symmetry_space_group_name_H-M   'P 1'
_cell_length_a   8.65745401
_cell_length_b   8.65745401
_cell_length_c   8.65745361
_cell_angle_alpha   23.40264366
_cell_angle_beta   23.40264366
_cell_angle_gamma   23.40264010
_symmetry_Int_Tables_number   1
_chemical_formula_structural   Tm
_chemical_formula_sum   Tm3
_cell_volume   89.88588191
_cell_formula_units_Z   3
loop_
 _symmetry_equiv_pos_site_id
 _symmetry_equiv_pos_as_xyz
  1  'x, y, z'
loop_
 _atom_site_type_symbol
 _atom_site_label
 _atom_site_symmetry_multiplicity
 _atom_site_fract_x
 _atom_site_fract_y
 _atom_site_fract_z
 _atom_site_occupancy
  Tm  Tm0  1  0.00000000  0.00000000  0.00000000  1
  Tm  Tm1  1  0.77801000  0.77801000  0.77801000  1
  Tm  Tm2  1  0.22199000  0.22199000  0.22199000  1
