# generated using pymatgen
data_Mg149Ag
_symmetry_space_group_name_H-M   'P 1'
_cell_length_a   15.88866224
_cell_length_b   15.88866890
_cell_length_c   15.59662804
_cell_angle_alpha   90.00000000
_cell_angle_beta   90.00000000
_cell_angle_gamma   120.00001158
_symmetry_Int_Tables_number   1
_chemical_formula_structural   Mg149Ag
_chemical_formula_sum   'Mg149 Ag1'
_cell_volume   3409.85682482
_cell_formula_units_Z   1
loop_
 _symmetry_equiv_pos_site_id
 _symmetry_equiv_pos_as_xyz
  1  'x, y, z'
loop_
 _atom_site_type_symbol
 _atom_site_label
 _atom_site_symmetry_multiplicity
 _atom_site_fract_x
 _atom_site_fract_y
 _atom_site_fract_z
 _atom_site_occupancy
  Mg  Mg0  1  0.80433486  0.00099468  -0.00000000  1
  Mg  Mg1  1  0.19666082  0.00099468  -0.00000000  1
  Mg  Mg2  1  0.99900532  0.19566514  0.00000000  1
  Mg  Mg3  1  0.19666082  0.19566514  0.00000000  1
  Mg  Mg4  1  0.39882079  0.19940990  0.00000000  1
  Mg  Mg5  1  0.80058910  0.19941090  0.00000000  1
  Mg  Mg6  1  0.59986086  0.19972273  -0.00000000  1
  Mg  Mg7  1  0.19919333  0.39838766  0.00000000  1
  Mg  Mg8  1  0.00003930  0.39928052  -0.00000000  1
  Mg  Mg9  1  0.39924222  0.39928052  0.00000000  1
  Mg  Mg10  1  0.59986086  0.40013914  0.00000000  1
  Mg  Mg11  1  0.80027727  0.40013914  0.00000000  1
  Mg  Mg12  1  0.40007913  0.59992087  -0.00000000  1
  Mg  Mg13  1  0.19984073  0.59992087  -0.00000000  1
  Mg  Mg14  1  0.00003930  0.60075878  0.00000000  1
  Mg  Mg15  1  0.60071948  0.60075878  0.00000000  1
  Mg  Mg16  1  0.80058910  0.60117921  0.00000000  1
  Mg  Mg17  1  0.40007913  0.80015827  -0.00000000  1
  Mg  Mg18  1  0.60161134  0.80080567  0.00000000  1
  Mg  Mg19  1  0.19919333  0.80080567  -0.00000000  1
  Mg  Mg20  1  0.99900532  0.80334018  0.00000000  1
  Mg  Mg21  1  0.80433486  0.80334018  -0.00000000  1
  Mg  Mg22  1  0.60071948  0.99996070  0.00000000  1
  Mg  Mg23  1  0.39924222  0.99996070  0.00000000  1
  Mg  Mg24  1  0.06546793  0.13093586  0.16333147  1
  Mg  Mg25  1  0.86906414  0.93453207  0.16333147  1
  Mg  Mg26  1  0.06546793  0.93453207  0.16333147  1
  Mg  Mg27  1  0.06630858  0.33209452  0.16612277  1
  Mg  Mg28  1  0.26578594  0.33209452  0.16612277  1
  Mg  Mg29  1  0.06630858  0.73421406  0.16612277  1
  Mg  Mg30  1  0.66790548  0.73421406  0.16612277  1
  Mg  Mg31  1  0.26578594  0.93369142  0.16612277  1
  Mg  Mg32  1  0.66790548  0.93369242  0.16612277  1
  Mg  Mg33  1  0.06665198  0.53332549  0.16647811  1
  Mg  Mg34  1  0.46667451  0.53332549  0.16647811  1
  Mg  Mg35  1  0.46667451  0.93334802  0.16647811  1
  Mg  Mg36  1  0.46693814  0.13344295  0.16657586  1
  Mg  Mg37  1  0.66650381  0.13344295  0.16657586  1
  Mg  Mg38  1  0.46693814  0.33349519  0.16657586  1
  Mg  Mg39  1  0.86655705  0.33349519  0.16657586  1
  Mg  Mg40  1  0.66650381  0.53306086  0.16657586  1
  Mg  Mg41  1  0.86655705  0.53306086  0.16657586  1
  Mg  Mg42  1  0.26643519  0.53286937  0.16650930  1
  Mg  Mg43  1  0.46712963  0.73356481  0.16650930  1
  Mg  Mg44  1  0.26643519  0.73356481  0.16650930  1
  Mg  Mg45  1  0.66666700  0.33333300  0.16660635  1
  Mg  Mg46  1  0.26758717  0.13379309  0.16724545  1
  Mg  Mg47  1  0.86620691  0.13379309  0.16724545  1
  Mg  Mg48  1  0.86620691  0.73241283  0.16724545  1
  Mg  Mg49  1  0.00000000  0.00000000  0.33205680  1
  Mg  Mg50  1  0.80036698  0.99980966  0.33264870  1
  Mg  Mg51  1  0.19944168  0.99980966  0.33264870  1
  Mg  Mg52  1  0.19944168  0.19963202  0.33264870  1
  Mg  Mg53  1  0.00019034  0.19963202  0.33264870  1
  Mg  Mg54  1  0.80036698  0.80055732  0.33264870  1
  Mg  Mg55  1  0.00019034  0.80055832  0.33264870  1
  Mg  Mg56  1  0.60023562  0.00000210  0.33310307  1
  Mg  Mg57  1  0.39976748  0.00000210  0.33310307  1
  Mg  Mg58  1  0.39976748  0.39976438  0.33310307  1
  Mg  Mg59  1  -0.00000210  0.39976438  0.33310307  1
  Mg  Mg60  1  -0.00000210  0.60023352  0.33310307  1
  Mg  Mg61  1  0.60023562  0.60023352  0.33310307  1
  Mg  Mg62  1  0.19997207  0.39994214  0.33320435  1
  Mg  Mg63  1  0.60005686  0.80002893  0.33320435  1
  Mg  Mg64  1  0.19997207  0.80002893  0.33320435  1
  Mg  Mg65  1  0.59996213  0.19992526  0.33334273  1
  Mg  Mg66  1  0.59996213  0.40003787  0.33334273  1
  Mg  Mg67  1  0.80007474  0.40003787  0.33334273  1
  Mg  Mg68  1  0.39993421  0.19996660  0.33345438  1
  Mg  Mg69  1  0.80003340  0.19996760  0.33345438  1
  Mg  Mg70  1  0.80003340  0.60006579  0.33345438  1
  Mg  Mg71  1  0.40001605  0.59998395  0.33342401  1
  Mg  Mg72  1  0.19996789  0.59998395  0.33342401  1
  Mg  Mg73  1  0.40001605  0.80003211  0.33342401  1
  Mg  Mg74  1  0.06663185  0.13326371  0.50000000  1
  Mg  Mg75  1  0.26655329  0.13327664  0.50000000  1
  Mg  Mg76  1  0.86672336  0.13327664  0.50000000  1
  Mg  Mg77  1  0.46684697  0.13343048  0.50000000  1
  Mg  Mg78  1  0.66658352  0.13343048  0.50000000  1
  Mg  Mg79  1  0.06650086  0.33313001  0.50000000  1
  Mg  Mg80  1  0.26663015  0.33313101  0.50000000  1
  Mg  Mg81  1  0.66666700  0.33333300  0.50000000  1
  Mg  Mg82  1  0.46684697  0.33341648  0.50000000  1
  Mg  Mg83  1  0.86656952  0.33341648  0.50000000  1
  Mg  Mg84  1  0.66658352  0.53315203  0.50000000  1
  Mg  Mg85  1  0.86656952  0.53315203  0.50000000  1
  Mg  Mg86  1  0.06653786  0.53326843  0.50000000  1
  Mg  Mg87  1  0.46673057  0.53326843  0.50000000  1
  Mg  Mg88  1  0.26660500  0.53321000  0.50000000  1
  Mg  Mg89  1  0.06650086  0.73336985  0.50000000  1
  Mg  Mg90  1  0.66686999  0.73337085  0.50000000  1
  Mg  Mg91  1  0.26660500  0.73339500  0.50000000  1
  Mg  Mg92  1  0.46679000  0.73339500  0.50000000  1
  Mg  Mg93  1  0.86672336  0.73344671  0.50000000  1
  Mg  Mg94  1  0.06663185  0.93336815  0.50000000  1
  Mg  Mg95  1  0.86673529  0.93336815  0.50000000  1
  Mg  Mg96  1  0.46673057  0.93346114  0.50000000  1
  Mg  Mg97  1  0.26663015  0.93349914  0.50000000  1
  Mg  Mg98  1  0.66686999  0.93349914  0.50000000  1
  Mg  Mg99  1  0.40001605  0.59998395  0.66657599  1
  Mg  Mg100  1  0.19996789  0.59998395  0.66657599  1
  Mg  Mg101  1  0.40001605  0.80003211  0.66657599  1
  Mg  Mg102  1  0.39993421  0.19996660  0.66654562  1
  Mg  Mg103  1  0.80003340  0.19996760  0.66654562  1
  Mg  Mg104  1  0.80003340  0.60006579  0.66654562  1
  Mg  Mg105  1  0.59996213  0.19992526  0.66665727  1
  Mg  Mg106  1  0.59996213  0.40003787  0.66665727  1
  Mg  Mg107  1  0.80007474  0.40003787  0.66665727  1
  Mg  Mg108  1  0.19997207  0.39994214  0.66679565  1
  Mg  Mg109  1  0.60005686  0.80002893  0.66679565  1
  Mg  Mg110  1  0.19997207  0.80002893  0.66679565  1
  Mg  Mg111  1  0.60023562  0.00000210  0.66689693  1
  Mg  Mg112  1  0.39976748  0.00000210  0.66689693  1
  Mg  Mg113  1  0.39976748  0.39976438  0.66689693  1
  Mg  Mg114  1  -0.00000210  0.39976438  0.66689693  1
  Mg  Mg115  1  -0.00000210  0.60023352  0.66689693  1
  Mg  Mg116  1  0.60023562  0.60023352  0.66689693  1
  Mg  Mg117  1  0.80036698  0.99980966  0.66735130  1
  Mg  Mg118  1  0.19944168  0.99980966  0.66735130  1
  Mg  Mg119  1  0.19944168  0.19963202  0.66735130  1
  Mg  Mg120  1  0.00019034  0.19963202  0.66735130  1
  Mg  Mg121  1  0.80036698  0.80055732  0.66735130  1
  Mg  Mg122  1  0.00019034  0.80055832  0.66735130  1
  Mg  Mg123  1  0.00000000  0.00000000  0.66794220  1
  Mg  Mg124  1  0.26758717  0.13379309  0.83275455  1
  Mg  Mg125  1  0.86620691  0.13379309  0.83275455  1
  Mg  Mg126  1  0.86620691  0.73241283  0.83275455  1
  Mg  Mg127  1  0.66666700  0.33333300  0.83339365  1
  Mg  Mg128  1  0.26643519  0.53286937  0.83349070  1
  Mg  Mg129  1  0.46712963  0.73356481  0.83349070  1
  Mg  Mg130  1  0.26643519  0.73356481  0.83349070  1
  Mg  Mg131  1  0.46693814  0.13344295  0.83342414  1
  Mg  Mg132  1  0.66650381  0.13344295  0.83342414  1
  Mg  Mg133  1  0.46693814  0.33349519  0.83342414  1
  Mg  Mg134  1  0.86655705  0.33349519  0.83342414  1
  Mg  Mg135  1  0.66650381  0.53306086  0.83342414  1
  Mg  Mg136  1  0.86655705  0.53306086  0.83342414  1
  Mg  Mg137  1  0.06665198  0.53332549  0.83352189  1
  Mg  Mg138  1  0.46667451  0.53332549  0.83352189  1
  Mg  Mg139  1  0.46667451  0.93334802  0.83352189  1
  Mg  Mg140  1  0.06630858  0.33209452  0.83387723  1
  Mg  Mg141  1  0.26578594  0.33209452  0.83387723  1
  Mg  Mg142  1  0.06630858  0.73421406  0.83387723  1
  Mg  Mg143  1  0.66790548  0.73421406  0.83387723  1
  Mg  Mg144  1  0.26578594  0.93369142  0.83387723  1
  Mg  Mg145  1  0.66790548  0.93369242  0.83387723  1
  Mg  Mg146  1  0.06546793  0.13093586  0.83666753  1
  Mg  Mg147  1  0.86906414  0.93453207  0.83666753  1
  Mg  Mg148  1  0.06546793  0.93453207  0.83666753  1
  Ag  Ag149  1  0.00000000  0.00000000  0.00000000  1
