# generated using pymatgen
data_Al2Si2PbO8
_symmetry_space_group_name_H-M   'P 1'
_cell_length_a   13.25332000
_cell_length_b   8.49664800
_cell_length_c   14.51135063
_cell_angle_alpha   64.86584961
_cell_angle_beta   90.00000000
_cell_angle_gamma   90.00000000
_symmetry_Int_Tables_number   1
_chemical_formula_structural   Al2Si2PbO8
_chemical_formula_sum   'Al16 Si16 Pb8 O64'
_cell_volume   1479.38171435
_cell_formula_units_Z   8
loop_
 _symmetry_equiv_pos_site_id
 _symmetry_equiv_pos_as_xyz
  1  'x, y, z'
loop_
 _atom_site_type_symbol
 _atom_site_label
 _atom_site_symmetry_multiplicity
 _atom_site_fract_x
 _atom_site_fract_y
 _atom_site_fract_z
 _atom_site_occupancy
  Al  Al0  1  0.42726400  0.74471800  0.36697400  1
  Al  Al1  1  0.92726400  0.25528200  0.13302600  1
  Al  Al2  1  0.57273600  0.25528200  0.63302600  1
  Al  Al3  1  0.07273600  0.74471800  0.86697400  1
  Al  Al4  1  0.93105100  0.24909400  0.86680300  1
  Al  Al5  1  0.43105100  0.75090600  0.63319700  1
  Al  Al6  1  0.06894900  0.75090600  0.13319700  1
  Al  Al7  1  0.56894900  0.24909400  0.36680300  1
  Al  Al8  1  0.37087800  0.05332900  0.92029600  1
  Al  Al9  1  0.87087800  0.94667100  0.57970400  1
  Al  Al10  1  0.62912200  0.94667100  0.07970400  1
  Al  Al11  1  0.12912200  0.05332900  0.42029600  1
  Al  Al12  1  0.86849600  0.55534000  0.42175200  1
  Al  Al13  1  0.36849600  0.44466000  0.07824800  1
  Al  Al14  1  0.13150400  0.44466000  0.57824800  1
  Al  Al15  1  0.63150400  0.55534000  0.92175200  1
  Si  Si16  1  0.42354900  0.73893700  0.85952700  1
  Si  Si17  1  0.92354900  0.26106300  0.64047300  1
  Si  Si18  1  0.57645100  0.26106300  0.14047300  1
  Si  Si19  1  0.07645100  0.73893700  0.35952700  1
  Si  Si20  1  0.92535300  0.24234400  0.35931100  1
  Si  Si21  1  0.42535300  0.75765600  0.14068900  1
  Si  Si22  1  0.07464700  0.75765600  0.64068900  1
  Si  Si23  1  0.57464700  0.24234400  0.85931100  1
  Si  Si24  1  0.36217100  0.05998500  0.42466600  1
  Si  Si25  1  0.86217100  0.94001500  0.07533400  1
  Si  Si26  1  0.63782900  0.94001500  0.57533400  1
  Si  Si27  1  0.13782900  0.05998500  0.92466600  1
  Si  Si28  1  0.86497200  0.56708200  0.92452900  1
  Si  Si29  1  0.36497200  0.43291800  0.57547100  1
  Si  Si30  1  0.13502800  0.43291800  0.07547100  1
  Si  Si31  1  0.63502800  0.56708200  0.42452900  1
  Pb  Pb32  1  0.24040500  0.47673200  0.82584000  1
  Pb  Pb33  1  0.74040500  0.52326800  0.67416000  1
  Pb  Pb34  1  0.75959500  0.52326800  0.17416000  1
  Pb  Pb35  1  0.25959500  0.47673200  0.32584000  1
  Pb  Pb36  1  0.73996100  0.98614400  0.32275200  1
  Pb  Pb37  1  0.23996100  0.01385600  0.17724800  1
  Pb  Pb38  1  0.26003900  0.01385600  0.67724800  1
  Pb  Pb39  1  0.76003900  0.98614400  0.82275200  1
  O  O40  1  0.38206200  0.75345000  0.24946100  1
  O  O41  1  0.88206200  0.24655000  0.25053900  1
  O  O42  1  0.61793800  0.24655000  0.75053900  1
  O  O43  1  0.11793800  0.75345000  0.74946100  1
  O  O44  1  0.88419700  0.25880400  0.74975600  1
  O  O45  1  0.38419700  0.74119600  0.75024400  1
  O  O46  1  0.11580300  0.74119600  0.25024400  1
  O  O47  1  0.61580300  0.25880400  0.24975600  1
  O  O48  1  0.24976000  0.15335200  0.39849300  1
  O  O49  1  0.74976000  0.84664800  0.10150700  1
  O  O50  1  0.75024000  0.84664800  0.60150700  1
  O  O51  1  0.25024000  0.15335200  0.89849300  1
  O  O52  1  0.75199800  0.65812100  0.89393300  1
  O  O53  1  0.25199800  0.34187900  0.60606700  1
  O  O54  1  0.24800200  0.34187900  0.10606700  1
  O  O55  1  0.74800200  0.65812100  0.39393300  1
  O  O56  1  0.37449300  0.93130100  0.36858300  1
  O  O57  1  0.87449300  0.06869900  0.13141700  1
  O  O58  1  0.62550700  0.06869900  0.63141700  1
  O  O59  1  0.12550700  0.93130100  0.86858300  1
  O  O60  1  0.88405100  0.43661900  0.87107500  1
  O  O61  1  0.38405100  0.56338100  0.62892500  1
  O  O62  1  0.11594900  0.56338100  0.12892500  1
  O  O63  1  0.61594900  0.43661900  0.37107500  1
  O  O64  1  0.37724500  0.92103500  0.85458700  1
  O  O65  1  0.87724500  0.07896500  0.64541300  1
  O  O66  1  0.62275500  0.07896500  0.14541300  1
  O  O67  1  0.12275500  0.92103500  0.35458700  1
  O  O68  1  0.87893800  0.42081000  0.35835400  1
  O  O69  1  0.37893800  0.57919000  0.14164600  1
  O  O70  1  0.12106200  0.57919000  0.64164600  1
  O  O71  1  0.62106200  0.42081000  0.85835400  1
  O  O72  1  0.55786800  0.73229300  0.38438800  1
  O  O73  1  0.05786800  0.26770700  0.11561200  1
  O  O74  1  0.44213200  0.26770700  0.61561200  1
  O  O75  1  0.94213200  0.73229300  0.88438800  1
  O  O76  1  0.06164100  0.22619400  0.88136400  1
  O  O77  1  0.56164100  0.77380600  0.61863600  1
  O  O78  1  0.93835900  0.77380600  0.11863600  1
  O  O79  1  0.43835900  0.22619400  0.38136400  1
  O  O80  1  0.54461700  0.72668300  0.87572800  1
  O  O81  1  0.04461700  0.27331700  0.62427200  1
  O  O82  1  0.45538300  0.27331700  0.12427200  1
  O  O83  1  0.95538300  0.72668300  0.37572800  1
  O  O84  1  0.04692200  0.23114400  0.36898900  1
  O  O85  1  0.54692200  0.76885600  0.13101100  1
  O  O86  1  0.95307800  0.76885600  0.63101100  1
  O  O87  1  0.45307800  0.23114400  0.86898900  1
  O  O88  1  0.36877100  0.54472100  0.45013100  1
  O  O89  1  0.86877100  0.45527900  0.04986900  1
  O  O90  1  0.63122900  0.45527900  0.54986900  1
  O  O91  1  0.13122900  0.54472100  0.95013100  1
  O  O92  1  0.86985900  0.05344500  0.95082700  1
  O  O93  1  0.36985900  0.94655500  0.54917300  1
  O  O94  1  0.13014100  0.94655500  0.04917300  1
  O  O95  1  0.63014100  0.05344500  0.45082700  1
  O  O96  1  0.36760300  0.56497700  0.94454400  1
  O  O97  1  0.86760300  0.43502300  0.55545600  1
  O  O98  1  0.63239700  0.43502300  0.05545600  1
  O  O99  1  0.13239700  0.56497700  0.44454400  1
  O  O100  1  0.87424200  0.06574900  0.44642600  1
  O  O101  1  0.37424200  0.93425100  0.05357400  1
  O  O102  1  0.12575800  0.93425100  0.55357400  1
  O  O103  1  0.62575800  0.06574900  0.94642600  1
