# generated using pymatgen
data_CsLa2Br7
_symmetry_space_group_name_H-M   'P 1'
_cell_length_a   7.77842300
_cell_length_b   14.03941300
_cell_length_c   15.00690100
_cell_angle_alpha   90.00000000
_cell_angle_beta   90.00000000
_cell_angle_gamma   90.00000000
_symmetry_Int_Tables_number   1
_chemical_formula_structural   CsLa2Br7
_chemical_formula_sum   'Cs4 La8 Br28'
_cell_volume   1638.82101499
_cell_formula_units_Z   4
loop_
 _symmetry_equiv_pos_site_id
 _symmetry_equiv_pos_as_xyz
  1  'x, y, z'
loop_
 _atom_site_type_symbol
 _atom_site_label
 _atom_site_symmetry_multiplicity
 _atom_site_fract_x
 _atom_site_fract_y
 _atom_site_fract_z
 _atom_site_occupancy
  Cs  Cs0  1  0.25000000  0.80545000  0.04180900  1
  Cs  Cs1  1  0.75000000  0.19455000  0.95819100  1
  Cs  Cs2  1  0.75000000  0.30545000  0.45819100  1
  Cs  Cs3  1  0.25000000  0.69455000  0.54180900  1
  La  La4  1  0.25000000  0.46062200  0.23759300  1
  La  La5  1  0.75000000  0.53937800  0.76240700  1
  La  La6  1  0.75000000  0.96062200  0.26240700  1
  La  La7  1  0.25000000  0.03937800  0.73759300  1
  La  La8  1  0.25000000  0.15703300  0.25001700  1
  La  La9  1  0.75000000  0.84296700  0.74998300  1
  La  La10  1  0.75000000  0.65703300  0.24998300  1
  La  La11  1  0.25000000  0.34296700  0.75001700  1
  Br  Br12  1  0.01050400  0.30627900  0.17525600  1
  Br  Br13  1  0.98949600  0.69372100  0.82474400  1
  Br  Br14  1  0.98949600  0.80627900  0.32474400  1
  Br  Br15  1  0.51050400  0.69372100  0.82474400  1
  Br  Br16  1  0.01050400  0.19372100  0.67525600  1
  Br  Br17  1  0.48949600  0.30627900  0.17525600  1
  Br  Br18  1  0.48949600  0.19372100  0.67525600  1
  Br  Br19  1  0.51050400  0.80627900  0.32474400  1
  Br  Br20  1  0.00993100  0.57732500  0.12312200  1
  Br  Br21  1  0.99006900  0.42267500  0.87687800  1
  Br  Br22  1  0.99006900  0.07732500  0.37687800  1
  Br  Br23  1  0.50993100  0.42267500  0.87687800  1
  Br  Br24  1  0.00993100  0.92267500  0.62312200  1
  Br  Br25  1  0.49006900  0.57732500  0.12312200  1
  Br  Br26  1  0.49006900  0.92267500  0.62312200  1
  Br  Br27  1  0.50993100  0.07732500  0.37687800  1
  Br  Br28  1  0.01045200  0.03968100  0.13332900  1
  Br  Br29  1  0.98954800  0.96031900  0.86667100  1
  Br  Br30  1  0.98954800  0.53968100  0.36667100  1
  Br  Br31  1  0.51045200  0.96031900  0.86667100  1
  Br  Br32  1  0.01045200  0.46031900  0.63332900  1
  Br  Br33  1  0.48954800  0.03968100  0.13332900  1
  Br  Br34  1  0.48954800  0.46031900  0.63332900  1
  Br  Br35  1  0.51045200  0.53968100  0.36667100  1
  Br  Br36  1  0.25000000  0.31265200  0.38994000  1
  Br  Br37  1  0.75000000  0.68734800  0.61006000  1
  Br  Br38  1  0.75000000  0.81265200  0.11006000  1
  Br  Br39  1  0.25000000  0.18734800  0.88994000  1
