# generated using pymatgen
data_LuPtF7
_symmetry_space_group_name_H-M   'P 1'
_cell_length_a   5.45423500
_cell_length_b   8.78037800
_cell_length_c   11.84545602
_cell_angle_alpha   62.59018372
_cell_angle_beta   90.00000000
_cell_angle_gamma   90.00000000
_symmetry_Int_Tables_number   1
_chemical_formula_structural   LuPtF7
_chemical_formula_sum   'Lu4 Pt4 F28'
_cell_volume   503.59676750
_cell_formula_units_Z   4
loop_
 _symmetry_equiv_pos_site_id
 _symmetry_equiv_pos_as_xyz
  1  'x, y, z'
loop_
 _atom_site_type_symbol
 _atom_site_label
 _atom_site_symmetry_multiplicity
 _atom_site_fract_x
 _atom_site_fract_y
 _atom_site_fract_z
 _atom_site_occupancy
  Lu  Lu0  1  0.26339100  0.81730200  0.26277700  1
  Lu  Lu1  1  0.73660900  0.18269800  0.73722300  1
  Lu  Lu2  1  0.76339100  0.18269800  0.23722300  1
  Lu  Lu3  1  0.23660900  0.81730200  0.76277700  1
  Pt  Pt4  1  0.75919700  0.72749300  0.04186100  1
  Pt  Pt5  1  0.24080300  0.27250700  0.95813900  1
  Pt  Pt6  1  0.25919700  0.27250700  0.45813900  1
  Pt  Pt7  1  0.74080300  0.72749300  0.54186100  1
  F  F8  1  0.94180500  0.70819100  0.41117600  1
  F  F9  1  0.05819500  0.29180900  0.58882400  1
  F  F10  1  0.44180500  0.29180900  0.08882400  1
  F  F11  1  0.55819500  0.70819100  0.91117600  1
  F  F12  1  0.46174900  0.72919900  0.13559100  1
  F  F13  1  0.53825100  0.27080100  0.86440900  1
  F  F14  1  0.96174900  0.27080100  0.36440900  1
  F  F15  1  0.03825100  0.72919900  0.63559100  1
  F  F16  1  0.95499900  0.74196500  0.17690400  1
  F  F17  1  0.04500100  0.25803500  0.82309600  1
  F  F18  1  0.45499900  0.25803500  0.32309600  1
  F  F19  1  0.54500100  0.74196500  0.67690400  1
  F  F20  1  0.76829400  0.47531200  0.14096700  1
  F  F21  1  0.23170600  0.52468800  0.85903300  1
  F  F22  1  0.26829400  0.52468800  0.35903300  1
  F  F23  1  0.73170600  0.47531200  0.64096700  1
  F  F24  1  0.93702000  0.28028900  0.04574400  1
  F  F25  1  0.06298000  0.71971100  0.95425600  1
  F  F26  1  0.43702000  0.71971100  0.45425600  1
  F  F27  1  0.56298000  0.28028900  0.54574400  1
  F  F28  1  0.73818600  0.97897300  0.44659900  1
  F  F29  1  0.26181400  0.02102700  0.55340100  1
  F  F30  1  0.23818600  0.02102700  0.05340100  1
  F  F31  1  0.76181400  0.97897300  0.94659900  1
  F  F32  1  0.59013400  0.96908300  0.23188600  1
  F  F33  1  0.40986600  0.03091700  0.76811400  1
  F  F34  1  0.09013400  0.03091700  0.26811400  1
  F  F35  1  0.90986600  0.96908300  0.73188600  1
