# generated using pymatgen
data_Ba4Bi(IrO4)3
_symmetry_space_group_name_H-M   'P 1'
_cell_length_a   5.99421426
_cell_length_b   5.99421426
_cell_length_c   30.16640013
_cell_angle_alpha   86.54219265
_cell_angle_beta   86.54219265
_cell_angle_gamma   59.90962283
_symmetry_Int_Tables_number   1
_chemical_formula_structural   Ba4Bi(IrO4)3
_chemical_formula_sum   'Ba12 Bi3 Ir9 O36'
_cell_volume   935.55125198
_cell_formula_units_Z   3
loop_
 _symmetry_equiv_pos_site_id
 _symmetry_equiv_pos_as_xyz
  1  'x, y, z'
loop_
 _atom_site_type_symbol
 _atom_site_label
 _atom_site_symmetry_multiplicity
 _atom_site_fract_x
 _atom_site_fract_y
 _atom_site_fract_z
 _atom_site_occupancy
  Ba  Ba0  1  0.33182500  0.33182500  0.46072400  1
  Ba  Ba1  1  0.66817500  0.66817500  0.53927600  1
  Ba  Ba2  1  0.34548000  0.34548000  0.61980100  1
  Ba  Ba3  1  0.65452000  0.65452000  0.38019900  1
  Ba  Ba4  1  0.99597700  0.99597700  0.71703400  1
  Ba  Ba5  1  0.00402300  0.00402300  0.28296600  1
  Ba  Ba6  1  0.32637100  0.32637100  0.20307400  1
  Ba  Ba7  1  0.67362900  0.67362900  0.79692600  1
  Ba  Ba8  1  0.00547700  0.00547700  0.87177200  1
  Ba  Ba9  1  0.99452300  0.99452300  0.12822800  1
  Ba  Ba10  1  0.32165500  0.32165500  0.04947800  1
  Ba  Ba11  1  0.67834500  0.67834500  0.95052200  1
  Bi  Bi12  1  0.32878900  0.32878900  0.33216000  1
  Bi  Bi13  1  0.67121100  0.67121100  0.66784000  1
  Bi  Bi14  1  0.00000000  0.00000000  0.00000000  1
  Ir  Ir15  1  0.00000000  0.00000000  0.50000000  1
  Ir  Ir16  1  0.01800600  0.01800600  0.58568000  1
  Ir  Ir17  1  0.98199400  0.98199400  0.41432000  1
  Ir  Ir18  1  0.32251600  0.32251600  0.74903100  1
  Ir  Ir19  1  0.67748400  0.67748400  0.25096900  1
  Ir  Ir20  1  0.33704100  0.33704100  0.83385100  1
  Ir  Ir21  1  0.66295900  0.66295900  0.16614900  1
  Ir  Ir22  1  0.35156500  0.35156500  0.91885500  1
  Ir  Ir23  1  0.64843500  0.64843500  0.08114500  1
  O  O24  1  0.16113700  0.16113700  0.53464500  1
  O  O25  1  0.83886300  0.83886300  0.46535500  1
  O  O26  1  0.11877600  0.11877600  0.36507000  1
  O  O27  1  0.88122400  0.88122400  0.63493000  1
  O  O28  1  0.46202400  0.46202400  0.70099600  1
  O  O29  1  0.53797600  0.53797600  0.29900400  1
  O  O30  1  0.82322000  0.82322000  0.20104600  1
  O  O31  1  0.17678000  0.17678000  0.79895400  1
  O  O32  1  0.49765400  0.49765400  0.86865100  1
  O  O33  1  0.50234600  0.50234600  0.13134900  1
  O  O34  1  0.78801600  0.78801600  0.03289200  1
  O  O35  1  0.21198400  0.21198400  0.96710800  1
  O  O36  1  0.70029100  0.15885600  0.54607300  1
  O  O37  1  0.15885600  0.70029100  0.54607300  1
  O  O38  1  0.29970900  0.84114400  0.45392700  1
  O  O39  1  0.84114400  0.29970900  0.45392700  1
  O  O40  1  0.64918100  0.12541400  0.38331700  1
  O  O41  1  0.12541400  0.64918100  0.38331700  1
  O  O42  1  0.35081900  0.87458600  0.61668300  1
  O  O43  1  0.87458600  0.35081900  0.61668300  1
  O  O44  1  0.53157100  0.01169100  0.28123800  1
  O  O45  1  0.01169100  0.53157100  0.28123800  1
  O  O46  1  0.46842900  0.98830900  0.71876200  1
  O  O47  1  0.98830900  0.46842900  0.71876200  1
  O  O48  1  0.35940900  0.82256900  0.21111200  1
  O  O49  1  0.82256900  0.35940900  0.21111200  1
  O  O50  1  0.64059100  0.17743100  0.78888800  1
  O  O51  1  0.17743100  0.64059100  0.78888800  1
  O  O52  1  0.50413700  0.96700900  0.12101600  1
  O  O53  1  0.96700900  0.50413700  0.12101600  1
  O  O54  1  0.49586300  0.03299100  0.87898400  1
  O  O55  1  0.03299100  0.49586300  0.87898400  1
  O  O56  1  0.31451600  0.79288900  0.05118800  1
  O  O57  1  0.79288900  0.31451600  0.05118800  1
  O  O58  1  0.68548400  0.20711100  0.94881200  1
  O  O59  1  0.20711100  0.68548400  0.94881200  1
