# generated using pymatgen
data_V3As2H4O13
_symmetry_space_group_name_H-M   'P 1'
_cell_length_a   5.25134087
_cell_length_b   7.99040501
_cell_length_c   12.62003057
_cell_angle_alpha   71.55389400
_cell_angle_beta   80.66614656
_cell_angle_gamma   85.65259995
_symmetry_Int_Tables_number   1
_chemical_formula_structural   V3As2H4O13
_chemical_formula_sum   'V6 As4 H8 O26'
_cell_volume   495.51338868
_cell_formula_units_Z   2
loop_
 _symmetry_equiv_pos_site_id
 _symmetry_equiv_pos_as_xyz
  1  'x, y, z'
loop_
 _atom_site_type_symbol
 _atom_site_label
 _atom_site_symmetry_multiplicity
 _atom_site_fract_x
 _atom_site_fract_y
 _atom_site_fract_z
 _atom_site_occupancy
  V  V0  1  0.01736900  0.20849600  0.67913300  1
  V  V1  1  0.98263100  0.79150400  0.32086700  1
  V  V2  1  0.48341700  0.31527800  0.83445000  1
  V  V3  1  0.51658300  0.68472200  0.16555000  1
  V  V4  1  0.24857100  0.76904100  0.74074400  1
  V  V5  1  0.75142900  0.23095900  0.25925600  1
  As  As6  1  0.68346100  0.86714700  0.88598400  1
  As  As7  1  0.31653900  0.13285300  0.11401600  1
  As  As8  1  0.82411900  0.63471200  0.61072600  1
  As  As9  1  0.17588100  0.36528800  0.38927400  1
  H  H10  1  0.74596200  0.21375400  0.50651400  1
  H  H11  1  0.25403800  0.78624600  0.49348600  1
  H  H12  1  0.65525700  0.03876000  0.60931000  1
  H  H13  1  0.34474300  0.96124000  0.39069000  1
  H  H14  1  0.83561800  0.47653300  0.89770200  1
  H  H15  1  0.16438200  0.52346700  0.10229800  1
  H  H16  1  0.74967800  0.29682100  0.00143400  1
  H  H17  1  0.25032200  0.70317900  0.99856600  1
  O  O18  1  0.68283300  0.84529300  0.02584100  1
  O  O19  1  0.31716700  0.15470700  0.97415900  1
  O  O20  1  0.38081100  0.81885000  0.86939300  1
  O  O21  1  0.61918900  0.18115000  0.13060700  1
  O  O22  1  0.90787500  0.71999200  0.84778100  1
  O  O23  1  0.09212500  0.28000800  0.15221900  1
  O  O24  1  0.74191300  0.08889300  0.81209300  1
  O  O25  1  0.25808700  0.91110700  0.18790700  1
  O  O26  1  0.75737600  0.41516200  0.69034600  1
  O  O27  1  0.24262400  0.58483800  0.30965400  1
  O  O28  1  0.13129200  0.67394300  0.62772200  1
  O  O29  1  0.86870800  0.32605700  0.37227800  1
  O  O30  1  0.82011400  0.65286700  0.47336500  1
  O  O31  1  0.17988600  0.34713300  0.52663500  1
  O  O32  1  0.60652300  0.77890100  0.65491900  1
  O  O33  1  0.39347700  0.22109900  0.34508100  1
  O  O34  1  0.24134700  0.24742100  0.75139500  1
  O  O35  1  0.75865300  0.75257900  0.24860500  1
  O  O36  1  0.16879400  0.98353900  0.67240600  1
  O  O37  1  0.83120600  0.01646100  0.32759400  1
  O  O38  1  0.33303300  0.51221000  0.82577400  1
  O  O39  1  0.66696700  0.48779000  0.17422600  1
  O  O40  1  0.73178300  0.15494900  0.58951600  1
  O  O41  1  0.26821700  0.84505100  0.41048400  1
  O  O42  1  0.77022000  0.35575100  0.91770500  1
  O  O43  1  0.22978000  0.64424900  0.08229500  1
