# generated using pymatgen
data_Nb2PdS6
_symmetry_space_group_name_H-M   'P 1'
_cell_length_a   6.43260556
_cell_length_b   6.43260556
_cell_length_c   10.21745671
_cell_angle_alpha   63.61167178
_cell_angle_beta   63.61167178
_cell_angle_gamma   29.79696143
_symmetry_Int_Tables_number   1
_chemical_formula_structural   Nb2PdS6
_chemical_formula_sum   'Nb2 Pd1 S6'
_cell_volume   186.55429256
_cell_formula_units_Z   1
loop_
 _symmetry_equiv_pos_site_id
 _symmetry_equiv_pos_as_xyz
  1  'x, y, z'
loop_
 _atom_site_type_symbol
 _atom_site_label
 _atom_site_symmetry_multiplicity
 _atom_site_fract_x
 _atom_site_fract_y
 _atom_site_fract_z
 _atom_site_occupancy
  Nb  Nb0  1  0.31744900  0.31744900  0.29234600  1
  Nb  Nb1  1  0.68255100  0.68255100  0.70765400  1
  Pd  Pd2  1  0.00000000  0.00000000  0.00000000  1
  S  S3  1  0.01452100  0.01452100  0.76087500  1
  S  S4  1  0.98547900  0.98547900  0.23912500  1
  S  S5  1  0.33412400  0.33412400  0.53968800  1
  S  S6  1  0.66587600  0.66587600  0.46031200  1
  S  S7  1  0.78715900  0.78715900  0.12853200  1
  S  S8  1  0.21284100  0.21284100  0.87146800  1
