# generated using pymatgen
data_CeSi3Rh
_symmetry_space_group_name_H-M   'P 1'
_cell_length_a   5.73625687
_cell_length_b   5.73625687
_cell_length_c   5.73625687
_cell_angle_alpha   136.70845717
_cell_angle_beta   136.70845717
_cell_angle_gamma   62.88693035
_symmetry_Int_Tables_number   1
_chemical_formula_structural   CeSi3Rh
_chemical_formula_sum   'Ce1 Si3 Rh1'
_cell_volume   87.64233411
_cell_formula_units_Z   1
loop_
 _symmetry_equiv_pos_site_id
 _symmetry_equiv_pos_as_xyz
  1  'x, y, z'
loop_
 _atom_site_type_symbol
 _atom_site_label
 _atom_site_symmetry_multiplicity
 _atom_site_fract_x
 _atom_site_fract_y
 _atom_site_fract_z
 _atom_site_occupancy
  Ce  Ce0  1  0.99933000  0.99933000  0.00000000  1
  Si  Si1  1  0.41663800  0.41663800  0.00000000  1
  Si  Si2  1  0.26752000  0.76752000  0.50000000  1
  Si  Si3  1  0.76752000  0.26752000  0.50000000  1
  Rh  Rh4  1  0.65799200  0.65799200  0.00000000  1
