# generated using pymatgen
data_Ho5(GeSb)2
_symmetry_space_group_name_H-M   'P 1'
_cell_length_a   8.50986259
_cell_length_b   8.50986259
_cell_length_c   7.91174400
_cell_angle_alpha   90.00000000
_cell_angle_beta   90.00000000
_cell_angle_gamma   124.82550458
_symmetry_Int_Tables_number   1
_chemical_formula_structural   Ho5(GeSb)2
_chemical_formula_sum   'Ho10 Ge4 Sb4'
_cell_volume   470.33248415
_cell_formula_units_Z   2
loop_
 _symmetry_equiv_pos_site_id
 _symmetry_equiv_pos_as_xyz
  1  'x, y, z'
loop_
 _atom_site_type_symbol
 _atom_site_label
 _atom_site_symmetry_multiplicity
 _atom_site_fract_x
 _atom_site_fract_y
 _atom_site_fract_z
 _atom_site_occupancy
  Ho  Ho0  1  0.03664500  0.29264000  0.33611700  1
  Ho  Ho1  1  0.96335500  0.70736000  0.66388300  1
  Ho  Ho2  1  0.46335500  0.20736000  0.83611700  1
  Ho  Ho3  1  0.79264000  0.53664500  0.16388300  1
  Ho  Ho4  1  0.53664500  0.79264000  0.16388300  1
  Ho  Ho5  1  0.20736000  0.46335500  0.83611700  1
  Ho  Ho6  1  0.70736000  0.96335500  0.66388300  1
  Ho  Ho7  1  0.29264000  0.03664500  0.33611700  1
  Ho  Ho8  1  0.00000000  0.00000000  0.00000000  1
  Ho  Ho9  1  0.50000000  0.50000000  0.50000000  1
  Ge  Ge10  1  0.36141500  0.36141500  0.13743100  1
  Ge  Ge11  1  0.63858500  0.63858500  0.86256900  1
  Ge  Ge12  1  0.13858500  0.13858500  0.63743100  1
  Ge  Ge13  1  0.86141500  0.86141500  0.36256900  1
  Sb  Sb14  1  0.79504600  0.20495400  0.00000000  1
  Sb  Sb15  1  0.20495400  0.79504600  0.00000000  1
  Sb  Sb16  1  0.70495400  0.29504600  0.50000000  1
  Sb  Sb17  1  0.29504600  0.70495400  0.50000000  1
