# generated using pymatgen
data_Ca(BeAs)2
_symmetry_space_group_name_H-M   'P 1'
_cell_length_a   3.88939039
_cell_length_b   3.88939039
_cell_length_c   6.82427300
_cell_angle_alpha   90.00000000
_cell_angle_beta   90.00000000
_cell_angle_gamma   120.00000670
_symmetry_Int_Tables_number   1
_chemical_formula_structural   Ca(BeAs)2
_chemical_formula_sum   'Ca1 Be2 As2'
_cell_volume   89.40258351
_cell_formula_units_Z   1
loop_
 _symmetry_equiv_pos_site_id
 _symmetry_equiv_pos_as_xyz
  1  'x, y, z'
loop_
 _atom_site_type_symbol
 _atom_site_label
 _atom_site_symmetry_multiplicity
 _atom_site_fract_x
 _atom_site_fract_y
 _atom_site_fract_z
 _atom_site_occupancy
  Ca  Ca0  1  0.00000000  0.00000000  0.00000000  1
  Be  Be1  1  0.66666700  0.33333300  0.37580900  1
  Be  Be2  1  0.33333300  0.66666700  0.62419100  1
  As  As3  1  0.66666700  0.33333300  0.71867400  1
  As  As4  1  0.33333300  0.66666700  0.28132600  1
