# generated using pymatgen
data_Cs2LiMnO4
_symmetry_space_group_name_H-M   'P 1'
_cell_length_a   6.08039000
_cell_length_b   12.39209800
_cell_length_c   8.31034300
_cell_angle_alpha   90.00000000
_cell_angle_beta   90.00000000
_cell_angle_gamma   90.00000000
_symmetry_Int_Tables_number   1
_chemical_formula_structural   Cs2LiMnO4
_chemical_formula_sum   'Cs8 Li4 Mn4 O16'
_cell_volume   626.17427922
_cell_formula_units_Z   4
loop_
 _symmetry_equiv_pos_site_id
 _symmetry_equiv_pos_as_xyz
  1  'x, y, z'
loop_
 _atom_site_type_symbol
 _atom_site_label
 _atom_site_symmetry_multiplicity
 _atom_site_fract_x
 _atom_site_fract_y
 _atom_site_fract_z
 _atom_site_occupancy
  Cs  Cs0  1  0.50000000  0.10647200  0.54509800  1
  Cs  Cs1  1  0.00000000  0.60647200  0.54509800  1
  Cs  Cs2  1  0.00000000  0.39352800  0.04509800  1
  Cs  Cs3  1  0.50000000  0.89352800  0.04509800  1
  Cs  Cs4  1  0.50000000  0.42640900  0.41063200  1
  Cs  Cs5  1  0.00000000  0.92640900  0.41063200  1
  Cs  Cs6  1  0.00000000  0.07359100  0.91063200  1
  Cs  Cs7  1  0.50000000  0.57359100  0.91063200  1
  Li  Li8  1  0.50000000  0.29209300  0.82696600  1
  Li  Li9  1  0.00000000  0.79209300  0.82696600  1
  Li  Li10  1  0.00000000  0.20790700  0.32696600  1
  Li  Li11  1  0.50000000  0.70790700  0.32696600  1
  Mn  Mn12  1  0.50000000  0.80143700  0.60785800  1
  Mn  Mn13  1  0.00000000  0.69856300  0.10785800  1
  Mn  Mn14  1  0.00000000  0.30143700  0.60785800  1
  Mn  Mn15  1  0.50000000  0.19856300  0.10785800  1
  O  O16  1  0.50000000  0.13941000  0.91912100  1
  O  O17  1  0.00000000  0.63941000  0.91912100  1
  O  O18  1  0.00000000  0.36059000  0.41912100  1
  O  O19  1  0.50000000  0.86059000  0.41912100  1
  O  O20  1  0.00000000  0.16477800  0.56098300  1
  O  O21  1  0.50000000  0.66477800  0.56098300  1
  O  O22  1  0.50000000  0.33522200  0.06098300  1
  O  O23  1  0.00000000  0.83522200  0.06098300  1
  O  O24  1  0.26589600  0.16350800  0.21072100  1
  O  O25  1  0.76589600  0.66350800  0.21072100  1
  O  O26  1  0.23410400  0.33649200  0.71072100  1
  O  O27  1  0.73410400  0.83649200  0.71072100  1
  O  O28  1  0.73410400  0.16350800  0.21072100  1
  O  O29  1  0.23410400  0.66350800  0.21072100  1
  O  O30  1  0.76589600  0.33649200  0.71072100  1
  O  O31  1  0.26589600  0.83649200  0.71072100  1
