# generated using pymatgen
data_Rb2Ti(TeO4)3
_symmetry_space_group_name_H-M   'P 1'
_cell_length_a   7.23085508
_cell_length_b   7.27516287
_cell_length_c   7.23088270
_cell_angle_alpha   90.00000000
_cell_angle_beta   60.40599182
_cell_angle_gamma   120.20290077
_symmetry_Int_Tables_number   1
_chemical_formula_structural   Rb2Ti(TeO4)3
_chemical_formula_sum   'Rb2 Ti1 Te3 O12'
_cell_volume   269.78895275
_cell_formula_units_Z   1
loop_
 _symmetry_equiv_pos_site_id
 _symmetry_equiv_pos_as_xyz
  1  'x, y, z'
loop_
 _atom_site_type_symbol
 _atom_site_label
 _atom_site_symmetry_multiplicity
 _atom_site_fract_x
 _atom_site_fract_y
 _atom_site_fract_z
 _atom_site_occupancy
  Rb  Rb0  1  0.26175300  0.12819200  0.63087900  1
  Rb  Rb1  1  0.73824700  0.86643900  0.36912100  1
  Ti  Ti2  1  0.00000000  0.49733600  0.00000000  1
  Te  Te3  1  0.49999800  0.49733200  0.99999700  1
  Te  Te4  1  0.50000200  0.99733400  0.00000300  1
  Te  Te5  1  0.00000000  0.49733400  0.50000000  1
  O  O6  1  0.65184100  0.82325500  0.92936700  1
  O  O7  1  0.86881100  0.43174800  0.31932000  1
  O  O8  1  0.25373300  0.43175300  0.93439100  1
  O  O9  1  0.25527100  0.82325600  0.32591900  1
  O  O10  1  0.25373100  0.81664800  0.93440900  1
  O  O11  1  0.25527600  0.42669000  0.32591600  1
  O  O12  1  0.34815900  0.17141300  0.07063300  1
  O  O13  1  0.13118900  0.56293700  0.68068000  1
  O  O14  1  0.74626900  0.56291600  0.06559100  1
  O  O15  1  0.74472400  0.17141400  0.67408400  1
  O  O16  1  0.74626700  0.17802000  0.06560900  1
  O  O17  1  0.74472900  0.56798500  0.67408100  1
