# generated using pymatgen
data_Ba4Ru3O10
_symmetry_space_group_name_H-M   'P 1'
_cell_length_a   7.31161222
_cell_length_b   7.31161222
_cell_length_c   13.30291000
_cell_angle_alpha   90.00000000
_cell_angle_beta   90.00000000
_cell_angle_gamma   132.66703973
_symmetry_Int_Tables_number   1
_chemical_formula_structural   Ba4Ru3O10
_chemical_formula_sum   'Ba8 Ru6 O20'
_cell_volume   522.92599637
_cell_formula_units_Z   2
loop_
 _symmetry_equiv_pos_site_id
 _symmetry_equiv_pos_as_xyz
  1  'x, y, z'
loop_
 _atom_site_type_symbol
 _atom_site_label
 _atom_site_symmetry_multiplicity
 _atom_site_fract_x
 _atom_site_fract_y
 _atom_site_fract_z
 _atom_site_occupancy
  Ba  Ba0  1  0.96538600  0.03461400  0.63949400  1
  Ba  Ba1  1  0.03461400  0.96538600  0.36050600  1
  Ba  Ba2  1  0.53461400  0.46538600  0.13949400  1
  Ba  Ba3  1  0.46538600  0.53461400  0.86050600  1
  Ba  Ba4  1  0.25962800  0.74037200  0.61310000  1
  Ba  Ba5  1  0.74037200  0.25962800  0.38690000  1
  Ba  Ba6  1  0.24037200  0.75962800  0.11310000  1
  Ba  Ba7  1  0.75962800  0.24037200  0.88690000  1
  Ru  Ru8  1  0.62415100  0.37584900  0.64911300  1
  Ru  Ru9  1  0.37584900  0.62415100  0.35088700  1
  Ru  Ru10  1  0.87584900  0.12415100  0.14911300  1
  Ru  Ru11  1  0.12415100  0.87584900  0.85088700  1
  Ru  Ru12  1  0.50000000  0.50000000  0.50000000  1
  Ru  Ru13  1  0.00000000  0.00000000  0.00000000  1
  O  O14  1  0.76942700  0.23057300  0.65031500  1
  O  O15  1  0.23057300  0.76942700  0.34968500  1
  O  O16  1  0.73057300  0.26942700  0.15031500  1
  O  O17  1  0.26942700  0.73057300  0.84968500  1
  O  O18  1  0.62076200  0.84069500  0.46478500  1
  O  O19  1  0.84069500  0.62076200  0.53521500  1
  O  O20  1  0.87923800  0.65930500  0.96478500  1
  O  O21  1  0.65930500  0.87923800  0.03521500  1
  O  O22  1  0.37923800  0.15930500  0.53521500  1
  O  O23  1  0.15930500  0.37923800  0.46478500  1
  O  O24  1  0.12076200  0.34069500  0.03521500  1
  O  O25  1  0.34069500  0.12076200  0.96478500  1
  O  O26  1  0.46480800  0.53519200  0.64986100  1
  O  O27  1  0.53519200  0.46480800  0.35013900  1
  O  O28  1  0.36934600  0.13065400  0.75000000  1
  O  O29  1  0.13065400  0.36934600  0.25000000  1
  O  O30  1  0.63065400  0.86934600  0.25000000  1
  O  O31  1  0.86934600  0.63065400  0.75000000  1
  O  O32  1  0.96480800  0.03519200  0.85013900  1
  O  O33  1  0.03519200  0.96480800  0.14986100  1
