# generated using pymatgen
data_Pr3GePO9
_symmetry_space_group_name_H-M   'P 1'
_cell_length_a   12.61508300
_cell_length_b   7.13440900
_cell_length_c   9.86479018
_cell_angle_alpha   64.07152277
_cell_angle_beta   90.00000000
_cell_angle_gamma   90.00000000
_symmetry_Int_Tables_number   1
_chemical_formula_structural   Pr3GePO9
_chemical_formula_sum   'Pr12 Ge4 P4 O36'
_cell_volume   798.47284630
_cell_formula_units_Z   4
loop_
 _symmetry_equiv_pos_site_id
 _symmetry_equiv_pos_as_xyz
  1  'x, y, z'
loop_
 _atom_site_type_symbol
 _atom_site_label
 _atom_site_symmetry_multiplicity
 _atom_site_fract_x
 _atom_site_fract_y
 _atom_site_fract_z
 _atom_site_occupancy
  Pr  Pr0  1  0.39028600  0.63542700  0.37518200  1
  Pr  Pr1  1  0.89028600  0.36457300  0.12481800  1
  Pr  Pr2  1  0.60971400  0.36457300  0.62481800  1
  Pr  Pr3  1  0.10971400  0.63542700  0.87518200  1
  Pr  Pr4  1  0.12900500  0.38793300  0.35588500  1
  Pr  Pr5  1  0.62900500  0.61206700  0.14411500  1
  Pr  Pr6  1  0.87099500  0.61206700  0.64411500  1
  Pr  Pr7  1  0.37099500  0.38793300  0.85588500  1
  Pr  Pr8  1  0.36656100  0.03838600  0.62933400  1
  Pr  Pr9  1  0.86656100  0.96161400  0.87066600  1
  Pr  Pr10  1  0.63343900  0.96161400  0.37066600  1
  Pr  Pr11  1  0.13343900  0.03838600  0.12933300  1
  Ge  Ge12  1  0.60257500  0.80444500  0.73547400  1
  Ge  Ge13  1  0.10257500  0.19555500  0.76452600  1
  Ge  Ge14  1  0.39742500  0.19555500  0.26452600  1
  Ge  Ge15  1  0.89742500  0.80444500  0.23547400  1
  P  P16  1  0.33662100  0.77873200  0.02286200  1
  P  P17  1  0.83662100  0.22126800  0.47713800  1
  P  P18  1  0.66337900  0.22126800  0.97713800  1
  P  P19  1  0.16337900  0.77873200  0.52286200  1
  O  O20  1  0.17436100  0.17662700  0.61943800  1
  O  O21  1  0.67436100  0.82337300  0.88056200  1
  O  O22  1  0.82563900  0.82337300  0.38056200  1
  O  O23  1  0.32563900  0.17662700  0.11943800  1
  O  O24  1  0.42501900  0.93784900  0.41155700  1
  O  O25  1  0.92501900  0.06215100  0.08844300  1
  O  O26  1  0.57498100  0.06215100  0.58844300  1
  O  O27  1  0.07498100  0.93784900  0.91155700  1
  O  O28  1  0.42152200  0.37105400  0.62350400  1
  O  O29  1  0.92152200  0.62894600  0.87649600  1
  O  O30  1  0.57847800  0.62894600  0.37649600  1
  O  O31  1  0.07847800  0.37105400  0.12350400  1
  O  O32  1  0.32602300  0.31261000  0.36599100  1
  O  O33  1  0.82602300  0.68739000  0.13400900  1
  O  O34  1  0.67397700  0.68739000  0.63400900  1
  O  O35  1  0.17397700  0.31261000  0.86599100  1
  O  O36  1  0.34342700  0.00143400  0.89210100  1
  O  O37  1  0.84342700  0.99856600  0.60789900  1
  O  O38  1  0.65657300  0.99856600  0.10789900  1
  O  O39  1  0.15657300  0.00143400  0.39210100  1
  O  O40  1  0.05564400  0.71321600  0.60664700  1
  O  O41  1  0.55564400  0.28678400  0.89335300  1
  O  O42  1  0.94435600  0.28678400  0.39335300  1
  O  O43  1  0.44435600  0.71321600  0.10664700  1
  O  O44  1  0.25655100  0.76081600  0.15011100  1
  O  O45  1  0.75655100  0.23918400  0.34988900  1
  O  O46  1  0.74344900  0.23918400  0.84988900  1
  O  O47  1  0.24344900  0.76081600  0.65011100  1
  O  O48  1  0.29619500  0.62848400  0.95901100  1
  O  O49  1  0.79619500  0.37151600  0.54098900  1
  O  O50  1  0.70380500  0.37151600  0.04098900  1
  O  O51  1  0.20380500  0.62848400  0.45901100  1
  O  O52  1  0.02884800  0.71022600  0.27286200  1
  O  O53  1  0.52884800  0.28977400  0.22713800  1
  O  O54  1  0.97115200  0.28977400  0.72713800  1
  O  O55  1  0.47115200  0.71022600  0.77286200  1
