# generated using pymatgen
data_Nd3Ru
_symmetry_space_group_name_H-M   'P 1'
_cell_length_a   6.50855100
_cell_length_b   7.42492300
_cell_length_c   9.73727700
_cell_angle_alpha   90.00000000
_cell_angle_beta   90.00000000
_cell_angle_gamma   90.00000000
_symmetry_Int_Tables_number   1
_chemical_formula_structural   Nd3Ru
_chemical_formula_sum   'Nd12 Ru4'
_cell_volume   470.55868245
_cell_formula_units_Z   4
loop_
 _symmetry_equiv_pos_site_id
 _symmetry_equiv_pos_as_xyz
  1  'x, y, z'
loop_
 _atom_site_type_symbol
 _atom_site_label
 _atom_site_symmetry_multiplicity
 _atom_site_fract_x
 _atom_site_fract_y
 _atom_site_fract_z
 _atom_site_occupancy
  Nd  Nd0  1  0.32635500  0.67538500  0.06782800  1
  Nd  Nd1  1  0.17364500  0.17538500  0.43217200  1
  Nd  Nd2  1  0.67364500  0.32461500  0.56782800  1
  Nd  Nd3  1  0.82635500  0.82461500  0.93217200  1
  Nd  Nd4  1  0.67364500  0.32461500  0.93217200  1
  Nd  Nd5  1  0.82635500  0.82461500  0.56782800  1
  Nd  Nd6  1  0.32635500  0.67538500  0.43217200  1
  Nd  Nd7  1  0.17364500  0.17538500  0.06782800  1
  Nd  Nd8  1  0.85698200  0.53991500  0.25000000  1
  Nd  Nd9  1  0.64301800  0.03991500  0.25000000  1
  Nd  Nd10  1  0.14301800  0.46008500  0.75000000  1
  Nd  Nd11  1  0.35698200  0.96008500  0.75000000  1
  Ru  Ru12  1  0.05001600  0.88587200  0.25000000  1
  Ru  Ru13  1  0.44998400  0.38587200  0.25000000  1
  Ru  Ru14  1  0.94998400  0.11412800  0.75000000  1
  Ru  Ru15  1  0.55001600  0.61412800  0.75000000  1
