# generated using pymatgen
data_K3GdGe3(HO5)2
_symmetry_space_group_name_H-M   'P 1'
_cell_length_a   6.15561700
_cell_length_b   13.83449800
_cell_length_c   14.07244700
_cell_angle_alpha   90.00000000
_cell_angle_beta   90.00000000
_cell_angle_gamma   90.00000000
_symmetry_Int_Tables_number   1
_chemical_formula_structural   K3GdGe3(HO5)2
_chemical_formula_sum   'K12 Gd4 Ge12 H8 O40'
_cell_volume   1198.40777223
_cell_formula_units_Z   4
loop_
 _symmetry_equiv_pos_site_id
 _symmetry_equiv_pos_as_xyz
  1  'x, y, z'
loop_
 _atom_site_type_symbol
 _atom_site_label
 _atom_site_symmetry_multiplicity
 _atom_site_fract_x
 _atom_site_fract_y
 _atom_site_fract_z
 _atom_site_occupancy
  K  K0  1  0.08792500  0.63461900  0.01614800  1
  K  K1  1  0.41207500  0.13461900  0.48385200  1
  K  K2  1  0.91207500  0.36538100  0.51614800  1
  K  K3  1  0.58792500  0.86538100  0.98385200  1
  K  K4  1  0.91207500  0.36538100  0.98385200  1
  K  K5  1  0.58792500  0.86538100  0.51614800  1
  K  K6  1  0.08792500  0.63461900  0.48385200  1
  K  K7  1  0.41207500  0.13461900  0.01614800  1
  K  K8  1  0.42052500  0.63141500  0.25000000  1
  K  K9  1  0.07947600  0.13141500  0.25000000  1
  K  K10  1  0.57947600  0.36858500  0.75000000  1
  K  K11  1  0.92052400  0.86858500  0.75000000  1
  Gd  Gd12  1  0.58824200  0.95912000  0.25000000  1
  Gd  Gd13  1  0.91175800  0.45912000  0.25000000  1
  Gd  Gd14  1  0.41175800  0.04088000  0.75000000  1
  Gd  Gd15  1  0.08824200  0.54088000  0.75000000  1
  Ge  Ge16  1  0.09041500  0.90116100  0.10210700  1
  Ge  Ge17  1  0.40958500  0.40116100  0.39789300  1
  Ge  Ge18  1  0.90958500  0.09883900  0.60210700  1
  Ge  Ge19  1  0.59041500  0.59883900  0.89789300  1
  Ge  Ge20  1  0.90958500  0.09883900  0.89789300  1
  Ge  Ge21  1  0.59041500  0.59883900  0.60210700  1
  Ge  Ge22  1  0.09041500  0.90116100  0.39789300  1
  Ge  Ge23  1  0.40958500  0.40116100  0.10210700  1
  Ge  Ge24  1  0.91368300  0.74508000  0.25000000  1
  Ge  Ge25  1  0.58631700  0.24508000  0.25000000  1
  Ge  Ge26  1  0.08631700  0.25492000  0.75000000  1
  Ge  Ge27  1  0.41368300  0.75492000  0.75000000  1
  H  H28  1  0.10937200  0.92715000  0.93656000  1
  H  H29  1  0.39062800  0.42715000  0.56344000  1
  H  H30  1  0.89062800  0.07285000  0.43656000  1
  H  H31  1  0.60937200  0.57285000  0.06344000  1
  H  H32  1  0.89062800  0.07285000  0.06344000  1
  H  H33  1  0.60937200  0.57285000  0.43656000  1
  H  H34  1  0.10937200  0.92715000  0.56344000  1
  H  H35  1  0.39062800  0.42715000  0.93656000  1
  O  O36  1  0.65766100  0.79654600  0.25000000  1
  O  O37  1  0.84233900  0.29654600  0.25000000  1
  O  O38  1  0.34233900  0.20345400  0.75000000  1
  O  O39  1  0.15766100  0.70345400  0.75000000  1
  O  O40  1  0.86191000  0.97133300  0.13075000  1
  O  O41  1  0.63809000  0.47133300  0.36925000  1
  O  O42  1  0.13809000  0.02866700  0.63075000  1
  O  O43  1  0.36191000  0.52866700  0.86925000  1
  O  O44  1  0.13809000  0.02866700  0.86925000  1
  O  O45  1  0.36191000  0.52866700  0.63075000  1
  O  O46  1  0.86191000  0.97133300  0.36925000  1
  O  O47  1  0.63809000  0.47133300  0.13075000  1
  O  O48  1  0.33626700  0.95775000  0.12821000  1
  O  O49  1  0.16373300  0.45775000  0.37179000  1
  O  O50  1  0.66373300  0.04225000  0.62821000  1
  O  O51  1  0.83626700  0.54225000  0.87179000  1
  O  O52  1  0.66373300  0.04225000  0.87179000  1
  O  O53  1  0.83626700  0.54225000  0.62821000  1
  O  O54  1  0.33626700  0.95775000  0.37179000  1
  O  O55  1  0.16373300  0.45775000  0.12821000  1
  O  O56  1  0.07774700  0.77989900  0.14853800  1
  O  O57  1  0.42225300  0.27989900  0.35146200  1
  O  O58  1  0.92225300  0.22010100  0.64853800  1
  O  O59  1  0.57774700  0.72010100  0.85146200  1
  O  O60  1  0.92225300  0.22010100  0.85146200  1
  O  O61  1  0.57774700  0.72010100  0.64853800  1
  O  O62  1  0.07774700  0.77989900  0.35146200  1
  O  O63  1  0.42225300  0.27989900  0.14853800  1
  O  O64  1  0.08293200  0.86796600  0.97691100  1
  O  O65  1  0.41706800  0.36796600  0.52308900  1
  O  O66  1  0.91706800  0.13203400  0.47691100  1
  O  O67  1  0.58293200  0.63203400  0.02308900  1
  O  O68  1  0.91706800  0.13203400  0.02308900  1
  O  O69  1  0.58293200  0.63203400  0.47691100  1
  O  O70  1  0.08293200  0.86796600  0.52308900  1
  O  O71  1  0.41706800  0.36796600  0.97691100  1
  O  O72  1  0.92678300  0.62030200  0.25000000  1
  O  O73  1  0.57321700  0.12030200  0.25000000  1
  O  O74  1  0.07321700  0.37969800  0.75000000  1
  O  O75  1  0.42678300  0.87969800  0.75000000  1
