# generated using pymatgen
data_NaBiTeO5
_symmetry_space_group_name_H-M   'P 1'
_cell_length_a   6.35747429
_cell_length_b   7.39825482
_cell_length_c   9.91294600
_cell_angle_alpha   90.00000000
_cell_angle_beta   90.00000000
_cell_angle_gamma   107.29131824
_symmetry_Int_Tables_number   1
_chemical_formula_structural   NaBiTeO5
_chemical_formula_sum   'Na4 Bi4 Te4 O20'
_cell_volume   445.17596539
_cell_formula_units_Z   4
loop_
 _symmetry_equiv_pos_site_id
 _symmetry_equiv_pos_as_xyz
  1  'x, y, z'
loop_
 _atom_site_type_symbol
 _atom_site_label
 _atom_site_symmetry_multiplicity
 _atom_site_fract_x
 _atom_site_fract_y
 _atom_site_fract_z
 _atom_site_occupancy
  Na  Na0  1  0.59837000  0.23231000  0.78238700  1
  Na  Na1  1  0.90163000  0.76769000  0.28238700  1
  Na  Na2  1  0.40163000  0.76769000  0.21761300  1
  Na  Na3  1  0.09837000  0.23231000  0.71761300  1
  Bi  Bi4  1  0.54421200  0.70984700  0.86903600  1
  Bi  Bi5  1  0.95578800  0.29015300  0.36903600  1
  Bi  Bi6  1  0.45578800  0.29015300  0.13096400  1
  Bi  Bi7  1  0.04421200  0.70984700  0.63096400  1
  Te  Te8  1  0.00000000  0.00000000  0.00000000  1
  Te  Te9  1  0.50000000  0.00000000  0.50000000  1
  Te  Te10  1  0.00000000  0.50000000  0.00000000  1
  Te  Te11  1  0.50000000  0.50000000  0.50000000  1
  O  O12  1  0.69978000  0.49189700  0.94927300  1
  O  O13  1  0.80022000  0.50810300  0.44927300  1
  O  O14  1  0.30022000  0.50810300  0.05072700  1
  O  O15  1  0.19978000  0.49189700  0.55072700  1
  O  O16  1  0.11104400  0.77706800  0.04453100  1
  O  O17  1  0.38895600  0.22293200  0.54453100  1
  O  O18  1  0.88895600  0.22293200  0.95546900  1
  O  O19  1  0.61104400  0.77706800  0.45546900  1
  O  O20  1  0.89439500  0.46001900  0.18356300  1
  O  O21  1  0.60560500  0.53998100  0.68356300  1
  O  O22  1  0.10560500  0.53998100  0.81643700  1
  O  O23  1  0.39439500  0.46001900  0.31643700  1
  O  O24  1  0.10184900  0.09740900  0.17922800  1
  O  O25  1  0.39815100  0.90259100  0.67922800  1
  O  O26  1  0.89815100  0.90259100  0.82077200  1
  O  O27  1  0.60184900  0.09740900  0.32077200  1
  O  O28  1  0.28614200  0.13442600  0.93104300  1
  O  O29  1  0.21385800  0.86557400  0.43104300  1
  O  O30  1  0.71385800  0.86557400  0.06895700  1
  O  O31  1  0.78614200  0.13442600  0.56895700  1
