# generated using pymatgen
data_Li(NiGe)6
_symmetry_space_group_name_H-M   'P 1'
_cell_length_a   8.75409058
_cell_length_b   8.75409058
_cell_length_c   7.83955900
_cell_angle_alpha   90.00000000
_cell_angle_beta   90.00000000
_cell_angle_gamma   120.00000440
_symmetry_Int_Tables_number   1
_chemical_formula_structural   Li(NiGe)6
_chemical_formula_sum   'Li3 Ni18 Ge18'
_cell_volume   520.28860893
_cell_formula_units_Z   3
loop_
 _symmetry_equiv_pos_site_id
 _symmetry_equiv_pos_as_xyz
  1  'x, y, z'
loop_
 _atom_site_type_symbol
 _atom_site_label
 _atom_site_symmetry_multiplicity
 _atom_site_fract_x
 _atom_site_fract_y
 _atom_site_fract_z
 _atom_site_occupancy
  Li  Li0  1  0.33333300  0.66666700  0.00000000  1
  Li  Li1  1  0.66666700  0.33333300  0.00000000  1
  Li  Li2  1  0.00000000  0.00000000  0.50000000  1
  Ni  Ni3  1  0.16692300  0.33384600  0.24478300  1
  Ni  Ni4  1  0.83307700  0.16692300  0.24478300  1
  Ni  Ni5  1  0.33384600  0.16692300  0.24478300  1
  Ni  Ni6  1  0.66615400  0.83307700  0.24478300  1
  Ni  Ni7  1  0.16692300  0.83307700  0.24478300  1
  Ni  Ni8  1  0.83307700  0.66615400  0.75521700  1
  Ni  Ni9  1  0.83307700  0.16692300  0.75521700  1
  Ni  Ni10  1  0.83307700  0.66615400  0.24478300  1
  Ni  Ni11  1  0.33384600  0.16692300  0.75521700  1
  Ni  Ni12  1  0.66615400  0.83307700  0.75521700  1
  Ni  Ni13  1  0.16692300  0.33384600  0.75521700  1
  Ni  Ni14  1  0.16692300  0.83307700  0.75521700  1
  Ni  Ni15  1  0.50000000  0.00000000  0.26028500  1
  Ni  Ni16  1  0.50000000  0.50000000  0.26028500  1
  Ni  Ni17  1  0.00000000  0.50000000  0.26028500  1
  Ni  Ni18  1  0.50000000  0.00000000  0.73971500  1
  Ni  Ni19  1  0.50000000  0.50000000  0.73971500  1
  Ni  Ni20  1  0.00000000  0.50000000  0.73971500  1
  Ge  Ge21  1  0.34122900  0.00000000  0.00000000  1
  Ge  Ge22  1  0.34122900  0.34122900  0.00000000  1
  Ge  Ge23  1  0.00000000  0.65877100  0.00000000  1
  Ge  Ge24  1  0.00000000  0.34122900  0.00000000  1
  Ge  Ge25  1  0.65877100  0.65877100  0.00000000  1
  Ge  Ge26  1  0.65877100  0.00000000  0.00000000  1
  Ge  Ge27  1  0.32507600  0.00000000  0.50000000  1
  Ge  Ge28  1  0.32507600  0.32507600  0.50000000  1
  Ge  Ge29  1  0.00000000  0.67492400  0.50000000  1
  Ge  Ge30  1  0.00000000  0.32507600  0.50000000  1
  Ge  Ge31  1  0.67492400  0.67492400  0.50000000  1
  Ge  Ge32  1  0.67492400  0.00000000  0.50000000  1
  Ge  Ge33  1  0.33333300  0.66666700  0.33818700  1
  Ge  Ge34  1  0.66666700  0.33333300  0.33818700  1
  Ge  Ge35  1  0.66666700  0.33333300  0.66181300  1
  Ge  Ge36  1  0.33333300  0.66666700  0.66181300  1
  Ge  Ge37  1  0.00000000  0.00000000  0.16069400  1
  Ge  Ge38  1  0.00000000  0.00000000  0.83930600  1
