# generated using pymatgen
data_Ta3Se12I
_symmetry_space_group_name_H-M   'P 1'
_cell_length_a   9.71919200
_cell_length_b   9.71919200
_cell_length_c   19.36260900
_cell_angle_alpha   90.00000000
_cell_angle_beta   90.00000000
_cell_angle_gamma   90.00000000
_symmetry_Int_Tables_number   1
_chemical_formula_structural   Ta3Se12I
_chemical_formula_sum   'Ta12 Se48 I4'
_cell_volume   1829.04419222
_cell_formula_units_Z   4
loop_
 _symmetry_equiv_pos_site_id
 _symmetry_equiv_pos_as_xyz
  1  'x, y, z'
loop_
 _atom_site_type_symbol
 _atom_site_label
 _atom_site_symmetry_multiplicity
 _atom_site_fract_x
 _atom_site_fract_y
 _atom_site_fract_z
 _atom_site_occupancy
  Ta  Ta0  1  0.00000000  0.50000000  0.07916100  1
  Ta  Ta1  1  0.00000000  0.50000000  0.92083900  1
  Ta  Ta2  1  0.50000000  0.00000000  0.07916100  1
  Ta  Ta3  1  0.50000000  0.00000000  0.42083900  1
  Ta  Ta4  1  0.50000000  0.00000000  0.92083900  1
  Ta  Ta5  1  0.50000000  0.00000000  0.57916100  1
  Ta  Ta6  1  0.00000000  0.50000000  0.42083900  1
  Ta  Ta7  1  0.00000000  0.50000000  0.57916100  1
  Ta  Ta8  1  0.00000000  0.50000000  0.25000000  1
  Ta  Ta9  1  0.00000000  0.50000000  0.75000000  1
  Ta  Ta10  1  0.50000000  0.00000000  0.25000000  1
  Ta  Ta11  1  0.50000000  0.00000000  0.75000000  1
  Se  Se12  1  0.22176000  0.48073100  0.00000000  1
  Se  Se13  1  0.77824000  0.51926900  0.00000000  1
  Se  Se14  1  0.51926900  0.22176000  0.00000000  1
  Se  Se15  1  0.27824000  0.98073100  0.50000000  1
  Se  Se16  1  0.48073100  0.77824000  0.00000000  1
  Se  Se17  1  0.72176000  0.01926900  0.50000000  1
  Se  Se18  1  0.98073100  0.72176000  0.50000000  1
  Se  Se19  1  0.01926900  0.27824000  0.50000000  1
  Se  Se20  1  0.29012800  0.04853000  0.32845800  1
  Se  Se21  1  0.70987200  0.95147000  0.67154200  1
  Se  Se22  1  0.70987200  0.95147000  0.32845800  1
  Se  Se23  1  0.95147000  0.29012800  0.32845800  1
  Se  Se24  1  0.20987200  0.54853000  0.17154200  1
  Se  Se25  1  0.29012800  0.04853000  0.67154200  1
  Se  Se26  1  0.04853000  0.70987200  0.67154200  1
  Se  Se27  1  0.79012800  0.45147000  0.82845800  1
  Se  Se28  1  0.04853000  0.70987200  0.32845800  1
  Se  Se29  1  0.79012800  0.45147000  0.17154200  1
  Se  Se30  1  0.95147000  0.29012800  0.67154200  1
  Se  Se31  1  0.20987200  0.54853000  0.82845800  1
  Se  Se32  1  0.54853000  0.79012800  0.17154200  1
  Se  Se33  1  0.45147000  0.20987200  0.82845800  1
  Se  Se34  1  0.45147000  0.20987200  0.17154200  1
  Se  Se35  1  0.54853000  0.79012800  0.82845800  1
  Se  Se36  1  0.12307700  0.31592700  0.16010500  1
  Se  Se37  1  0.87692300  0.68407300  0.83989500  1
  Se  Se38  1  0.87692300  0.68407300  0.16010500  1
  Se  Se39  1  0.68407300  0.12307700  0.16010500  1
  Se  Se40  1  0.37692300  0.81592700  0.33989500  1
  Se  Se41  1  0.12307700  0.31592700  0.83989500  1
  Se  Se42  1  0.31592700  0.87692300  0.83989500  1
  Se  Se43  1  0.62307700  0.18407300  0.66010500  1
  Se  Se44  1  0.31592700  0.87692300  0.16010500  1
  Se  Se45  1  0.62307700  0.18407300  0.33989500  1
  Se  Se46  1  0.68407300  0.12307700  0.83989500  1
  Se  Se47  1  0.37692300  0.81592700  0.66010500  1
  Se  Se48  1  0.81592700  0.62307700  0.33989500  1
  Se  Se49  1  0.18407300  0.37692300  0.66010500  1
  Se  Se50  1  0.18407300  0.37692300  0.33989500  1
  Se  Se51  1  0.81592700  0.62307700  0.66010500  1
  Se  Se52  1  0.30322300  0.10585100  0.00000000  1
  Se  Se53  1  0.69677700  0.89414900  0.00000000  1
  Se  Se54  1  0.89414900  0.30322300  0.00000000  1
  Se  Se55  1  0.19677700  0.60585100  0.50000000  1
  Se  Se56  1  0.10585100  0.69677700  0.00000000  1
  Se  Se57  1  0.80322300  0.39414900  0.50000000  1
  Se  Se58  1  0.60585100  0.80322300  0.50000000  1
  Se  Se59  1  0.39414900  0.19677700  0.50000000  1
  I  I60  1  0.00000000  0.00000000  0.13019800  1
  I  I61  1  0.00000000  0.00000000  0.86980200  1
  I  I62  1  0.50000000  0.50000000  0.36980200  1
  I  I63  1  0.50000000  0.50000000  0.63019800  1
