# generated using pymatgen
data_Na2Ca4YZrSi4(O5F)3
_symmetry_space_group_name_H-M   'P 1'
_cell_length_a   7.45743400
_cell_length_b   10.38388845
_cell_length_c   11.18245382
_cell_angle_alpha   89.88432226
_cell_angle_beta   70.89567868
_cell_angle_gamma   89.70094170
_symmetry_Int_Tables_number   1
_chemical_formula_structural   Na2Ca4YZrSi4(O5F)3
_chemical_formula_sum   'Na4 Ca8 Y2 Zr2 Si8 O30 F6'
_cell_volume   818.23413236
_cell_formula_units_Z   2
loop_
 _symmetry_equiv_pos_site_id
 _symmetry_equiv_pos_as_xyz
  1  'x, y, z'
loop_
 _atom_site_type_symbol
 _atom_site_label
 _atom_site_symmetry_multiplicity
 _atom_site_fract_x
 _atom_site_fract_y
 _atom_site_fract_z
 _atom_site_occupancy
  Na  Na0  1  0.65782000  0.62546800  0.42504000  1
  Na  Na1  1  0.34218000  0.37453200  0.57496000  1
  Na  Na2  1  0.66503300  0.88109600  0.92468100  1
  Na  Na3  1  0.33496700  0.11890400  0.07531900  1
  Ca  Ca4  1  0.84032000  0.36656200  0.57502500  1
  Ca  Ca5  1  0.15968000  0.63343800  0.42497500  1
  Ca  Ca6  1  0.47442400  0.90311200  0.30323500  1
  Ca  Ca7  1  0.52557600  0.09688800  0.69676500  1
  Ca  Ca8  1  0.84577200  0.12408300  0.06864200  1
  Ca  Ca9  1  0.15422800  0.87591700  0.93135800  1
  Ca  Ca10  1  0.52436800  0.39475500  0.20098100  1
  Ca  Ca11  1  0.47563200  0.60524500  0.79901900  1
  Y  Y12  1  0.97088900  0.60128700  0.80949700  1
  Y  Y13  1  0.02911100  0.39871300  0.19050300  1
  Zr  Zr14  1  0.98074000  0.90681600  0.28911200  1
  Zr  Zr15  1  0.01926000  0.09318400  0.71088800  1
  Si  Si16  1  0.34346900  0.67978200  0.12105400  1
  Si  Si17  1  0.65653100  0.32021800  0.87894600  1
  Si  Si18  1  0.77705900  0.67984700  0.12959300  1
  Si  Si19  1  0.22294100  0.32015300  0.87040700  1
  Si  Si20  1  0.78531800  0.82907100  0.62076400  1
  Si  Si21  1  0.21468200  0.17092900  0.37923600  1
  Si  Si22  1  0.34255700  0.82700800  0.61855500  1
  Si  Si23  1  0.65744300  0.17299200  0.38144500  1
  O  O24  1  0.20816200  0.76667300  0.24083800  1
  O  O25  1  0.79183800  0.23332700  0.75916200  1
  O  O26  1  0.05497000  0.98274800  0.12039500  1
  O  O27  1  0.94503000  0.01725200  0.87960500  1
  O  O28  1  0.64170200  0.27260000  0.01907400  1
  O  O29  1  0.35829800  0.72740000  0.98092600  1
  O  O30  1  0.55787100  0.83704700  0.63077000  1
  O  O31  1  0.44212900  0.16295300  0.36923000  1
  O  O32  1  0.26694700  0.97713700  0.64159300  1
  O  O33  1  0.73305300  0.02286300  0.35840700  1
  O  O34  1  0.82854100  0.97716000  0.65450200  1
  O  O35  1  0.17145900  0.02284000  0.34549800  1
  O  O36  1  0.78569000  0.72836500  0.73325600  1
  O  O37  1  0.21431000  0.27163500  0.26674400  1
  O  O38  1  0.28736700  0.52768800  0.15125200  1
  O  O39  1  0.71263300  0.47231200  0.84874800  1
  O  O40  1  0.79280100  0.77274300  0.24441200  1
  O  O41  1  0.20719900  0.22725700  0.75558800  1
  O  O42  1  0.90458700  0.72194300  0.98638600  1
  O  O43  1  0.09541300  0.27805700  0.01361400  1
  O  O44  1  0.77325200  0.26478400  0.26155100  1
  O  O45  1  0.22674800  0.73521600  0.73844900  1
  O  O46  1  0.90983300  0.78425800  0.47774900  1
  O  O47  1  0.09016700  0.21574200  0.52225100  1
  O  O48  1  0.55132800  0.70369200  0.14253600  1
  O  O49  1  0.44867200  0.29630800  0.85746400  1
  O  O50  1  0.36091200  0.77091700  0.47990700  1
  O  O51  1  0.63908800  0.22908300  0.52009300  1
  O  O52  1  0.80500200  0.52864200  0.15901500  1
  O  O53  1  0.19499800  0.47135800  0.84098500  1
  F  F54  1  0.93807200  0.49000700  0.39002100  1
  F  F55  1  0.06192800  0.50999300  0.60997900  1
  F  F56  1  0.41589500  0.49420600  0.39051300  1
  F  F57  1  0.58410500  0.50579400  0.60948700  1
  F  F58  1  0.57793700  0.99782800  0.11474300  1
  F  F59  1  0.42206300  0.00217200  0.88525700  1
