# generated using pymatgen
data_DyAlAu
_symmetry_space_group_name_H-M   'P 1'
_cell_length_a   4.46868300
_cell_length_b   7.21289700
_cell_length_c   7.79687400
_cell_angle_alpha   90.00000000
_cell_angle_beta   90.00000000
_cell_angle_gamma   90.00000000
_symmetry_Int_Tables_number   1
_chemical_formula_structural   DyAlAu
_chemical_formula_sum   'Dy4 Al4 Au4'
_cell_volume   251.31001389
_cell_formula_units_Z   4
loop_
 _symmetry_equiv_pos_site_id
 _symmetry_equiv_pos_as_xyz
  1  'x, y, z'
loop_
 _atom_site_type_symbol
 _atom_site_label
 _atom_site_symmetry_multiplicity
 _atom_site_fract_x
 _atom_site_fract_y
 _atom_site_fract_z
 _atom_site_occupancy
  Dy  Dy0  1  0.25000000  0.00921300  0.30565200  1
  Dy  Dy1  1  0.25000000  0.50921300  0.19434800  1
  Dy  Dy2  1  0.75000000  0.99078700  0.69434800  1
  Dy  Dy3  1  0.75000000  0.49078700  0.80565200  1
  Al  Al4  1  0.25000000  0.16859100  0.92367300  1
  Al  Al5  1  0.25000000  0.66859100  0.57632700  1
  Al  Al6  1  0.75000000  0.83140900  0.07632700  1
  Al  Al7  1  0.75000000  0.33140900  0.42367300  1
  Au  Au8  1  0.25000000  0.28541700  0.59780800  1
  Au  Au9  1  0.25000000  0.78541700  0.90219200  1
  Au  Au10  1  0.75000000  0.71458300  0.40219200  1
  Au  Au11  1  0.75000000  0.21458300  0.09780800  1
