# generated using pymatgen
data_NaTlO
_symmetry_space_group_name_H-M   'P 1'
_cell_length_a   3.55515788
_cell_length_b   3.55515788
_cell_length_c   11.56271200
_cell_angle_alpha   90.00000000
_cell_angle_beta   90.00000000
_cell_angle_gamma   119.99999770
_symmetry_Int_Tables_number   1
_chemical_formula_structural   NaTlO
_chemical_formula_sum   'Na2 Tl2 O2'
_cell_volume   126.56340004
_cell_formula_units_Z   2
loop_
 _symmetry_equiv_pos_site_id
 _symmetry_equiv_pos_as_xyz
  1  'x, y, z'
loop_
 _atom_site_type_symbol
 _atom_site_label
 _atom_site_symmetry_multiplicity
 _atom_site_fract_x
 _atom_site_fract_y
 _atom_site_fract_z
 _atom_site_occupancy
  Na  Na0  1  0.33333300  0.66666700  0.39435700  1
  Na  Na1  1  0.66666700  0.33333300  0.89435700  1
  Tl  Tl2  1  0.66666700  0.33333300  0.61517400  1
  Tl  Tl3  1  0.33333300  0.66666700  0.11517400  1
  O  O4  1  0.00000000  0.00000000  0.49046900  1
  O  O5  1  0.00000000  0.00000000  0.99046900  1
