# generated using pymatgen
data_Er4CdIr
_symmetry_space_group_name_H-M   'P 1'
_cell_length_a   9.55505050
_cell_length_b   9.55505050
_cell_length_c   9.55505050
_cell_angle_alpha   60.00000000
_cell_angle_beta   60.00000000
_cell_angle_gamma   60.00000000
_symmetry_Int_Tables_number   1
_chemical_formula_structural   Er4CdIr
_chemical_formula_sum   'Er16 Cd4 Ir4'
_cell_volume   616.85623911
_cell_formula_units_Z   4
loop_
 _symmetry_equiv_pos_site_id
 _symmetry_equiv_pos_as_xyz
  1  'x, y, z'
loop_
 _atom_site_type_symbol
 _atom_site_label
 _atom_site_symmetry_multiplicity
 _atom_site_fract_x
 _atom_site_fract_y
 _atom_site_fract_z
 _atom_site_occupancy
  Er  Er0  1  0.59901400  0.59901400  0.59901400  1
  Er  Er1  1  0.59901400  0.59901400  0.20295700  1
  Er  Er2  1  0.59901400  0.20295700  0.59901400  1
  Er  Er3  1  0.20295700  0.59901400  0.59901400  1
  Er  Er4  1  0.06060500  0.43939500  0.43939500  1
  Er  Er5  1  0.43939500  0.06060500  0.06060500  1
  Er  Er6  1  0.43939500  0.06060500  0.43939500  1
  Er  Er7  1  0.06060500  0.43939500  0.06060500  1
  Er  Er8  1  0.43939500  0.43939500  0.06060500  1
  Er  Er9  1  0.06060500  0.06060500  0.43939500  1
  Er  Er10  1  0.18738800  0.81261200  0.81261200  1
  Er  Er11  1  0.81261200  0.18738800  0.18738800  1
  Er  Er12  1  0.81261200  0.18738800  0.81261200  1
  Er  Er13  1  0.18738800  0.81261200  0.18738800  1
  Er  Er14  1  0.81261200  0.81261200  0.18738800  1
  Er  Er15  1  0.18738800  0.18738800  0.81261200  1
  Cd  Cd16  1  0.83143700  0.83143700  0.83143700  1
  Cd  Cd17  1  0.83143700  0.83143700  0.50568800  1
  Cd  Cd18  1  0.83143700  0.50568800  0.83143700  1
  Cd  Cd19  1  0.50568800  0.83143700  0.83143700  1
  Ir  Ir20  1  0.39192500  0.39192500  0.39192500  1
  Ir  Ir21  1  0.39192500  0.39192500  0.82422400  1
  Ir  Ir22  1  0.39192500  0.82422400  0.39192500  1
  Ir  Ir23  1  0.82422400  0.39192500  0.39192500  1
