# generated using pymatgen
data_K2Sn(S2O7)3
_symmetry_space_group_name_H-M   'P 1'
_cell_length_a   10.11294364
_cell_length_b   10.11294364
_cell_length_c   11.06670800
_cell_angle_alpha   90.00000000
_cell_angle_beta   90.00000000
_cell_angle_gamma   119.99999767
_symmetry_Int_Tables_number   1
_chemical_formula_structural   K2Sn(S2O7)3
_chemical_formula_sum   'K4 Sn2 S12 O42'
_cell_volume   980.17645736
_cell_formula_units_Z   2
loop_
 _symmetry_equiv_pos_site_id
 _symmetry_equiv_pos_as_xyz
  1  'x, y, z'
loop_
 _atom_site_type_symbol
 _atom_site_label
 _atom_site_symmetry_multiplicity
 _atom_site_fract_x
 _atom_site_fract_y
 _atom_site_fract_z
 _atom_site_occupancy
  K  K0  1  0.33333300  0.66666700  0.94003200  1
  K  K1  1  0.66666700  0.33333300  0.05996800  1
  K  K2  1  0.66666700  0.33333300  0.63527400  1
  K  K3  1  0.33333300  0.66666700  0.36472600  1
  Sn  Sn4  1  0.00000000  0.00000000  0.74024600  1
  Sn  Sn5  1  0.00000000  0.00000000  0.25975400  1
  S  S6  1  0.33505900  0.05656900  0.84226300  1
  S  S7  1  0.94343100  0.27849000  0.84226300  1
  S  S8  1  0.72151000  0.66494100  0.84226300  1
  S  S9  1  0.66494100  0.94343100  0.15773700  1
  S  S10  1  0.05656900  0.72151000  0.15773700  1
  S  S11  1  0.27849000  0.33505900  0.15773700  1
  S  S12  1  0.16438400  0.35565800  0.64760900  1
  S  S13  1  0.64434200  0.80872600  0.64760900  1
  S  S14  1  0.19127400  0.83561600  0.64760900  1
  S  S15  1  0.83561600  0.64434200  0.35239100  1
  S  S16  1  0.35565800  0.19127400  0.35239100  1
  S  S17  1  0.80872600  0.16438400  0.35239100  1
  O  O18  1  0.12362800  0.18938800  0.63062100  1
  O  O19  1  0.81061200  0.93424000  0.63062100  1
  O  O20  1  0.06576000  0.87637200  0.63062100  1
  O  O21  1  0.87637200  0.81061200  0.36937900  1
  O  O22  1  0.18938800  0.06576000  0.36937900  1
  O  O23  1  0.93424000  0.12362800  0.36937900  1
  O  O24  1  0.18281300  0.05131200  0.85366300  1
  O  O25  1  0.94868800  0.13150100  0.85366300  1
  O  O26  1  0.86849900  0.81718700  0.85366300  1
  O  O27  1  0.81718700  0.94868800  0.14633700  1
  O  O28  1  0.05131200  0.86849900  0.14633700  1
  O  O29  1  0.13150100  0.18281300  0.14633700  1
  O  O30  1  0.33417500  0.99761100  0.70167600  1
  O  O31  1  0.00238900  0.33656400  0.70167600  1
  O  O32  1  0.66343600  0.66582500  0.70167600  1
  O  O33  1  0.66582500  0.00238900  0.29832400  1
  O  O34  1  0.99761100  0.66343600  0.29832400  1
  O  O35  1  0.33656400  0.33417500  0.29832400  1
  O  O36  1  0.46064000  0.21067000  0.83629500  1
  O  O37  1  0.78933000  0.24997000  0.83629500  1
  O  O38  1  0.75003000  0.53936000  0.83629500  1
  O  O39  1  0.53936000  0.78933000  0.16370500  1
  O  O40  1  0.21067000  0.75003000  0.16370500  1
  O  O41  1  0.24997000  0.46064000  0.16370500  1
  O  O42  1  0.17661100  0.42405200  0.53194400  1
  O  O43  1  0.57594800  0.75256000  0.53194400  1
  O  O44  1  0.24744000  0.82338900  0.53194400  1
  O  O45  1  0.82338900  0.57594800  0.46805600  1
  O  O46  1  0.42405200  0.24744000  0.46805600  1
  O  O47  1  0.75256000  0.17661100  0.46805600  1
  O  O48  1  0.34390300  0.95295300  0.92551100  1
  O  O49  1  0.04704700  0.39095000  0.92551100  1
  O  O50  1  0.60905000  0.65609700  0.92551100  1
  O  O51  1  0.65609700  0.04704700  0.07448900  1
  O  O52  1  0.95295300  0.60905000  0.07448900  1
  O  O53  1  0.39095000  0.34390300  0.07448900  1
  O  O54  1  0.28139100  0.43375400  0.73671600  1
  O  O55  1  0.56624600  0.84763600  0.73671600  1
  O  O56  1  0.15236400  0.71860900  0.73671600  1
  O  O57  1  0.71860900  0.56624600  0.26328400  1
  O  O58  1  0.43375400  0.15236400  0.26328400  1
  O  O59  1  0.84763600  0.28139100  0.26328400  1
