# generated using pymatgen
data_HfCoSi
_symmetry_space_group_name_H-M   'P 1'
_cell_length_a   3.82711300
_cell_length_b   6.38344800
_cell_length_c   7.09872900
_cell_angle_alpha   90.00000000
_cell_angle_beta   90.00000000
_cell_angle_gamma   90.00000000
_symmetry_Int_Tables_number   1
_chemical_formula_structural   HfCoSi
_chemical_formula_sum   'Hf4 Co4 Si4'
_cell_volume   173.42320471
_cell_formula_units_Z   4
loop_
 _symmetry_equiv_pos_site_id
 _symmetry_equiv_pos_as_xyz
  1  'x, y, z'
loop_
 _atom_site_type_symbol
 _atom_site_label
 _atom_site_symmetry_multiplicity
 _atom_site_fract_x
 _atom_site_fract_y
 _atom_site_fract_z
 _atom_site_occupancy
  Hf  Hf0  1  0.25000000  0.01087400  0.30937500  1
  Hf  Hf1  1  0.25000000  0.51087400  0.19062500  1
  Hf  Hf2  1  0.75000000  0.98912600  0.69062500  1
  Hf  Hf3  1  0.75000000  0.48912600  0.80937500  1
  Co  Co4  1  0.25000000  0.14665000  0.93387900  1
  Co  Co5  1  0.25000000  0.64665000  0.56612100  1
  Co  Co6  1  0.75000000  0.85335000  0.06612100  1
  Co  Co7  1  0.75000000  0.35335000  0.43387900  1
  Si  Si8  1  0.25000000  0.28084700  0.60944500  1
  Si  Si9  1  0.25000000  0.78084700  0.89055500  1
  Si  Si10  1  0.75000000  0.71915300  0.39055500  1
  Si  Si11  1  0.75000000  0.21915300  0.10944500  1
