# generated using pymatgen
data_V3GeN
_symmetry_space_group_name_H-M   'P 1'
_cell_length_a   5.30173432
_cell_length_b   5.30173432
_cell_length_c   7.73047400
_cell_angle_alpha   90.00000000
_cell_angle_beta   90.00000000
_cell_angle_gamma   146.58876504
_symmetry_Int_Tables_number   1
_chemical_formula_structural   V3GeN
_chemical_formula_sum   'V6 Ge2 N2'
_cell_volume   119.65016383
_cell_formula_units_Z   2
loop_
 _symmetry_equiv_pos_site_id
 _symmetry_equiv_pos_as_xyz
  1  'x, y, z'
loop_
 _atom_site_type_symbol
 _atom_site_label
 _atom_site_symmetry_multiplicity
 _atom_site_fract_x
 _atom_site_fract_y
 _atom_site_fract_z
 _atom_site_occupancy
  V  V0  1  0.96035700  0.03964300  0.25000000  1
  V  V1  1  0.03964300  0.96035700  0.75000000  1
  V  V2  1  0.62557400  0.37442600  0.45469400  1
  V  V3  1  0.37442600  0.62557400  0.54530600  1
  V  V4  1  0.62557400  0.37442600  0.04530600  1
  V  V5  1  0.37442600  0.62557400  0.95469400  1
  Ge  Ge6  1  0.25641600  0.74358400  0.25000000  1
  Ge  Ge7  1  0.74358400  0.25641600  0.75000000  1
  N  N8  1  0.00000000  0.00000000  0.50000000  1
  N  N9  1  0.00000000  0.00000000  0.00000000  1
