# generated using pymatgen
data_Cs3Ge2Sb3O13
_symmetry_space_group_name_H-M   'P 1'
_cell_length_a   7.41834812
_cell_length_b   7.41834812
_cell_length_c   16.90095300
_cell_angle_alpha   90.00000000
_cell_angle_beta   90.00000000
_cell_angle_gamma   119.94694758
_symmetry_Int_Tables_number   1
_chemical_formula_structural   Cs3Ge2Sb3O13
_chemical_formula_sum   'Cs6 Ge4 Sb6 O26'
_cell_volume   805.91300957
_cell_formula_units_Z   2
loop_
 _symmetry_equiv_pos_site_id
 _symmetry_equiv_pos_as_xyz
  1  'x, y, z'
loop_
 _atom_site_type_symbol
 _atom_site_label
 _atom_site_symmetry_multiplicity
 _atom_site_fract_x
 _atom_site_fract_y
 _atom_site_fract_z
 _atom_site_occupancy
  Cs  Cs0  1  0.00681000  0.99319000  0.88688900  1
  Cs  Cs1  1  0.99319000  0.00681000  0.11311100  1
  Cs  Cs2  1  0.99319000  0.00681000  0.38688900  1
  Cs  Cs3  1  0.00681000  0.99319000  0.61311100  1
  Cs  Cs4  1  0.66884400  0.33115600  0.75000000  1
  Cs  Cs5  1  0.33115600  0.66884400  0.25000000  1
  Ge  Ge6  1  0.33328800  0.66671200  0.85317000  1
  Ge  Ge7  1  0.66671200  0.33328800  0.14683000  1
  Ge  Ge8  1  0.66671200  0.33328800  0.35317000  1
  Ge  Ge9  1  0.33328800  0.66671200  0.64683000  1
  Sb  Sb10  1  0.50000000  0.50000000  0.00000000  1
  Sb  Sb11  1  0.50000000  0.00000000  0.00000000  1
  Sb  Sb12  1  0.00000000  0.50000000  0.00000000  1
  Sb  Sb13  1  0.50000000  0.50000000  0.50000000  1
  Sb  Sb14  1  0.50000000  0.00000000  0.50000000  1
  Sb  Sb15  1  0.00000000  0.50000000  0.50000000  1
  O  O16  1  0.46646700  0.53353300  0.88091800  1
  O  O17  1  0.46541300  0.93248400  0.88160900  1
  O  O18  1  0.06751600  0.53458700  0.88160900  1
  O  O19  1  0.53353300  0.46646700  0.11908200  1
  O  O20  1  0.53458700  0.06751600  0.11839100  1
  O  O21  1  0.93248400  0.46541300  0.11839100  1
  O  O22  1  0.53353300  0.46646700  0.38091800  1
  O  O23  1  0.53458700  0.06751600  0.38160900  1
  O  O24  1  0.93248400  0.46541300  0.38160900  1
  O  O25  1  0.46646700  0.53353300  0.61908200  1
  O  O26  1  0.46541300  0.93248400  0.61839100  1
  O  O27  1  0.06751600  0.53458700  0.61839100  1
  O  O28  1  0.32845200  0.67154800  0.75000000  1
  O  O29  1  0.67154800  0.32845200  0.25000000  1
  O  O30  1  0.20063500  0.79936500  0.02164800  1
  O  O31  1  0.20185300  0.40312400  0.02140500  1
  O  O32  1  0.59687600  0.79814700  0.02140500  1
  O  O33  1  0.79936500  0.20063500  0.97835200  1
  O  O34  1  0.79814700  0.59687600  0.97859500  1
  O  O35  1  0.40312400  0.20185300  0.97859500  1
  O  O36  1  0.79936500  0.20063500  0.52164800  1
  O  O37  1  0.79814700  0.59687600  0.52140500  1
  O  O38  1  0.40312400  0.20185300  0.52140500  1
  O  O39  1  0.20063500  0.79936500  0.47835200  1
  O  O40  1  0.20185300  0.40312400  0.47859500  1
  O  O41  1  0.59687600  0.79814700  0.47859500  1
