# generated using pymatgen
data_Hf10MnSb5
_symmetry_space_group_name_H-M   'P 1'
_cell_length_a   5.55511600
_cell_length_b   8.30154363
_cell_length_c   8.30154363
_cell_angle_alpha   96.42750123
_cell_angle_beta   109.54719431
_cell_angle_gamma   70.45280569
_symmetry_Int_Tables_number   1
_chemical_formula_structural   Hf10MnSb5
_chemical_formula_sum   'Hf10 Mn1 Sb5'
_cell_volume   339.97756427
_cell_formula_units_Z   1
loop_
 _symmetry_equiv_pos_site_id
 _symmetry_equiv_pos_as_xyz
  1  'x, y, z'
loop_
 _atom_site_type_symbol
 _atom_site_label
 _atom_site_symmetry_multiplicity
 _atom_site_fract_x
 _atom_site_fract_y
 _atom_site_fract_z
 _atom_site_occupancy
  Hf  Hf0  1  0.93582900  0.86121900  0.71007600  1
  Hf  Hf1  1  0.08697200  0.13878100  0.28992400  1
  Hf  Hf2  1  0.41302800  0.28992400  0.13878100  1
  Hf  Hf3  1  0.56417100  0.71007600  0.86121900  1
  Hf  Hf4  1  0.22575300  0.71007600  0.13878100  1
  Hf  Hf5  1  0.79704800  0.28992400  0.86121900  1
  Hf  Hf6  1  0.27424700  0.13878100  0.71007600  1
  Hf  Hf7  1  0.70295200  0.86121900  0.28992400  1
  Hf  Hf8  1  0.25000000  0.50000000  0.50000000  1
  Hf  Hf9  1  0.75000000  0.50000000  0.50000000  1
  Mn  Mn10  1  0.25000000  0.00000000  0.00000000  1
  Sb  Sb11  1  0.33587400  0.82825200  0.50000000  1
  Sb  Sb12  1  0.66412600  0.17174800  0.50000000  1
  Sb  Sb13  1  0.83587400  0.50000000  0.17174800  1
  Sb  Sb14  1  0.16412600  0.50000000  0.82825200  1
  Sb  Sb15  1  0.75000000  0.00000000  0.00000000  1
