# generated using pymatgen
data_DyGaCu
_symmetry_space_group_name_H-M   'P 1'
_cell_length_a   4.37501700
_cell_length_b   5.46205977
_cell_length_c   5.70115717
_cell_angle_alpha   95.78141250
_cell_angle_beta   112.56277535
_cell_angle_gamma   66.39109773
_symmetry_Int_Tables_number   1
_chemical_formula_structural   DyGaCu
_chemical_formula_sum   'Dy2 Ga2 Cu2'
_cell_volume   115.05451109
_cell_formula_units_Z   2
loop_
 _symmetry_equiv_pos_site_id
 _symmetry_equiv_pos_as_xyz
  1  'x, y, z'
loop_
 _atom_site_type_symbol
 _atom_site_label
 _atom_site_symmetry_multiplicity
 _atom_site_fract_x
 _atom_site_fract_y
 _atom_site_fract_z
 _atom_site_occupancy
  Dy  Dy0  1  0.74270900  0.71934000  0.20475900  1
  Dy  Dy1  1  0.25729100  0.28066000  0.79524100  1
  Ga  Ga2  1  0.55205100  0.28052300  0.38462500  1
  Ga  Ga3  1  0.44794900  0.71947700  0.61537500  1
  Cu  Cu4  1  0.04797300  0.11765900  0.21360500  1
  Cu  Cu5  1  0.95202700  0.88234100  0.78639500  1
