# generated using pymatgen
data_Pr11Cd45
_symmetry_space_group_name_H-M   'P 1'
_cell_length_a   15.65775113
_cell_length_b   15.65775113
_cell_length_c   15.65775113
_cell_angle_alpha   60.00000000
_cell_angle_beta   60.00000000
_cell_angle_gamma   60.00000000
_symmetry_Int_Tables_number   1
_chemical_formula_structural   Pr11Cd45
_chemical_formula_sum   'Pr22 Cd90'
_cell_volume   2714.39570693
_cell_formula_units_Z   2
loop_
 _symmetry_equiv_pos_site_id
 _symmetry_equiv_pos_as_xyz
  1  'x, y, z'
loop_
 _atom_site_type_symbol
 _atom_site_label
 _atom_site_symmetry_multiplicity
 _atom_site_fract_x
 _atom_site_fract_y
 _atom_site_fract_z
 _atom_site_occupancy
  Pr  Pr0  1  0.00000000  0.00000000  0.00000000  1
  Pr  Pr1  1  0.01320900  0.33281400  0.64076800  1
  Pr  Pr2  1  0.01320900  0.01320900  0.64076800  1
  Pr  Pr3  1  0.33281400  0.01320900  0.64076800  1
  Pr  Pr4  1  0.01320900  0.64076800  0.33281400  1
  Pr  Pr5  1  0.33281400  0.64076800  0.01320900  1
  Pr  Pr6  1  0.01320900  0.64076800  0.01320900  1
  Pr  Pr7  1  0.64076800  0.01320900  0.01320900  1
  Pr  Pr8  1  0.64076800  0.33281400  0.01320900  1
  Pr  Pr9  1  0.64076800  0.01320900  0.33281400  1
  Pr  Pr10  1  0.33281400  0.01320900  0.01320900  1
  Pr  Pr11  1  0.01320900  0.01320900  0.33281400  1
  Pr  Pr12  1  0.01320900  0.33281400  0.01320900  1
  Pr  Pr13  1  0.25000000  0.25000000  0.25000000  1
  Pr  Pr14  1  0.40646400  0.40646400  0.78060700  1
  Pr  Pr15  1  0.40646400  0.78060700  0.40646400  1
  Pr  Pr16  1  0.78060700  0.40646400  0.40646400  1
  Pr  Pr17  1  0.40646400  0.40646400  0.40646400  1
  Pr  Pr18  1  0.66338600  0.66338600  0.00984300  1
  Pr  Pr19  1  0.66338600  0.00984300  0.66338600  1
  Pr  Pr20  1  0.00984300  0.66338600  0.66338600  1
  Pr  Pr21  1  0.66338600  0.66338600  0.66338600  1
  Cd  Cd22  1  0.08364800  0.08364800  0.74905500  1
  Cd  Cd23  1  0.08364800  0.74905500  0.08364800  1
  Cd  Cd24  1  0.74905500  0.08364800  0.08364800  1
  Cd  Cd25  1  0.08364800  0.08364800  0.08364800  1
  Cd  Cd26  1  0.91270800  0.91270800  0.26187700  1
  Cd  Cd27  1  0.91270800  0.26187700  0.91270800  1
  Cd  Cd28  1  0.26187700  0.91270800  0.91270800  1
  Cd  Cd29  1  0.91270800  0.91270800  0.91270800  1
  Cd  Cd30  1  0.15475300  0.15475300  0.84524700  1
  Cd  Cd31  1  0.84524700  0.15475300  0.84524700  1
  Cd  Cd32  1  0.15475300  0.84524700  0.84524700  1
  Cd  Cd33  1  0.84524700  0.84524700  0.15475300  1
  Cd  Cd34  1  0.15475300  0.84524700  0.15475300  1
  Cd  Cd35  1  0.84524700  0.15475300  0.15475300  1
  Cd  Cd36  1  0.39080400  0.20069200  0.01770100  1
  Cd  Cd37  1  0.39080400  0.39080400  0.01770100  1
  Cd  Cd38  1  0.20069200  0.39080400  0.01770100  1
  Cd  Cd39  1  0.39080400  0.01770100  0.20069200  1
  Cd  Cd40  1  0.20069200  0.01770100  0.39080400  1
  Cd  Cd41  1  0.39080400  0.01770100  0.39080400  1
  Cd  Cd42  1  0.01770100  0.39080400  0.39080400  1
  Cd  Cd43  1  0.01770100  0.20069100  0.39080400  1
  Cd  Cd44  1  0.01770100  0.39080400  0.20069100  1
  Cd  Cd45  1  0.20069200  0.39080400  0.39080400  1
  Cd  Cd46  1  0.39080400  0.39080400  0.20069200  1
  Cd  Cd47  1  0.39080400  0.20069100  0.39080400  1
  Cd  Cd48  1  0.16334300  0.16334300  0.50997100  1
  Cd  Cd49  1  0.16334300  0.50997100  0.16334300  1
  Cd  Cd50  1  0.50997100  0.16334300  0.16334300  1
  Cd  Cd51  1  0.16334300  0.16334300  0.16334300  1
  Cd  Cd52  1  0.26286300  0.61417100  0.86010200  1
  Cd  Cd53  1  0.26286300  0.26286300  0.86010200  1
  Cd  Cd54  1  0.61417100  0.26286300  0.86010200  1
  Cd  Cd55  1  0.26286300  0.86010200  0.61417100  1
  Cd  Cd56  1  0.61417100  0.86010200  0.26286300  1
  Cd  Cd57  1  0.26286300  0.86010200  0.26286300  1
  Cd  Cd58  1  0.86010200  0.26286300  0.26286300  1
  Cd  Cd59  1  0.86010200  0.61417100  0.26286300  1
  Cd  Cd60  1  0.86010200  0.26286300  0.61417100  1
  Cd  Cd61  1  0.61417100  0.26286300  0.26286300  1
  Cd  Cd62  1  0.26286300  0.26286300  0.61417100  1
  Cd  Cd63  1  0.26286300  0.61417100  0.26286300  1
  Cd  Cd64  1  0.50000000  0.50000000  0.50000000  1
  Cd  Cd65  1  0.64107500  0.45014600  0.26770400  1
  Cd  Cd66  1  0.64107500  0.64107500  0.26770400  1
  Cd  Cd67  1  0.45014600  0.64107500  0.26770400  1
  Cd  Cd68  1  0.64107500  0.26770400  0.45014600  1
  Cd  Cd69  1  0.45014600  0.26770400  0.64107500  1
  Cd  Cd70  1  0.64107500  0.26770400  0.64107500  1
  Cd  Cd71  1  0.26770400  0.64107500  0.64107500  1
  Cd  Cd72  1  0.26770400  0.45014600  0.64107500  1
  Cd  Cd73  1  0.26770400  0.64107500  0.45014600  1
  Cd  Cd74  1  0.45014600  0.64107500  0.64107500  1
  Cd  Cd75  1  0.64107500  0.64107500  0.45014600  1
  Cd  Cd76  1  0.64107500  0.45014600  0.64107500  1
  Cd  Cd77  1  0.51251400  0.83338400  0.14158700  1
  Cd  Cd78  1  0.51251400  0.51251400  0.14158700  1
  Cd  Cd79  1  0.83338400  0.51251400  0.14158700  1
  Cd  Cd80  1  0.51251400  0.14158700  0.83338400  1
  Cd  Cd81  1  0.83338400  0.14158700  0.51251400  1
  Cd  Cd82  1  0.51251400  0.14158700  0.51251400  1
  Cd  Cd83  1  0.14158700  0.51251400  0.51251400  1
  Cd  Cd84  1  0.14158700  0.83338400  0.51251400  1
  Cd  Cd85  1  0.14158700  0.51251400  0.83338400  1
  Cd  Cd86  1  0.83338400  0.51251400  0.51251400  1
  Cd  Cd87  1  0.51251400  0.51251400  0.83338400  1
  Cd  Cd88  1  0.51251400  0.83338400  0.51251400  1
  Cd  Cd89  1  0.75000000  0.75000000  0.75000000  1
  Cd  Cd90  1  0.82996300  0.82996300  0.51011100  1
  Cd  Cd91  1  0.82996300  0.51011100  0.82996300  1
  Cd  Cd92  1  0.51011100  0.82996300  0.82996300  1
  Cd  Cd93  1  0.82996300  0.82996300  0.82996300  1
  Cd  Cd94  1  0.91271600  0.91271600  0.58728400  1
  Cd  Cd95  1  0.58728400  0.91271600  0.58728400  1
  Cd  Cd96  1  0.91271600  0.58728400  0.58728400  1
  Cd  Cd97  1  0.58728400  0.58728400  0.91271600  1
  Cd  Cd98  1  0.91271600  0.58728400  0.91271600  1
  Cd  Cd99  1  0.58728400  0.91271600  0.91271600  1
  Cd  Cd100  1  0.76355600  0.06967100  0.40321600  1
  Cd  Cd101  1  0.76355600  0.76355600  0.40321600  1
  Cd  Cd102  1  0.06967100  0.76355600  0.40321600  1
  Cd  Cd103  1  0.76355600  0.40321600  0.06967100  1
  Cd  Cd104  1  0.06967100  0.40321600  0.76355600  1
  Cd  Cd105  1  0.76355600  0.40321600  0.76355600  1
  Cd  Cd106  1  0.40321600  0.76355600  0.76355600  1
  Cd  Cd107  1  0.40321600  0.06967100  0.76355600  1
  Cd  Cd108  1  0.40321600  0.76355600  0.06967100  1
  Cd  Cd109  1  0.06967100  0.76355600  0.76355600  1
  Cd  Cd110  1  0.76355600  0.76355600  0.06967100  1
  Cd  Cd111  1  0.76355600  0.06967100  0.76355600  1
