# generated using pymatgen
data_K2S5
_symmetry_space_group_name_H-M   'P 1'
_cell_length_a   6.60004900
_cell_length_b   6.61862100
_cell_length_c   18.71872600
_cell_angle_alpha   90.00000000
_cell_angle_beta   90.00000000
_cell_angle_gamma   90.00000000
_symmetry_Int_Tables_number   1
_chemical_formula_structural   K2S5
_chemical_formula_sum   'K8 S20'
_cell_volume   817.69428049
_cell_formula_units_Z   4
loop_
 _symmetry_equiv_pos_site_id
 _symmetry_equiv_pos_as_xyz
  1  'x, y, z'
loop_
 _atom_site_type_symbol
 _atom_site_label
 _atom_site_symmetry_multiplicity
 _atom_site_fract_x
 _atom_site_fract_y
 _atom_site_fract_z
 _atom_site_occupancy
  K  K0  1  0.55803800  0.15964700  0.57170200  1
  K  K1  1  0.44196200  0.65964700  0.92829800  1
  K  K2  1  0.05803800  0.34035300  0.42829800  1
  K  K3  1  0.94196200  0.84035300  0.07170200  1
  K  K4  1  0.67413100  0.59926700  0.25980700  1
  K  K5  1  0.32586900  0.09926700  0.24019300  1
  K  K6  1  0.17413100  0.90073300  0.74019300  1
  K  K7  1  0.82586900  0.40073300  0.75980700  1
  S  S8  1  0.56333900  0.29334100  0.40068600  1
  S  S9  1  0.43666100  0.79334100  0.09931400  1
  S  S10  1  0.06333900  0.20665900  0.59931400  1
  S  S11  1  0.93666100  0.70665900  0.90068600  1
  S  S12  1  0.64276600  0.99599600  0.38251700  1
  S  S13  1  0.35723400  0.49599600  0.11748300  1
  S  S14  1  0.14276600  0.50400400  0.61748300  1
  S  S15  1  0.85723400  0.00400400  0.88251700  1
  S  S16  1  0.33488700  0.34594500  0.79333700  1
  S  S17  1  0.66511300  0.84594500  0.70666300  1
  S  S18  1  0.83488700  0.15405500  0.20666300  1
  S  S19  1  0.16511300  0.65405500  0.29333700  1
  S  S20  1  0.33837300  0.18236400  0.88682800  1
  S  S21  1  0.66162700  0.68236400  0.61317200  1
  S  S22  1  0.83837300  0.31763600  0.11317200  1
  S  S23  1  0.16162700  0.81763600  0.38682800  1
  S  S24  1  0.05572900  0.19435000  0.93693700  1
  S  S25  1  0.94427100  0.69435000  0.56306300  1
  S  S26  1  0.55572900  0.30565000  0.06306300  1
  S  S27  1  0.44427100  0.80565000  0.43693700  1
