# generated using pymatgen
data_Ag4TeSO4
_symmetry_space_group_name_H-M   'P 1'
_cell_length_a   8.97301700
_cell_length_b   8.97301700
_cell_length_c   8.97301700
_cell_angle_alpha   90.00000000
_cell_angle_beta   90.00000000
_cell_angle_gamma   90.00000000
_symmetry_Int_Tables_number   1
_chemical_formula_structural   Ag4TeSO4
_chemical_formula_sum   'Ag16 Te4 S4 O16'
_cell_volume   722.46276958
_cell_formula_units_Z   4
loop_
 _symmetry_equiv_pos_site_id
 _symmetry_equiv_pos_as_xyz
  1  'x, y, z'
loop_
 _atom_site_type_symbol
 _atom_site_label
 _atom_site_symmetry_multiplicity
 _atom_site_fract_x
 _atom_site_fract_y
 _atom_site_fract_z
 _atom_site_occupancy
  Ag  Ag0  1  0.49995400  0.99995400  0.50004600  1
  Ag  Ag1  1  0.99995400  0.50004600  0.49995400  1
  Ag  Ag2  1  0.50004600  0.49995400  0.99995400  1
  Ag  Ag3  1  0.00004600  0.00004600  0.00004600  1
  Ag  Ag4  1  0.20542300  0.99047000  0.61264400  1
  Ag  Ag5  1  0.38735600  0.70542300  0.50953000  1
  Ag  Ag6  1  0.49047000  0.88735600  0.79457700  1
  Ag  Ag7  1  0.70542300  0.50953000  0.38735600  1
  Ag  Ag8  1  0.88735600  0.79457700  0.49047000  1
  Ag  Ag9  1  0.99047000  0.61264400  0.20542300  1
  Ag  Ag10  1  0.79457700  0.49047000  0.88735600  1
  Ag  Ag11  1  0.61264400  0.20542300  0.99047000  1
  Ag  Ag12  1  0.50953000  0.38735600  0.70542300  1
  Ag  Ag13  1  0.29457700  0.00953000  0.11264400  1
  Ag  Ag14  1  0.11264400  0.29457700  0.00953000  1
  Ag  Ag15  1  0.00953000  0.11264400  0.29457700  1
  Te  Te16  1  0.84412400  0.34412400  0.15587600  1
  Te  Te17  1  0.34412400  0.15587600  0.84412400  1
  Te  Te18  1  0.15587600  0.84412400  0.34412400  1
  Te  Te19  1  0.65587600  0.65587600  0.65587600  1
  S  S20  1  0.14319200  0.64319200  0.85680800  1
  S  S21  1  0.64319200  0.85680800  0.14319200  1
  S  S22  1  0.85680800  0.14319200  0.64319200  1
  S  S23  1  0.35680800  0.35680800  0.35680800  1
  O  O24  1  0.06969400  0.73644700  0.97522400  1
  O  O25  1  0.02477600  0.56969400  0.76355300  1
  O  O26  1  0.23644700  0.52477600  0.93030600  1
  O  O27  1  0.56969400  0.76355300  0.02477600  1
  O  O28  1  0.52477600  0.93030600  0.23644700  1
  O  O29  1  0.73644700  0.97522400  0.06969400  1
  O  O30  1  0.93030600  0.23644700  0.52477600  1
  O  O31  1  0.97522400  0.06969400  0.73644700  1
  O  O32  1  0.76355300  0.02477600  0.56969400  1
  O  O33  1  0.43030600  0.26355300  0.47522400  1
  O  O34  1  0.47522400  0.43030600  0.26355300  1
  O  O35  1  0.26355300  0.47522400  0.43030600  1
  O  O36  1  0.23882800  0.73882800  0.76117200  1
  O  O37  1  0.73882800  0.76117200  0.23882800  1
  O  O38  1  0.76117200  0.23882800  0.73882800  1
  O  O39  1  0.26117200  0.26117200  0.26117200  1
