# generated using pymatgen
data_La(BC)2
_symmetry_space_group_name_H-M   'P 1'
_cell_length_a   5.40282600
_cell_length_b   5.40282600
_cell_length_c   3.98223200
_cell_angle_alpha   90.00000000
_cell_angle_beta   90.00000000
_cell_angle_gamma   90.00000000
_symmetry_Int_Tables_number   1
_chemical_formula_structural   La(BC)2
_chemical_formula_sum   'La2 B4 C4'
_cell_volume   116.24345783
_cell_formula_units_Z   2
loop_
 _symmetry_equiv_pos_site_id
 _symmetry_equiv_pos_as_xyz
  1  'x, y, z'
loop_
 _atom_site_type_symbol
 _atom_site_label
 _atom_site_symmetry_multiplicity
 _atom_site_fract_x
 _atom_site_fract_y
 _atom_site_fract_z
 _atom_site_occupancy
  La  La0  1  0.50000000  0.50000000  0.00000000  1
  La  La1  1  0.00000000  0.00000000  0.00000000  1
  B  B2  1  0.13792600  0.63792600  0.50000000  1
  B  B3  1  0.63792600  0.86207400  0.50000000  1
  B  B4  1  0.86207400  0.36207400  0.50000000  1
  B  B5  1  0.36207400  0.13792600  0.50000000  1
  C  C6  1  0.83905500  0.66094500  0.50000000  1
  C  C7  1  0.33905500  0.83905500  0.50000000  1
  C  C8  1  0.66094500  0.16094500  0.50000000  1
  C  C9  1  0.16094500  0.33905500  0.50000000  1
