# generated using pymatgen
data_Pu2IO10
_symmetry_space_group_name_H-M   'P 1'
_cell_length_a   11.10319200
_cell_length_b   6.88034300
_cell_length_c   13.28684854
_cell_angle_alpha   58.97609526
_cell_angle_beta   90.00000000
_cell_angle_gamma   90.00000000
_symmetry_Int_Tables_number   1
_chemical_formula_structural   Pu2IO10
_chemical_formula_sum   'Pu8 I4 O40'
_cell_volume   869.83443105
_cell_formula_units_Z   4
loop_
 _symmetry_equiv_pos_site_id
 _symmetry_equiv_pos_as_xyz
  1  'x, y, z'
loop_
 _atom_site_type_symbol
 _atom_site_label
 _atom_site_symmetry_multiplicity
 _atom_site_fract_x
 _atom_site_fract_y
 _atom_site_fract_z
 _atom_site_occupancy
  Pu  Pu0  1  0.70510000  0.90774000  0.68228700  1
  Pu  Pu1  1  0.79490000  0.90774000  0.18228700  1
  Pu  Pu2  1  0.29490000  0.09226000  0.31771300  1
  Pu  Pu3  1  0.20510000  0.09226000  0.81771300  1
  Pu  Pu4  1  0.75432000  0.54768000  0.53902200  1
  Pu  Pu5  1  0.74568000  0.54768000  0.03902200  1
  Pu  Pu6  1  0.24568000  0.45232000  0.46097800  1
  Pu  Pu7  1  0.25432000  0.45232000  0.96097800  1
  I  I8  1  0.79751600  0.22588700  0.36621400  1
  I  I9  1  0.70248400  0.22588700  0.86621400  1
  I  I10  1  0.20248400  0.77411300  0.63378600  1
  I  I11  1  0.29751600  0.77411300  0.13378600  1
  O  O12  1  0.76744400  0.52522500  0.23571700  1
  O  O13  1  0.73255600  0.52522500  0.73571700  1
  O  O14  1  0.23255600  0.47477500  0.76428300  1
  O  O15  1  0.26744400  0.47477500  0.26428300  1
  O  O16  1  0.55427600  0.88211300  0.64642300  1
  O  O17  1  0.94572400  0.88211300  0.14642300  1
  O  O18  1  0.44572400  0.11788700  0.35357700  1
  O  O19  1  0.05427600  0.11788700  0.85357700  1
  O  O20  1  0.77881000  0.85649600  0.53202800  1
  O  O21  1  0.72119000  0.85649600  0.03202800  1
  O  O22  1  0.22119000  0.14350400  0.46797200  1
  O  O23  1  0.27881000  0.14350400  0.96797200  1
  O  O24  1  0.89609600  0.42290000  0.59683000  1
  O  O25  1  0.60390400  0.42290000  0.09683000  1
  O  O26  1  0.10390400  0.57710000  0.40317000  1
  O  O27  1  0.39609600  0.57710000  0.90317000  1
  O  O28  1  0.67079200  0.19439000  0.68776300  1
  O  O29  1  0.82920800  0.19439000  0.18776300  1
  O  O30  1  0.32920800  0.80561000  0.31223700  1
  O  O31  1  0.17079200  0.80561000  0.81223700  1
  O  O32  1  0.85786800  0.92701900  0.71312200  1
  O  O33  1  0.64213200  0.92701900  0.21312200  1
  O  O34  1  0.14213200  0.07298100  0.28687800  1
  O  O35  1  0.35786800  0.07298100  0.78687800  1
  O  O36  1  0.95307000  0.24755600  0.38685000  1
  O  O37  1  0.54693000  0.24755600  0.88685000  1
  O  O38  1  0.04693000  0.75244400  0.61315000  1
  O  O39  1  0.45307000  0.75244400  0.11315000  1
  O  O40  1  0.72792900  0.27658500  0.48183700  1
  O  O41  1  0.77207100  0.27658500  0.98183700  1
  O  O42  1  0.27207100  0.72341500  0.51816300  1
  O  O43  1  0.22792900  0.72341500  0.01816300  1
  O  O44  1  0.60511700  0.63927900  0.49172100  1
  O  O45  1  0.89488300  0.63927900  0.99172100  1
  O  O46  1  0.39488300  0.36072100  0.50827900  1
  O  O47  1  0.10511700  0.36072100  0.00827900  1
  O  O48  1  0.82226400  0.72778600  0.37042600  1
  O  O49  1  0.67773600  0.72778600  0.87042600  1
  O  O50  1  0.17773600  0.27221400  0.62957400  1
  O  O51  1  0.32226400  0.27221400  0.12957400  1
