# generated using pymatgen
data_EuAl12O19
_symmetry_space_group_name_H-M   'P 1'
_cell_length_a   5.62801255
_cell_length_b   5.62801255
_cell_length_c   22.19220600
_cell_angle_alpha   90.00000000
_cell_angle_beta   90.00000000
_cell_angle_gamma   120.00000647
_symmetry_Int_Tables_number   1
_chemical_formula_structural   EuAl12O19
_chemical_formula_sum   'Eu2 Al24 O38'
_cell_volume   608.75310996
_cell_formula_units_Z   2
loop_
 _symmetry_equiv_pos_site_id
 _symmetry_equiv_pos_as_xyz
  1  'x, y, z'
loop_
 _atom_site_type_symbol
 _atom_site_label
 _atom_site_symmetry_multiplicity
 _atom_site_fract_x
 _atom_site_fract_y
 _atom_site_fract_z
 _atom_site_occupancy
  Eu  Eu0  1  0.66666700  0.33333300  0.99070800  1
  Eu  Eu1  1  0.33333300  0.66666700  0.49070800  1
  Al  Al2  1  0.66666700  0.33333300  0.55224600  1
  Al  Al3  1  0.33333300  0.66666700  0.05224600  1
  Al  Al4  1  0.66666700  0.33333300  0.27090900  1
  Al  Al5  1  0.33333300  0.66666700  0.77090900  1
  Al  Al6  1  0.00000000  0.00000000  0.74264900  1
  Al  Al7  1  0.00000000  0.00000000  0.24264900  1
  Al  Al8  1  0.00000000  0.00000000  0.99993400  1
  Al  Al9  1  0.00000000  0.00000000  0.49993400  1
  Al  Al10  1  0.83237300  0.66474600  0.85135100  1
  Al  Al11  1  0.83237300  0.16762700  0.85135100  1
  Al  Al12  1  0.16762700  0.33525400  0.35135100  1
  Al  Al13  1  0.33525400  0.16762700  0.85135100  1
  Al  Al14  1  0.16762700  0.83237300  0.35135100  1
  Al  Al15  1  0.66474600  0.83237300  0.35135100  1
  Al  Al16  1  0.66666700  0.33333300  0.71423800  1
  Al  Al17  1  0.33333300  0.66666700  0.21423800  1
  Al  Al18  1  0.16896500  0.33793100  0.63414700  1
  Al  Al19  1  0.16896500  0.83103500  0.63414700  1
  Al  Al20  1  0.83103500  0.66206900  0.13414700  1
  Al  Al21  1  0.66206900  0.83103500  0.63414700  1
  Al  Al22  1  0.83103500  0.16896500  0.13414700  1
  Al  Al23  1  0.33793100  0.16896500  0.13414700  1
  Al  Al24  1  0.66666700  0.33333300  0.43304600  1
  Al  Al25  1  0.33333300  0.66666700  0.93304600  1
  O  O26  1  0.15522100  0.31044200  0.79391300  1
  O  O27  1  0.15522100  0.84477900  0.79391300  1
  O  O28  1  0.84477900  0.68955800  0.29391300  1
  O  O29  1  0.68955800  0.84477900  0.79391300  1
  O  O30  1  0.84477900  0.15522100  0.29391300  1
  O  O31  1  0.31044200  0.15522100  0.29391300  1
  O  O32  1  0.00000000  0.00000000  0.59269400  1
  O  O33  1  0.00000000  0.00000000  0.09269400  1
  O  O34  1  0.18152300  0.36304500  0.99331600  1
  O  O35  1  0.18152300  0.81847700  0.99331600  1
  O  O36  1  0.81847700  0.63695500  0.49331600  1
  O  O37  1  0.63695500  0.81847700  0.99331600  1
  O  O38  1  0.81847700  0.18152300  0.49331600  1
  O  O39  1  0.36304500  0.18152300  0.49331600  1
  O  O40  1  0.50229000  0.00458000  0.89058400  1
  O  O41  1  0.50229000  0.49771000  0.89058400  1
  O  O42  1  0.49771000  0.99542000  0.39058400  1
  O  O43  1  0.99542000  0.49771000  0.89058400  1
  O  O44  1  0.49771000  0.50229000  0.39058400  1
  O  O45  1  0.00458000  0.50229000  0.39058400  1
  O  O46  1  0.00000000  0.00000000  0.89024800  1
  O  O47  1  0.00000000  0.00000000  0.39024800  1
  O  O48  1  0.84539500  0.69079000  0.69032800  1
  O  O49  1  0.84539500  0.15460500  0.69032800  1
  O  O50  1  0.15460500  0.30921000  0.19032800  1
  O  O51  1  0.30921000  0.15460500  0.69032800  1
  O  O52  1  0.15460500  0.84539500  0.19032800  1
  O  O53  1  0.69079000  0.84539500  0.19032800  1
  O  O54  1  0.66666700  0.33333300  0.79657700  1
  O  O55  1  0.33333300  0.66666700  0.29657700  1
  O  O56  1  0.66666700  0.33333300  0.18834700  1
  O  O57  1  0.33333300  0.66666700  0.68834700  1
  O  O58  1  0.49749300  0.99498600  0.59472800  1
  O  O59  1  0.49749300  0.50250700  0.59472800  1
  O  O60  1  0.50250700  0.00501400  0.09472800  1
  O  O61  1  0.00501400  0.50250700  0.59472800  1
  O  O62  1  0.50250700  0.49749300  0.09472800  1
  O  O63  1  0.99498600  0.49749300  0.09472800  1
