# generated using pymatgen
data_ZrTe
_symmetry_space_group_name_H-M   'P 1'
_cell_length_a   3.79942649
_cell_length_b   3.79942649
_cell_length_c   3.89856900
_cell_angle_alpha   90.00000000
_cell_angle_beta   90.00000000
_cell_angle_gamma   120.00000851
_symmetry_Int_Tables_number   1
_chemical_formula_structural   ZrTe
_chemical_formula_sum   'Zr1 Te1'
_cell_volume   48.73847228
_cell_formula_units_Z   1
loop_
 _symmetry_equiv_pos_site_id
 _symmetry_equiv_pos_as_xyz
  1  'x, y, z'
loop_
 _atom_site_type_symbol
 _atom_site_label
 _atom_site_symmetry_multiplicity
 _atom_site_fract_x
 _atom_site_fract_y
 _atom_site_fract_z
 _atom_site_occupancy
  Zr  Zr0  1  0.00000000  0.00000000  0.00000000  1
  Te  Te1  1  0.33333300  0.66666700  0.50000000  1
