# generated using pymatgen
data_Cs2GdCl5
_symmetry_space_group_name_H-M   'P 1'
_cell_length_a   7.63149600
_cell_length_b   9.79554800
_cell_length_c   15.59461400
_cell_angle_alpha   90.00000000
_cell_angle_beta   90.00000000
_cell_angle_gamma   90.00000000
_symmetry_Int_Tables_number   1
_chemical_formula_structural   Cs2GdCl5
_chemical_formula_sum   'Cs8 Gd4 Cl20'
_cell_volume   1165.77046319
_cell_formula_units_Z   4
loop_
 _symmetry_equiv_pos_site_id
 _symmetry_equiv_pos_as_xyz
  1  'x, y, z'
loop_
 _atom_site_type_symbol
 _atom_site_label
 _atom_site_symmetry_multiplicity
 _atom_site_fract_x
 _atom_site_fract_y
 _atom_site_fract_z
 _atom_site_occupancy
  Cs  Cs0  1  0.25000000  0.66495600  0.91652300  1
  Cs  Cs1  1  0.75000000  0.33504400  0.08347700  1
  Cs  Cs2  1  0.75000000  0.83504400  0.41652300  1
  Cs  Cs3  1  0.25000000  0.16495600  0.58347700  1
  Cs  Cs4  1  0.25000000  0.97577900  0.21250400  1
  Cs  Cs5  1  0.75000000  0.02422100  0.78749600  1
  Cs  Cs6  1  0.75000000  0.52422100  0.71250400  1
  Cs  Cs7  1  0.25000000  0.47577900  0.28749600  1
  Gd  Gd8  1  0.25000000  0.67773600  0.56535300  1
  Gd  Gd9  1  0.75000000  0.32226400  0.43464700  1
  Gd  Gd10  1  0.75000000  0.82226400  0.06535300  1
  Gd  Gd11  1  0.25000000  0.17773600  0.93464700  1
  Cl  Cl12  1  0.25000000  0.51837600  0.70147200  1
  Cl  Cl13  1  0.75000000  0.48162400  0.29852800  1
  Cl  Cl14  1  0.75000000  0.98162400  0.20147200  1
  Cl  Cl15  1  0.25000000  0.01837600  0.79852800  1
  Cl  Cl16  1  0.50358700  0.83405700  0.61874400  1
  Cl  Cl17  1  0.49641300  0.16594300  0.38125600  1
  Cl  Cl18  1  0.49641300  0.66594300  0.11874400  1
  Cl  Cl19  1  0.00358700  0.16594300  0.38125600  1
  Cl  Cl20  1  0.50358700  0.33405700  0.88125600  1
  Cl  Cl21  1  0.99641300  0.83405700  0.61874400  1
  Cl  Cl22  1  0.99641300  0.33405700  0.88125600  1
  Cl  Cl23  1  0.00358700  0.66594300  0.11874400  1
  Cl  Cl24  1  0.25000000  0.78826300  0.40762900  1
  Cl  Cl25  1  0.75000000  0.21173700  0.59237100  1
  Cl  Cl26  1  0.75000000  0.71173700  0.90762900  1
  Cl  Cl27  1  0.25000000  0.28826300  0.09237100  1
  Cl  Cl28  1  0.00000000  0.50000000  0.50000000  1
  Cl  Cl29  1  0.00000000  0.00000000  0.00000000  1
  Cl  Cl30  1  0.50000000  0.50000000  0.50000000  1
  Cl  Cl31  1  0.50000000  0.00000000  0.00000000  1
