# generated using pymatgen
data_RbScAsO4F
_symmetry_space_group_name_H-M   'P 1'
_cell_length_a   6.89715100
_cell_length_b   11.42323000
_cell_length_c   13.91489000
_cell_angle_alpha   90.00000000
_cell_angle_beta   90.00000000
_cell_angle_gamma   90.00000000
_symmetry_Int_Tables_number   1
_chemical_formula_structural   RbScAsO4F
_chemical_formula_sum   'Rb8 Sc8 As8 O32 F8'
_cell_volume   1096.32276631
_cell_formula_units_Z   8
loop_
 _symmetry_equiv_pos_site_id
 _symmetry_equiv_pos_as_xyz
  1  'x, y, z'
loop_
 _atom_site_type_symbol
 _atom_site_label
 _atom_site_symmetry_multiplicity
 _atom_site_fract_x
 _atom_site_fract_y
 _atom_site_fract_z
 _atom_site_occupancy
  Rb  Rb0  1  0.20070500  0.54405200  0.39331100  1
  Rb  Rb1  1  0.79929500  0.04405200  0.60668900  1
  Rb  Rb2  1  0.29929500  0.54405200  0.89331100  1
  Rb  Rb3  1  0.70070500  0.04405200  0.10668900  1
  Rb  Rb4  1  0.27321000  0.78493300  0.12369500  1
  Rb  Rb5  1  0.72679000  0.28493300  0.87630500  1
  Rb  Rb6  1  0.22679000  0.78493300  0.62369500  1
  Rb  Rb7  1  0.77321000  0.28493300  0.37630500  1
  Sc  Sc8  1  0.99472900  0.48216300  0.11184100  1
  Sc  Sc9  1  0.49472900  0.98216300  0.38815900  1
  Sc  Sc10  1  0.50527100  0.48216300  0.61184100  1
  Sc  Sc11  1  0.00527100  0.98216300  0.88815900  1
  Sc  Sc12  1  0.25147400  0.23123000  0.24582600  1
  Sc  Sc13  1  0.74852600  0.73123000  0.75417400  1
  Sc  Sc14  1  0.24852600  0.23123000  0.74582600  1
  Sc  Sc15  1  0.75147400  0.73123000  0.25417400  1
  As  As16  1  0.99833100  0.98508700  0.31786200  1
  As  As17  1  0.67575300  0.73367200  0.50150000  1
  As  As18  1  0.17575300  0.23367200  0.99850000  1
  As  As19  1  0.82424700  0.73367200  0.00150000  1
  As  As20  1  0.32424700  0.23367200  0.49850000  1
  As  As21  1  0.49833100  0.48508700  0.18213800  1
  As  As22  1  0.50166900  0.98508700  0.81786200  1
  As  As23  1  0.00166900  0.48508700  0.68213800  1
  O  O24  1  0.53446500  0.60419400  0.25652100  1
  O  O25  1  0.31641300  0.21211100  0.09837000  1
  O  O26  1  0.81641300  0.71211100  0.40163000  1
  O  O27  1  0.18358700  0.21211100  0.59837000  1
  O  O28  1  0.68641800  0.75240700  0.10301300  1
  O  O29  1  0.31358200  0.25240700  0.89698700  1
  O  O30  1  0.81358200  0.75240700  0.60301300  1
  O  O31  1  0.18641800  0.25240700  0.39698700  1
  O  O32  1  0.95268100  0.86814900  0.24300600  1
  O  O33  1  0.04731900  0.36814900  0.75699400  1
  O  O34  1  0.54731900  0.86814900  0.74300600  1
  O  O35  1  0.45268100  0.36814900  0.25699400  1
  O  O36  1  0.03446500  0.10419400  0.24347900  1
  O  O37  1  0.96553500  0.60419400  0.75652100  1
  O  O38  1  0.46553500  0.10419400  0.74347900  1
  O  O39  1  0.68358700  0.71211100  0.90163000  1
  O  O40  1  0.19767800  0.95700300  0.38750200  1
  O  O41  1  0.80232200  0.45700300  0.61249800  1
  O  O42  1  0.30232200  0.95700300  0.88750200  1
  O  O43  1  0.96728000  0.85669700  0.99020000  1
  O  O44  1  0.80035900  0.01587400  0.38845900  1
  O  O45  1  0.19964100  0.51587400  0.61154100  1
  O  O46  1  0.69964100  0.01587400  0.88845900  1
  O  O47  1  0.30035900  0.51587400  0.11154100  1
  O  O48  1  0.48562000  0.12018200  0.48385600  1
  O  O49  1  0.51438000  0.62018200  0.51614400  1
  O  O50  1  0.01438000  0.12018200  0.98385600  1
  O  O51  1  0.98562000  0.62018200  0.01614400  1
  O  O52  1  0.46728000  0.35669700  0.50980000  1
  O  O53  1  0.53272000  0.85669700  0.49020000  1
  O  O54  1  0.03272000  0.35669700  0.00980000  1
  O  O55  1  0.69767800  0.45700300  0.11249800  1
  F  F56  1  0.46608300  0.10947800  0.27533800  1
  F  F57  1  0.53391700  0.60947800  0.72466200  1
  F  F58  1  0.03391700  0.10947800  0.77533800  1
  F  F59  1  0.96608300  0.60947800  0.22466200  1
  F  F60  1  0.03962500  0.35996700  0.22393900  1
  F  F61  1  0.96037500  0.85996700  0.77606100  1
  F  F62  1  0.46037500  0.35996700  0.72393900  1
  F  F63  1  0.53962500  0.85996700  0.27606100  1
