# generated using pymatgen
data_SmTaO4
_symmetry_space_group_name_H-M   'P 1'
_cell_length_a   5.60712300
_cell_length_b   5.23516300
_cell_length_c   5.42793872
_cell_angle_alpha   83.19626320
_cell_angle_beta   90.00000000
_cell_angle_gamma   90.00000000
_symmetry_Int_Tables_number   1
_chemical_formula_structural   SmTaO4
_chemical_formula_sum   'Sm2 Ta2 O8'
_cell_volume   158.21075815
_cell_formula_units_Z   2
loop_
 _symmetry_equiv_pos_site_id
 _symmetry_equiv_pos_as_xyz
  1  'x, y, z'
loop_
 _atom_site_type_symbol
 _atom_site_label
 _atom_site_symmetry_multiplicity
 _atom_site_fract_x
 _atom_site_fract_y
 _atom_site_fract_z
 _atom_site_occupancy
  Sm  Sm0  1  0.76548400  0.00000000  0.75000000  1
  Sm  Sm1  1  0.23451600  0.00000000  0.25000000  1
  Ta  Ta2  1  0.68871400  0.50000000  0.25000000  1
  Ta  Ta3  1  0.31128600  0.50000000  0.75000000  1
  O  O4  1  0.56319500  0.27268700  0.00687900  1
  O  O5  1  0.56319500  0.72731300  0.49312100  1
  O  O6  1  0.43680500  0.72731300  0.99312100  1
  O  O7  1  0.43680500  0.27268700  0.50687900  1
  O  O8  1  0.09111400  0.74652300  0.60720700  1
  O  O9  1  0.09111400  0.25347700  0.89279300  1
  O  O10  1  0.90888600  0.25347700  0.39279300  1
  O  O11  1  0.90888600  0.74652300  0.10720700  1
