# generated using pymatgen
data_DyMgGa
_symmetry_space_group_name_H-M   'P 1'
_cell_length_a   7.30732108
_cell_length_b   7.30732108
_cell_length_c   4.41575300
_cell_angle_alpha   90.00000000
_cell_angle_beta   90.00000000
_cell_angle_gamma   120.00000977
_symmetry_Int_Tables_number   1
_chemical_formula_structural   DyMgGa
_chemical_formula_sum   'Dy3 Mg3 Ga3'
_cell_volume   204.19812145
_cell_formula_units_Z   3
loop_
 _symmetry_equiv_pos_site_id
 _symmetry_equiv_pos_as_xyz
  1  'x, y, z'
loop_
 _atom_site_type_symbol
 _atom_site_label
 _atom_site_symmetry_multiplicity
 _atom_site_fract_x
 _atom_site_fract_y
 _atom_site_fract_z
 _atom_site_occupancy
  Dy  Dy0  1  0.57915100  0.00000000  0.00000000  1
  Dy  Dy1  1  0.00000000  0.57915100  0.00000000  1
  Dy  Dy2  1  0.42084900  0.42084900  0.00000000  1
  Mg  Mg3  1  0.24513100  0.00000000  0.50000000  1
  Mg  Mg4  1  0.00000000  0.24513100  0.50000000  1
  Mg  Mg5  1  0.75486900  0.75486900  0.50000000  1
  Ga  Ga6  1  0.33333300  0.66666700  0.50000000  1
  Ga  Ga7  1  0.66666700  0.33333300  0.50000000  1
  Ga  Ga8  1  0.00000000  0.00000000  0.00000000  1
