# generated using pymatgen
data_Ti3B4
_symmetry_space_group_name_H-M   'P 1'
_cell_length_a   7.23027334
_cell_length_b   7.23027334
_cell_length_c   7.23027334
_cell_angle_alpha   155.73701647
_cell_angle_beta   153.96993367
_cell_angle_gamma   35.88131388
_symmetry_Int_Tables_number   1
_chemical_formula_structural   Ti3B4
_chemical_formula_sum   'Ti3 B4'
_cell_volume   68.07683695
_cell_formula_units_Z   1
loop_
 _symmetry_equiv_pos_site_id
 _symmetry_equiv_pos_as_xyz
  1  'x, y, z'
loop_
 _atom_site_type_symbol
 _atom_site_label
 _atom_site_symmetry_multiplicity
 _atom_site_fract_x
 _atom_site_fract_y
 _atom_site_fract_z
 _atom_site_occupancy
  Ti  Ti0  1  0.18555900  0.68555900  0.50000000  1
  Ti  Ti1  1  0.81444100  0.31444100  0.50000000  1
  Ti  Ti2  1  0.00000000  0.00000000  0.00000000  1
  B  B3  1  0.36869300  0.86869300  0.50000000  1
  B  B4  1  0.63130700  0.13130700  0.50000000  1
  B  B5  1  0.43569800  0.43569800  0.00000000  1
  B  B6  1  0.56430200  0.56430200  0.00000000  1
