# generated using pymatgen
data_LiSm(PO3)4
_symmetry_space_group_name_H-M   'P 1'
_cell_length_a   9.02292995
_cell_length_b   9.02292995
_cell_length_c   9.81486023
_cell_angle_alpha   57.09932925
_cell_angle_beta   57.09932925
_cell_angle_gamma   46.60428165
_symmetry_Int_Tables_number   1
_chemical_formula_structural   LiSm(PO3)4
_chemical_formula_sum   'Li2 Sm2 P8 O24'
_cell_volume   468.18645107
_cell_formula_units_Z   2
loop_
 _symmetry_equiv_pos_site_id
 _symmetry_equiv_pos_as_xyz
  1  'x, y, z'
loop_
 _atom_site_type_symbol
 _atom_site_label
 _atom_site_symmetry_multiplicity
 _atom_site_fract_x
 _atom_site_fract_y
 _atom_site_fract_z
 _atom_site_occupancy
  Li  Li0  1  0.79744500  0.20255500  0.75000000  1
  Li  Li1  1  0.20255500  0.79744500  0.25000000  1
  Sm  Sm2  1  0.70055500  0.29944500  0.25000000  1
  Sm  Sm3  1  0.29944500  0.70055500  0.75000000  1
  P  P4  1  0.19270200  0.08349100  0.33794700  1
  P  P5  1  0.91650900  0.80729800  0.16205300  1
  P  P6  1  0.80729800  0.91650900  0.66205300  1
  P  P7  1  0.08349100  0.19270200  0.83794700  1
  P  P8  1  0.80316700  0.49238600  0.40254900  1
  P  P9  1  0.50761400  0.19683300  0.09745100  1
  P  P10  1  0.19683300  0.50761400  0.59745100  1
  P  P11  1  0.49238600  0.80316700  0.90254900  1
  O  O12  1  0.33006500  0.89716900  0.45397700  1
  O  O13  1  0.10283100  0.66993500  0.04602300  1
  O  O14  1  0.66993500  0.10283100  0.54602300  1
  O  O15  1  0.89716900  0.33006500  0.95397700  1
  O  O16  1  0.03784400  0.28043900  0.41478400  1
  O  O17  1  0.71956100  0.96215600  0.08521600  1
  O  O18  1  0.96215600  0.71956100  0.58521600  1
  O  O19  1  0.28043900  0.03784400  0.91478400  1
  O  O20  1  0.66624300  0.48128600  0.58274600  1
  O  O21  1  0.51871400  0.33375700  0.91725400  1
  O  O22  1  0.33375700  0.51871400  0.41725400  1
  O  O23  1  0.48128600  0.66624300  0.08274600  1
  O  O24  1  0.74381800  0.51286500  0.27460700  1
  O  O25  1  0.48713500  0.25618200  0.22539300  1
  O  O26  1  0.25618200  0.48713500  0.72539300  1
  O  O27  1  0.51286500  0.74381800  0.77460700  1
  O  O28  1  0.07001700  0.06242900  0.29672000  1
  O  O29  1  0.93757100  0.92998300  0.20328000  1
  O  O30  1  0.92998300  0.93757100  0.70328000  1
  O  O31  1  0.06242900  0.07001700  0.79672000  1
  O  O32  1  0.32829000  0.16030200  0.15707600  1
  O  O33  1  0.83969800  0.67171000  0.34292400  1
  O  O34  1  0.67171000  0.83969800  0.84292400  1
  O  O35  1  0.16030200  0.32829000  0.65707600  1
