# generated using pymatgen
data_K2Se2O7
_symmetry_space_group_name_H-M   'P 1'
_cell_length_a   7.68197091
_cell_length_b   7.68197091
_cell_length_c   7.68226967
_cell_angle_alpha   87.24034660
_cell_angle_beta   87.24034660
_cell_angle_gamma   60.90082572
_symmetry_Int_Tables_number   1
_chemical_formula_structural   K2Se2O7
_chemical_formula_sum   'K4 Se4 O14'
_cell_volume   395.51066243
_cell_formula_units_Z   2
loop_
 _symmetry_equiv_pos_site_id
 _symmetry_equiv_pos_as_xyz
  1  'x, y, z'
loop_
 _atom_site_type_symbol
 _atom_site_label
 _atom_site_symmetry_multiplicity
 _atom_site_fract_x
 _atom_site_fract_y
 _atom_site_fract_z
 _atom_site_occupancy
  K  K0  1  0.79499500  0.49597500  0.63573900  1
  K  K1  1  0.50402500  0.20500500  0.86426100  1
  K  K2  1  0.20500500  0.50402500  0.36426100  1
  K  K3  1  0.49597500  0.79499500  0.13573900  1
  Se  Se4  1  0.28523000  0.92510900  0.63117200  1
  Se  Se5  1  0.07489100  0.71477000  0.86882800  1
  Se  Se6  1  0.71477000  0.07489100  0.36882800  1
  Se  Se7  1  0.92510900  0.28523000  0.13117200  1
  O  O8  1  0.35292000  0.75933500  0.47727600  1
  O  O9  1  0.24066500  0.64708000  0.02272400  1
  O  O10  1  0.64708000  0.24066500  0.52272400  1
  O  O11  1  0.75933500  0.35292000  0.97727600  1
  O  O12  1  0.46203500  0.85791700  0.77354200  1
  O  O13  1  0.14208300  0.53796500  0.72645800  1
  O  O14  1  0.53796500  0.14208300  0.22645800  1
  O  O15  1  0.85791700  0.46203500  0.27354200  1
  O  O16  1  0.18518500  0.15910100  0.56417400  1
  O  O17  1  0.84089900  0.81481500  0.93582600  1
  O  O18  1  0.81481500  0.84089900  0.43582600  1
  O  O19  1  0.15910100  0.18518500  0.06417400  1
  O  O20  1  0.06818500  0.93181500  0.75000000  1
  O  O21  1  0.93181500  0.06818500  0.25000000  1
