# generated using pymatgen
data_BaNdAgS3
_symmetry_space_group_name_H-M   'P 1'
_cell_length_a   7.24000348
_cell_length_b   7.24000348
_cell_length_c   10.64851700
_cell_angle_alpha   90.00000000
_cell_angle_beta   90.00000000
_cell_angle_gamma   146.15670548
_symmetry_Int_Tables_number   1
_chemical_formula_structural   BaNdAgS3
_chemical_formula_sum   'Ba2 Nd2 Ag2 S6'
_cell_volume   310.85805456
_cell_formula_units_Z   2
loop_
 _symmetry_equiv_pos_site_id
 _symmetry_equiv_pos_as_xyz
  1  'x, y, z'
loop_
 _atom_site_type_symbol
 _atom_site_label
 _atom_site_symmetry_multiplicity
 _atom_site_fract_x
 _atom_site_fract_y
 _atom_site_fract_z
 _atom_site_occupancy
  Ba  Ba0  1  0.25480500  0.74519500  0.25000000  1
  Ba  Ba1  1  0.74519500  0.25480500  0.75000000  1
  Nd  Nd2  1  0.00000000  0.00000000  0.50000000  1
  Nd  Nd3  1  0.00000000  0.00000000  0.00000000  1
  Ag  Ag4  1  0.53227300  0.46772700  0.25000000  1
  Ag  Ag5  1  0.46772700  0.53227300  0.75000000  1
  S  S6  1  0.63654300  0.36345700  0.44371900  1
  S  S7  1  0.36345700  0.63654300  0.55628100  1
  S  S8  1  0.63654300  0.36345700  0.05628100  1
  S  S9  1  0.36345700  0.63654300  0.94371900  1
  S  S10  1  0.92273800  0.07726200  0.25000000  1
  S  S11  1  0.07726200  0.92273800  0.75000000  1
