# generated using pymatgen
data_CeSi3Ru
_symmetry_space_group_name_H-M   'P 1'
_cell_length_a   5.80884447
_cell_length_b   5.80884447
_cell_length_c   5.80884447
_cell_angle_alpha   137.75173247
_cell_angle_beta   137.75173247
_cell_angle_gamma   61.28344526
_symmetry_Int_Tables_number   1
_chemical_formula_structural   CeSi3Ru
_chemical_formula_sum   'Ce1 Si3 Ru1'
_cell_volume   87.61125821
_cell_formula_units_Z   1
loop_
 _symmetry_equiv_pos_site_id
 _symmetry_equiv_pos_as_xyz
  1  'x, y, z'
loop_
 _atom_site_type_symbol
 _atom_site_label
 _atom_site_symmetry_multiplicity
 _atom_site_fract_x
 _atom_site_fract_y
 _atom_site_fract_z
 _atom_site_occupancy
  Ce  Ce0  1  0.42599600  0.42599600  0.00000000  1
  Si  Si1  1  0.15654200  0.65654200  0.50000000  1
  Si  Si2  1  0.65654200  0.15654200  0.50000000  1
  Si  Si3  1  0.00016100  0.00016100  0.00000000  1
  Ru  Ru4  1  0.76569900  0.76569900  0.00000000  1
