# generated using pymatgen
data_Ca2Mn3P3H6O17
_symmetry_space_group_name_H-M   'P 1'
_cell_length_a   8.86926600
_cell_length_b   13.47791200
_cell_length_c   11.30598294
_cell_angle_alpha   90.00000000
_cell_angle_beta   102.03086976
_cell_angle_gamma   90.00000000
_symmetry_Int_Tables_number   1
_chemical_formula_structural   Ca2Mn3P3H6O17
_chemical_formula_sum   'Ca8 Mn12 P12 H24 O68'
_cell_volume   1321.82272637
_cell_formula_units_Z   4
loop_
 _symmetry_equiv_pos_site_id
 _symmetry_equiv_pos_as_xyz
  1  'x, y, z'
loop_
 _atom_site_type_symbol
 _atom_site_label
 _atom_site_symmetry_multiplicity
 _atom_site_fract_x
 _atom_site_fract_y
 _atom_site_fract_z
 _atom_site_occupancy
  Ca  Ca0  1  0.33968800  0.12741000  0.06747800  1
  Ca  Ca1  1  0.66031200  0.62741000  0.43252200  1
  Ca  Ca2  1  0.66031200  0.87259000  0.93252200  1
  Ca  Ca3  1  0.33968800  0.37259000  0.56747800  1
  Ca  Ca4  1  0.66482900  0.37880900  0.85712100  1
  Ca  Ca5  1  0.33517100  0.87880900  0.64287900  1
  Ca  Ca6  1  0.33517100  0.62119100  0.14287900  1
  Ca  Ca7  1  0.66482900  0.12119100  0.35712100  1
  Mn  Mn8  1  0.00000000  0.50000000  0.50000000  1
  Mn  Mn9  1  0.00000000  0.00000000  0.00000000  1
  Mn  Mn10  1  0.00000000  0.50000000  0.00000000  1
  Mn  Mn11  1  0.00000000  0.00000000  0.50000000  1
  Mn  Mn12  1  0.01530700  0.36947300  0.73841300  1
  Mn  Mn13  1  0.98469300  0.86947300  0.76158700  1
  Mn  Mn14  1  0.98469300  0.63052700  0.26158700  1
  Mn  Mn15  1  0.01530700  0.13052700  0.23841300  1
  Mn  Mn16  1  0.01675100  0.26899500  0.99361300  1
  Mn  Mn17  1  0.98324900  0.76899500  0.50638700  1
  Mn  Mn18  1  0.98324900  0.73100500  0.00638700  1
  Mn  Mn19  1  0.01675100  0.23100500  0.49361300  1
  P  P20  1  0.29958700  0.39135000  0.94880300  1
  P  P21  1  0.70041300  0.89135000  0.55119700  1
  P  P22  1  0.70041300  0.60865000  0.05119700  1
  P  P23  1  0.29958700  0.10865000  0.44880300  1
  P  P24  1  0.08409500  0.38064700  0.27685300  1
  P  P25  1  0.91590500  0.88064700  0.22314700  1
  P  P26  1  0.91590500  0.61935300  0.72314700  1
  P  P27  1  0.08409500  0.11935300  0.77685300  1
  P  P28  1  0.72803600  0.35779400  0.52876500  1
  P  P29  1  0.27196400  0.85779400  0.97123500  1
  P  P30  1  0.27196400  0.64220600  0.47123500  1
  P  P31  1  0.72803600  0.14220600  0.02876500  1
  H  H32  1  0.44420200  0.53574500  0.74081000  1
  H  H33  1  0.55579800  0.03574500  0.75919000  1
  H  H34  1  0.55579800  0.46425500  0.25919000  1
  H  H35  1  0.44420200  0.96425500  0.24081000  1
  H  H36  1  0.59473100  0.53652000  0.68588400  1
  H  H37  1  0.40526900  0.03652000  0.81411600  1
  H  H38  1  0.40526900  0.46348000  0.31411600  1
  H  H39  1  0.59473100  0.96348000  0.18588400  1
  H  H40  1  0.54030600  0.21383200  0.71442200  1
  H  H41  1  0.45969400  0.71383200  0.78557800  1
  H  H42  1  0.45969400  0.78616800  0.28557800  1
  H  H43  1  0.54030600  0.28616800  0.21442200  1
  H  H44  1  0.40037400  0.23226500  0.77837300  1
  H  H45  1  0.59962600  0.73226500  0.72162700  1
  H  H46  1  0.59962600  0.76773500  0.22162700  1
  H  H47  1  0.40037400  0.26773500  0.27837300  1
  H  H48  1  0.75742000  0.13309200  0.70396100  1
  H  H49  1  0.24258000  0.63309200  0.79603900  1
  H  H50  1  0.24258000  0.86690800  0.29603900  1
  H  H51  1  0.75742000  0.36690800  0.20396100  1
  H  H52  1  0.60112600  0.11510900  0.60120700  1
  H  H53  1  0.39887400  0.61510900  0.89879300  1
  H  H54  1  0.39887400  0.88489100  0.39879300  1
  H  H55  1  0.60112600  0.38489100  0.10120700  1
  O  O56  1  0.47493100  0.38995700  0.96972400  1
  O  O57  1  0.52506900  0.88995700  0.53027600  1
  O  O58  1  0.52506900  0.61004300  0.03027600  1
  O  O59  1  0.47493100  0.11004300  0.46972400  1
  O  O60  1  0.24132000  0.29650300  0.00725700  1
  O  O61  1  0.75868000  0.79650300  0.49274300  1
  O  O62  1  0.75868000  0.70349700  0.99274300  1
  O  O63  1  0.24132000  0.20349700  0.50725700  1
  O  O64  1  0.23802500  0.48598600  0.00394800  1
  O  O65  1  0.76197500  0.98598600  0.49605200  1
  O  O66  1  0.76197500  0.51401400  0.99605200  1
  O  O67  1  0.23802500  0.01401400  0.50394800  1
  O  O68  1  0.23267500  0.38878500  0.80876800  1
  O  O69  1  0.76732500  0.88878500  0.69123200  1
  O  O70  1  0.76732500  0.61121500  0.19123200  1
  O  O71  1  0.23267500  0.11121500  0.30876800  1
  O  O72  1  0.25772600  0.38180600  0.33013100  1
  O  O73  1  0.74227400  0.88180600  0.16986900  1
  O  O74  1  0.74227400  0.61819400  0.66986900  1
  O  O75  1  0.25772600  0.11819400  0.83013100  1
  O  O76  1  0.00728600  0.28408900  0.30969000  1
  O  O77  1  0.99271400  0.78408900  0.19031000  1
  O  O78  1  0.99271400  0.71591100  0.69031000  1
  O  O79  1  0.00728600  0.21591100  0.80969000  1
  O  O80  1  0.03525000  0.39013300  0.13712500  1
  O  O81  1  0.96475000  0.89013300  0.36287500  1
  O  O82  1  0.96475000  0.60986700  0.86287500  1
  O  O83  1  0.03525000  0.10986700  0.63712500  1
  O  O84  1  0.00338700  0.47076600  0.32900900  1
  O  O85  1  0.99661300  0.97076600  0.17099100  1
  O  O86  1  0.99661300  0.52923400  0.67099100  1
  O  O87  1  0.00338700  0.02923400  0.82900900  1
  O  O88  1  0.55484700  0.35370400  0.49750300  1
  O  O89  1  0.44515300  0.85370400  0.00249700  1
  O  O90  1  0.44515300  0.64629600  0.50249700  1
  O  O91  1  0.55484700  0.14629600  0.99750300  1
  O  O92  1  0.79350600  0.26228300  0.47635800  1
  O  O93  1  0.20649400  0.76228300  0.02364200  1
  O  O94  1  0.20649400  0.73771700  0.52364200  1
  O  O95  1  0.79350600  0.23771700  0.97635800  1
  O  O96  1  0.79000800  0.35876800  0.66950200  1
  O  O97  1  0.20999200  0.85876800  0.83049800  1
  O  O98  1  0.20999200  0.64123200  0.33049800  1
  O  O99  1  0.79000800  0.14123200  0.16950200  1
  O  O100  1  0.78388000  0.45493100  0.47294500  1
  O  O101  1  0.21612000  0.95493100  0.02705500  1
  O  O102  1  0.21612000  0.54506900  0.52705500  1
  O  O103  1  0.78388000  0.04506900  0.97294500  1
  O  O104  1  0.95065300  0.38943400  0.89413400  1
  O  O105  1  0.04934700  0.88943400  0.60586600  1
  O  O106  1  0.04934700  0.61056600  0.10586600  1
  O  O107  1  0.95065300  0.11056600  0.39413400  1
  O  O108  1  0.07098000  0.35245000  0.58023800  1
  O  O109  1  0.92902000  0.85245000  0.91976200  1
  O  O110  1  0.92902000  0.64755000  0.41976200  1
  O  O111  1  0.07098000  0.14755000  0.08023800  1
  O  O112  1  0.51765300  0.49081600  0.71082400  1
  O  O113  1  0.48234700  0.99081600  0.78917600  1
  O  O114  1  0.48234700  0.50918400  0.28917600  1
  O  O115  1  0.51765300  0.00918400  0.21082400  1
  O  O116  1  0.47256700  0.26766300  0.73761100  1
  O  O117  1  0.52743300  0.76766300  0.76238900  1
  O  O118  1  0.52743300  0.73233700  0.26238900  1
  O  O119  1  0.47256700  0.23233700  0.23761100  1
  O  O120  1  0.64616100  0.12439000  0.68970900  1
  O  O121  1  0.35383900  0.62439000  0.81029100  1
  O  O122  1  0.35383900  0.87561000  0.31029100  1
  O  O123  1  0.64616100  0.37561000  0.18970900  1
