# generated using pymatgen
data_Cs2TmCl5
_symmetry_space_group_name_H-M   'P 1'
_cell_length_a   7.56253200
_cell_length_b   9.76255200
_cell_length_c   15.41979900
_cell_angle_alpha   90.00000000
_cell_angle_beta   90.00000000
_cell_angle_gamma   90.00000000
_symmetry_Int_Tables_number   1
_chemical_formula_structural   Cs2TmCl5
_chemical_formula_sum   'Cs8 Tm4 Cl20'
_cell_volume   1138.43777577
_cell_formula_units_Z   4
loop_
 _symmetry_equiv_pos_site_id
 _symmetry_equiv_pos_as_xyz
  1  'x, y, z'
loop_
 _atom_site_type_symbol
 _atom_site_label
 _atom_site_symmetry_multiplicity
 _atom_site_fract_x
 _atom_site_fract_y
 _atom_site_fract_z
 _atom_site_occupancy
  Cs  Cs0  1  0.25000000  0.66419800  0.91710800  1
  Cs  Cs1  1  0.75000000  0.33580200  0.08289200  1
  Cs  Cs2  1  0.75000000  0.83580200  0.41710800  1
  Cs  Cs3  1  0.25000000  0.16419800  0.58289200  1
  Cs  Cs4  1  0.25000000  0.97526200  0.21188300  1
  Cs  Cs5  1  0.75000000  0.02473800  0.78811700  1
  Cs  Cs6  1  0.75000000  0.52473800  0.71188300  1
  Cs  Cs7  1  0.25000000  0.47526200  0.28811700  1
  Tm  Tm8  1  0.25000000  0.67475700  0.56368800  1
  Tm  Tm9  1  0.75000000  0.32524300  0.43631200  1
  Tm  Tm10  1  0.75000000  0.82524300  0.06368800  1
  Tm  Tm11  1  0.25000000  0.17475700  0.93631200  1
  Cl  Cl12  1  0.25000000  0.52182900  0.69850600  1
  Cl  Cl13  1  0.75000000  0.47817100  0.30149400  1
  Cl  Cl14  1  0.75000000  0.97817100  0.19850600  1
  Cl  Cl15  1  0.25000000  0.02182900  0.80149400  1
  Cl  Cl16  1  0.49947300  0.82904900  0.61678100  1
  Cl  Cl17  1  0.50052700  0.17095100  0.38321900  1
  Cl  Cl18  1  0.50052700  0.67095100  0.11678100  1
  Cl  Cl19  1  0.99947300  0.17095100  0.38321900  1
  Cl  Cl20  1  0.49947300  0.32904900  0.88321900  1
  Cl  Cl21  1  0.00052700  0.82904900  0.61678100  1
  Cl  Cl22  1  0.00052700  0.32904900  0.88321900  1
  Cl  Cl23  1  0.99947300  0.67095100  0.11678100  1
  Cl  Cl24  1  0.25000000  0.78460800  0.40937000  1
  Cl  Cl25  1  0.75000000  0.21539200  0.59063000  1
  Cl  Cl26  1  0.75000000  0.71539200  0.90937000  1
  Cl  Cl27  1  0.25000000  0.28460800  0.09063000  1
  Cl  Cl28  1  0.00000000  0.50000000  0.50000000  1
  Cl  Cl29  1  0.00000000  0.00000000  0.00000000  1
  Cl  Cl30  1  0.50000000  0.50000000  0.50000000  1
  Cl  Cl31  1  0.50000000  0.00000000  0.00000000  1
