# generated using pymatgen
data_ZrH6O3F4
_symmetry_space_group_name_H-M   'P 1'
_cell_length_a   6.87837793
_cell_length_b   7.74922940
_cell_length_c   10.76382100
_cell_angle_alpha   90.00000000
_cell_angle_beta   90.00000000
_cell_angle_gamma   100.12959711
_symmetry_Int_Tables_number   1
_chemical_formula_structural   ZrH6O3F4
_chemical_formula_sum   'Zr4 H24 O12 F16'
_cell_volume   564.79145910
_cell_formula_units_Z   4
loop_
 _symmetry_equiv_pos_site_id
 _symmetry_equiv_pos_as_xyz
  1  'x, y, z'
loop_
 _atom_site_type_symbol
 _atom_site_label
 _atom_site_symmetry_multiplicity
 _atom_site_fract_x
 _atom_site_fract_y
 _atom_site_fract_z
 _atom_site_occupancy
  Zr  Zr0  1  0.74324100  0.46092900  0.54536900  1
  Zr  Zr1  1  0.25675900  0.03907100  0.04536900  1
  Zr  Zr2  1  0.25675900  0.53907100  0.45463100  1
  Zr  Zr3  1  0.74324100  0.96092900  0.95463100  1
  H  H4  1  0.59739700  0.38240600  0.12285800  1
  H  H5  1  0.40260300  0.11759400  0.62285800  1
  H  H6  1  0.40260300  0.61759400  0.87714200  1
  H  H7  1  0.59739700  0.88240600  0.37714200  1
  H  H8  1  0.81361800  0.38255600  0.08248600  1
  H  H9  1  0.18638200  0.11744400  0.58248600  1
  H  H10  1  0.18638200  0.61744400  0.91751400  1
  H  H11  1  0.81361800  0.88255600  0.41751400  1
  H  H12  1  0.76328200  0.34221900  0.29341900  1
  H  H13  1  0.23671800  0.15778100  0.79341900  1
  H  H14  1  0.23671800  0.65778100  0.70658100  1
  H  H15  1  0.76328200  0.84221900  0.20658100  1
  H  H16  1  0.75355500  0.16243200  0.37485200  1
  H  H17  1  0.24644500  0.33756800  0.87485200  1
  H  H18  1  0.24644500  0.83756800  0.62514800  1
  H  H19  1  0.75355500  0.66243200  0.12514800  1
  H  H20  1  0.73557900  0.56959200  0.80005700  1
  H  H21  1  0.26442100  0.93040800  0.30005700  1
  H  H22  1  0.26442100  0.43040800  0.19994300  1
  H  H23  1  0.73557900  0.06959200  0.69994300  1
  H  H24  1  0.76347000  0.36806900  0.80435600  1
  H  H25  1  0.23653000  0.13193100  0.30435600  1
  H  H26  1  0.23653000  0.63193100  0.19564400  1
  H  H27  1  0.76347000  0.86806900  0.69564400  1
  O  O28  1  0.73544800  0.43780400  0.14170900  1
  O  O29  1  0.26455200  0.06219600  0.64170900  1
  O  O30  1  0.26455200  0.56219600  0.85829100  1
  O  O31  1  0.73544800  0.93780400  0.35829100  1
  O  O32  1  0.75610500  0.29199000  0.37856700  1
  O  O33  1  0.24389500  0.20801000  0.87856700  1
  O  O34  1  0.24389500  0.70801000  0.62143300  1
  O  O35  1  0.75610500  0.79199000  0.12143300  1
  O  O36  1  0.77673900  0.47402300  0.75019000  1
  O  O37  1  0.22326100  0.02597700  0.25019000  1
  O  O38  1  0.22326100  0.52597700  0.24981000  1
  O  O39  1  0.77673900  0.97402300  0.74981000  1
  F  F40  1  0.03010000  0.39329100  0.57811800  1
  F  F41  1  0.96990000  0.10670900  0.07811800  1
  F  F42  1  0.96990000  0.60670900  0.42188200  1
  F  F43  1  0.03010000  0.89329100  0.92188200  1
  F  F44  1  0.43415200  0.44324500  0.59808000  1
  F  F45  1  0.56584800  0.05675500  0.09808000  1
  F  F46  1  0.56584800  0.55675500  0.40192000  1
  F  F47  1  0.43415200  0.94324500  0.90192000  1
  F  F48  1  0.76298900  0.71851900  0.59554800  1
  F  F49  1  0.23701100  0.78148100  0.09554800  1
  F  F50  1  0.23701100  0.28148100  0.40445200  1
  F  F51  1  0.76298900  0.21851900  0.90445200  1
  F  F52  1  0.65728000  0.20222500  0.60592300  1
  F  F53  1  0.34272000  0.29777500  0.10592300  1
  F  F54  1  0.34272000  0.79777500  0.39407700  1
  F  F55  1  0.65728000  0.70222500  0.89407700  1
