# generated using pymatgen
data_Nd(Al5Ru)2
_symmetry_space_group_name_H-M   'P 1'
_cell_length_a   6.89247372
_cell_length_b   6.89247372
_cell_length_c   9.20929200
_cell_angle_alpha   90.00000000
_cell_angle_beta   90.00000000
_cell_angle_gamma   96.89520945
_symmetry_Int_Tables_number   1
_chemical_formula_structural   Nd(Al5Ru)2
_chemical_formula_sum   'Nd2 Al20 Ru4'
_cell_volume   434.33415436
_cell_formula_units_Z   2
loop_
 _symmetry_equiv_pos_site_id
 _symmetry_equiv_pos_as_xyz
  1  'x, y, z'
loop_
 _atom_site_type_symbol
 _atom_site_label
 _atom_site_symmetry_multiplicity
 _atom_site_fract_x
 _atom_site_fract_y
 _atom_site_fract_z
 _atom_site_occupancy
  Nd  Nd0  1  0.87544000  0.12456000  0.75000000  1
  Nd  Nd1  1  0.12456000  0.87544000  0.25000000  1
  Al  Al2  1  0.62296700  0.37703300  0.54848000  1
  Al  Al3  1  0.37703300  0.62296700  0.45152000  1
  Al  Al4  1  0.37703300  0.62296700  0.04848000  1
  Al  Al5  1  0.62296700  0.37703300  0.95152000  1
  Al  Al6  1  0.22860000  0.22860000  0.50000000  1
  Al  Al7  1  0.77140000  0.77140000  0.50000000  1
  Al  Al8  1  0.77140000  0.77140000  0.00000000  1
  Al  Al9  1  0.22860000  0.22860000  0.00000000  1
  Al  Al10  1  0.84145200  0.15854800  0.10040500  1
  Al  Al11  1  0.15854800  0.84145200  0.89959500  1
  Al  Al12  1  0.15854800  0.84145200  0.60040500  1
  Al  Al13  1  0.84145200  0.15854800  0.39959500  1
  Al  Al14  1  0.86177200  0.58752100  0.75000000  1
  Al  Al15  1  0.13822800  0.41247900  0.25000000  1
  Al  Al16  1  0.41247900  0.13822800  0.75000000  1
  Al  Al17  1  0.58752100  0.86177200  0.25000000  1
  Al  Al18  1  0.22289600  0.48130600  0.75000000  1
  Al  Al19  1  0.77710400  0.51869400  0.25000000  1
  Al  Al20  1  0.51869400  0.77710400  0.75000000  1
  Al  Al21  1  0.48130600  0.22289600  0.25000000  1
  Ru  Ru22  1  0.00000000  0.50000000  0.50000000  1
  Ru  Ru23  1  0.00000000  0.50000000  0.00000000  1
  Ru  Ru24  1  0.50000000  0.00000000  0.00000000  1
  Ru  Ru25  1  0.50000000  0.00000000  0.50000000  1
