# generated using pymatgen
data_TeSO5
_symmetry_space_group_name_H-M   'P 1'
_cell_length_a   8.41428900
_cell_length_b   8.62687223
_cell_length_c   12.07662285
_cell_angle_alpha   82.79262835
_cell_angle_beta   69.83374101
_cell_angle_gamma   82.08365604
_symmetry_Int_Tables_number   1
_chemical_formula_structural   TeSO5
_chemical_formula_sum   'Te8 S8 O40'
_cell_volume   812.17543712
_cell_formula_units_Z   8
loop_
 _symmetry_equiv_pos_site_id
 _symmetry_equiv_pos_as_xyz
  1  'x, y, z'
loop_
 _atom_site_type_symbol
 _atom_site_label
 _atom_site_symmetry_multiplicity
 _atom_site_fract_x
 _atom_site_fract_y
 _atom_site_fract_z
 _atom_site_occupancy
  Te  Te0  1  0.06002400  0.81435200  0.24069500  1
  Te  Te1  1  0.93997600  0.18564800  0.75930500  1
  Te  Te2  1  0.45350100  0.27866000  0.27102900  1
  Te  Te3  1  0.54649900  0.72134000  0.72897100  1
  Te  Te4  1  0.42072700  0.67781200  0.34167700  1
  Te  Te5  1  0.57927300  0.32218800  0.65832300  1
  Te  Te6  1  0.10557600  0.24241000  0.15454600  1
  Te  Te7  1  0.89442400  0.75759000  0.84545400  1
  S  S8  1  0.81228700  0.40076200  0.37939100  1
  S  S9  1  0.18771300  0.59923800  0.62060900  1
  S  S10  1  0.74410700  0.88907500  0.45931300  1
  S  S11  1  0.25589300  0.11092500  0.54068700  1
  S  S12  1  0.31618700  0.15312700  0.89687300  1
  S  S13  1  0.68381300  0.84687300  0.10312700  1
  S  S14  1  0.73045900  0.33213300  0.02105000  1
  S  S15  1  0.26954100  0.66786700  0.97895000  1
  O  O16  1  0.89624900  0.24705800  0.32744300  1
  O  O17  1  0.10375100  0.75294200  0.67255700  1
  O  O18  1  0.36502000  0.49872900  0.28468200  1
  O  O19  1  0.63498000  0.50127100  0.71531800  1
  O  O20  1  0.24959000  0.22425300  0.25297700  1
  O  O21  1  0.75041000  0.77574700  0.74702300  1
  O  O22  1  0.32905600  0.15869000  0.02116800  1
  O  O23  1  0.67094400  0.84131000  0.97883200  1
  O  O24  1  0.04938100  0.02989800  0.18504900  1
  O  O25  1  0.95061900  0.97010200  0.81495100  1
  O  O26  1  0.80386400  0.37917800  0.50806800  1
  O  O27  1  0.19613600  0.62082200  0.49193200  1
  O  O28  1  0.26609800  0.81663300  0.28016700  1
  O  O29  1  0.73390200  0.18336700  0.71983300  1
  O  O30  1  0.70086800  0.88313200  0.35250800  1
  O  O31  1  0.29913200  0.11686800  0.64749200  1
  O  O32  1  0.41892400  0.01630900  0.84370400  1
  O  O33  1  0.58107600  0.98369100  0.15629600  1
  O  O34  1  0.63365800  0.42466100  0.37747100  1
  O  O35  1  0.36634200  0.57533900  0.62252900  1
  O  O36  1  0.39463100  0.30431200  0.82810300  1
  O  O37  1  0.60536900  0.69568800  0.17189700  1
  O  O38  1  0.67638900  0.02563900  0.52552500  1
  O  O39  1  0.32361100  0.97436100  0.47447500  1
  O  O40  1  0.75278700  0.20184300  0.94244800  1
  O  O41  1  0.24721300  0.79815700  0.05755200  1
  O  O42  1  0.13500800  0.17285600  0.91123300  1
  O  O43  1  0.86499200  0.82714400  0.08876700  1
  O  O44  1  0.53631500  0.35518200  0.08790000  1
  O  O45  1  0.46368500  0.64481800  0.91210000  1
  O  O46  1  0.94273400  0.87318800  0.41768800  1
  O  O47  1  0.05726600  0.12681200  0.58231200  1
  O  O48  1  0.91412000  0.52741900  0.31648300  1
  O  O49  1  0.08588000  0.47258100  0.68351700  1
  O  O50  1  0.80787700  0.28257400  0.11388400  1
  O  O51  1  0.19212300  0.71742600  0.88611600  1
  O  O52  1  0.78649900  0.47495700  0.94848100  1
  O  O53  1  0.21350100  0.52504300  0.05151900  1
  O  O54  1  0.69376800  0.73886300  0.54045000  1
  O  O55  1  0.30623200  0.26113700  0.45955000  1
