# generated using pymatgen
data_KBaPS4
_symmetry_space_group_name_H-M   'P 1'
_cell_length_a   6.78621800
_cell_length_b   9.89302500
_cell_length_c   12.26911400
_cell_angle_alpha   90.00000000
_cell_angle_beta   90.00000000
_cell_angle_gamma   90.00000000
_symmetry_Int_Tables_number   1
_chemical_formula_structural   KBaPS4
_chemical_formula_sum   'K4 Ba4 P4 S16'
_cell_volume   823.70198983
_cell_formula_units_Z   4
loop_
 _symmetry_equiv_pos_site_id
 _symmetry_equiv_pos_as_xyz
  1  'x, y, z'
loop_
 _atom_site_type_symbol
 _atom_site_label
 _atom_site_symmetry_multiplicity
 _atom_site_fract_x
 _atom_site_fract_y
 _atom_site_fract_z
 _atom_site_occupancy
  K  K0  1  0.25000000  0.16838100  0.62229400  1
  K  K1  1  0.75000000  0.83161900  0.37770600  1
  K  K2  1  0.75000000  0.66838100  0.87770600  1
  K  K3  1  0.25000000  0.33161900  0.12229400  1
  Ba  Ba4  1  0.25000000  0.61989300  0.64164400  1
  Ba  Ba5  1  0.75000000  0.38010700  0.35835600  1
  Ba  Ba6  1  0.75000000  0.11989300  0.85835600  1
  Ba  Ba7  1  0.25000000  0.88010700  0.14164400  1
  P  P8  1  0.75000000  0.10242200  0.17377700  1
  P  P9  1  0.25000000  0.60242200  0.32622300  1
  P  P10  1  0.75000000  0.39757800  0.67377700  1
  P  P11  1  0.25000000  0.89757800  0.82622300  1
  S  S12  1  0.49412300  0.60399500  0.22763200  1
  S  S13  1  0.99412300  0.39600500  0.77236800  1
  S  S14  1  0.50587700  0.10399500  0.27236800  1
  S  S15  1  0.00587700  0.89600500  0.72763200  1
  S  S16  1  0.25000000  0.06973400  0.92103900  1
  S  S17  1  0.25000000  0.43026600  0.42103900  1
  S  S18  1  0.75000000  0.93026600  0.07896100  1
  S  S19  1  0.75000000  0.56973400  0.57896100  1
  S  S20  1  0.25000000  0.77799600  0.41589800  1
  S  S21  1  0.75000000  0.22200400  0.58410200  1
  S  S22  1  0.75000000  0.27799600  0.08410200  1
  S  S23  1  0.25000000  0.72200400  0.91589800  1
  S  S24  1  0.99412300  0.10399500  0.27236800  1
  S  S25  1  0.49412300  0.89600500  0.72763200  1
  S  S26  1  0.00587700  0.60399500  0.22763200  1
  S  S27  1  0.50587700  0.39600500  0.77236800  1
