# generated using pymatgen
data_Pr(TiAl10)2
_symmetry_space_group_name_H-M   'P 1'
_cell_length_a   10.41554005
_cell_length_b   10.41554005
_cell_length_c   10.41554005
_cell_angle_alpha   60.00000000
_cell_angle_beta   60.00000000
_cell_angle_gamma   60.00000000
_symmetry_Int_Tables_number   1
_chemical_formula_structural   Pr(TiAl10)2
_chemical_formula_sum   'Pr2 Ti4 Al40'
_cell_volume   798.96983331
_cell_formula_units_Z   2
loop_
 _symmetry_equiv_pos_site_id
 _symmetry_equiv_pos_as_xyz
  1  'x, y, z'
loop_
 _atom_site_type_symbol
 _atom_site_label
 _atom_site_symmetry_multiplicity
 _atom_site_fract_x
 _atom_site_fract_y
 _atom_site_fract_z
 _atom_site_occupancy
  Pr  Pr0  1  0.50000000  0.50000000  0.50000000  1
  Pr  Pr1  1  0.75000000  0.75000000  0.75000000  1
  Ti  Ti2  1  0.62500000  0.12500000  0.12500000  1
  Ti  Ti3  1  0.12500000  0.62500000  0.12500000  1
  Ti  Ti4  1  0.12500000  0.12500000  0.62500000  1
  Ti  Ti5  1  0.12500000  0.12500000  0.12500000  1
  Al  Al6  1  0.86329000  0.86329000  0.13671000  1
  Al  Al7  1  0.13671000  0.13671000  0.86329000  1
  Al  Al8  1  0.86329000  0.13671000  0.86329000  1
  Al  Al9  1  0.13671000  0.86329000  0.13671000  1
  Al  Al10  1  0.13671000  0.86329000  0.86329000  1
  Al  Al11  1  0.86329000  0.13671000  0.13671000  1
  Al  Al12  1  0.38671000  0.38671000  0.11329000  1
  Al  Al13  1  0.11329000  0.11329000  0.38671000  1
  Al  Al14  1  0.38671000  0.11329000  0.38671000  1
  Al  Al15  1  0.11329000  0.38671000  0.11329000  1
  Al  Al16  1  0.11329000  0.38671000  0.38671000  1
  Al  Al17  1  0.38671000  0.11329000  0.11329000  1
  Al  Al18  1  0.56862100  0.29912500  0.29912500  1
  Al  Al19  1  0.29912500  0.56862100  0.83313000  1
  Al  Al20  1  0.29912500  0.83313000  0.56862100  1
  Al  Al21  1  0.83313000  0.29912500  0.29912500  1
  Al  Al22  1  0.29912500  0.29912500  0.56862100  1
  Al  Al23  1  0.56862100  0.83313000  0.29912500  1
  Al  Al24  1  0.83313000  0.56862100  0.29912500  1
  Al  Al25  1  0.29912500  0.29912500  0.83313000  1
  Al  Al26  1  0.29912500  0.56862100  0.29912500  1
  Al  Al27  1  0.83313000  0.29912500  0.56862100  1
  Al  Al28  1  0.56862100  0.29912500  0.83313000  1
  Al  Al29  1  0.29912500  0.83313000  0.29912500  1
  Al  Al30  1  0.68137900  0.95087500  0.95087500  1
  Al  Al31  1  0.95087500  0.68137900  0.41687000  1
  Al  Al32  1  0.95087500  0.41687000  0.68137900  1
  Al  Al33  1  0.41687000  0.95087500  0.95087500  1
  Al  Al34  1  0.95087500  0.95087500  0.68137900  1
  Al  Al35  1  0.68137900  0.41687000  0.95087500  1
  Al  Al36  1  0.41687000  0.68137900  0.95087500  1
  Al  Al37  1  0.95087500  0.95087500  0.41687000  1
  Al  Al38  1  0.95087500  0.68137900  0.95087500  1
  Al  Al39  1  0.41687000  0.95087500  0.68137900  1
  Al  Al40  1  0.68137900  0.95087500  0.41687000  1
  Al  Al41  1  0.95087500  0.41687000  0.95087500  1
  Al  Al42  1  0.12500000  0.62500000  0.62500000  1
  Al  Al43  1  0.62500000  0.12500000  0.62500000  1
  Al  Al44  1  0.62500000  0.62500000  0.12500000  1
  Al  Al45  1  0.62500000  0.62500000  0.62500000  1
