# generated using pymatgen
data_Li(ErGe)4
_symmetry_space_group_name_H-M   'P 1'
_cell_length_a   7.08617600
_cell_length_b   7.67924000
_cell_length_c   14.58434000
_cell_angle_alpha   90.00000000
_cell_angle_beta   90.00000000
_cell_angle_gamma   90.00000000
_symmetry_Int_Tables_number   1
_chemical_formula_structural   Li(ErGe)4
_chemical_formula_sum   'Li4 Er16 Ge16'
_cell_volume   793.62795277
_cell_formula_units_Z   4
loop_
 _symmetry_equiv_pos_site_id
 _symmetry_equiv_pos_as_xyz
  1  'x, y, z'
loop_
 _atom_site_type_symbol
 _atom_site_label
 _atom_site_symmetry_multiplicity
 _atom_site_fract_x
 _atom_site_fract_y
 _atom_site_fract_z
 _atom_site_occupancy
  Li  Li0  1  0.15838700  0.52149100  0.75000000  1
  Li  Li1  1  0.84161300  0.47850900  0.25000000  1
  Li  Li2  1  0.34161300  0.02149100  0.25000000  1
  Li  Li3  1  0.65838700  0.97850900  0.75000000  1
  Er  Er4  1  0.32804100  0.17619500  0.62777000  1
  Er  Er5  1  0.67195900  0.82380500  0.37223000  1
  Er  Er6  1  0.17195900  0.67619500  0.37223000  1
  Er  Er7  1  0.67195900  0.82380500  0.12777000  1
  Er  Er8  1  0.82804100  0.32380500  0.62777000  1
  Er  Er9  1  0.32804100  0.17619500  0.87223000  1
  Er  Er10  1  0.82804100  0.32380500  0.87223000  1
  Er  Er11  1  0.17195900  0.67619500  0.12777000  1
  Er  Er12  1  0.01402600  0.18591600  0.09667900  1
  Er  Er13  1  0.98597400  0.81408400  0.90332100  1
  Er  Er14  1  0.48597400  0.68591600  0.90332100  1
  Er  Er15  1  0.98597400  0.81408400  0.59667900  1
  Er  Er16  1  0.51402600  0.31408400  0.09667900  1
  Er  Er17  1  0.01402600  0.18591600  0.40332100  1
  Er  Er18  1  0.51402600  0.31408400  0.40332100  1
  Er  Er19  1  0.48597400  0.68591600  0.59667900  1
  Ge  Ge20  1  0.01760700  0.08800900  0.75000000  1
  Ge  Ge21  1  0.98239300  0.91199100  0.25000000  1
  Ge  Ge22  1  0.48239300  0.58800900  0.25000000  1
  Ge  Ge23  1  0.51760700  0.41199100  0.75000000  1
  Ge  Ge24  1  0.28433800  0.86298900  0.75000000  1
  Ge  Ge25  1  0.71566200  0.13701100  0.25000000  1
  Ge  Ge26  1  0.21566200  0.36298900  0.25000000  1
  Ge  Ge27  1  0.78433800  0.63701100  0.75000000  1
  Ge  Ge28  1  0.16708100  0.46611700  0.53725500  1
  Ge  Ge29  1  0.83291900  0.53388300  0.46274500  1
  Ge  Ge30  1  0.33291900  0.96611700  0.46274500  1
  Ge  Ge31  1  0.83291900  0.53388300  0.03725500  1
  Ge  Ge32  1  0.66708100  0.03388300  0.53725500  1
  Ge  Ge33  1  0.16708100  0.46611700  0.96274500  1
  Ge  Ge34  1  0.66708100  0.03388300  0.96274500  1
  Ge  Ge35  1  0.33291900  0.96611700  0.03725500  1
