# generated using pymatgen
data_Yb(H2N)2
_symmetry_space_group_name_H-M   'P 1'
_cell_length_a   6.22565958
_cell_length_b   6.22565958
_cell_length_c   6.22565958
_cell_angle_alpha   131.50984655
_cell_angle_beta   131.50984655
_cell_angle_gamma   71.00428141
_symmetry_Int_Tables_number   1
_chemical_formula_structural   Yb(H2N)2
_chemical_formula_sum   'Yb2 H8 N4'
_cell_volume   132.49946723
_cell_formula_units_Z   2
loop_
 _symmetry_equiv_pos_site_id
 _symmetry_equiv_pos_as_xyz
  1  'x, y, z'
loop_
 _atom_site_type_symbol
 _atom_site_label
 _atom_site_symmetry_multiplicity
 _atom_site_fract_x
 _atom_site_fract_y
 _atom_site_fract_z
 _atom_site_occupancy
  Yb  Yb0  1  0.75000000  0.25000000  0.50000000  1
  Yb  Yb1  1  0.00000000  0.00000000  0.00000000  1
  H  H2  1  0.89615000  0.55342300  0.34272700  1
  H  H3  1  0.21069600  0.55342300  0.65727300  1
  H  H4  1  0.53930400  0.69657700  0.84272700  1
  H  H5  1  0.85385000  0.69657700  0.15727300  1
  H  H6  1  0.44657700  0.10385000  0.65727300  1
  H  H7  1  0.44657700  0.78930400  0.34272700  1
  H  H8  1  0.30342300  0.46069600  0.15727300  1
  H  H9  1  0.30342300  0.14615000  0.84272700  1
  N  N10  1  0.99041700  0.49041700  0.50000000  1
  N  N11  1  0.75958300  0.75958300  0.00000000  1
  N  N12  1  0.50958300  0.00958300  0.50000000  1
  N  N13  1  0.24041700  0.24041700  0.00000000  1
