# generated using pymatgen
data_Rb3DyV2O8
_symmetry_space_group_name_H-M   'P 1'
_cell_length_a   6.08471632
_cell_length_b   6.08471632
_cell_length_c   7.88796700
_cell_angle_alpha   90.00000000
_cell_angle_beta   90.00000000
_cell_angle_gamma   120.00000348
_symmetry_Int_Tables_number   1
_chemical_formula_structural   Rb3DyV2O8
_chemical_formula_sum   'Rb3 Dy1 V2 O8'
_cell_volume   252.91603950
_cell_formula_units_Z   1
loop_
 _symmetry_equiv_pos_site_id
 _symmetry_equiv_pos_as_xyz
  1  'x, y, z'
loop_
 _atom_site_type_symbol
 _atom_site_label
 _atom_site_symmetry_multiplicity
 _atom_site_fract_x
 _atom_site_fract_y
 _atom_site_fract_z
 _atom_site_occupancy
  Rb  Rb0  1  0.66666700  0.33333300  0.30885400  1
  Rb  Rb1  1  0.33333300  0.66666700  0.69114600  1
  Rb  Rb2  1  0.00000000  0.00000000  0.00000000  1
  Dy  Dy3  1  0.00000000  0.00000000  0.50000000  1
  V  V4  1  0.66666700  0.33333300  0.74768100  1
  V  V5  1  0.33333300  0.66666700  0.25231900  1
  O  O6  1  0.66666700  0.33333300  0.96048800  1
  O  O7  1  0.33333300  0.66666700  0.03951200  1
  O  O8  1  0.82472400  0.64944800  0.67022200  1
  O  O9  1  0.17527600  0.35055200  0.32977800  1
  O  O10  1  0.82472400  0.17527600  0.67022200  1
  O  O11  1  0.17527600  0.82472400  0.32977800  1
  O  O12  1  0.35055200  0.17527600  0.67022200  1
  O  O13  1  0.64944800  0.82472400  0.32977800  1
