# generated using pymatgen
data_CsAuCl4
_symmetry_space_group_name_H-M   'P 1'
_cell_length_a   7.39649121
_cell_length_b   7.39649121
_cell_length_c   10.21881546
_cell_angle_alpha   76.65456076
_cell_angle_beta   76.65456076
_cell_angle_gamma   51.21438893
_symmetry_Int_Tables_number   1
_chemical_formula_structural   CsAuCl4
_chemical_formula_sum   'Cs2 Au2 Cl8'
_cell_volume   421.26103753
_cell_formula_units_Z   2
loop_
 _symmetry_equiv_pos_site_id
 _symmetry_equiv_pos_as_xyz
  1  'x, y, z'
loop_
 _atom_site_type_symbol
 _atom_site_label
 _atom_site_symmetry_multiplicity
 _atom_site_fract_x
 _atom_site_fract_y
 _atom_site_fract_z
 _atom_site_occupancy
  Cs  Cs0  1  0.29756400  0.70243600  0.25000000  1
  Cs  Cs1  1  0.70243600  0.29756400  0.75000000  1
  Au  Au2  1  0.00000000  0.50000000  0.00000000  1
  Au  Au3  1  0.50000000  0.00000000  0.50000000  1
  Cl  Cl4  1  0.13214100  0.72466900  0.93080800  1
  Cl  Cl5  1  0.27533100  0.86785900  0.56919200  1
  Cl  Cl6  1  0.86785900  0.27533100  0.06919200  1
  Cl  Cl7  1  0.72466900  0.13214100  0.43080800  1
  Cl  Cl8  1  0.30640400  0.24000100  0.13298000  1
  Cl  Cl9  1  0.75999900  0.69359600  0.36702000  1
  Cl  Cl10  1  0.69359600  0.75999900  0.86702000  1
  Cl  Cl11  1  0.24000100  0.30640400  0.63298000  1
