# generated using pymatgen
data_Eu(AsPd)2
_symmetry_space_group_name_H-M   'P 1'
_cell_length_a   6.03518394
_cell_length_b   6.03518394
_cell_length_c   6.03518394
_cell_angle_alpha   137.54315026
_cell_angle_beta   137.54315026
_cell_angle_gamma   61.60341046
_symmetry_Int_Tables_number   1
_chemical_formula_structural   Eu(AsPd)2
_chemical_formula_sum   'Eu1 As2 Pd2'
_cell_volume   99.01995223
_cell_formula_units_Z   1
loop_
 _symmetry_equiv_pos_site_id
 _symmetry_equiv_pos_as_xyz
  1  'x, y, z'
loop_
 _atom_site_type_symbol
 _atom_site_label
 _atom_site_symmetry_multiplicity
 _atom_site_fract_x
 _atom_site_fract_y
 _atom_site_fract_z
 _atom_site_occupancy
  Eu  Eu0  1  0.00000000  0.00000000  0.00000000  1
  As  As1  1  0.62115200  0.62115200  0.00000000  1
  As  As2  1  0.37884800  0.37884800  0.00000000  1
  Pd  Pd3  1  0.75000000  0.25000000  0.50000000  1
  Pd  Pd4  1  0.25000000  0.75000000  0.50000000  1
