# generated using pymatgen
data_Ba3Ga2B10H4O23
_symmetry_space_group_name_H-M   'P 1'
_cell_length_a   24.02467466
_cell_length_b   23.51205577
_cell_length_c   7.16185724
_cell_angle_alpha   85.41457889
_cell_angle_beta   77.29891077
_cell_angle_gamma   17.28651033
_symmetry_Int_Tables_number   1
_chemical_formula_structural   Ba3Ga2B10H4O23
_chemical_formula_sum   'Ba6 Ga4 B20 H8 O46'
_cell_volume   1048.19293714
_cell_formula_units_Z   2
loop_
 _symmetry_equiv_pos_site_id
 _symmetry_equiv_pos_as_xyz
  1  'x, y, z'
loop_
 _atom_site_type_symbol
 _atom_site_label
 _atom_site_symmetry_multiplicity
 _atom_site_fract_x
 _atom_site_fract_y
 _atom_site_fract_z
 _atom_site_occupancy
  Ba  Ba0  1  0.52382000  0.78948200  0.47514300  1
  Ba  Ba1  1  0.47514300  0.21155600  0.52382000  1
  Ba  Ba2  1  0.03844400  0.77485700  0.46051800  1
  Ba  Ba3  1  0.46051800  0.72618000  0.03844400  1
  Ba  Ba4  1  0.75875800  0.74124200  0.75875800  1
  Ba  Ba5  1  0.50875800  0.49124200  0.50875800  1
  Ga  Ga6  1  0.87980200  0.45516900  0.76550700  1
  Ga  Ga7  1  0.76550700  0.89952300  0.87980200  1
  Ga  Ga8  1  0.35047700  0.48449300  0.79483100  1
  Ga  Ga9  1  0.79483100  0.37019800  0.35047700  1
  B  B10  1  0.37916400  0.15692800  0.56980800  1
  B  B11  1  0.56980800  0.89410000  0.37916400  1
  B  B12  1  0.35590000  0.68019200  0.09307200  1
  B  B13  1  0.09307200  0.87083600  0.35590000  1
  B  B14  1  0.42948900  0.90612100  0.97982300  1
  B  B15  1  0.97982300  0.68456700  0.42948900  1
  B  B16  1  0.56543300  0.27017700  0.34387900  1
  B  B17  1  0.34387900  0.82051100  0.56543300  1
  B  B18  1  0.04382400  0.28101500  0.06798300  1
  B  B19  1  0.06798300  0.60717900  0.04382400  1
  B  B20  1  0.64282100  0.18201700  0.96898500  1
  B  B21  1  0.96898500  0.20617600  0.64282100  1
  B  B22  1  0.18281900  0.25902800  0.56188200  1
  B  B23  1  0.56188200  0.99627100  0.18281900  1
  B  B24  1  0.25372900  0.68811800  0.99097200  1
  B  B25  1  0.99097200  0.06718100  0.25372900  1
  B  B26  1  0.13227800  0.17149600  0.35366800  1
  B  B27  1  0.35366800  0.34255800  0.13227800  1
  B  B28  1  0.90744200  0.89633200  0.07850400  1
  B  B29  1  0.07850400  0.11772200  0.90744200  1
  H  H30  1  0.44131100  0.96259800  0.13874500  1
  H  H31  1  0.13874500  0.45734600  0.44131100  1
  H  H32  1  0.79265400  0.11125500  0.28740200  1
  H  H33  1  0.28740200  0.80868900  0.79265400  1
  H  H34  1  0.35880900  0.20073200  0.85227500  1
  H  H35  1  0.85227500  0.58818400  0.35880900  1
  H  H36  1  0.66181600  0.39772500  0.04926800  1
  H  H37  1  0.04926800  0.89119100  0.66181600  1
  O  O38  1  0.34113700  0.95975900  0.19929500  1
  O  O39  1  0.19929500  0.49981000  0.34113700  1
  O  O40  1  0.75019000  0.05070500  0.29024100  1
  O  O41  1  0.29024100  0.90886300  0.75019000  1
  O  O42  1  0.08044900  0.21424300  0.56406900  1
  O  O43  1  0.56406900  0.14123800  0.08044900  1
  O  O44  1  0.10876200  0.68593100  0.03575700  1
  O  O45  1  0.03575700  0.16955100  0.10876200  1
  O  O46  1  0.18028700  0.31735400  0.61219500  1
  O  O47  1  0.61219500  0.89016400  0.18028700  1
  O  O48  1  0.35983600  0.63780500  0.93264600  1
  O  O49  1  0.93264600  0.06971300  0.35983600  1
  O  O50  1  0.87756000  0.44625200  0.02526600  1
  O  O51  1  0.02526600  0.65092300  0.87756000  1
  O  O52  1  0.59907700  0.22473400  0.80374800  1
  O  O53  1  0.80374800  0.37244000  0.59907700  1
  O  O54  1  0.98548000  0.42510700  0.62766100  1
  O  O55  1  0.62766100  0.96175200  0.98548000  1
  O  O56  1  0.28824800  0.62233900  0.82489300  1
  O  O57  1  0.82489300  0.26452000  0.28824800  1
  O  O58  1  0.25613800  0.07751800  0.91757800  1
  O  O59  1  0.91757800  0.74876600  0.25613800  1
  O  O60  1  0.50123400  0.33242200  0.17248200  1
  O  O61  1  0.17248200  0.99386200  0.50123400  1
  O  O62  1  0.50199100  0.89336700  0.99123000  1
  O  O63  1  0.99123000  0.61341300  0.50199100  1
  O  O64  1  0.63658700  0.25877000  0.35663300  1
  O  O65  1  0.35663300  0.74800900  0.63658700  1
  O  O66  1  0.54168300  0.95831700  0.54168300  1
  O  O67  1  0.29168300  0.70831700  0.29168300  1
  O  O68  1  0.98258400  0.33442300  0.28968400  1
  O  O69  1  0.28968400  0.39331000  0.98258400  1
  O  O70  1  0.85669000  0.96031600  0.91557700  1
  O  O71  1  0.91557700  0.26741600  0.85669000  1
  O  O72  1  0.33842800  0.23526300  0.73365400  1
  O  O73  1  0.73365400  0.69265500  0.33842800  1
  O  O74  1  0.55734500  0.51634600  0.01473700  1
  O  O75  1  0.01473700  0.91157200  0.55734500  1
  O  O76  1  0.60602400  0.70363200  0.81950700  1
  O  O77  1  0.81950700  0.87083700  0.60602400  1
  O  O78  1  0.37916300  0.43049300  0.54636800  1
  O  O79  1  0.54636800  0.64397600  0.37916300  1
  O  O80  1  0.37329200  0.04776000  0.44170300  1
  O  O81  1  0.44170300  0.13724500  0.37329200  1
  O  O82  1  0.11275500  0.80829700  0.20224000  1
  O  O83  1  0.20224000  0.87670800  0.11275500  1
