# generated using pymatgen
data_SrGe3Pt
_symmetry_space_group_name_H-M   'P 1'
_cell_length_a   6.08929687
_cell_length_b   6.08929687
_cell_length_c   6.08929687
_cell_angle_alpha   136.35893411
_cell_angle_beta   136.35893411
_cell_angle_gamma   63.42590297
_symmetry_Int_Tables_number   1
_chemical_formula_structural   SrGe3Pt
_chemical_formula_sum   'Sr1 Ge3 Pt1'
_cell_volume   106.15008554
_cell_formula_units_Z   1
loop_
 _symmetry_equiv_pos_site_id
 _symmetry_equiv_pos_as_xyz
  1  'x, y, z'
loop_
 _atom_site_type_symbol
 _atom_site_label
 _atom_site_symmetry_multiplicity
 _atom_site_fract_x
 _atom_site_fract_y
 _atom_site_fract_z
 _atom_site_occupancy
  Sr  Sr0  1  0.00043200  0.00043200  0.00000000  1
  Ge  Ge1  1  0.25511100  0.75511100  0.50000000  1
  Ge  Ge2  1  0.75511100  0.25511100  0.50000000  1
  Ge  Ge3  1  0.40376800  0.40376800  0.00000000  1
  Pt  Pt4  1  0.64557700  0.64557700  0.00000000  1
