# generated using pymatgen
data_Nd5Te7MoCl3O23
_symmetry_space_group_name_H-M   'P 1'
_cell_length_a   10.02058963
_cell_length_b   10.02058963
_cell_length_c   18.49143495
_cell_angle_alpha   87.28986932
_cell_angle_beta   87.28986932
_cell_angle_gamma   134.61889162
_symmetry_Int_Tables_number   1
_chemical_formula_structural   Nd5Te7MoCl3O23
_chemical_formula_sum   'Nd10 Te14 Mo2 Cl6 O46'
_cell_volume   1311.66997595
_cell_formula_units_Z   2
loop_
 _symmetry_equiv_pos_site_id
 _symmetry_equiv_pos_as_xyz
  1  'x, y, z'
loop_
 _atom_site_type_symbol
 _atom_site_label
 _atom_site_symmetry_multiplicity
 _atom_site_fract_x
 _atom_site_fract_y
 _atom_site_fract_z
 _atom_site_occupancy
  Nd  Nd0  1  0.74235400  0.52100700  0.86267600  1
  Nd  Nd1  1  0.52093900  0.74221200  0.86298700  1
  Nd  Nd2  1  0.25778800  0.47906100  0.13701300  1
  Nd  Nd3  1  0.47899300  0.25764600  0.13732400  1
  Nd  Nd4  1  0.24047100  0.75952900  0.50000000  1
  Nd  Nd5  1  0.75717600  0.24282400  0.50000000  1
  Nd  Nd6  1  0.17986600  0.69851500  0.73818400  1
  Nd  Nd7  1  0.69846100  0.18184400  0.73825400  1
  Nd  Nd8  1  0.81815600  0.30153900  0.26174600  1
  Nd  Nd9  1  0.30148500  0.82013400  0.26181600  1
  Te  Te10  1  0.29884500  0.95869800  0.89002300  1
  Te  Te11  1  0.95874100  0.29866000  0.89000900  1
  Te  Te12  1  0.70134000  0.04125900  0.10999100  1
  Te  Te13  1  0.04130200  0.70115500  0.10997700  1
  Te  Te14  1  0.84929100  0.63700700  0.64144900  1
  Te  Te15  1  0.63460200  0.84741100  0.64256900  1
  Te  Te16  1  0.15258900  0.36539800  0.35743100  1
  Te  Te17  1  0.36299300  0.15070900  0.35855100  1
  Te  Te18  1  0.40457100  0.16165600  0.61460300  1
  Te  Te19  1  0.16282500  0.40616600  0.61519300  1
  Te  Te20  1  0.59383400  0.83717500  0.38480700  1
  Te  Te21  1  0.83834400  0.59542900  0.38539700  1
  Te  Te22  1  0.99640700  0.99637800  0.76237900  1
  Te  Te23  1  0.00362200  0.00359300  0.23762100  1
  Mo  Mo24  1  0.26497600  0.26494800  0.97658300  1
  Mo  Mo25  1  0.73505200  0.73502400  0.02341700  1
  Cl  Cl26  1  0.43721300  0.43799100  0.71422600  1
  Cl  Cl27  1  0.56200900  0.56278700  0.28577400  1
  Cl  Cl28  1  0.69668000  0.30332000  0.00000000  1
  Cl  Cl29  1  0.30333000  0.69667000  0.00000000  1
  Cl  Cl30  1  0.49956000  0.50044000  0.50000000  1
  Cl  Cl31  1  0.03022100  0.96977900  0.50000000  1
  O  O32  1  0.48496100  0.48497000  0.92244900  1
  O  O33  1  0.51503000  0.51503900  0.07755100  1
  O  O34  1  0.42865500  0.06599400  0.53456600  1
  O  O35  1  0.06566900  0.42550700  0.53429900  1
  O  O36  1  0.57449300  0.93433100  0.46570100  1
  O  O37  1  0.93400600  0.57134500  0.46543400  1
  O  O38  1  0.40286300  0.02558100  0.69131900  1
  O  O39  1  0.02564200  0.40285700  0.69156800  1
  O  O40  1  0.59714300  0.97435800  0.30843200  1
  O  O41  1  0.97441900  0.59713700  0.30868100  1
  O  O42  1  0.47894100  0.20468100  0.84031400  1
  O  O43  1  0.20472100  0.47895300  0.84036700  1
  O  O44  1  0.52104700  0.79527900  0.15963300  1
  O  O45  1  0.79531900  0.52105900  0.15968600  1
  O  O46  1  0.03817800  0.89090100  0.69178700  1
  O  O47  1  0.89056100  0.03736900  0.69135300  1
  O  O48  1  0.96263100  0.10943900  0.30864700  1
  O  O49  1  0.10909900  0.96182200  0.30821300  1
  O  O50  1  0.41327300  0.89454900  0.83681200  1
  O  O51  1  0.89438700  0.41304200  0.83687500  1
  O  O52  1  0.58695800  0.10561300  0.16312500  1
  O  O53  1  0.10545100  0.58672700  0.16318800  1
  O  O54  1  0.09601900  0.81690100  0.83001500  1
  O  O55  1  0.81676200  0.09600100  0.82990000  1
  O  O56  1  0.90399900  0.18323800  0.17010000  1
  O  O57  1  0.18309900  0.90398100  0.16998500  1
  O  O58  1  0.07526000  0.70387700  0.61368800  1
  O  O59  1  0.70553100  0.07461700  0.61281200  1
  O  O60  1  0.92538300  0.29446900  0.38718800  1
  O  O61  1  0.29612300  0.92474000  0.38631200  1
  O  O62  1  0.14594300  0.30669900  0.03036700  1
  O  O63  1  0.30669200  0.14594200  0.03037200  1
  O  O64  1  0.85405800  0.69330800  0.96962800  1
  O  O65  1  0.69330100  0.85405700  0.96963300  1
  O  O66  1  0.68310200  0.35511500  0.60910900  1
  O  O67  1  0.35565000  0.68347200  0.60931300  1
  O  O68  1  0.31652800  0.64435000  0.39068700  1
  O  O69  1  0.64488500  0.31689800  0.39089100  1
  O  O70  1  0.11323300  0.11321900  0.91267200  1
  O  O71  1  0.88678100  0.88676700  0.08732800  1
  O  O72  1  0.82425300  0.51742100  0.73346800  1
  O  O73  1  0.51676100  0.82348300  0.73373700  1
  O  O74  1  0.17651700  0.48323900  0.26626300  1
  O  O75  1  0.48257900  0.17574700  0.26653200  1
  O  O76  1  0.76482700  0.76496800  0.81092100  1
  O  O77  1  0.23503200  0.23517300  0.18907900  1
