# generated using pymatgen
data_K4Ba2SnSb4
_symmetry_space_group_name_H-M   'P 1'
_cell_length_a   11.25628686
_cell_length_b   11.25628686
_cell_length_c   8.38390947
_cell_angle_alpha   89.36848513
_cell_angle_beta   89.36848513
_cell_angle_gamma   119.44460780
_symmetry_Int_Tables_number   1
_chemical_formula_structural   K4Ba2SnSb4
_chemical_formula_sum   'K8 Ba4 Sn2 Sb8'
_cell_volume   924.84115504
_cell_formula_units_Z   2
loop_
 _symmetry_equiv_pos_site_id
 _symmetry_equiv_pos_as_xyz
  1  'x, y, z'
loop_
 _atom_site_type_symbol
 _atom_site_label
 _atom_site_symmetry_multiplicity
 _atom_site_fract_x
 _atom_site_fract_y
 _atom_site_fract_z
 _atom_site_occupancy
  K  K0  1  0.04269800  0.52070100  0.62241700  1
  K  K1  1  0.52070100  0.04269800  0.12241700  1
  K  K2  1  0.28760600  0.14220000  0.81921700  1
  K  K3  1  0.85960400  0.71015700  0.80735100  1
  K  K4  1  0.85720800  0.14852000  0.81319400  1
  K  K5  1  0.71015700  0.85960400  0.30735100  1
  K  K6  1  0.14220000  0.28760600  0.31921700  1
  K  K7  1  0.14852000  0.85720800  0.31319400  1
  Ba  Ba8  1  0.47698000  0.95616800  0.62350500  1
  Ba  Ba9  1  0.47579300  0.51969000  0.62400900  1
  Ba  Ba10  1  0.95616800  0.47698000  0.12350500  1
  Ba  Ba11  1  0.51969000  0.47579300  0.12400900  1
  Sn  Sn12  1  0.66955600  0.33530800  0.50166500  1
  Sn  Sn13  1  0.33530800  0.66955600  0.00166500  1
  Sb  Sb14  1  0.61297400  0.80171800  0.88614500  1
  Sb  Sb15  1  0.19764100  0.38890100  0.90439500  1
  Sb  Sb16  1  0.19188300  0.80447900  0.89648200  1
  Sb  Sb17  1  0.38890100  0.19764100  0.40439500  1
  Sb  Sb18  1  0.80171800  0.61297400  0.38614500  1
  Sb  Sb19  1  0.80447900  0.19188300  0.39648200  1
  Sb  Sb20  1  0.66312700  0.33664800  0.84725400  1
  Sb  Sb21  1  0.33664800  0.66312700  0.34725400  1
