# generated using pymatgen
data_Ta2InS4
_symmetry_space_group_name_H-M   'P 1'
_cell_length_a   8.69309236
_cell_length_b   8.69309236
_cell_length_c   8.69309236
_cell_angle_alpha   157.61439380
_cell_angle_beta   140.94130176
_cell_angle_gamma   45.48125575
_symmetry_Int_Tables_number   1
_chemical_formula_structural   Ta2InS4
_chemical_formula_sum   'Ta2 In1 S4'
_cell_volume   157.25759633
_cell_formula_units_Z   1
loop_
 _symmetry_equiv_pos_site_id
 _symmetry_equiv_pos_as_xyz
  1  'x, y, z'
loop_
 _atom_site_type_symbol
 _atom_site_label
 _atom_site_symmetry_multiplicity
 _atom_site_fract_x
 _atom_site_fract_y
 _atom_site_fract_z
 _atom_site_occupancy
  Ta  Ta0  1  0.75030700  0.75080000  0.99950700  1
  Ta  Ta1  1  0.24870700  0.24920000  0.99950700  1
  In  In2  1  0.50580500  0.50000000  0.00580500  1
  S  S3  1  0.48512200  0.15346900  0.33165300  1
  S  S4  1  0.98422300  0.65250000  0.33172300  1
  S  S5  1  0.67922300  0.34750000  0.33172300  1
  S  S6  1  0.17818400  0.84653100  0.33165300  1
