# generated using pymatgen
data_VI2
_symmetry_space_group_name_H-M   'P 1'
_cell_length_a   4.11268862
_cell_length_b   4.11268862
_cell_length_c   7.14242400
_cell_angle_alpha   90.00000000
_cell_angle_beta   90.00000000
_cell_angle_gamma   120.00000995
_symmetry_Int_Tables_number   1
_chemical_formula_structural   VI2
_chemical_formula_sum   'V1 I2'
_cell_volume   104.62316999
_cell_formula_units_Z   1
loop_
 _symmetry_equiv_pos_site_id
 _symmetry_equiv_pos_as_xyz
  1  'x, y, z'
loop_
 _atom_site_type_symbol
 _atom_site_label
 _atom_site_symmetry_multiplicity
 _atom_site_fract_x
 _atom_site_fract_y
 _atom_site_fract_z
 _atom_site_occupancy
  V  V0  1  0.00000000  0.00000000  0.00000000  1
  I  I1  1  0.66666700  0.33333300  0.77987400  1
  I  I2  1  0.33333300  0.66666700  0.22012600  1
