# generated using pymatgen
data_Ba7Al4Sb9
_symmetry_space_group_name_H-M   'P 1'
_cell_length_a   7.33431800
_cell_length_b   10.89698700
_cell_length_c   18.42250500
_cell_angle_alpha   90.00000000
_cell_angle_beta   90.00000000
_cell_angle_gamma   90.00000000
_symmetry_Int_Tables_number   1
_chemical_formula_structural   Ba7Al4Sb9
_chemical_formula_sum   'Ba14 Al8 Sb18'
_cell_volume   1472.36285325
_cell_formula_units_Z   2
loop_
 _symmetry_equiv_pos_site_id
 _symmetry_equiv_pos_as_xyz
  1  'x, y, z'
loop_
 _atom_site_type_symbol
 _atom_site_label
 _atom_site_symmetry_multiplicity
 _atom_site_fract_x
 _atom_site_fract_y
 _atom_site_fract_z
 _atom_site_occupancy
  Ba  Ba0  1  0.45518400  0.50000000  0.78712500  1
  Ba  Ba1  1  0.45518400  0.50000000  0.21287500  1
  Ba  Ba2  1  0.54481600  0.00000000  0.71287500  1
  Ba  Ba3  1  0.54481600  0.00000000  0.28712500  1
  Ba  Ba4  1  0.95257500  0.27386700  0.87579800  1
  Ba  Ba5  1  0.95257500  0.72613300  0.87579800  1
  Ba  Ba6  1  0.95257500  0.27386700  0.12420200  1
  Ba  Ba7  1  0.95257500  0.72613300  0.12420200  1
  Ba  Ba8  1  0.04742500  0.22613300  0.62420200  1
  Ba  Ba9  1  0.04742500  0.77386700  0.62420200  1
  Ba  Ba10  1  0.04742500  0.22613300  0.37579800  1
  Ba  Ba11  1  0.04742500  0.77386700  0.37579800  1
  Ba  Ba12  1  0.41336700  0.50000000  0.50000000  1
  Ba  Ba13  1  0.58663300  0.00000000  0.00000000  1
  Al  Al14  1  0.75904200  0.50000000  0.37342700  1
  Al  Al15  1  0.75904200  0.50000000  0.62657300  1
  Al  Al16  1  0.24095800  0.00000000  0.12657300  1
  Al  Al17  1  0.24095800  0.00000000  0.87342700  1
  Al  Al18  1  0.56011700  0.82512300  0.50000000  1
  Al  Al19  1  0.56011700  0.17487700  0.50000000  1
  Al  Al20  1  0.43988300  0.67487700  0.00000000  1
  Al  Al21  1  0.43988300  0.32512300  0.00000000  1
  Sb  Sb22  1  0.54732800  0.29134100  0.36893300  1
  Sb  Sb23  1  0.54732800  0.70865900  0.36893300  1
  Sb  Sb24  1  0.54732800  0.29134100  0.63106700  1
  Sb  Sb25  1  0.54732800  0.70865900  0.63106700  1
  Sb  Sb26  1  0.45267200  0.20865900  0.13106700  1
  Sb  Sb27  1  0.45267200  0.79134100  0.13106700  1
  Sb  Sb28  1  0.45267200  0.20865900  0.86893300  1
  Sb  Sb29  1  0.45267200  0.79134100  0.86893300  1
  Sb  Sb30  1  0.97970500  0.50000000  0.25870900  1
  Sb  Sb31  1  0.97970500  0.50000000  0.74129100  1
  Sb  Sb32  1  0.02029500  0.00000000  0.24129100  1
  Sb  Sb33  1  0.02029500  0.00000000  0.75870900  1
  Sb  Sb34  1  0.70995400  0.50000000  0.00000000  1
  Sb  Sb35  1  0.29004600  0.00000000  0.50000000  1
  Sb  Sb36  1  0.16904900  0.50000000  0.00000000  1
  Sb  Sb37  1  0.83095100  0.00000000  0.50000000  1
  Sb  Sb38  1  0.95267200  0.50000000  0.50000000  1
  Sb  Sb39  1  0.04732800  0.00000000  0.00000000  1
