# generated using pymatgen
data_K10LiZr6H4O2F35
_symmetry_space_group_name_H-M   'P 1'
_cell_length_a   7.66171300
_cell_length_b   11.24552800
_cell_length_c   20.82494722
_cell_angle_alpha   90.00000000
_cell_angle_beta   97.36543356
_cell_angle_gamma   90.00000000
_symmetry_Int_Tables_number   1
_chemical_formula_structural   K10LiZr6H4O2F35
_chemical_formula_sum   'K20 Li2 Zr12 H8 O4 F70'
_cell_volume   1779.47246890
_cell_formula_units_Z   2
loop_
 _symmetry_equiv_pos_site_id
 _symmetry_equiv_pos_as_xyz
  1  'x, y, z'
loop_
 _atom_site_type_symbol
 _atom_site_label
 _atom_site_symmetry_multiplicity
 _atom_site_fract_x
 _atom_site_fract_y
 _atom_site_fract_z
 _atom_site_occupancy
  K  K0  1  0.25545400  0.66941900  0.00750800  1
  K  K1  1  0.74454600  0.16941900  0.99249200  1
  K  K2  1  0.88463500  0.67188900  0.28378300  1
  K  K3  1  0.11536500  0.17188900  0.71621700  1
  K  K4  1  0.22057200  0.68860400  0.45665900  1
  K  K5  1  0.77942800  0.18860400  0.54334100  1
  K  K6  1  0.71338600  0.67169800  0.73421100  1
  K  K7  1  0.28661400  0.17169800  0.26578900  1
  K  K8  1  0.79444700  0.82186000  0.05060900  1
  K  K9  1  0.20555300  0.32186000  0.94939100  1
  K  K10  1  0.49404800  0.86646100  0.87823200  1
  K  K11  1  0.50595200  0.36646100  0.12176800  1
  K  K12  1  0.17348200  0.82241600  0.71237600  1
  K  K13  1  0.82651800  0.32241600  0.28762400  1
  K  K14  1  0.80740000  0.84214400  0.55329100  1
  K  K15  1  0.19260000  0.34214400  0.44670900  1
  K  K16  1  0.53891000  0.88155000  0.36894100  1
  K  K17  1  0.46109000  0.38155000  0.63105900  1
  K  K18  1  0.23300300  0.82461400  0.19200600  1
  K  K19  1  0.76699700  0.32461400  0.80799400  1
  Li  Li20  1  0.98653800  0.66988900  0.87036300  1
  Li  Li21  1  0.01346200  0.16988900  0.12963700  1
  Zr  Zr22  1  0.01096100  0.46911800  0.12832800  1
  Zr  Zr23  1  0.98903900  0.96911800  0.87167200  1
  Zr  Zr24  1  0.70008800  0.52679400  0.94684000  1
  Zr  Zr25  1  0.29991200  0.02679400  0.05316000  1
  Zr  Zr26  1  0.27690900  0.51836100  0.79872500  1
  Zr  Zr27  1  0.72309100  0.01836100  0.20127500  1
  Zr  Zr28  1  0.37673600  0.52905100  0.29855500  1
  Zr  Zr29  1  0.62326400  0.02905100  0.70144500  1
  Zr  Zr30  1  0.00226800  0.50689200  0.60596600  1
  Zr  Zr31  1  0.99773200  0.00689200  0.39403400  1
  Zr  Zr32  1  0.70662300  0.51636300  0.44798200  1
  Zr  Zr33  1  0.29337700  0.01636300  0.55201800  1
  H  H34  1  0.44004100  0.73045800  0.60170900  1
  H  H35  1  0.55995900  0.23045800  0.39829100  1
  H  H36  1  0.53506300  0.62165300  0.57400300  1
  H  H37  1  0.46493700  0.12165300  0.42599700  1
  H  H38  1  0.52910000  0.64840300  0.16230800  1
  H  H39  1  0.47090000  0.14840300  0.83769200  1
  H  H40  1  0.63748000  0.61402400  0.10621300  1
  H  H41  1  0.36252000  0.11402400  0.89378700  1
  O  O42  1  0.54849000  0.68230300  0.60778500  1
  O  O43  1  0.45151000  0.18230300  0.39221500  1
  O  O44  1  0.52867800  0.65203400  0.11468300  1
  O  O45  1  0.47132200  0.15203400  0.88531700  1
  F  F46  1  0.80422200  0.52471000  0.05127900  1
  F  F47  1  0.19577800  0.02471000  0.94872100  1
  F  F48  1  0.19790000  0.53859400  0.20981500  1
  F  F49  1  0.80210000  0.03859400  0.79018500  1
  F  F50  1  0.17655600  0.45877600  0.05928000  1
  F  F51  1  0.82344400  0.95877600  0.94072000  1
  F  F52  1  0.83262500  0.49094900  0.19372600  1
  F  F53  1  0.16737500  0.99094900  0.80627400  1
  F  F54  1  0.15716800  0.32473500  0.16730500  1
  F  F55  1  0.84283200  0.82473500  0.83269500  1
  F  F56  1  0.85849900  0.31820600  0.10142000  1
  F  F57  1  0.14150100  0.81820600  0.89858000  1
  F  F58  1  0.02603200  0.65232600  0.12028200  1
  F  F59  1  0.97396800  0.15232600  0.87971800  1
  F  F60  1  0.48754600  0.46548400  0.87366200  1
  F  F61  1  0.51245400  0.96548400  0.12633800  1
  F  F62  1  0.55733000  0.67785200  0.95635400  1
  F  F63  1  0.44267000  0.17785200  0.04364600  1
  F  F64  1  0.83988000  0.37365900  0.93938300  1
  F  F65  1  0.16012000  0.87365900  0.06061700  1
  F  F66  1  0.52345400  0.43524600  0.99496400  1
  F  F67  1  0.47654600  0.93524600  0.00503600  1
  F  F68  1  0.91026500  0.64679100  0.96074000  1
  F  F69  1  0.08973500  0.14679100  0.03926000  1
  F  F70  1  0.77429200  0.56048500  0.85488100  1
  F  F71  1  0.22570800  0.06048500  0.14511900  1
  F  F72  1  0.18870100  0.51828500  0.69296400  1
  F  F73  1  0.81129900  0.01828500  0.30703600  1
  F  F74  1  0.40753600  0.67502900  0.79319400  1
  F  F75  1  0.59246400  0.17502900  0.20680600  1
  F  F76  1  0.13934400  0.36135300  0.79727500  1
  F  F77  1  0.86065600  0.86135300  0.20272500  1
  F  F78  1  0.47359100  0.44019700  0.75269900  1
  F  F79  1  0.52640900  0.94019700  0.24730100  1
  F  F80  1  0.18867300  0.54552600  0.88848000  1
  F  F81  1  0.81132700  0.04552600  0.11152000  1
  F  F82  1  0.05725200  0.63066000  0.78192600  1
  F  F83  1  0.94274800  0.13066000  0.21807400  1
  F  F84  1  0.65110500  0.55351400  0.34201100  1
  F  F85  1  0.34889500  0.05351400  0.65798900  1
  F  F86  1  0.41706000  0.49401000  0.40114300  1
  F  F87  1  0.58294000  0.99401000  0.59885700  1
  F  F88  1  0.25495100  0.68164900  0.32534300  1
  F  F89  1  0.74504900  0.18164900  0.67465700  1
  F  F90  1  0.48560800  0.38637200  0.26034600  1
  F  F91  1  0.51439200  0.88637200  0.73965400  1
  F  F92  1  0.49302400  0.64855100  0.24010700  1
  F  F93  1  0.50697600  0.14855100  0.75989300  1
  F  F94  1  0.16768600  0.42461500  0.31508800  1
  F  F95  1  0.83231400  0.92461500  0.68491200  1
  F  F96  1  0.85115300  0.61256400  0.52932700  1
  F  F97  1  0.14884700  0.11256400  0.47067300  1
  F  F98  1  0.89727600  0.40332300  0.52025600  1
  F  F99  1  0.10272400  0.90332300  0.47974400  1
  F  F100  1  0.79666800  0.46212800  0.65348000  1
  F  F101  1  0.20333200  0.96212800  0.34652000  1
  F  F102  1  0.21290900  0.53613000  0.55656100  1
  F  F103  1  0.78709100  0.03613000  0.44343900  1
  F  F104  1  0.98164700  0.67757200  0.63860600  1
  F  F105  1  0.01835300  0.17757200  0.36139400  1
  F  F106  1  0.09731600  0.33600300  0.62336900  1
  F  F107  1  0.90268400  0.83600300  0.37663100  1
  F  F108  1  0.94707800  0.54543600  0.41716300  1
  F  F109  1  0.05292200  0.04543600  0.58283700  1
  F  F110  1  0.56399400  0.46439600  0.51992000  1
  F  F111  1  0.43600600  0.96439600  0.48008000  1
  F  F112  1  0.70835700  0.34691700  0.40976700  1
  F  F113  1  0.29164300  0.84691700  0.59023300  1
  F  F114  1  0.59617600  0.68425100  0.44592000  1
  F  F115  1  0.40382400  0.18425100  0.55408000  1
