# generated using pymatgen
data_Yb(BRu)4
_symmetry_space_group_name_H-M   'P 1'
_cell_length_a   9.23402406
_cell_length_b   9.23402406
_cell_length_c   9.23402406
_cell_angle_alpha   132.68933014
_cell_angle_beta   132.68933014
_cell_angle_gamma   69.14245970
_symmetry_Int_Tables_number   1
_chemical_formula_structural   Yb(BRu)4
_chemical_formula_sum   'Yb4 B16 Ru16'
_cell_volume   417.49403010
_cell_formula_units_Z   4
loop_
 _symmetry_equiv_pos_site_id
 _symmetry_equiv_pos_as_xyz
  1  'x, y, z'
loop_
 _atom_site_type_symbol
 _atom_site_label
 _atom_site_symmetry_multiplicity
 _atom_site_fract_x
 _atom_site_fract_y
 _atom_site_fract_z
 _atom_site_occupancy
  Yb  Yb0  1  0.75000000  0.75000000  0.00000000  1
  Yb  Yb1  1  0.25000000  0.25000000  0.00000000  1
  Yb  Yb2  1  0.00000000  0.50000000  0.50000000  1
  Yb  Yb3  1  0.50000000  0.00000000  0.50000000  1
  B  B4  1  0.71865300  0.41349000  0.96947400  1
  B  B5  1  0.21865300  0.24917800  0.30516300  1
  B  B6  1  0.66349000  0.46865300  0.46947400  1
  B  B7  1  0.16349000  0.69401500  0.19483700  1
  B  B8  1  0.03134700  0.83651000  0.53052600  1
  B  B9  1  0.53134700  0.00082200  0.19483700  1
  B  B10  1  0.08651000  0.78134700  0.03052600  1
  B  B11  1  0.58651000  0.55598500  0.30516300  1
  B  B12  1  0.94401500  0.91349000  0.69483700  1
  B  B13  1  0.44401500  0.74917800  0.03052600  1
  B  B14  1  0.49917800  0.96865300  0.80516300  1
  B  B15  1  0.99917800  0.19401500  0.53052600  1
  B  B16  1  0.80598500  0.33651000  0.80516300  1
  B  B17  1  0.30598500  0.50082200  0.46947400  1
  B  B18  1  0.25082200  0.28134700  0.69483700  1
  B  B19  1  0.75082200  0.05598500  0.96947400  1
  Ru  Ru20  1  0.03648900  0.57263500  0.23168800  1
  Ru  Ru21  1  0.53648900  0.30480200  0.46385500  1
  Ru  Ru22  1  0.82263500  0.78648900  0.73168800  1
  Ru  Ru23  1  0.32263500  0.59094700  0.03614500  1
  Ru  Ru24  1  0.71351100  0.67736500  0.26831200  1
  Ru  Ru25  1  0.21351100  0.94519800  0.03614500  1
  Ru  Ru26  1  0.92736500  0.46351100  0.76831200  1
  Ru  Ru27  1  0.42736500  0.65905300  0.46385500  1
  Ru  Ru28  1  0.84094700  0.07263500  0.53614500  1
  Ru  Ru29  1  0.34094700  0.80480200  0.76831200  1
  Ru  Ru30  1  0.55480200  0.28648900  0.96385500  1
  Ru  Ru31  1  0.05480200  0.09094700  0.26831200  1
  Ru  Ru32  1  0.90905300  0.17736500  0.96385500  1
  Ru  Ru33  1  0.40905300  0.44519800  0.73168800  1
  Ru  Ru34  1  0.19519800  0.96351100  0.53614500  1
  Ru  Ru35  1  0.69519800  0.15905300  0.23168800  1
