# generated using pymatgen
data_TbDy3Al8
_symmetry_space_group_name_H-M   'P 1'
_cell_length_a   9.64105006
_cell_length_b   9.64105006
_cell_length_c   9.64105046
_cell_angle_alpha   33.55568928
_cell_angle_beta   33.55568928
_cell_angle_gamma   33.55569064
_symmetry_Int_Tables_number   1
_chemical_formula_structural   TbDy3Al8
_chemical_formula_sum   'Tb1 Dy3 Al8'
_cell_volume   243.87538334
_cell_formula_units_Z   1
loop_
 _symmetry_equiv_pos_site_id
 _symmetry_equiv_pos_as_xyz
  1  'x, y, z'
loop_
 _atom_site_type_symbol
 _atom_site_label
 _atom_site_symmetry_multiplicity
 _atom_site_fract_x
 _atom_site_fract_y
 _atom_site_fract_z
 _atom_site_occupancy
  Tb  Tb0  1  0.81250700  0.81250700  0.81250700  1
  Dy  Dy1  1  0.31260600  0.31260600  0.31260600  1
  Dy  Dy2  1  0.68752800  0.68752800  0.68752800  1
  Dy  Dy3  1  0.18735100  0.18735100  0.18735100  1
  Al  Al4  1  0.50004400  0.50004400  0.50004400  1
  Al  Al5  1  0.00004000  0.00004000  0.00004000  1
  Al  Al6  1  0.24981400  0.24981400  0.75020300  1
  Al  Al7  1  0.74993200  0.74993200  0.25022800  1
  Al  Al8  1  0.24981400  0.75020300  0.24981400  1
  Al  Al9  1  0.74993200  0.25022800  0.74993200  1
  Al  Al10  1  0.75020300  0.24981400  0.24981400  1
  Al  Al11  1  0.25022800  0.74993200  0.74993200  1
