# generated using pymatgen
data_Ba2CdGe2O7
_symmetry_space_group_name_H-M   'P 1'
_cell_length_a   8.73717700
_cell_length_b   8.73717700
_cell_length_c   5.66664600
_cell_angle_alpha   90.00000000
_cell_angle_beta   90.00000000
_cell_angle_gamma   90.00000000
_symmetry_Int_Tables_number   1
_chemical_formula_structural   Ba2CdGe2O7
_chemical_formula_sum   'Ba4 Cd2 Ge4 O14'
_cell_volume   432.58190661
_cell_formula_units_Z   2
loop_
 _symmetry_equiv_pos_site_id
 _symmetry_equiv_pos_as_xyz
  1  'x, y, z'
loop_
 _atom_site_type_symbol
 _atom_site_label
 _atom_site_symmetry_multiplicity
 _atom_site_fract_x
 _atom_site_fract_y
 _atom_site_fract_z
 _atom_site_occupancy
  Ba  Ba0  1  0.16610000  0.33390000  0.50518300  1
  Ba  Ba1  1  0.83390000  0.66610000  0.50518300  1
  Ba  Ba2  1  0.66610000  0.16610000  0.49481700  1
  Ba  Ba3  1  0.33390000  0.83390000  0.49481700  1
  Cd  Cd4  1  0.00000000  0.00000000  0.00000000  1
  Cd  Cd5  1  0.50000000  0.50000000  0.00000000  1
  Ge  Ge6  1  0.63748200  0.86251800  0.94515400  1
  Ge  Ge7  1  0.36251800  0.13748200  0.94515400  1
  Ge  Ge8  1  0.13748200  0.63748200  0.05484600  1
  Ge  Ge9  1  0.86251800  0.36251800  0.05484600  1
  O  O10  1  0.00000000  0.50000000  0.17178100  1
  O  O11  1  0.50000000  0.00000000  0.82821900  1
  O  O12  1  0.63983400  0.86016600  0.25171100  1
  O  O13  1  0.36016600  0.13983400  0.25171100  1
  O  O14  1  0.13983400  0.63983400  0.74828900  1
  O  O15  1  0.86016600  0.36016600  0.74828900  1
  O  O16  1  0.07803300  0.80421800  0.21120800  1
  O  O17  1  0.92196700  0.19578200  0.21120800  1
  O  O18  1  0.19578200  0.07803300  0.78879200  1
  O  O19  1  0.42196700  0.30421800  0.78879200  1
  O  O20  1  0.80421800  0.92196700  0.78879200  1
  O  O21  1  0.57803300  0.69578200  0.78879200  1
  O  O22  1  0.30421800  0.57803300  0.21120800  1
  O  O23  1  0.69578200  0.42196700  0.21120800  1
