# generated using pymatgen
data_Mn(PtO2)3
_symmetry_space_group_name_H-M   'P 1'
_cell_length_a   3.24220600
_cell_length_b   6.22699280
_cell_length_c   6.22699291
_cell_angle_alpha   109.03653657
_cell_angle_beta   90.00000000
_cell_angle_gamma   90.00000000
_symmetry_Int_Tables_number   1
_chemical_formula_structural   Mn(PtO2)3
_chemical_formula_sum   'Mn1 Pt3 O6'
_cell_volume   118.84254619
_cell_formula_units_Z   1
loop_
 _symmetry_equiv_pos_site_id
 _symmetry_equiv_pos_as_xyz
  1  'x, y, z'
loop_
 _atom_site_type_symbol
 _atom_site_label
 _atom_site_symmetry_multiplicity
 _atom_site_fract_x
 _atom_site_fract_y
 _atom_site_fract_z
 _atom_site_occupancy
  Mn  Mn0  1  0.00000000  0.50000000  0.50000000  1
  Pt  Pt1  1  0.00000000  0.00000000  0.00000000  1
  Pt  Pt2  1  0.49999900  0.50000000  0.00000000  1
  Pt  Pt3  1  0.49999900  0.00000100  0.50000000  1
  O  O4  1  0.00000000  0.91705200  0.66162500  1
  O  O5  1  0.00000000  0.08294900  0.33837500  1
  O  O6  1  0.00000000  0.66162500  0.91705200  1
  O  O7  1  0.00000000  0.33837600  0.08294900  1
  O  O8  1  0.49999900  0.34776800  0.65223400  1
  O  O9  1  0.49999900  0.65223300  0.34776700  1
