# generated using pymatgen
data_CsSnF3
_symmetry_space_group_name_H-M   'P 1'
_cell_length_a   6.66926500
_cell_length_b   4.96134600
_cell_length_c   15.32983109
_cell_angle_alpha   72.22332109
_cell_angle_beta   90.00000000
_cell_angle_gamma   90.00000000
_symmetry_Int_Tables_number   1
_chemical_formula_structural   CsSnF3
_chemical_formula_sum   'Cs4 Sn4 F12'
_cell_volume   483.02270608
_cell_formula_units_Z   4
loop_
 _symmetry_equiv_pos_site_id
 _symmetry_equiv_pos_as_xyz
  1  'x, y, z'
loop_
 _atom_site_type_symbol
 _atom_site_label
 _atom_site_symmetry_multiplicity
 _atom_site_fract_x
 _atom_site_fract_y
 _atom_site_fract_z
 _atom_site_occupancy
  Cs  Cs0  1  0.97740000  0.12048700  0.64164100  1
  Cs  Cs1  1  0.52260000  0.12048700  0.14164100  1
  Cs  Cs2  1  0.02260000  0.87951300  0.35835900  1
  Cs  Cs3  1  0.47740000  0.87951300  0.85835900  1
  Sn  Sn4  1  0.02456500  0.63494100  0.11570000  1
  Sn  Sn5  1  0.47543500  0.63494100  0.61570000  1
  Sn  Sn6  1  0.97543500  0.36505900  0.88430000  1
  Sn  Sn7  1  0.52456500  0.36505900  0.38430000  1
  F  F8  1  0.18400200  0.46995500  0.23674200  1
  F  F9  1  0.31599800  0.46995500  0.73674200  1
  F  F10  1  0.81599800  0.53004500  0.76325800  1
  F  F11  1  0.68400200  0.53004500  0.26325800  1
  F  F12  1  0.04952800  0.03143200  0.13992800  1
  F  F13  1  0.45047200  0.03143200  0.63992800  1
  F  F14  1  0.95047200  0.96856800  0.86007200  1
  F  F15  1  0.54952800  0.96856800  0.36007200  1
  F  F16  1  0.30359300  0.70689300  0.05116600  1
  F  F17  1  0.19640700  0.70689300  0.55116600  1
  F  F18  1  0.69640700  0.29310700  0.94883400  1
  F  F19  1  0.80359300  0.29310700  0.44883400  1
