# generated using pymatgen
data_Lu5SbPd2
_symmetry_space_group_name_H-M   'P 1'
_cell_length_a   8.62471876
_cell_length_b   8.62471876
_cell_length_c   8.62471876
_cell_angle_alpha   127.98684105
_cell_angle_beta   127.98684105
_cell_angle_gamma   76.64634605
_symmetry_Int_Tables_number   1
_chemical_formula_structural   Lu5SbPd2
_chemical_formula_sum   'Lu10 Sb2 Pd4'
_cell_volume   387.07075222
_cell_formula_units_Z   2
loop_
 _symmetry_equiv_pos_site_id
 _symmetry_equiv_pos_as_xyz
  1  'x, y, z'
loop_
 _atom_site_type_symbol
 _atom_site_label
 _atom_site_symmetry_multiplicity
 _atom_site_fract_x
 _atom_site_fract_y
 _atom_site_fract_z
 _atom_site_occupancy
  Lu  Lu0  1  0.51247100  0.70096700  0.50000000  1
  Lu  Lu1  1  0.01247100  0.51247100  0.81150400  1
  Lu  Lu2  1  0.70096700  0.20096700  0.18849600  1
  Lu  Lu3  1  0.98752900  0.48752900  0.18849600  1
  Lu  Lu4  1  0.20096700  0.01247100  0.50000000  1
  Lu  Lu5  1  0.48752900  0.29903300  0.50000000  1
  Lu  Lu6  1  0.79903300  0.98752900  0.50000000  1
  Lu  Lu7  1  0.29903300  0.79903300  0.81150400  1
  Lu  Lu8  1  0.00000000  0.00000000  0.00000000  1
  Lu  Lu9  1  0.50000000  0.50000000  0.00000000  1
  Sb  Sb10  1  0.75000000  0.75000000  0.00000000  1
  Sb  Sb11  1  0.25000000  0.25000000  0.00000000  1
  Pd  Pd12  1  0.36176300  0.86176300  0.22352600  1
  Pd  Pd13  1  0.86176300  0.63823700  0.50000000  1
  Pd  Pd14  1  0.63823700  0.13823700  0.77647400  1
  Pd  Pd15  1  0.13823700  0.36176300  0.50000000  1
