# generated using pymatgen
data_H5NO
_symmetry_space_group_name_H-M   'P 1'
_cell_length_a   6.94419400
_cell_length_b   6.99803500
_cell_length_c   19.29290600
_cell_angle_alpha   90.00000000
_cell_angle_beta   90.00000000
_cell_angle_gamma   90.00000000
_symmetry_Int_Tables_number   1
_chemical_formula_structural   H5NO
_chemical_formula_sum   'H80 N16 O16'
_cell_volume   937.55251633
_cell_formula_units_Z   16
loop_
 _symmetry_equiv_pos_site_id
 _symmetry_equiv_pos_as_xyz
  1  'x, y, z'
loop_
 _atom_site_type_symbol
 _atom_site_label
 _atom_site_symmetry_multiplicity
 _atom_site_fract_x
 _atom_site_fract_y
 _atom_site_fract_z
 _atom_site_occupancy
  H  H0  1  0.47121600  0.33585300  0.53609600  1
  H  H1  1  0.52878400  0.16414700  0.03609600  1
  H  H2  1  0.02878400  0.83585300  0.46390400  1
  H  H3  1  0.97121600  0.66414700  0.96390400  1
  H  H4  1  0.52878400  0.66414700  0.46390400  1
  H  H5  1  0.47121600  0.83585300  0.96390400  1
  H  H6  1  0.97121600  0.16414700  0.53609600  1
  H  H7  1  0.02878400  0.33585300  0.03609600  1
  H  H8  1  0.63508600  0.17058400  0.54505800  1
  H  H9  1  0.36491400  0.32941600  0.04505800  1
  H  H10  1  0.86491400  0.67058400  0.45494200  1
  H  H11  1  0.13508600  0.82941600  0.95494200  1
  H  H12  1  0.36491400  0.82941600  0.45494200  1
  H  H13  1  0.63508600  0.67058400  0.95494200  1
  H  H14  1  0.13508600  0.32941600  0.54505800  1
  H  H15  1  0.86491400  0.17058400  0.04505800  1
  H  H16  1  0.65749100  0.33299500  0.48286100  1
  H  H17  1  0.34250900  0.16700500  0.98286100  1
  H  H18  1  0.84250900  0.83299500  0.51713900  1
  H  H19  1  0.15749100  0.66700500  0.01713900  1
  H  H20  1  0.34250900  0.66700500  0.51713900  1
  H  H21  1  0.65749100  0.83299500  0.01713900  1
  H  H22  1  0.15749100  0.16700500  0.48286100  1
  H  H23  1  0.84250900  0.33299500  0.98286100  1
  H  H24  1  0.75443400  0.66655100  0.62561000  1
  H  H25  1  0.24556600  0.83344900  0.12561000  1
  H  H26  1  0.74556600  0.16655100  0.37439000  1
  H  H27  1  0.25443400  0.33344900  0.87439000  1
  H  H28  1  0.24556600  0.33344900  0.37439000  1
  H  H29  1  0.75443400  0.16655100  0.87439000  1
  H  H30  1  0.25443400  0.83344900  0.62561000  1
  H  H31  1  0.74556600  0.66655100  0.12561000  1
  H  H32  1  0.73629400  0.45591300  0.59335800  1
  H  H33  1  0.26370600  0.04408700  0.09335800  1
  H  H34  1  0.76370600  0.95591300  0.40664200  1
  H  H35  1  0.23629400  0.54408700  0.90664200  1
  H  H36  1  0.26370600  0.54408700  0.40664200  1
  H  H37  1  0.73629400  0.95591300  0.90664200  1
  H  H38  1  0.23629400  0.04408700  0.59335800  1
  H  H39  1  0.76370600  0.45591300  0.09335800  1
  H  H40  1  0.54178000  0.41161700  0.69588800  1
  H  H41  1  0.45822000  0.08838300  0.19588800  1
  H  H42  1  0.95822000  0.91161700  0.30411200  1
  H  H43  1  0.04178000  0.58838300  0.80411200  1
  H  H44  1  0.45822000  0.58838300  0.30411200  1
  H  H45  1  0.54178000  0.91161700  0.80411200  1
  H  H46  1  0.04178000  0.08838300  0.69588800  1
  H  H47  1  0.95822000  0.41161700  0.19588800  1
  H  H48  1  0.37475100  0.38722900  0.75658400  1
  H  H49  1  0.62524900  0.11277100  0.25658400  1
  H  H50  1  0.12524900  0.88722900  0.24341600  1
  H  H51  1  0.87475100  0.61277100  0.74341600  1
  H  H52  1  0.62524900  0.61277100  0.24341600  1
  H  H53  1  0.37475100  0.88722900  0.74341600  1
  H  H54  1  0.87475100  0.11277100  0.75658400  1
  H  H55  1  0.12524900  0.38722900  0.25658400  1
  H  H56  1  0.38615900  0.23368100  0.69142700  1
  H  H57  1  0.61384100  0.26631900  0.19142700  1
  H  H58  1  0.11384100  0.73368100  0.30857300  1
  H  H59  1  0.88615900  0.76631900  0.80857300  1
  H  H60  1  0.61384100  0.76631900  0.30857300  1
  H  H61  1  0.38615900  0.73368100  0.80857300  1
  H  H62  1  0.88615900  0.26631900  0.69142700  1
  H  H63  1  0.11384100  0.23368100  0.19142700  1
  H  H64  1  0.05519300  0.57122200  0.62076800  1
  H  H65  1  0.94480700  0.92877800  0.12076800  1
  H  H66  1  0.44480700  0.07122200  0.37923200  1
  H  H67  1  0.55519300  0.42877800  0.87923200  1
  H  H68  1  0.94480700  0.42877800  0.37923200  1
  H  H69  1  0.05519300  0.07122200  0.87923200  1
  H  H70  1  0.55519300  0.92877800  0.62076800  1
  H  H71  1  0.44480700  0.57122200  0.12076800  1
  H  H72  1  0.26492100  0.51473900  0.65072200  1
  H  H73  1  0.73507900  0.98526100  0.15072200  1
  H  H74  1  0.23507900  0.01473900  0.34927800  1
  H  H75  1  0.76492100  0.48526100  0.84927800  1
  H  H76  1  0.73507900  0.48526100  0.34927800  1
  H  H77  1  0.26492100  0.01473900  0.84927800  1
  H  H78  1  0.76492100  0.98526100  0.65072200  1
  H  H79  1  0.23507900  0.51473900  0.15072200  1
  N  N80  1  0.61615900  0.31244300  0.53341900  1
  N  N81  1  0.38384100  0.18755700  0.03341900  1
  N  N82  1  0.88384100  0.81244300  0.46658100  1
  N  N83  1  0.11615900  0.68755700  0.96658100  1
  N  N84  1  0.38384100  0.68755700  0.46658100  1
  N  N85  1  0.61615900  0.81244300  0.96658100  1
  N  N86  1  0.11615900  0.18755700  0.53341900  1
  N  N87  1  0.88384100  0.31244300  0.03341900  1
  N  N88  1  0.40116300  0.37465400  0.70452900  1
  N  N89  1  0.59883700  0.12534600  0.20452900  1
  N  N90  1  0.09883700  0.87465400  0.29547100  1
  N  N91  1  0.90116300  0.62534600  0.79547100  1
  N  N92  1  0.59883700  0.62534600  0.29547100  1
  N  N93  1  0.40116300  0.87465400  0.79547100  1
  N  N94  1  0.90116300  0.12534600  0.70452900  1
  N  N95  1  0.09883700  0.37465400  0.20452900  1
  O  O96  1  0.80251400  0.53267500  0.63133100  1
  O  O97  1  0.19748600  0.96732500  0.13133100  1
  O  O98  1  0.69748600  0.03267500  0.36866900  1
  O  O99  1  0.30251400  0.46732500  0.86866900  1
  O  O100  1  0.19748600  0.46732500  0.36866900  1
  O  O101  1  0.80251400  0.03267500  0.86866900  1
  O  O102  1  0.30251400  0.96732500  0.63133100  1
  O  O103  1  0.69748600  0.53267500  0.13133100  1
  O  O104  1  0.19562900  0.59275100  0.61355900  1
  O  O105  1  0.80437100  0.90724900  0.11355900  1
  O  O106  1  0.30437100  0.09275100  0.38644100  1
  O  O107  1  0.69562900  0.40724900  0.88644100  1
  O  O108  1  0.80437100  0.40724900  0.38644100  1
  O  O109  1  0.19562900  0.09275100  0.88644100  1
  O  O110  1  0.69562900  0.90724900  0.61355900  1
  O  O111  1  0.30437100  0.59275100  0.11355900  1
