# generated using pymatgen
data_RbSm(WO4)2
_symmetry_space_group_name_H-M   'P 1'
_cell_length_a   7.69556923
_cell_length_b   7.69556923
_cell_length_c   7.54894415
_cell_angle_alpha   62.77064440
_cell_angle_beta   62.77064440
_cell_angle_gamma   89.17744898
_symmetry_Int_Tables_number   1
_chemical_formula_structural   RbSm(WO4)2
_chemical_formula_sum   'Rb2 Sm2 W4 O16'
_cell_volume   342.54815951
_cell_formula_units_Z   2
loop_
 _symmetry_equiv_pos_site_id
 _symmetry_equiv_pos_as_xyz
  1  'x, y, z'
loop_
 _atom_site_type_symbol
 _atom_site_label
 _atom_site_symmetry_multiplicity
 _atom_site_fract_x
 _atom_site_fract_y
 _atom_site_fract_z
 _atom_site_occupancy
  Rb  Rb0  1  0.19944800  0.80055200  0.75000000  1
  Rb  Rb1  1  0.80055200  0.19944800  0.25000000  1
  Sm  Sm2  1  0.77529100  0.22470900  0.75000000  1
  Sm  Sm3  1  0.22470900  0.77529100  0.25000000  1
  W  W4  1  0.69795500  0.68771700  0.77892000  1
  W  W5  1  0.30204500  0.31228300  0.22108000  1
  W  W6  1  0.31228300  0.30204500  0.72108000  1
  W  W7  1  0.68771700  0.69795500  0.27892000  1
  O  O8  1  0.62048300  0.75211000  0.55913300  1
  O  O9  1  0.37951700  0.24789000  0.44086700  1
  O  O10  1  0.24789000  0.37951700  0.94086700  1
  O  O11  1  0.75211000  0.62048300  0.05913300  1
  O  O12  1  0.38000700  0.06721600  0.87017800  1
  O  O13  1  0.61999300  0.93278400  0.12982200  1
  O  O14  1  0.93278400  0.61999300  0.62982200  1
  O  O15  1  0.06721600  0.38000700  0.37017800  1
  O  O16  1  0.58653000  0.37023500  0.97051600  1
  O  O17  1  0.41347000  0.62976500  0.02948400  1
  O  O18  1  0.62976500  0.41347000  0.52948400  1
  O  O19  1  0.37023500  0.58653000  0.47051600  1
  O  O20  1  0.78625700  0.94895400  0.69195200  1
  O  O21  1  0.21374300  0.05104600  0.30804800  1
  O  O22  1  0.05104600  0.21374300  0.80804800  1
  O  O23  1  0.94895400  0.78625700  0.19195200  1
