# generated using pymatgen
data_Hf2InPd2
_symmetry_space_group_name_H-M   'P 1'
_cell_length_a   7.54526300
_cell_length_b   7.54526300
_cell_length_c   6.76535000
_cell_angle_alpha   90.00000000
_cell_angle_beta   90.00000000
_cell_angle_gamma   90.00000000
_symmetry_Int_Tables_number   1
_chemical_formula_structural   Hf2InPd2
_chemical_formula_sum   'Hf8 In4 Pd8'
_cell_volume   385.15809849
_cell_formula_units_Z   4
loop_
 _symmetry_equiv_pos_site_id
 _symmetry_equiv_pos_as_xyz
  1  'x, y, z'
loop_
 _atom_site_type_symbol
 _atom_site_label
 _atom_site_symmetry_multiplicity
 _atom_site_fract_x
 _atom_site_fract_y
 _atom_site_fract_z
 _atom_site_occupancy
  Hf  Hf0  1  0.15400300  0.15400300  0.00000000  1
  Hf  Hf1  1  0.84599700  0.84599700  0.00000000  1
  Hf  Hf2  1  0.65400300  0.34599700  0.50000000  1
  Hf  Hf3  1  0.34599700  0.65400300  0.50000000  1
  Hf  Hf4  1  0.68144700  0.31855300  0.00000000  1
  Hf  Hf5  1  0.31855300  0.68144700  0.00000000  1
  Hf  Hf6  1  0.81855300  0.81855300  0.50000000  1
  Hf  Hf7  1  0.18144700  0.18144700  0.50000000  1
  In  In8  1  0.50000000  0.00000000  0.25000000  1
  In  In9  1  0.50000000  0.00000000  0.75000000  1
  In  In10  1  0.00000000  0.50000000  0.25000000  1
  In  In11  1  0.00000000  0.50000000  0.75000000  1
  Pd  Pd12  1  0.37041800  0.37041800  0.22280100  1
  Pd  Pd13  1  0.62958200  0.62958200  0.77719900  1
  Pd  Pd14  1  0.62958200  0.62958200  0.22280100  1
  Pd  Pd15  1  0.87041800  0.12958200  0.72280100  1
  Pd  Pd16  1  0.87041800  0.12958200  0.27719900  1
  Pd  Pd17  1  0.37041800  0.37041800  0.77719900  1
  Pd  Pd18  1  0.12958200  0.87041800  0.27719900  1
  Pd  Pd19  1  0.12958200  0.87041800  0.72280100  1
