# generated using pymatgen
data_HfAsRu
_symmetry_space_group_name_H-M   'P 1'
_cell_length_a   6.60217228
_cell_length_b   6.60217228
_cell_length_c   3.92012600
_cell_angle_alpha   90.00000000
_cell_angle_beta   90.00000000
_cell_angle_gamma   120.00000285
_symmetry_Int_Tables_number   1
_chemical_formula_structural   HfAsRu
_chemical_formula_sum   'Hf3 As3 Ru3'
_cell_volume   147.98045273
_cell_formula_units_Z   3
loop_
 _symmetry_equiv_pos_site_id
 _symmetry_equiv_pos_as_xyz
  1  'x, y, z'
loop_
 _atom_site_type_symbol
 _atom_site_label
 _atom_site_symmetry_multiplicity
 _atom_site_fract_x
 _atom_site_fract_y
 _atom_site_fract_z
 _atom_site_occupancy
  Hf  Hf0  1  0.41770900  0.41770900  0.50000000  1
  Hf  Hf1  1  0.58229100  0.00000000  0.50000000  1
  Hf  Hf2  1  0.00000000  0.58229100  0.50000000  1
  As  As3  1  0.66666700  0.33333300  0.00000000  1
  As  As4  1  0.33333300  0.66666700  0.00000000  1
  As  As5  1  0.00000000  0.00000000  0.50000000  1
  Ru  Ru6  1  0.75397000  0.75397000  0.00000000  1
  Ru  Ru7  1  0.24603000  0.00000000  0.00000000  1
  Ru  Ru8  1  0.00000000  0.24603000  0.00000000  1
