# generated using pymatgen
data_Sm2ZnTe2(SO7)2
_symmetry_space_group_name_H-M   'P 1'
_cell_length_a   5.37158700
_cell_length_b   8.02539239
_cell_length_c   8.27299672
_cell_angle_alpha   116.02315189
_cell_angle_beta   106.76934229
_cell_angle_gamma   85.82149872
_symmetry_Int_Tables_number   1
_chemical_formula_structural   Sm2ZnTe2(SO7)2
_chemical_formula_sum   'Sm2 Zn1 Te2 S2 O14'
_cell_volume   306.25639174
_cell_formula_units_Z   1
loop_
 _symmetry_equiv_pos_site_id
 _symmetry_equiv_pos_as_xyz
  1  'x, y, z'
loop_
 _atom_site_type_symbol
 _atom_site_label
 _atom_site_symmetry_multiplicity
 _atom_site_fract_x
 _atom_site_fract_y
 _atom_site_fract_z
 _atom_site_occupancy
  Sm  Sm0  1  0.08751100  0.25230500  0.98558400  1
  Sm  Sm1  1  0.91248900  0.74769500  0.01441600  1
  Zn  Zn2  1  0.00000000  0.00000000  0.50000000  1
  Te  Te3  1  0.51911600  0.26680400  0.65826000  1
  Te  Te4  1  0.48088400  0.73319600  0.34174000  1
  S  S5  1  0.76960200  0.24740900  0.25327600  1
  S  S6  1  0.23039800  0.75259100  0.74672400  1
  O  O7  1  0.90288600  0.40579900  0.25797700  1
  O  O8  1  0.09711400  0.59420100  0.74202300  1
  O  O9  1  0.87535800  0.22778100  0.42969700  1
  O  O10  1  0.12464200  0.77221900  0.57030300  1
  O  O11  1  0.48571800  0.27204400  0.22138200  1
  O  O12  1  0.51428200  0.72795600  0.77861800  1
  O  O13  1  0.82186300  0.07885700  0.09044900  1
  O  O14  1  0.17813700  0.92114300  0.90955100  1
  O  O15  1  0.74903500  0.43373200  0.89141900  1
  O  O16  1  0.25096500  0.56626800  0.10858100  1
  O  O17  1  0.28027800  0.19159700  0.74740600  1
  O  O18  1  0.71972200  0.80840300  0.25259400  1
  O  O19  1  0.75059700  0.07386700  0.66264900  1
  O  O20  1  0.24940300  0.92613300  0.33735100  1
