# generated using pymatgen
data_K2SiO3
_symmetry_space_group_name_H-M   'P 1'
_cell_length_a   13.26891800
_cell_length_b   6.33032000
_cell_length_c   15.95185166
_cell_angle_alpha   72.08513227
_cell_angle_beta   90.00000000
_cell_angle_gamma   90.00000000
_symmetry_Int_Tables_number   1
_chemical_formula_structural   K2SiO3
_chemical_formula_sum   'K24 Si12 O36'
_cell_volume   1274.93410990
_cell_formula_units_Z   12
loop_
 _symmetry_equiv_pos_site_id
 _symmetry_equiv_pos_as_xyz
  1  'x, y, z'
loop_
 _atom_site_type_symbol
 _atom_site_label
 _atom_site_symmetry_multiplicity
 _atom_site_fract_x
 _atom_site_fract_y
 _atom_site_fract_z
 _atom_site_occupancy
  K  K0  1  0.66584000  0.94799000  0.51235100  1
  K  K1  1  0.59943100  0.49732000  0.41825200  1
  K  K2  1  0.90056900  0.49732000  0.91825200  1
  K  K3  1  0.40056900  0.50268000  0.58174800  1
  K  K4  1  0.33416000  0.05201000  0.48764900  1
  K  K5  1  0.83416000  0.94799000  0.01235100  1
  K  K6  1  0.09943100  0.50268000  0.08174800  1
  K  K7  1  0.16584000  0.05201000  0.98764900  1
  K  K8  1  0.41745100  0.22455200  0.02574400  1
  K  K9  1  0.91745100  0.77544800  0.47425600  1
  K  K10  1  0.58254900  0.77544800  0.97425600  1
  K  K11  1  0.08254900  0.22455200  0.52574400  1
  K  K12  1  0.18280300  0.37753000  0.29759300  1
  K  K13  1  0.68280300  0.62247000  0.20240700  1
  K  K14  1  0.81719700  0.62247000  0.70240700  1
  K  K15  1  0.31719700  0.37753000  0.79759300  1
  K  K16  1  0.48787100  0.14034200  0.28543200  1
  K  K17  1  0.98787100  0.85965800  0.21456800  1
  K  K18  1  0.51212900  0.85965800  0.71456800  1
  K  K19  1  0.01212900  0.14034200  0.78543200  1
  K  K20  1  0.36927000  0.59516200  0.13563200  1
  K  K21  1  0.86927000  0.40483800  0.36436800  1
  K  K22  1  0.63073000  0.40483800  0.86436800  1
  K  K23  1  0.13073000  0.59516200  0.63563200  1
  Si  Si24  1  0.23691700  0.95868000  0.20730500  1
  Si  Si25  1  0.73691700  0.04132000  0.29269500  1
  Si  Si26  1  0.76308300  0.04132000  0.79269500  1
  Si  Si27  1  0.26308300  0.95868000  0.70730500  1
  Si  Si28  1  0.36452100  0.65899400  0.35974400  1
  Si  Si29  1  0.86452100  0.34100600  0.14025600  1
  Si  Si30  1  0.63547900  0.34100600  0.64025600  1
  Si  Si31  1  0.13547900  0.65899400  0.85974400  1
  Si  Si32  1  0.14256500  0.77188300  0.39128400  1
  Si  Si33  1  0.64256500  0.22811700  0.10871600  1
  Si  Si34  1  0.85743500  0.22811700  0.60871600  1
  Si  Si35  1  0.35743500  0.77188300  0.89128400  1
  O  O36  1  0.25819700  0.21096400  0.14668000  1
  O  O37  1  0.75819700  0.78903600  0.35332000  1
  O  O38  1  0.74180300  0.78903600  0.85332000  1
  O  O39  1  0.24180300  0.21096400  0.64668000  1
  O  O40  1  0.24976600  0.62027100  0.40902100  1
  O  O41  1  0.74976600  0.37972900  0.09097900  1
  O  O42  1  0.75023400  0.37972900  0.59097900  1
  O  O43  1  0.25023400  0.62027100  0.90902100  1
  O  O44  1  0.12816900  0.89763700  0.46459000  1
  O  O45  1  0.62816900  0.10236300  0.03541000  1
  O  O46  1  0.87183100  0.10236300  0.53541000  1
  O  O47  1  0.37183100  0.89763700  0.96459000  1
  O  O48  1  0.39769800  0.42321800  0.34867400  1
  O  O49  1  0.89769800  0.57678200  0.15132600  1
  O  O50  1  0.60230200  0.57678200  0.65132600  1
  O  O51  1  0.10230200  0.42321800  0.84867400  1
  O  O52  1  0.34493600  0.84317900  0.25805900  1
  O  O53  1  0.06036000  0.76817700  0.91490500  1
  O  O54  1  0.65506400  0.15682100  0.74194100  1
  O  O55  1  0.15506400  0.84317900  0.75805900  1
  O  O56  1  0.16169500  0.96702700  0.29237400  1
  O  O57  1  0.66169500  0.03297300  0.20762600  1
  O  O58  1  0.83830500  0.03297300  0.70762600  1
  O  O59  1  0.33830500  0.96702700  0.79237400  1
  O  O60  1  0.05218600  0.60646500  0.38251000  1
  O  O61  1  0.55218600  0.39353500  0.11749000  1
  O  O62  1  0.94781400  0.39353500  0.61749000  1
  O  O63  1  0.44781400  0.60646500  0.88251000  1
  O  O64  1  0.18756000  0.79116500  0.15917700  1
  O  O65  1  0.68756000  0.20883500  0.34082300  1
  O  O66  1  0.81244000  0.20883500  0.84082300  1
  O  O67  1  0.31244000  0.79116500  0.65917700  1
  O  O68  1  0.43964000  0.76817700  0.41490500  1
  O  O69  1  0.93964000  0.23182300  0.08509500  1
  O  O70  1  0.56036000  0.23182300  0.58509500  1
  O  O71  1  0.84493600  0.15682100  0.24194100  1
