# generated using pymatgen
data_Na3Fe(PO4)2
_symmetry_space_group_name_H-M   'P 1'
_cell_length_a   5.25757908
_cell_length_b   5.25757908
_cell_length_c   14.07404237
_cell_angle_alpha   88.23639401
_cell_angle_beta   88.23639401
_cell_angle_gamma   57.87648573
_symmetry_Int_Tables_number   1
_chemical_formula_structural   Na3Fe(PO4)2
_chemical_formula_sum   'Na6 Fe2 P4 O16'
_cell_volume   329.27278125
_cell_formula_units_Z   2
loop_
 _symmetry_equiv_pos_site_id
 _symmetry_equiv_pos_as_xyz
  1  'x, y, z'
loop_
 _atom_site_type_symbol
 _atom_site_label
 _atom_site_symmetry_multiplicity
 _atom_site_fract_x
 _atom_site_fract_y
 _atom_site_fract_z
 _atom_site_occupancy
  Na  Na0  1  0.95066000  0.04934000  0.25000000  1
  Na  Na1  1  0.04934000  0.95066000  0.75000000  1
  Na  Na2  1  0.28946800  0.37233500  0.13389200  1
  Na  Na3  1  0.62766500  0.71053200  0.36610800  1
  Na  Na4  1  0.37233500  0.28946800  0.63389200  1
  Na  Na5  1  0.71053200  0.62766500  0.86610800  1
  Fe  Fe6  1  0.00000000  0.00000000  0.50000000  1
  Fe  Fe7  1  0.00000000  0.00000000  0.00000000  1
  P  P8  1  0.64819200  0.68785500  0.11267600  1
  P  P9  1  0.68785500  0.64819200  0.61267600  1
  P  P10  1  0.31214500  0.35180800  0.38732400  1
  P  P11  1  0.35180800  0.31214500  0.88732400  1
  O  O12  1  0.27176000  0.07111900  0.91527100  1
  O  O13  1  0.92888100  0.72824000  0.58472900  1
  O  O14  1  0.72824000  0.92888100  0.08472900  1
  O  O15  1  0.07111900  0.27176000  0.41527100  1
  O  O16  1  0.70432700  0.14608200  0.88505400  1
  O  O17  1  0.85391800  0.29567300  0.61494600  1
  O  O18  1  0.29567300  0.85391800  0.11494600  1
  O  O19  1  0.14608200  0.70432700  0.38505400  1
  O  O20  1  0.21781300  0.56366400  0.96248800  1
  O  O21  1  0.43633600  0.78218700  0.53751200  1
  O  O22  1  0.78218700  0.43633600  0.03751200  1
  O  O23  1  0.56366400  0.21781300  0.46248800  1
  O  O24  1  0.44817100  0.22118900  0.29008700  1
  O  O25  1  0.77881100  0.55182900  0.20991300  1
  O  O26  1  0.55182900  0.77881100  0.70991300  1
  O  O27  1  0.22118900  0.44817100  0.79008700  1
