# generated using pymatgen
data_SmGe2Ir
_symmetry_space_group_name_H-M   'P 1'
_cell_length_a   9.53691500
_cell_length_b   9.53691500
_cell_length_c   9.53691500
_cell_angle_alpha   153.63946504
_cell_angle_beta   123.73613830
_cell_angle_gamma   63.16730120
_symmetry_Int_Tables_number   1
_chemical_formula_structural   SmGe2Ir
_chemical_formula_sum   'Sm4 Ge8 Ir4'
_cell_volume   317.76762566
_cell_formula_units_Z   4
loop_
 _symmetry_equiv_pos_site_id
 _symmetry_equiv_pos_as_xyz
  1  'x, y, z'
loop_
 _atom_site_type_symbol
 _atom_site_label
 _atom_site_symmetry_multiplicity
 _atom_site_fract_x
 _atom_site_fract_y
 _atom_site_fract_z
 _atom_site_occupancy
  Sm  Sm0  1  0.26031900  0.00000000  0.26031900  1
  Sm  Sm1  1  0.73968100  0.00000000  0.73968100  1
  Sm  Sm2  1  0.29370900  0.79370900  0.50000000  1
  Sm  Sm3  1  0.70629100  0.20629100  0.50000000  1
  Ge  Ge4  1  0.92156100  0.42156100  0.50000000  1
  Ge  Ge5  1  0.07843900  0.57843900  0.50000000  1
  Ge  Ge6  1  0.42265400  0.42265400  0.00000000  1
  Ge  Ge7  1  0.57734600  0.57734600  0.00000000  1
  Ge  Ge8  1  0.04621600  0.19968600  0.84653000  1
  Ge  Ge9  1  0.95378400  0.80031400  0.15347000  1
  Ge  Ge10  1  0.35315500  0.19968600  0.15347000  1
  Ge  Ge11  1  0.64684500  0.80031400  0.84653000  1
  Ir  Ir12  1  0.10243500  0.35366900  0.74876600  1
  Ir  Ir13  1  0.89756500  0.64633000  0.25123400  1
  Ir  Ir14  1  0.60490400  0.35366900  0.25123400  1
  Ir  Ir15  1  0.39509600  0.64633100  0.74876600  1
