# generated using pymatgen
data_Nd(BRu)4
_symmetry_space_group_name_H-M   'P 1'
_cell_length_a   9.26627357
_cell_length_b   9.26627357
_cell_length_c   9.26627357
_cell_angle_alpha   131.80476530
_cell_angle_beta   131.80476530
_cell_angle_gamma   70.53755420
_symmetry_Int_Tables_number   1
_chemical_formula_structural   Nd(BRu)4
_chemical_formula_sum   'Nd4 B16 Ru16'
_cell_volume   433.16065543
_cell_formula_units_Z   4
loop_
 _symmetry_equiv_pos_site_id
 _symmetry_equiv_pos_as_xyz
  1  'x, y, z'
loop_
 _atom_site_type_symbol
 _atom_site_label
 _atom_site_symmetry_multiplicity
 _atom_site_fract_x
 _atom_site_fract_y
 _atom_site_fract_z
 _atom_site_occupancy
  Nd  Nd0  1  0.25000000  0.25000000  0.00000000  1
  Nd  Nd1  1  0.75000000  0.75000000  0.00000000  1
  Nd  Nd2  1  0.50000000  0.00000000  0.50000000  1
  Nd  Nd3  1  0.00000000  0.50000000  0.50000000  1
  B  B4  1  0.22510900  0.91442900  0.97585300  1
  B  B5  1  0.72510900  0.74925600  0.31068000  1
  B  B6  1  0.16442900  0.97510900  0.47585300  1
  B  B7  1  0.66442900  0.18857600  0.18932000  1
  B  B8  1  0.52489100  0.33557100  0.52414700  1
  B  B9  1  0.02489100  0.50074400  0.18932000  1
  B  B10  1  0.58557100  0.27489100  0.02414700  1
  B  B11  1  0.08557100  0.06142400  0.31068000  1
  B  B12  1  0.43857600  0.41442900  0.68932000  1
  B  B13  1  0.93857600  0.24925600  0.02414700  1
  B  B14  1  0.99925600  0.47510900  0.81068000  1
  B  B15  1  0.49925600  0.68857600  0.52414700  1
  B  B16  1  0.31142400  0.83557100  0.81068000  1
  B  B17  1  0.81142400  0.00074400  0.47585300  1
  B  B18  1  0.75074400  0.77489100  0.68932000  1
  B  B19  1  0.25074400  0.56142400  0.97585300  1
  Ru  Ru20  1  0.54283500  0.07239000  0.23871100  1
  Ru  Ru21  1  0.04283500  0.80412500  0.47044600  1
  Ru  Ru22  1  0.32239000  0.29283500  0.73871100  1
  Ru  Ru23  1  0.82239000  0.08367900  0.02955400  1
  Ru  Ru24  1  0.20716500  0.17761000  0.26128900  1
  Ru  Ru25  1  0.70716500  0.44587500  0.02955400  1
  Ru  Ru26  1  0.42761000  0.95716500  0.76128900  1
  Ru  Ru27  1  0.92761000  0.16632100  0.47044600  1
  Ru  Ru28  1  0.33367900  0.57239000  0.52955400  1
  Ru  Ru29  1  0.83367900  0.30412500  0.76128900  1
  Ru  Ru30  1  0.05412500  0.79283500  0.97044600  1
  Ru  Ru31  1  0.55412500  0.58367900  0.26128900  1
  Ru  Ru32  1  0.41632100  0.67761000  0.97044600  1
  Ru  Ru33  1  0.91632100  0.94587500  0.73871100  1
  Ru  Ru34  1  0.69587500  0.45716500  0.52955400  1
  Ru  Ru35  1  0.19587500  0.66632100  0.23871100  1
