# generated using pymatgen
data_Tb3In5
_symmetry_space_group_name_H-M   'P 1'
_cell_length_a   6.44220441
_cell_length_b   6.44220441
_cell_length_c   10.38540100
_cell_angle_alpha   90.00000000
_cell_angle_beta   90.00000000
_cell_angle_gamma   102.15278010
_symmetry_Int_Tables_number   1
_chemical_formula_structural   Tb3In5
_chemical_formula_sum   'Tb6 In10'
_cell_volume   421.35572598
_cell_formula_units_Z   2
loop_
 _symmetry_equiv_pos_site_id
 _symmetry_equiv_pos_as_xyz
  1  'x, y, z'
loop_
 _atom_site_type_symbol
 _atom_site_label
 _atom_site_symmetry_multiplicity
 _atom_site_fract_x
 _atom_site_fract_y
 _atom_site_fract_z
 _atom_site_occupancy
  Tb  Tb0  1  0.62992000  0.62992000  0.25000000  1
  Tb  Tb1  1  0.37008000  0.37008000  0.75000000  1
  Tb  Tb2  1  0.20289900  0.79710100  0.50000000  1
  Tb  Tb3  1  0.20289900  0.79710100  0.00000000  1
  Tb  Tb4  1  0.79710100  0.20289900  0.50000000  1
  Tb  Tb5  1  0.79710100  0.20289900  0.00000000  1
  In  In6  1  0.01352000  0.01352000  0.25000000  1
  In  In7  1  0.98648000  0.98648000  0.75000000  1
  In  In8  1  0.31073500  0.31073500  0.04730500  1
  In  In9  1  0.68926500  0.68926500  0.95269500  1
  In  In10  1  0.31073500  0.31073500  0.45269500  1
  In  In11  1  0.68926500  0.68926500  0.54730500  1
  In  In12  1  0.50600300  0.07020800  0.25000000  1
  In  In13  1  0.92979200  0.49399700  0.75000000  1
  In  In14  1  0.49399700  0.92979200  0.75000000  1
  In  In15  1  0.07020800  0.50600300  0.25000000  1
