# generated using pymatgen
data_Cs2Te4O9
_symmetry_space_group_name_H-M   'P 1'
_cell_length_a   13.01418385
_cell_length_b   13.01418385
_cell_length_c   13.01418385
_cell_angle_alpha   130.18087046
_cell_angle_beta   130.18087046
_cell_angle_gamma   73.11777884
_symmetry_Int_Tables_number   1
_chemical_formula_structural   Cs2Te4O9
_chemical_formula_sum   'Cs8 Te16 O36'
_cell_volume   1256.34598325
_cell_formula_units_Z   4
loop_
 _symmetry_equiv_pos_site_id
 _symmetry_equiv_pos_as_xyz
  1  'x, y, z'
loop_
 _atom_site_type_symbol
 _atom_site_label
 _atom_site_symmetry_multiplicity
 _atom_site_fract_x
 _atom_site_fract_y
 _atom_site_fract_z
 _atom_site_occupancy
  Cs  Cs0  1  0.37500000  0.40337100  0.52837100  1
  Cs  Cs1  1  0.87500000  0.84662900  0.47162900  1
  Cs  Cs2  1  0.15337100  0.62500000  0.02837100  1
  Cs  Cs3  1  0.59662900  0.12500000  0.97162900  1
  Cs  Cs4  1  0.50517400  0.00517400  0.50000000  1
  Cs  Cs5  1  0.24482600  0.24482600  0.00000000  1
  Cs  Cs6  1  0.99482600  0.49482600  0.50000000  1
  Cs  Cs7  1  0.75517400  0.75517400  0.00000000  1
  Te  Te8  1  0.18335900  0.93533500  0.99699400  1
  Te  Te9  1  0.56664100  0.06363500  0.25197600  1
  Te  Te10  1  0.93834100  0.18636500  0.00300600  1
  Te  Te11  1  0.81165900  0.31466500  0.74802400  1
  Te  Te12  1  0.81363500  0.81664100  0.75197600  1
  Te  Te13  1  0.93636500  0.18834100  0.50300600  1
  Te  Te14  1  0.06466500  0.06165900  0.24802400  1
  Te  Te15  1  0.68533500  0.43335900  0.49699400  1
  Te  Te16  1  0.46324100  0.70722900  0.02743200  1
  Te  Te17  1  0.28675900  0.81419100  0.74398800  1
  Te  Te18  1  0.67979800  0.43580900  0.97256800  1
  Te  Te19  1  0.07020200  0.54277100  0.25601200  1
  Te  Te20  1  0.56419100  0.53675900  0.24398800  1
  Te  Te21  1  0.18580900  0.92979800  0.47256800  1
  Te  Te22  1  0.29277100  0.32020200  0.75601200  1
  Te  Te23  1  0.45722900  0.71324100  0.52743200  1
  O  O24  1  0.52460900  0.71974500  0.21113500  1
  O  O25  1  0.22539100  0.93652700  0.69513600  1
  O  O26  1  0.50861000  0.31347300  0.78886500  1
  O  O27  1  0.24139000  0.53025500  0.30486400  1
  O  O28  1  0.68652700  0.47539100  0.19513600  1
  O  O29  1  0.06347300  0.75861000  0.28886500  1
  O  O30  1  0.28025500  0.49139000  0.80486400  1
  O  O31  1  0.46974500  0.77460900  0.71113500  1
  O  O32  1  0.04559300  0.80650200  0.89608000  1
  O  O33  1  0.70440700  0.10048800  0.26090900  1
  O  O34  1  0.91042200  0.14951200  0.10392000  1
  O  O35  1  0.83957800  0.44349800  0.73909100  1
  O  O36  1  0.85048800  0.95440700  0.76090900  1
  O  O37  1  0.89951200  0.16042200  0.60392000  1
  O  O38  1  0.19349800  0.08957800  0.23909100  1
  O  O39  1  0.55650200  0.29559300  0.39608000  1
  O  O40  1  0.34039000  0.87900200  0.11329400  1
  O  O41  1  0.40961000  0.02290300  0.03861200  1
  O  O42  1  0.76570800  0.22709700  0.88670600  1
  O  O43  1  0.98429200  0.37099800  0.96138800  1
  O  O44  1  0.77290300  0.65961000  0.53861200  1
  O  O45  1  0.97709700  0.01570800  0.38670600  1
  O  O46  1  0.12099800  0.23429200  0.46138800  1
  O  O47  1  0.62900200  0.59039000  0.61329400  1
  O  O48  1  0.15160700  0.81224800  0.76892500  1
  O  O49  1  0.59839300  0.86731800  0.16064100  1
  O  O50  1  0.04332300  0.38268200  0.23107500  1
  O  O51  1  0.70667700  0.43775200  0.83935900  1
  O  O52  1  0.61731800  0.84839300  0.66064100  1
  O  O53  1  0.13268200  0.29332300  0.73107500  1
  O  O54  1  0.18775200  0.95667700  0.33935900  1
  O  O55  1  0.56224800  0.40160700  0.26892500  1
  O  O56  1  0.60324600  0.60324600  0.00000000  1
  O  O57  1  0.14675400  0.64675400  0.50000000  1
  O  O58  1  0.39675400  0.39675400  0.00000000  1
  O  O59  1  0.35324600  0.85324600  0.50000000  1
