# generated using pymatgen
data_Nd12(ReC3)5
_symmetry_space_group_name_H-M   'P 1'
_cell_length_a   11.02613250
_cell_length_b   11.02613250
_cell_length_c   5.34845000
_cell_angle_alpha   90.00000000
_cell_angle_beta   90.00000000
_cell_angle_gamma   120.00000303
_symmetry_Int_Tables_number   1
_chemical_formula_structural   Nd12(ReC3)5
_chemical_formula_sum   'Nd12 Re5 C15'
_cell_volume   563.12521360
_cell_formula_units_Z   1
loop_
 _symmetry_equiv_pos_site_id
 _symmetry_equiv_pos_as_xyz
  1  'x, y, z'
loop_
 _atom_site_type_symbol
 _atom_site_label
 _atom_site_symmetry_multiplicity
 _atom_site_fract_x
 _atom_site_fract_y
 _atom_site_fract_z
 _atom_site_occupancy
  Nd  Nd0  1  0.72975800  0.18707200  0.00000000  1
  Nd  Nd1  1  0.81292800  0.54268600  0.00000000  1
  Nd  Nd2  1  0.45731400  0.27024200  0.00000000  1
  Nd  Nd3  1  0.18707200  0.72975800  0.00000000  1
  Nd  Nd4  1  0.54268600  0.81292800  0.00000000  1
  Nd  Nd5  1  0.27024200  0.45731400  0.00000000  1
  Nd  Nd6  1  0.57613000  0.57613000  0.50000000  1
  Nd  Nd7  1  0.42387000  0.00000000  0.50000000  1
  Nd  Nd8  1  0.00000000  0.42387000  0.50000000  1
  Nd  Nd9  1  0.20460600  0.20460600  0.50000000  1
  Nd  Nd10  1  0.79539400  0.00000000  0.50000000  1
  Nd  Nd11  1  0.00000000  0.79539400  0.50000000  1
  Re  Re12  1  0.84616800  0.84616800  0.00000000  1
  Re  Re13  1  0.15383200  0.00000000  0.00000000  1
  Re  Re14  1  0.00000000  0.15383200  0.00000000  1
  Re  Re15  1  0.66666700  0.33333300  0.50000000  1
  Re  Re16  1  0.33333300  0.66666700  0.50000000  1
  C  C17  1  0.71849400  0.19182900  0.50000000  1
  C  C18  1  0.80817100  0.52666500  0.50000000  1
  C  C19  1  0.47333500  0.28150600  0.50000000  1
  C  C20  1  0.19182900  0.71849400  0.50000000  1
  C  C21  1  0.52666500  0.80817100  0.50000000  1
  C  C22  1  0.28150600  0.47333500  0.50000000  1
  C  C23  1  0.67055600  0.67055600  0.00000000  1
  C  C24  1  0.32944400  0.00000000  0.00000000  1
  C  C25  1  0.00000000  0.32944400  0.00000000  1
  C  C26  1  0.54744100  0.54744100  0.00000000  1
  C  C27  1  0.45255900  0.00000000  0.00000000  1
  C  C28  1  0.00000000  0.45255900  0.00000000  1
  C  C29  1  0.20689100  0.20689100  0.00000000  1
  C  C30  1  0.79310900  0.00000000  0.00000000  1
  C  C31  1  0.00000000  0.79310900  0.00000000  1
