# generated using pymatgen
data_LuZn2
_symmetry_space_group_name_H-M   'P 1'
_cell_length_a   5.57043464
_cell_length_b   5.57043464
_cell_length_c   5.57043464
_cell_angle_alpha   133.20852579
_cell_angle_beta   102.84188626
_cell_angle_gamma   95.34100087
_symmetry_Int_Tables_number   1
_chemical_formula_structural   LuZn2
_chemical_formula_sum   'Lu2 Zn4'
_cell_volume   115.28569526
_cell_formula_units_Z   2
loop_
 _symmetry_equiv_pos_site_id
 _symmetry_equiv_pos_as_xyz
  1  'x, y, z'
loop_
 _atom_site_type_symbol
 _atom_site_label
 _atom_site_symmetry_multiplicity
 _atom_site_fract_x
 _atom_site_fract_y
 _atom_site_fract_z
 _atom_site_occupancy
  Lu  Lu0  1  0.78614200  0.53614200  0.25000000  1
  Lu  Lu1  1  0.21385800  0.46385800  0.75000000  1
  Zn  Zn2  1  0.21204500  0.16568200  0.04636400  1
  Zn  Zn3  1  0.78795500  0.83431800  0.95363600  1
  Zn  Zn4  1  0.61931800  0.16568200  0.45363600  1
  Zn  Zn5  1  0.38068200  0.83431800  0.54636400  1
