# generated using pymatgen
data_ThBiTe
_symmetry_space_group_name_H-M   'P 1'
_cell_length_a   4.52605800
_cell_length_b   4.52605800
_cell_length_c   9.26231800
_cell_angle_alpha   90.00000000
_cell_angle_beta   90.00000000
_cell_angle_gamma   90.00000000
_symmetry_Int_Tables_number   1
_chemical_formula_structural   ThBiTe
_chemical_formula_sum   'Th2 Bi2 Te2'
_cell_volume   189.74044614
_cell_formula_units_Z   2
loop_
 _symmetry_equiv_pos_site_id
 _symmetry_equiv_pos_as_xyz
  1  'x, y, z'
loop_
 _atom_site_type_symbol
 _atom_site_label
 _atom_site_symmetry_multiplicity
 _atom_site_fract_x
 _atom_site_fract_y
 _atom_site_fract_z
 _atom_site_occupancy
  Th  Th0  1  0.00000000  0.50000000  0.72083800  1
  Th  Th1  1  0.50000000  0.00000000  0.27916200  1
  Bi  Bi2  1  0.00000000  0.00000000  0.00000000  1
  Bi  Bi3  1  0.50000000  0.50000000  0.00000000  1
  Te  Te4  1  0.00000000  0.50000000  0.36554200  1
  Te  Te5  1  0.50000000  0.00000000  0.63445800  1
