# generated using pymatgen
data_Bi(PdO2)2
_symmetry_space_group_name_H-M   'P 1'
_cell_length_a   5.78916825
_cell_length_b   6.17570507
_cell_length_c   6.51858510
_cell_angle_alpha   114.88916922
_cell_angle_beta   95.76740967
_cell_angle_gamma   111.71153415
_symmetry_Int_Tables_number   1
_chemical_formula_structural   Bi(PdO2)2
_chemical_formula_sum   'Bi2 Pd4 O8'
_cell_volume   187.11657263
_cell_formula_units_Z   2
loop_
 _symmetry_equiv_pos_site_id
 _symmetry_equiv_pos_as_xyz
  1  'x, y, z'
loop_
 _atom_site_type_symbol
 _atom_site_label
 _atom_site_symmetry_multiplicity
 _atom_site_fract_x
 _atom_site_fract_y
 _atom_site_fract_z
 _atom_site_occupancy
  Bi  Bi0  1  0.85914900  0.23997100  0.64936400  1
  Bi  Bi1  1  0.14085100  0.76002900  0.35063600  1
  Pd  Pd2  1  0.00000000  0.00000000  0.00000000  1
  Pd  Pd3  1  0.50000000  0.50000000  0.00000000  1
  Pd  Pd4  1  0.50000000  0.50000000  0.50000000  1
  Pd  Pd5  1  0.50000000  0.00000000  0.00000000  1
  O  O6  1  0.64435400  0.39617000  0.22831900  1
  O  O7  1  0.35564600  0.60383000  0.77168100  1
  O  O8  1  0.83824400  0.86015000  0.64564100  1
  O  O9  1  0.16175600  0.13985000  0.35435900  1
  O  O10  1  0.51901900  0.87362400  0.24667600  1
  O  O11  1  0.48098100  0.12637600  0.75332400  1
  O  O12  1  0.87672300  0.64548800  0.98891000  1
  O  O13  1  0.12327700  0.35451200  0.01109000  1
