# generated using pymatgen
data_Cs2CdP2O7
_symmetry_space_group_name_H-M   'P 1'
_cell_length_a   5.57197500
_cell_length_b   10.24531700
_cell_length_c   16.90896400
_cell_angle_alpha   90.00000000
_cell_angle_beta   90.00000000
_cell_angle_gamma   90.00000000
_symmetry_Int_Tables_number   1
_chemical_formula_structural   Cs2CdP2O7
_chemical_formula_sum   'Cs8 Cd4 P8 O28'
_cell_volume   965.27611296
_cell_formula_units_Z   4
loop_
 _symmetry_equiv_pos_site_id
 _symmetry_equiv_pos_as_xyz
  1  'x, y, z'
loop_
 _atom_site_type_symbol
 _atom_site_label
 _atom_site_symmetry_multiplicity
 _atom_site_fract_x
 _atom_site_fract_y
 _atom_site_fract_z
 _atom_site_occupancy
  Cs  Cs0  1  0.25000000  0.35219500  0.92161800  1
  Cs  Cs1  1  0.25000000  0.14780500  0.42161800  1
  Cs  Cs2  1  0.75000000  0.64780500  0.07838200  1
  Cs  Cs3  1  0.75000000  0.85219500  0.57838200  1
  Cs  Cs4  1  0.25000000  0.47613600  0.61043200  1
  Cs  Cs5  1  0.25000000  0.02386400  0.11043200  1
  Cs  Cs6  1  0.75000000  0.52386400  0.38956800  1
  Cs  Cs7  1  0.75000000  0.97613600  0.88956800  1
  Cd  Cd8  1  0.25000000  0.11186200  0.68928300  1
  Cd  Cd9  1  0.25000000  0.38813800  0.18928300  1
  Cd  Cd10  1  0.75000000  0.88813800  0.31071700  1
  Cd  Cd11  1  0.75000000  0.61186200  0.81071700  1
  P  P12  1  0.75000000  0.23356200  0.58864400  1
  P  P13  1  0.75000000  0.26643800  0.08864400  1
  P  P14  1  0.25000000  0.76643800  0.41135600  1
  P  P15  1  0.25000000  0.73356200  0.91135600  1
  P  P16  1  0.75000000  0.27202100  0.76262100  1
  P  P17  1  0.75000000  0.22797900  0.26262100  1
  P  P18  1  0.25000000  0.72797900  0.23737900  1
  P  P19  1  0.25000000  0.77202100  0.73737900  1
  O  O20  1  0.75000000  0.32429800  0.67100000  1
  O  O21  1  0.75000000  0.17570200  0.17100000  1
  O  O22  1  0.25000000  0.67570200  0.32900000  1
  O  O23  1  0.25000000  0.82429800  0.82900000  1
  O  O24  1  0.52165000  0.19100300  0.77650200  1
  O  O25  1  0.97835000  0.30899700  0.27650200  1
  O  O26  1  0.02165000  0.80899700  0.22349800  1
  O  O27  1  0.47835000  0.69100300  0.72349800  1
  O  O28  1  0.47835000  0.80899700  0.22349800  1
  O  O29  1  0.02165000  0.69100300  0.72349800  1
  O  O30  1  0.97835000  0.19100300  0.77650200  1
  O  O31  1  0.52165000  0.30899700  0.27650200  1
  O  O32  1  0.75000000  0.39678700  0.81235900  1
  O  O33  1  0.75000000  0.10321300  0.31235900  1
  O  O34  1  0.25000000  0.60321300  0.18764100  1
  O  O35  1  0.25000000  0.89678700  0.68764100  1
  O  O36  1  0.52091500  0.15003900  0.59156300  1
  O  O37  1  0.97908500  0.34996100  0.09156300  1
  O  O38  1  0.02091500  0.84996100  0.40843700  1
  O  O39  1  0.47908500  0.65003900  0.90843700  1
  O  O40  1  0.47908500  0.84996100  0.40843700  1
  O  O41  1  0.02091500  0.65003900  0.90843700  1
  O  O42  1  0.97908500  0.15003900  0.59156300  1
  O  O43  1  0.52091500  0.34996100  0.09156300  1
  O  O44  1  0.75000000  0.33571600  0.52337500  1
  O  O45  1  0.75000000  0.16428400  0.02337500  1
  O  O46  1  0.25000000  0.66428400  0.47662500  1
  O  O47  1  0.25000000  0.83571600  0.97662500  1
