# generated using pymatgen
data_HfGeRh
_symmetry_space_group_name_H-M   'P 1'
_cell_length_a   4.01022500
_cell_length_b   6.55223700
_cell_length_c   7.58919300
_cell_angle_alpha   90.00000000
_cell_angle_beta   90.00000000
_cell_angle_gamma   90.00000000
_symmetry_Int_Tables_number   1
_chemical_formula_structural   HfGeRh
_chemical_formula_sum   'Hf4 Ge4 Rh4'
_cell_volume   199.41321500
_cell_formula_units_Z   4
loop_
 _symmetry_equiv_pos_site_id
 _symmetry_equiv_pos_as_xyz
  1  'x, y, z'
loop_
 _atom_site_type_symbol
 _atom_site_label
 _atom_site_symmetry_multiplicity
 _atom_site_fract_x
 _atom_site_fract_y
 _atom_site_fract_z
 _atom_site_occupancy
  Hf  Hf0  1  0.25000000  0.02169700  0.31344000  1
  Hf  Hf1  1  0.25000000  0.52169700  0.18656000  1
  Hf  Hf2  1  0.75000000  0.97830300  0.68656000  1
  Hf  Hf3  1  0.75000000  0.47830300  0.81344000  1
  Ge  Ge4  1  0.25000000  0.26778200  0.61884300  1
  Ge  Ge5  1  0.25000000  0.76778200  0.88115700  1
  Ge  Ge6  1  0.75000000  0.73221800  0.38115700  1
  Ge  Ge7  1  0.75000000  0.23221800  0.11884300  1
  Rh  Rh8  1  0.25000000  0.15168600  0.93566000  1
  Rh  Rh9  1  0.25000000  0.65168600  0.56434000  1
  Rh  Rh10  1  0.75000000  0.84831400  0.06434000  1
  Rh  Rh11  1  0.75000000  0.34831400  0.43566000  1
