# generated using pymatgen
data_ZrUS2
_symmetry_space_group_name_H-M   'P 1'
_cell_length_a   6.44047094
_cell_length_b   6.44047094
_cell_length_c   6.44047108
_cell_angle_alpha   34.11803471
_cell_angle_beta   34.11803471
_cell_angle_gamma   34.11804250
_symmetry_Int_Tables_number   1
_chemical_formula_structural   ZrUS2
_chemical_formula_sum   'Zr1 U1 S2'
_cell_volume   74.93240470
_cell_formula_units_Z   1
loop_
 _symmetry_equiv_pos_site_id
 _symmetry_equiv_pos_as_xyz
  1  'x, y, z'
loop_
 _atom_site_type_symbol
 _atom_site_label
 _atom_site_symmetry_multiplicity
 _atom_site_fract_x
 _atom_site_fract_y
 _atom_site_fract_z
 _atom_site_occupancy
  Zr  Zr0  1  0.50000000  0.50000000  0.50000000  1
  U  U1  1  0.00000000  0.00000000  0.00000000  1
  S  S2  1  0.24757500  0.24757500  0.24757500  1
  S  S3  1  0.75242500  0.75242500  0.75242500  1
