# generated using pymatgen
data_PrMoBrO4
_symmetry_space_group_name_H-M   'P 1'
_cell_length_a   7.08648600
_cell_length_b   7.56456108
_cell_length_c   11.39033871
_cell_angle_alpha   106.12206067
_cell_angle_beta   106.64374850
_cell_angle_gamma   92.44190066
_symmetry_Int_Tables_number   1
_chemical_formula_structural   PrMoBrO4
_chemical_formula_sum   'Pr4 Mo4 Br4 O16'
_cell_volume   557.03360688
_cell_formula_units_Z   4
loop_
 _symmetry_equiv_pos_site_id
 _symmetry_equiv_pos_as_xyz
  1  'x, y, z'
loop_
 _atom_site_type_symbol
 _atom_site_label
 _atom_site_symmetry_multiplicity
 _atom_site_fract_x
 _atom_site_fract_y
 _atom_site_fract_z
 _atom_site_occupancy
  Pr  Pr0  1  0.64664200  0.12756200  0.73040400  1
  Pr  Pr1  1  0.35335800  0.87243800  0.26959600  1
  Pr  Pr2  1  0.39466200  0.64562600  0.76858500  1
  Pr  Pr3  1  0.60533800  0.35437400  0.23141500  1
  Mo  Mo4  1  0.73172300  0.81753700  0.13390600  1
  Mo  Mo5  1  0.26827700  0.18246300  0.86609400  1
  Mo  Mo6  1  0.77621700  0.59378000  0.63090600  1
  Mo  Mo7  1  0.22378300  0.40622000  0.36909400  1
  Br  Br8  1  0.25722800  0.96613500  0.51937300  1
  Br  Br9  1  0.74277200  0.03386500  0.48062700  1
  Br  Br10  1  0.19274700  0.71134600  0.98024300  1
  Br  Br11  1  0.80725300  0.28865400  0.01975700  1
  O  O12  1  0.67391100  0.73140100  0.96417500  1
  O  O13  1  0.32608900  0.26859900  0.03582500  1
  O  O14  1  0.99363600  0.86718900  0.20646900  1
  O  O15  1  0.00636400  0.13281100  0.79353100  1
  O  O16  1  0.62190000  0.66051800  0.19990900  1
  O  O17  1  0.37810000  0.33948200  0.80009100  1
  O  O18  1  0.39431200  0.98131900  0.82235400  1
  O  O19  1  0.60568800  0.01868100  0.17764600  1
  O  O20  1  0.03864500  0.63852900  0.67684300  1
  O  O21  1  0.96135500  0.36147100  0.32315700  1
  O  O22  1  0.69678900  0.43144300  0.70265400  1
  O  O23  1  0.30321100  0.56855700  0.29734600  1
  O  O24  1  0.68206200  0.51261400  0.45966200  1
  O  O25  1  0.31793800  0.48738600  0.54033800  1
  O  O26  1  0.66307800  0.79597100  0.69687800  1
  O  O27  1  0.33692200  0.20402900  0.30312200  1
