# generated using pymatgen
data_Mg149Mo
_symmetry_space_group_name_H-M   'P 1'
_cell_length_a   15.89350016
_cell_length_b   15.89350467
_cell_length_c   15.62147027
_cell_angle_alpha   90.00000000
_cell_angle_beta   90.00000000
_cell_angle_gamma   120.00000936
_symmetry_Int_Tables_number   1
_chemical_formula_structural   Mg149Mo
_chemical_formula_sum   'Mg149 Mo1'
_cell_volume   3417.36779211
_cell_formula_units_Z   1
loop_
 _symmetry_equiv_pos_site_id
 _symmetry_equiv_pos_as_xyz
  1  'x, y, z'
loop_
 _atom_site_type_symbol
 _atom_site_label
 _atom_site_symmetry_multiplicity
 _atom_site_fract_x
 _atom_site_fract_y
 _atom_site_fract_z
 _atom_site_occupancy
  Mg  Mg0  1  0.39733526  0.00049166  -0.00000000  1
  Mg  Mg1  1  0.60315640  0.00049166  -0.00000000  1
  Mg  Mg2  1  0.19131705  0.00077355  -0.00000000  1
  Mg  Mg3  1  0.80945750  0.00077455  -0.00000000  1
  Mg  Mg4  1  0.99922545  0.19054350  -0.00000000  1
  Mg  Mg5  1  0.19131705  0.19054250  -0.00000000  1
  Mg  Mg6  1  0.59974497  0.19948993  -0.00000000  1
  Mg  Mg7  1  0.80047192  0.19952808  -0.00000000  1
  Mg  Mg8  1  0.39905716  0.19952908  -0.00000000  1
  Mg  Mg9  1  0.39733526  0.39684360  -0.00000000  1
  Mg  Mg10  1  0.99950834  0.39684360  -0.00000000  1
  Mg  Mg11  1  0.19890276  0.39780651  -0.00000000  1
  Mg  Mg12  1  0.59974497  0.40025503  -0.00000000  1
  Mg  Mg13  1  0.80051007  0.40025503  -0.00000000  1
  Mg  Mg14  1  0.40018171  0.59981829  -0.00000000  1
  Mg  Mg15  1  0.19963559  0.59981829  -0.00000000  1
  Mg  Mg16  1  0.80047192  0.60094284  -0.00000000  1
  Mg  Mg17  1  0.99950834  0.60266474  -0.00000000  1
  Mg  Mg18  1  0.60315640  0.60266474  -0.00000000  1
  Mg  Mg19  1  0.40018171  0.80036441  -0.00000000  1
  Mg  Mg20  1  0.19890276  0.80109624  -0.00000000  1
  Mg  Mg21  1  0.60219349  0.80109724  -0.00000000  1
  Mg  Mg22  1  0.99922545  0.80868295  -0.00000000  1
  Mg  Mg23  1  0.80945750  0.80868295  -0.00000000  1
  Mg  Mg24  1  0.06377037  0.12754073  0.15802938  1
  Mg  Mg25  1  0.06377037  0.93622863  0.15802938  1
  Mg  Mg26  1  0.87245927  0.93622963  0.15802938  1
  Mg  Mg27  1  0.26536555  0.33204586  0.16590526  1
  Mg  Mg28  1  0.06668031  0.33204586  0.16590526  1
  Mg  Mg29  1  0.66795314  0.73463445  0.16590526  1
  Mg  Mg30  1  0.06668031  0.73463445  0.16590526  1
  Mg  Mg31  1  0.66795314  0.93331869  0.16590526  1
  Mg  Mg32  1  0.26536555  0.93331969  0.16590526  1
  Mg  Mg33  1  0.46664819  0.53335081  0.16613188  1
  Mg  Mg34  1  0.06670261  0.53335181  0.16613188  1
  Mg  Mg35  1  0.46664819  0.93329739  0.16613188  1
  Mg  Mg36  1  0.26660579  0.53321157  0.16643279  1
  Mg  Mg37  1  0.26660579  0.73339421  0.16643279  1
  Mg  Mg38  1  0.46678743  0.73339421  0.16643279  1
  Mg  Mg39  1  0.86589833  0.13410067  0.16636416  1
  Mg  Mg40  1  0.26820234  0.13410067  0.16636416  1
  Mg  Mg41  1  0.86589833  0.73179766  0.16636416  1
  Mg  Mg42  1  0.46678721  0.13355091  0.16678091  1
  Mg  Mg43  1  0.66676370  0.13355091  0.16678091  1
  Mg  Mg44  1  0.46678721  0.33323630  0.16678091  1
  Mg  Mg45  1  0.86644809  0.33323630  0.16678091  1
  Mg  Mg46  1  0.86644809  0.53321179  0.16678091  1
  Mg  Mg47  1  0.66676370  0.53321279  0.16678091  1
  Mg  Mg48  1  0.66666700  0.33333300  0.16649293  1
  Mg  Mg49  1  0.80079883  0.99964685  0.33089545  1
  Mg  Mg50  1  0.19884802  0.99964785  0.33089545  1
  Mg  Mg51  1  0.19884802  0.19920117  0.33089545  1
  Mg  Mg52  1  0.00035315  0.19920117  0.33089545  1
  Mg  Mg53  1  0.00035315  0.80115198  0.33089545  1
  Mg  Mg54  1  0.80079883  0.80115198  0.33089545  1
  Mg  Mg55  1  -0.00000000  -0.00000000  0.33286253  1
  Mg  Mg56  1  0.39939882  0.99986984  0.33273505  1
  Mg  Mg57  1  0.60047202  0.99986984  0.33273505  1
  Mg  Mg58  1  0.00013016  0.39952798  0.33273505  1
  Mg  Mg59  1  0.39939882  0.39952798  0.33273505  1
  Mg  Mg60  1  0.60047202  0.60060118  0.33273505  1
  Mg  Mg61  1  0.00013016  0.60060218  0.33273505  1
  Mg  Mg62  1  0.20012650  0.40025299  0.33338202  1
  Mg  Mg63  1  0.20012650  0.79987350  0.33338202  1
  Mg  Mg64  1  0.59974701  0.79987350  0.33338202  1
  Mg  Mg65  1  0.59985393  0.19970786  0.33342012  1
  Mg  Mg66  1  0.80029214  0.40014607  0.33342012  1
  Mg  Mg67  1  0.59985393  0.40014607  0.33342012  1
  Mg  Mg68  1  0.40000263  0.20000181  0.33364102  1
  Mg  Mg69  1  0.79999919  0.20000181  0.33364102  1
  Mg  Mg70  1  0.79999919  0.59999737  0.33364102  1
  Mg  Mg71  1  0.40001399  0.59998501  0.33344937  1
  Mg  Mg72  1  0.19997102  0.59998601  0.33344937  1
  Mg  Mg73  1  0.40001399  0.80002998  0.33344937  1
  Mg  Mg74  1  0.26608332  0.13304166  0.50000000  1
  Mg  Mg75  1  0.86695834  0.13304166  0.50000000  1
  Mg  Mg76  1  0.06658156  0.13316213  0.50000000  1
  Mg  Mg77  1  0.66702591  0.13383269  0.50000000  1
  Mg  Mg78  1  0.46680678  0.13383269  0.50000000  1
  Mg  Mg79  1  0.06631782  0.33268873  0.50000000  1
  Mg  Mg80  1  0.26637091  0.33268873  0.50000000  1
  Mg  Mg81  1  0.46680678  0.33297409  0.50000000  1
  Mg  Mg82  1  0.86616731  0.33297409  0.50000000  1
  Mg  Mg83  1  0.66666700  0.33333300  0.50000000  1
  Mg  Mg84  1  0.26635494  0.53271088  0.50000000  1
  Mg  Mg85  1  0.46718543  0.53281557  0.50000000  1
  Mg  Mg86  1  0.06563015  0.53281557  0.50000000  1
  Mg  Mg87  1  0.66702591  0.53319222  0.50000000  1
  Mg  Mg88  1  0.86616731  0.53319222  0.50000000  1
  Mg  Mg89  1  0.26635494  0.73364506  0.50000000  1
  Mg  Mg90  1  0.46728912  0.73364506  0.50000000  1
  Mg  Mg91  1  0.66731127  0.73362909  0.50000000  1
  Mg  Mg92  1  0.06631782  0.73362909  0.50000000  1
  Mg  Mg93  1  0.86695834  0.73391668  0.50000000  1
  Mg  Mg94  1  0.86683787  0.93341944  0.50000000  1
  Mg  Mg95  1  0.06658156  0.93341944  0.50000000  1
  Mg  Mg96  1  0.26637091  0.93368218  0.50000000  1
  Mg  Mg97  1  0.66731127  0.93368218  0.50000000  1
  Mg  Mg98  1  0.46718543  0.93436985  0.50000000  1
  Mg  Mg99  1  0.40000263  0.20000181  0.66635798  1
  Mg  Mg100  1  0.79999919  0.20000181  0.66635798  1
  Mg  Mg101  1  0.79999919  0.59999737  0.66635798  1
  Mg  Mg102  1  0.40001399  0.59998501  0.66655063  1
  Mg  Mg103  1  0.19997102  0.59998601  0.66655063  1
  Mg  Mg104  1  0.40001399  0.80002998  0.66655063  1
  Mg  Mg105  1  0.59985393  0.19970786  0.66657988  1
  Mg  Mg106  1  0.80029214  0.40014607  0.66657988  1
  Mg  Mg107  1  0.59985393  0.40014607  0.66657988  1
  Mg  Mg108  1  0.20012650  0.40025299  0.66661698  1
  Mg  Mg109  1  0.20012650  0.79987350  0.66661698  1
  Mg  Mg110  1  0.59974701  0.79987350  0.66661698  1
  Mg  Mg111  1  0.39939882  0.99986984  0.66726495  1
  Mg  Mg112  1  0.60047202  0.99986984  0.66726495  1
  Mg  Mg113  1  0.00013016  0.39952798  0.66726495  1
  Mg  Mg114  1  0.39939882  0.39952798  0.66726495  1
  Mg  Mg115  1  0.60047202  0.60060118  0.66726495  1
  Mg  Mg116  1  0.00013016  0.60060218  0.66726495  1
  Mg  Mg117  1  -0.00000000  -0.00000000  0.66713747  1
  Mg  Mg118  1  0.80079883  0.99964685  0.66910455  1
  Mg  Mg119  1  0.19884802  0.99964785  0.66910455  1
  Mg  Mg120  1  0.19884802  0.19920117  0.66910455  1
  Mg  Mg121  1  0.00035315  0.19920117  0.66910455  1
  Mg  Mg122  1  0.00035315  0.80115198  0.66910455  1
  Mg  Mg123  1  0.80079883  0.80115198  0.66910455  1
  Mg  Mg124  1  0.66666700  0.33333300  0.83350707  1
  Mg  Mg125  1  0.46678721  0.13355091  0.83321909  1
  Mg  Mg126  1  0.66676370  0.13355091  0.83321909  1
  Mg  Mg127  1  0.46678721  0.33323630  0.83321909  1
  Mg  Mg128  1  0.86644809  0.33323630  0.83321909  1
  Mg  Mg129  1  0.86644809  0.53321179  0.83321909  1
  Mg  Mg130  1  0.66676370  0.53321279  0.83321909  1
  Mg  Mg131  1  0.86589833  0.13410067  0.83363584  1
  Mg  Mg132  1  0.26820234  0.13410067  0.83363584  1
  Mg  Mg133  1  0.86589833  0.73179766  0.83363584  1
  Mg  Mg134  1  0.26660579  0.53321157  0.83356821  1
  Mg  Mg135  1  0.26660579  0.73339421  0.83356821  1
  Mg  Mg136  1  0.46678743  0.73339421  0.83356821  1
  Mg  Mg137  1  0.46664819  0.53335081  0.83386712  1
  Mg  Mg138  1  0.06670261  0.53335181  0.83386712  1
  Mg  Mg139  1  0.46664819  0.93329739  0.83386712  1
  Mg  Mg140  1  0.26536555  0.33204586  0.83409474  1
  Mg  Mg141  1  0.06668031  0.33204586  0.83409474  1
  Mg  Mg142  1  0.66795314  0.73463445  0.83409474  1
  Mg  Mg143  1  0.06668031  0.73463445  0.83409474  1
  Mg  Mg144  1  0.66795314  0.93331869  0.83409474  1
  Mg  Mg145  1  0.26536555  0.93331969  0.83409474  1
  Mg  Mg146  1  0.06377037  0.12754073  0.84197062  1
  Mg  Mg147  1  0.06377037  0.93622863  0.84197062  1
  Mg  Mg148  1  0.87245927  0.93622963  0.84197062  1
  Mo  Mo149  1  0.00000000  -0.00000000  -0.00000000  1
