# generated using pymatgen
data_Ho2ReB6
_symmetry_space_group_name_H-M   'P 1'
_cell_length_a   3.66773900
_cell_length_b   9.15923800
_cell_length_c   11.54483200
_cell_angle_alpha   90.00000000
_cell_angle_beta   90.00000000
_cell_angle_gamma   90.00000000
_symmetry_Int_Tables_number   1
_chemical_formula_structural   Ho2ReB6
_chemical_formula_sum   'Ho8 Re4 B24'
_cell_volume   387.83355837
_cell_formula_units_Z   4
loop_
 _symmetry_equiv_pos_site_id
 _symmetry_equiv_pos_as_xyz
  1  'x, y, z'
loop_
 _atom_site_type_symbol
 _atom_site_label
 _atom_site_symmetry_multiplicity
 _atom_site_fract_x
 _atom_site_fract_y
 _atom_site_fract_z
 _atom_site_occupancy
  Ho  Ho0  1  0.00000000  0.32412500  0.41386200  1
  Ho  Ho1  1  0.00000000  0.67587500  0.58613800  1
  Ho  Ho2  1  0.00000000  0.82412500  0.08613800  1
  Ho  Ho3  1  0.00000000  0.17587500  0.91386200  1
  Ho  Ho4  1  0.00000000  0.94364300  0.37002300  1
  Ho  Ho5  1  0.00000000  0.05635700  0.62997700  1
  Ho  Ho6  1  0.00000000  0.44364300  0.12997700  1
  Ho  Ho7  1  0.00000000  0.55635700  0.87002300  1
  Re  Re8  1  0.00000000  0.63872700  0.32095200  1
  Re  Re9  1  0.00000000  0.36127300  0.67904800  1
  Re  Re10  1  0.00000000  0.13872700  0.17904800  1
  Re  Re11  1  0.00000000  0.86127300  0.82095200  1
  B  B12  1  0.50000000  0.55339800  0.43300800  1
  B  B13  1  0.50000000  0.44660200  0.56699200  1
  B  B14  1  0.50000000  0.05339800  0.06699200  1
  B  B15  1  0.50000000  0.94660200  0.93300800  1
  B  B16  1  0.50000000  0.74989800  0.41929300  1
  B  B17  1  0.50000000  0.25010200  0.58070700  1
  B  B18  1  0.50000000  0.24989800  0.08070700  1
  B  B19  1  0.50000000  0.75010200  0.91929300  1
  B  B20  1  0.50000000  0.79279100  0.26587800  1
  B  B21  1  0.50000000  0.20720900  0.73412200  1
  B  B22  1  0.50000000  0.29279100  0.23412200  1
  B  B23  1  0.50000000  0.70720900  0.76587800  1
  B  B24  1  0.50000000  0.63158600  0.18565000  1
  B  B25  1  0.50000000  0.36841400  0.81435000  1
  B  B26  1  0.50000000  0.13158600  0.31435000  1
  B  B27  1  0.50000000  0.86841400  0.68565000  1
  B  B28  1  0.50000000  0.98282000  0.21221500  1
  B  B29  1  0.50000000  0.01718000  0.78778500  1
  B  B30  1  0.50000000  0.48282000  0.28778500  1
  B  B31  1  0.50000000  0.51718000  0.71221500  1
  B  B32  1  0.50000000  0.60015600  0.02799900  1
  B  B33  1  0.50000000  0.39984400  0.97200100  1
  B  B34  1  0.50000000  0.10015600  0.47200100  1
  B  B35  1  0.50000000  0.89984400  0.52799900  1
