# generated using pymatgen
data_H8RuN3Cl5O
_symmetry_space_group_name_H-M   'P 1'
_cell_length_a   7.04392700
_cell_length_b   10.78663400
_cell_length_c   13.88635000
_cell_angle_alpha   90.00000000
_cell_angle_beta   90.00000000
_cell_angle_gamma   90.00000000
_symmetry_Int_Tables_number   1
_chemical_formula_structural   H8RuN3Cl5O
_chemical_formula_sum   'H32 Ru4 N12 Cl20 O4'
_cell_volume   1055.08851777
_cell_formula_units_Z   4
loop_
 _symmetry_equiv_pos_site_id
 _symmetry_equiv_pos_as_xyz
  1  'x, y, z'
loop_
 _atom_site_type_symbol
 _atom_site_label
 _atom_site_symmetry_multiplicity
 _atom_site_fract_x
 _atom_site_fract_y
 _atom_site_fract_z
 _atom_site_occupancy
  H  H0  1  0.51558400  0.23916200  0.10778700  1
  H  H1  1  0.98441600  0.76083800  0.60778700  1
  H  H2  1  0.48441600  0.73916200  0.39221300  1
  H  H3  1  0.01558400  0.26083800  0.89221300  1
  H  H4  1  0.18942100  0.24877700  0.37240500  1
  H  H5  1  0.31057900  0.75122300  0.87240500  1
  H  H6  1  0.81057900  0.74877700  0.12759500  1
  H  H7  1  0.68942100  0.25122300  0.62759500  1
  H  H8  1  0.72646800  0.18102100  0.06746000  1
  H  H9  1  0.77353200  0.81897900  0.56746000  1
  H  H10  1  0.27353200  0.68102100  0.43254000  1
  H  H11  1  0.22646800  0.31897900  0.93254000  1
  H  H12  1  0.40744700  0.19295600  0.34600600  1
  H  H13  1  0.09255300  0.80704400  0.84600600  1
  H  H14  1  0.59255300  0.69295600  0.15399400  1
  H  H15  1  0.90744700  0.30704400  0.65399400  1
  H  H16  1  0.38146500  0.33894600  0.39064300  1
  H  H17  1  0.11853500  0.66105400  0.89064300  1
  H  H18  1  0.61853500  0.83894600  0.10935700  1
  H  H19  1  0.88146500  0.16105400  0.60935700  1
  H  H20  1  0.70591000  0.23596700  0.18066500  1
  H  H21  1  0.79409000  0.76403300  0.68066500  1
  H  H22  1  0.29409000  0.73596700  0.31933500  1
  H  H23  1  0.20591000  0.26403300  0.81933500  1
  H  H24  1  0.34131300  0.21549600  0.46203900  1
  H  H25  1  0.15868700  0.78450400  0.96203900  1
  H  H26  1  0.65868700  0.71549600  0.03796100  1
  H  H27  1  0.84131300  0.28450400  0.53796100  1
  H  H28  1  0.70165200  0.33537100  0.08698300  1
  H  H29  1  0.79834800  0.66462900  0.58698300  1
  H  H30  1  0.29834800  0.83537100  0.41301700  1
  H  H31  1  0.20165200  0.16462900  0.91301700  1
  Ru  Ru32  1  0.17438300  0.00413800  0.14188600  1
  Ru  Ru33  1  0.32561700  0.99586200  0.64188600  1
  Ru  Ru34  1  0.82561700  0.50413800  0.35811400  1
  Ru  Ru35  1  0.67438300  0.49586200  0.85811400  1
  N  N36  1  0.01508900  0.00407000  0.23758200  1
  N  N37  1  0.48491100  0.99593000  0.73758200  1
  N  N38  1  0.98491100  0.50407000  0.26241800  1
  N  N39  1  0.51508900  0.49593000  0.76241800  1
  N  N40  1  0.66277900  0.24802300  0.11041900  1
  N  N41  1  0.83722100  0.75197700  0.61041900  1
  N  N42  1  0.33722100  0.74802300  0.38958100  1
  N  N43  1  0.16277900  0.25197700  0.88958100  1
  N  N44  1  0.33080600  0.24914300  0.39229100  1
  N  N45  1  0.16919400  0.75085700  0.89229100  1
  N  N46  1  0.66919400  0.74914300  0.10770900  1
  N  N47  1  0.83080600  0.25085700  0.60770900  1
  Cl  Cl48  1  0.11736700  0.00035200  0.50708700  1
  Cl  Cl49  1  0.38263300  0.99964800  0.00708700  1
  Cl  Cl50  1  0.88263300  0.50035200  0.99291300  1
  Cl  Cl51  1  0.61736700  0.49964800  0.49291300  1
  Cl  Cl52  1  0.05063300  0.99740600  0.74507100  1
  Cl  Cl53  1  0.44936700  0.00259400  0.24507100  1
  Cl  Cl54  1  0.94936700  0.49740600  0.75492900  1
  Cl  Cl55  1  0.55063300  0.50259400  0.25492900  1
  Cl  Cl56  1  0.08387800  0.50629900  0.47224000  1
  Cl  Cl57  1  0.41612200  0.49370100  0.97224000  1
  Cl  Cl58  1  0.91612200  0.00629900  0.02776000  1
  Cl  Cl59  1  0.58387800  0.99370100  0.52776000  1
  Cl  Cl60  1  0.32640500  0.22024300  0.63639500  1
  Cl  Cl61  1  0.17359500  0.77975700  0.13639500  1
  Cl  Cl62  1  0.67359500  0.72024300  0.86360500  1
  Cl  Cl63  1  0.82640500  0.27975700  0.36360500  1
  Cl  Cl64  1  0.19601500  0.22529900  0.13564100  1
  Cl  Cl65  1  0.30398500  0.77470100  0.63564100  1
  Cl  Cl66  1  0.80398500  0.72529900  0.36435900  1
  Cl  Cl67  1  0.69601500  0.27470100  0.86435900  1
  O  O68  1  0.09820300  0.50115300  0.20103300  1
  O  O69  1  0.40179700  0.49884700  0.70103300  1
  O  O70  1  0.90179700  0.00115300  0.29896700  1
  O  O71  1  0.59820300  0.99884700  0.79896700  1
