# generated using pymatgen
data_Tb5Ir2
_symmetry_space_group_name_H-M   'P 1'
_cell_length_a   6.52391200
_cell_length_b   7.20496471
_cell_length_c   8.59837099
_cell_angle_alpha   96.24996244
_cell_angle_beta   112.29460684
_cell_angle_gamma   90.00000000
_symmetry_Int_Tables_number   1
_chemical_formula_structural   Tb5Ir2
_chemical_formula_sum   'Tb10 Ir4'
_cell_volume   371.35204152
_cell_formula_units_Z   2
loop_
 _symmetry_equiv_pos_site_id
 _symmetry_equiv_pos_as_xyz
  1  'x, y, z'
loop_
 _atom_site_type_symbol
 _atom_site_label
 _atom_site_symmetry_multiplicity
 _atom_site_fract_x
 _atom_site_fract_y
 _atom_site_fract_z
 _atom_site_occupancy
  Tb  Tb0  1  0.97123400  0.91769600  0.18262200  1
  Tb  Tb1  1  0.78861200  0.58230400  0.81737800  1
  Tb  Tb2  1  0.02876600  0.08230400  0.81737800  1
  Tb  Tb3  1  0.21138800  0.41769600  0.18262200  1
  Tb  Tb4  1  0.65371400  0.81811200  0.44088500  1
  Tb  Tb5  1  0.21282900  0.68188800  0.55911500  1
  Tb  Tb6  1  0.34628600  0.18188800  0.55911500  1
  Tb  Tb7  1  0.78717100  0.31811200  0.44088500  1
  Tb  Tb8  1  0.42855700  0.75000000  0.00000000  1
  Tb  Tb9  1  0.57144300  0.25000000  0.00000000  1
  Ir  Ir10  1  0.82583500  0.57300000  0.22036900  1
  Ir  Ir11  1  0.60546600  0.92700000  0.77963100  1
  Ir  Ir12  1  0.17416500  0.42700000  0.77963100  1
  Ir  Ir13  1  0.39453400  0.07300000  0.22036900  1
