# generated using pymatgen
data_Rb2Ga2Ge3O10
_symmetry_space_group_name_H-M   'P 1'
_cell_length_a   9.52858624
_cell_length_b   9.52858624
_cell_length_c   12.85982817
_cell_angle_alpha   50.13858410
_cell_angle_beta   50.13858410
_cell_angle_gamma   41.52068373
_symmetry_Int_Tables_number   1
_chemical_formula_structural   Rb2Ga2Ge3O10
_chemical_formula_sum   'Rb4 Ga4 Ge6 O20'
_cell_volume   563.56451446
_cell_formula_units_Z   2
loop_
 _symmetry_equiv_pos_site_id
 _symmetry_equiv_pos_as_xyz
  1  'x, y, z'
loop_
 _atom_site_type_symbol
 _atom_site_label
 _atom_site_symmetry_multiplicity
 _atom_site_fract_x
 _atom_site_fract_y
 _atom_site_fract_z
 _atom_site_occupancy
  Rb  Rb0  1  0.62690700  0.84960000  0.13108900  1
  Rb  Rb1  1  0.15040000  0.37309300  0.86891100  1
  Rb  Rb2  1  0.27620800  0.99272800  0.62164100  1
  Rb  Rb3  1  0.00727200  0.72379200  0.37835900  1
  Ga  Ga4  1  0.73070500  0.43966600  0.53731100  1
  Ga  Ga5  1  0.56033400  0.26929500  0.46268900  1
  Ga  Ga6  1  0.26037800  0.47444300  0.06494600  1
  Ga  Ga7  1  0.52555700  0.73962200  0.93505400  1
  Ge  Ge8  1  0.69238600  0.42250100  0.80674700  1
  Ge  Ge9  1  0.57749900  0.30761400  0.19325300  1
  Ge  Ge10  1  0.26486500  0.73513500  0.50000000  1
  Ge  Ge11  1  0.00828600  0.99171400  0.00000000  1
  Ge  Ge12  1  0.76068300  0.98724600  0.70208000  1
  Ge  Ge13  1  0.01275400  0.23931700  0.29792000  1
  O  O14  1  0.00227400  0.30704400  0.40385600  1
  O  O15  1  0.69295600  0.99772600  0.59614400  1
  O  O16  1  0.63319600  0.25698000  0.68383600  1
  O  O17  1  0.74302000  0.36680400  0.31616400  1
  O  O18  1  0.05902800  0.83033800  0.65333200  1
  O  O19  1  0.16966200  0.94097200  0.34666800  1
  O  O20  1  0.49848200  0.70583300  0.46066100  1
  O  O21  1  0.29416700  0.50151800  0.53933900  1
  O  O22  1  0.78976900  0.49020200  0.61885900  1
  O  O23  1  0.50979800  0.21023100  0.38114100  1
  O  O24  1  0.14386600  0.33809200  0.11555400  1
  O  O25  1  0.66190800  0.85613400  0.88444600  1
  O  O26  1  0.40758300  0.53486400  0.86907700  1
  O  O27  1  0.46513600  0.59241700  0.13092300  1
  O  O28  1  0.47576700  0.25660100  0.15350900  1
  O  O29  1  0.74339900  0.52423300  0.84649100  1
  O  O30  1  0.86883700  0.12272700  0.88343900  1
  O  O31  1  0.87727300  0.13116300  0.11656100  1
  O  O32  1  0.03171900  0.73776700  0.11113800  1
  O  O33  1  0.26223300  0.96828100  0.88886200  1
