# generated using pymatgen
data_CsSe4
_symmetry_space_group_name_H-M   'P 1'
_cell_length_a   10.43483300
_cell_length_b   14.10646500
_cell_length_c   19.72740500
_cell_angle_alpha   90.00000000
_cell_angle_beta   90.00000000
_cell_angle_gamma   90.00000000
_symmetry_Int_Tables_number   1
_chemical_formula_structural   CsSe4
_chemical_formula_sum   'Cs16 Se64'
_cell_volume   2903.84652577
_cell_formula_units_Z   16
loop_
 _symmetry_equiv_pos_site_id
 _symmetry_equiv_pos_as_xyz
  1  'x, y, z'
loop_
 _atom_site_type_symbol
 _atom_site_label
 _atom_site_symmetry_multiplicity
 _atom_site_fract_x
 _atom_site_fract_y
 _atom_site_fract_z
 _atom_site_occupancy
  Cs  Cs0  1  0.96759900  0.38779900  0.25000000  1
  Cs  Cs1  1  0.03240100  0.61220100  0.75000000  1
  Cs  Cs2  1  0.96759900  0.11220100  0.75000000  1
  Cs  Cs3  1  0.03240100  0.88779900  0.25000000  1
  Cs  Cs4  1  0.64960700  0.61601000  0.25000000  1
  Cs  Cs5  1  0.35039300  0.38399000  0.75000000  1
  Cs  Cs6  1  0.64960700  0.88399000  0.75000000  1
  Cs  Cs7  1  0.35039300  0.11601000  0.25000000  1
  Cs  Cs8  1  0.88233100  0.25000000  0.50000000  1
  Cs  Cs9  1  0.11766900  0.75000000  0.00000000  1
  Cs  Cs10  1  0.11766900  0.75000000  0.50000000  1
  Cs  Cs11  1  0.88233100  0.25000000  0.00000000  1
  Cs  Cs12  1  0.40137600  0.25000000  0.50000000  1
  Cs  Cs13  1  0.59862400  0.75000000  0.00000000  1
  Cs  Cs14  1  0.59862400  0.75000000  0.50000000  1
  Cs  Cs15  1  0.40137600  0.25000000  0.00000000  1
  Se  Se16  1  0.18391200  0.64002400  0.25000000  1
  Se  Se17  1  0.81608800  0.35997600  0.75000000  1
  Se  Se18  1  0.18391200  0.85997600  0.75000000  1
  Se  Se19  1  0.81608800  0.14002400  0.25000000  1
  Se  Se20  1  0.31301100  0.59758100  0.34539900  1
  Se  Se21  1  0.68698900  0.40241900  0.84539900  1
  Se  Se22  1  0.31301100  0.90241900  0.65460100  1
  Se  Se23  1  0.68698900  0.09758100  0.15460100  1
  Se  Se24  1  0.68698900  0.40241900  0.65460100  1
  Se  Se25  1  0.31301100  0.59758100  0.15460100  1
  Se  Se26  1  0.68698900  0.09758100  0.34539900  1
  Se  Se27  1  0.31301100  0.90241900  0.84539900  1
  Se  Se28  1  0.30056800  0.42597800  0.34391000  1
  Se  Se29  1  0.69943200  0.57402200  0.84391000  1
  Se  Se30  1  0.30056800  0.07402200  0.65609000  1
  Se  Se31  1  0.69943200  0.92597800  0.15609000  1
  Se  Se32  1  0.69943200  0.57402200  0.65609000  1
  Se  Se33  1  0.30056800  0.42597800  0.15609000  1
  Se  Se34  1  0.69943200  0.92597800  0.34391000  1
  Se  Se35  1  0.30056800  0.07402200  0.84391000  1
  Se  Se36  1  0.45584400  0.38737300  0.25000000  1
  Se  Se37  1  0.54415600  0.61262700  0.75000000  1
  Se  Se38  1  0.45584400  0.11262700  0.75000000  1
  Se  Se39  1  0.54415600  0.88737300  0.25000000  1
  Se  Se40  1  0.64840900  0.33547700  0.35108900  1
  Se  Se41  1  0.35159100  0.66452300  0.85108900  1
  Se  Se42  1  0.64840900  0.16452300  0.64891100  1
  Se  Se43  1  0.35159100  0.83547700  0.14891100  1
  Se  Se44  1  0.35159100  0.66452300  0.64891100  1
  Se  Se45  1  0.64840900  0.33547700  0.14891100  1
  Se  Se46  1  0.35159100  0.83547700  0.35108900  1
  Se  Se47  1  0.64840900  0.16452300  0.85108900  1
  Se  Se48  1  0.60432400  0.45771700  0.43032000  1
  Se  Se49  1  0.39567600  0.54228300  0.93032000  1
  Se  Se50  1  0.60432400  0.04228300  0.56968000  1
  Se  Se51  1  0.39567600  0.95771700  0.06968000  1
  Se  Se52  1  0.39567600  0.54228300  0.56968000  1
  Se  Se53  1  0.60432400  0.45771700  0.06968000  1
  Se  Se54  1  0.39567600  0.95771700  0.43032000  1
  Se  Se55  1  0.60432400  0.04228300  0.93032000  1
  Se  Se56  1  0.80629000  0.51048900  0.47604300  1
  Se  Se57  1  0.19371000  0.48951100  0.97604300  1
  Se  Se58  1  0.80629000  0.98951100  0.52395700  1
  Se  Se59  1  0.19371000  0.01048900  0.02395700  1
  Se  Se60  1  0.19371000  0.48951100  0.52395700  1
  Se  Se61  1  0.80629000  0.51048900  0.02395700  1
  Se  Se62  1  0.19371000  0.01048900  0.47604300  1
  Se  Se63  1  0.80629000  0.98951100  0.97604300  1
  Se  Se64  1  0.92323800  0.58483800  0.38709300  1
  Se  Se65  1  0.07676200  0.41516200  0.88709300  1
  Se  Se66  1  0.92323800  0.91516200  0.61290700  1
  Se  Se67  1  0.07676200  0.08483800  0.11290700  1
  Se  Se68  1  0.07676200  0.41516200  0.61290700  1
  Se  Se69  1  0.92323800  0.58483800  0.11290700  1
  Se  Se70  1  0.07676200  0.08483800  0.38709300  1
  Se  Se71  1  0.92323800  0.91516200  0.88709300  1
  Se  Se72  1  0.85498700  0.74575200  0.37412800  1
  Se  Se73  1  0.14501300  0.25424800  0.87412800  1
  Se  Se74  1  0.85498700  0.75424800  0.62587200  1
  Se  Se75  1  0.14501300  0.24575200  0.12587200  1
  Se  Se76  1  0.14501300  0.25424800  0.62587200  1
  Se  Se77  1  0.85498700  0.74575200  0.12587200  1
  Se  Se78  1  0.14501300  0.24575200  0.37412800  1
  Se  Se79  1  0.85498700  0.75424800  0.87412800  1
