# generated using pymatgen
data_Ba6Na2Nb2V2O17
_symmetry_space_group_name_H-M   'P 1'
_cell_length_a   5.97213546
_cell_length_b   5.97213546
_cell_length_c   15.05547035
_cell_angle_alpha   89.81248717
_cell_angle_beta   89.81248717
_cell_angle_gamma   59.86151250
_symmetry_Int_Tables_number   1
_chemical_formula_structural   Ba6Na2Nb2V2O17
_chemical_formula_sum   'Ba6 Na2 Nb2 V2 O17'
_cell_volume   464.37990122
_cell_formula_units_Z   1
loop_
 _symmetry_equiv_pos_site_id
 _symmetry_equiv_pos_as_xyz
  1  'x, y, z'
loop_
 _atom_site_type_symbol
 _atom_site_label
 _atom_site_symmetry_multiplicity
 _atom_site_fract_x
 _atom_site_fract_y
 _atom_site_fract_z
 _atom_site_occupancy
  Ba  Ba0  1  0.66630000  0.66668200  0.65072900  1
  Ba  Ba1  1  0.33331800  0.33370000  0.34927100  1
  Ba  Ba2  1  0.33240600  0.33402300  0.81364500  1
  Ba  Ba3  1  0.66597700  0.66759400  0.18635500  1
  Ba  Ba4  1  0.00000800  0.99999200  0.50000000  1
  Ba  Ba5  1  0.00845300  0.99154700  0.00000000  1
  Na  Na6  1  0.99933000  0.00031600  0.74818900  1
  Na  Na7  1  0.99968400  0.00067000  0.25181100  1
  Nb  Nb8  1  0.33332000  0.33326300  0.58665700  1
  Nb  Nb9  1  0.66673700  0.66668000  0.41334300  1
  V  V10  1  0.66028800  0.66986800  0.89599300  1
  V  V11  1  0.33013200  0.33971200  0.10400700  1
  O  O12  1  0.82156200  0.82563800  0.85537200  1
  O  O13  1  0.34902500  0.82685500  0.85011100  1
  O  O14  1  0.82354400  0.35202700  0.85570300  1
  O  O15  1  0.17436200  0.17843800  0.14462800  1
  O  O16  1  0.64797300  0.17645600  0.14429700  1
  O  O17  1  0.17314500  0.65097500  0.14988900  1
  O  O18  1  0.49993700  0.50006300  0.50000000  1
  O  O19  1  0.00004300  0.50001100  0.49996000  1
  O  O20  1  0.49998900  0.99995800  0.50004000  1
  O  O21  1  0.17731100  0.17772200  0.65732500  1
  O  O22  1  0.64500300  0.17718500  0.65723600  1
  O  O23  1  0.17711600  0.64474000  0.65729300  1
  O  O24  1  0.82227800  0.82268900  0.34267500  1
  O  O25  1  0.35526000  0.82288400  0.34270700  1
  O  O26  1  0.82281500  0.35499700  0.34276400  1
  O  O27  1  0.63637500  0.68471700  0.01033900  1
  O  O28  1  0.31528300  0.36362500  0.98966100  1
