# generated using pymatgen
data_CaCoF6
_symmetry_space_group_name_H-M   'P 1'
_cell_length_a   5.74950962
_cell_length_b   5.74950962
_cell_length_c   5.74950967
_cell_angle_alpha   58.00700590
_cell_angle_beta   58.00700590
_cell_angle_gamma   58.00700565
_symmetry_Int_Tables_number   1
_chemical_formula_structural   CaCoF6
_chemical_formula_sum   'Ca1 Co1 F6'
_cell_volume   128.24941416
_cell_formula_units_Z   1
loop_
 _symmetry_equiv_pos_site_id
 _symmetry_equiv_pos_as_xyz
  1  'x, y, z'
loop_
 _atom_site_type_symbol
 _atom_site_label
 _atom_site_symmetry_multiplicity
 _atom_site_fract_x
 _atom_site_fract_y
 _atom_site_fract_z
 _atom_site_occupancy
  Ca  Ca0  1  0.50000000  0.50000000  0.50000000  1
  Co  Co1  1  0.00000000  0.00000000  0.00000000  1
  F  F2  1  0.68435900  0.86905100  0.22124600  1
  F  F3  1  0.86905100  0.22124600  0.68435900  1
  F  F4  1  0.77875400  0.31564100  0.13094900  1
  F  F5  1  0.13094900  0.77875400  0.31564100  1
  F  F6  1  0.31564100  0.13094900  0.77875400  1
  F  F7  1  0.22124600  0.68435900  0.86905100  1
