# generated using pymatgen
data_TeO3
_symmetry_space_group_name_H-M   'P 1'
_cell_length_a   5.24199452
_cell_length_b   5.24199452
_cell_length_c   5.38183454
_cell_angle_alpha   82.49127022
_cell_angle_beta   82.49127022
_cell_angle_gamma   120.03531715
_symmetry_Int_Tables_number   1
_chemical_formula_structural   TeO3
_chemical_formula_sum   'Te2 O6'
_cell_volume   123.57170202
_cell_formula_units_Z   2
loop_
 _symmetry_equiv_pos_site_id
 _symmetry_equiv_pos_as_xyz
  1  'x, y, z'
loop_
 _atom_site_type_symbol
 _atom_site_label
 _atom_site_symmetry_multiplicity
 _atom_site_fract_x
 _atom_site_fract_y
 _atom_site_fract_z
 _atom_site_occupancy
  Te  Te0  1  0.66670100  0.33329900  0.00000000  1
  Te  Te1  1  0.33329900  0.66670100  0.00000000  1
  O  O2  1  0.56432900  0.94289300  0.21257700  1
  O  O3  1  0.67867900  0.67867900  0.78722500  1
  O  O4  1  0.43567100  0.05710700  0.78742300  1
  O  O5  1  0.94289300  0.56432900  0.21257700  1
  O  O6  1  0.05710700  0.43567100  0.78742300  1
  O  O7  1  0.32132100  0.32132100  0.21277500  1
