# generated using pymatgen
data_KSnPS4
_symmetry_space_group_name_H-M   'P 1'
_cell_length_a   12.29583800
_cell_length_b   6.91589500
_cell_length_c   11.12610513
_cell_angle_alpha   53.68080840
_cell_angle_beta   90.00000000
_cell_angle_gamma   90.00000000
_symmetry_Int_Tables_number   1
_chemical_formula_structural   KSnPS4
_chemical_formula_sum   'K4 Sn4 P4 S16'
_cell_volume   762.32328218
_cell_formula_units_Z   4
loop_
 _symmetry_equiv_pos_site_id
 _symmetry_equiv_pos_as_xyz
  1  'x, y, z'
loop_
 _atom_site_type_symbol
 _atom_site_label
 _atom_site_symmetry_multiplicity
 _atom_site_fract_x
 _atom_site_fract_y
 _atom_site_fract_z
 _atom_site_occupancy
  K  K0  1  0.39920100  0.36846400  0.87038600  1
  K  K1  1  0.89920100  0.63153600  0.62961400  1
  K  K2  1  0.60079900  0.63153600  0.12961400  1
  K  K3  1  0.10079900  0.36846400  0.37038600  1
  Sn  Sn4  1  0.12964600  0.93082200  0.88518300  1
  Sn  Sn5  1  0.62964600  0.06917800  0.61481700  1
  Sn  Sn6  1  0.87035400  0.06917800  0.11481700  1
  Sn  Sn7  1  0.37035400  0.93082200  0.38518300  1
  P  P8  1  0.33983000  0.09536500  0.63002700  1
  P  P9  1  0.83983000  0.90463500  0.86997300  1
  P  P10  1  0.66017000  0.90463500  0.36997300  1
  P  P11  1  0.16017000  0.09536500  0.13002700  1
  S  S12  1  0.45380600  0.92519500  0.80040700  1
  S  S13  1  0.95380600  0.07480500  0.69959300  1
  S  S14  1  0.54619400  0.07480500  0.19959300  1
  S  S15  1  0.04619400  0.92519500  0.30040700  1
  S  S16  1  0.07776800  0.28005500  0.92800000  1
  S  S17  1  0.57776800  0.71994500  0.57200000  1
  S  S18  1  0.92223200  0.71994500  0.07200000  1
  S  S19  1  0.42223200  0.28005500  0.42800000  1
  S  S20  1  0.24973200  0.32978400  0.64447000  1
  S  S21  1  0.74973200  0.67021600  0.85553000  1
  S  S22  1  0.75026800  0.67021600  0.35553000  1
  S  S23  1  0.25026800  0.32978400  0.14447000  1
  S  S24  1  0.23835300  0.85227100  0.64375200  1
  S  S25  1  0.73835300  0.14772900  0.85624800  1
  S  S26  1  0.76164700  0.14772900  0.35624800  1
  S  S27  1  0.26164700  0.85227100  0.14375200  1
