# generated using pymatgen
data_NbSiPt
_symmetry_space_group_name_H-M   'P 1'
_cell_length_a   3.85790300
_cell_length_b   6.48592300
_cell_length_c   7.43233800
_cell_angle_alpha   90.00000000
_cell_angle_beta   90.00000000
_cell_angle_gamma   90.00000000
_symmetry_Int_Tables_number   1
_chemical_formula_structural   NbSiPt
_chemical_formula_sum   'Nb4 Si4 Pt4'
_cell_volume   185.97242075
_cell_formula_units_Z   4
loop_
 _symmetry_equiv_pos_site_id
 _symmetry_equiv_pos_as_xyz
  1  'x, y, z'
loop_
 _atom_site_type_symbol
 _atom_site_label
 _atom_site_symmetry_multiplicity
 _atom_site_fract_x
 _atom_site_fract_y
 _atom_site_fract_z
 _atom_site_occupancy
  Nb  Nb0  1  0.75000000  0.47325900  0.33486900  1
  Nb  Nb1  1  0.25000000  0.02674100  0.83486900  1
  Nb  Nb2  1  0.75000000  0.97325900  0.16513100  1
  Nb  Nb3  1  0.25000000  0.52674100  0.66513100  1
  Si  Si4  1  0.25000000  0.26878100  0.12590300  1
  Si  Si5  1  0.25000000  0.76878100  0.37409700  1
  Si  Si6  1  0.75000000  0.73121900  0.87409700  1
  Si  Si7  1  0.75000000  0.23121900  0.62590300  1
  Pt  Pt8  1  0.25000000  0.65203500  0.06523700  1
  Pt  Pt9  1  0.25000000  0.15203500  0.43476300  1
  Pt  Pt10  1  0.75000000  0.84796500  0.56523700  1
  Pt  Pt11  1  0.75000000  0.34796500  0.93476300  1
