# generated using pymatgen
data_YNb(TeO4)2
_symmetry_space_group_name_H-M   'P 1'
_cell_length_a   5.60848946
_cell_length_b   5.60848946
_cell_length_c   22.26038000
_cell_angle_alpha   90.00000000
_cell_angle_beta   90.00000000
_cell_angle_gamma   93.07085888
_symmetry_Int_Tables_number   1
_chemical_formula_structural   YNb(TeO4)2
_chemical_formula_sum   'Y4 Nb4 Te8 O32'
_cell_volume   699.19822239
_cell_formula_units_Z   4
loop_
 _symmetry_equiv_pos_site_id
 _symmetry_equiv_pos_as_xyz
  1  'x, y, z'
loop_
 _atom_site_type_symbol
 _atom_site_label
 _atom_site_symmetry_multiplicity
 _atom_site_fract_x
 _atom_site_fract_y
 _atom_site_fract_z
 _atom_site_occupancy
  Y  Y0  1  0.25305100  0.25305100  0.00000000  1
  Y  Y1  1  0.74694900  0.74694900  0.00000000  1
  Y  Y2  1  0.24694900  0.24694900  0.50000000  1
  Y  Y3  1  0.75305100  0.75305100  0.50000000  1
  Nb  Nb4  1  0.24663900  0.25336100  0.75000000  1
  Nb  Nb5  1  0.74663900  0.75336100  0.75000000  1
  Nb  Nb6  1  0.75336100  0.74663900  0.25000000  1
  Nb  Nb7  1  0.25336100  0.24663900  0.25000000  1
  Te  Te8  1  0.80882600  0.19117400  0.89408200  1
  Te  Te9  1  0.19117400  0.80882600  0.10591800  1
  Te  Te10  1  0.32321400  0.67678600  0.86955200  1
  Te  Te11  1  0.67678600  0.32321400  0.13044800  1
  Te  Te12  1  0.82321400  0.17678600  0.63044800  1
  Te  Te13  1  0.17678600  0.82321400  0.36955200  1
  Te  Te14  1  0.30882600  0.69117400  0.60591800  1
  Te  Te15  1  0.69117400  0.30882600  0.39408200  1
  O  O16  1  0.55238900  0.06697100  0.94328800  1
  O  O17  1  0.93302900  0.44761100  0.94328800  1
  O  O18  1  0.44761100  0.93302900  0.05671200  1
  O  O19  1  0.06697100  0.55238900  0.05671200  1
  O  O20  1  0.01539800  0.98460200  0.93560000  1
  O  O21  1  0.98460200  0.01539800  0.06440000  1
  O  O22  1  0.42964600  0.57035400  0.94470300  1
  O  O23  1  0.57035400  0.42964600  0.05529700  1
  O  O24  1  0.27447000  0.35513800  0.83927800  1
  O  O25  1  0.64486200  0.72553000  0.83927800  1
  O  O26  1  0.72553000  0.64486200  0.16072200  1
  O  O27  1  0.35513800  0.27447000  0.16072200  1
  O  O28  1  0.92964600  0.07035400  0.55529700  1
  O  O29  1  0.07035400  0.92964600  0.44470300  1
  O  O30  1  0.14486200  0.22553000  0.66072200  1
  O  O31  1  0.77447000  0.85513800  0.66072200  1
  O  O32  1  0.85513800  0.77447000  0.33927800  1
  O  O33  1  0.22553000  0.14486200  0.33927800  1
  O  O34  1  0.05238900  0.56697100  0.55671200  1
  O  O35  1  0.43302900  0.94761100  0.55671200  1
  O  O36  1  0.94761100  0.43302900  0.44328800  1
  O  O37  1  0.56697100  0.05238900  0.44328800  1
  O  O38  1  0.51539800  0.48460200  0.56440000  1
  O  O39  1  0.48460200  0.51539800  0.43560000  1
  O  O40  1  0.97381700  0.02618300  0.77100800  1
  O  O41  1  0.02618300  0.97381700  0.22899200  1
  O  O42  1  0.97111200  0.52888800  0.75000000  1
  O  O43  1  0.47111200  0.02888800  0.75000000  1
  O  O44  1  0.02888800  0.47111200  0.25000000  1
  O  O45  1  0.52888800  0.97111200  0.25000000  1
  O  O46  1  0.47381700  0.52618300  0.72899200  1
  O  O47  1  0.52618300  0.47381700  0.27100800  1
