# generated using pymatgen
data_Zr5Ti5Pb6
_symmetry_space_group_name_H-M   'P 1'
_cell_length_a   5.78037828
_cell_length_b   8.62784576
_cell_length_c   8.53577034
_cell_angle_alpha   120.35747552
_cell_angle_beta   90.03812973
_cell_angle_gamma   89.92455887
_symmetry_Int_Tables_number   1
_chemical_formula_structural   Zr5Ti5Pb6
_chemical_formula_sum   'Zr5 Ti5 Pb6'
_cell_volume   367.32958956
_cell_formula_units_Z   1
loop_
 _symmetry_equiv_pos_site_id
 _symmetry_equiv_pos_as_xyz
  1  'x, y, z'
loop_
 _atom_site_type_symbol
 _atom_site_label
 _atom_site_symmetry_multiplicity
 _atom_site_fract_x
 _atom_site_fract_y
 _atom_site_fract_z
 _atom_site_occupancy
  Zr  Zr0  1  0.75019900  0.76152200  0.76317600  1
  Zr  Zr1  1  0.75019900  0.99834700  0.23682400  1
  Zr  Zr2  1  0.24985100  0.75736500  0.00000000  1
  Zr  Zr3  1  0.24979000  0.23385200  0.23469700  1
  Zr  Zr4  1  0.24979000  0.99915500  0.76530300  1
  Ti  Ti5  1  0.49992800  0.33346000  0.66428000  1
  Ti  Ti6  1  0.49992800  0.66918000  0.33572000  1
  Ti  Ti7  1  0.00013400  0.66928800  0.33576700  1
  Ti  Ti8  1  0.00013400  0.33352100  0.66423300  1
  Ti  Ti9  1  0.75021200  0.24977900  0.00000000  1
  Pb  Pb10  1  0.75005900  0.59499900  0.00000000  1
  Pb  Pb11  1  0.74996600  0.39588400  0.38891700  1
  Pb  Pb12  1  0.74996600  0.00696700  0.61108300  1
  Pb  Pb13  1  0.24986700  0.39756300  0.00000000  1
  Pb  Pb14  1  0.24998900  0.59877100  0.59842500  1
  Pb  Pb15  1  0.24998900  0.00034600  0.40157500  1
