# generated using pymatgen
data_Tl3V5O14
_symmetry_space_group_name_H-M   'P 1'
_cell_length_a   8.85145038
_cell_length_b   8.85145038
_cell_length_c   5.32839400
_cell_angle_alpha   90.00000000
_cell_angle_beta   90.00000000
_cell_angle_gamma   120.00000285
_symmetry_Int_Tables_number   1
_chemical_formula_structural   Tl3V5O14
_chemical_formula_sum   'Tl3 V5 O14'
_cell_volume   361.53956248
_cell_formula_units_Z   1
loop_
 _symmetry_equiv_pos_site_id
 _symmetry_equiv_pos_as_xyz
  1  'x, y, z'
loop_
 _atom_site_type_symbol
 _atom_site_label
 _atom_site_symmetry_multiplicity
 _atom_site_fract_x
 _atom_site_fract_y
 _atom_site_fract_z
 _atom_site_occupancy
  Tl  Tl0  1  0.39113800  0.39113800  0.76501000  1
  Tl  Tl1  1  0.00000000  0.60886200  0.76501000  1
  Tl  Tl2  1  0.60886200  0.00000000  0.76501000  1
  V  V3  1  0.66666700  0.33333300  0.29599600  1
  V  V4  1  0.33333300  0.66666700  0.29599600  1
  V  V5  1  0.22775800  0.00000000  0.28852200  1
  V  V6  1  0.77224200  0.77224200  0.28852200  1
  V  V7  1  0.00000000  0.22775800  0.28852200  1
  O  O8  1  0.33333300  0.66666700  0.98352900  1
  O  O9  1  0.66666700  0.33333300  0.98352900  1
  O  O10  1  0.75367200  0.75367200  0.98341500  1
  O  O11  1  0.00000000  0.24632800  0.98341500  1
  O  O12  1  0.24632800  0.00000000  0.98341500  1
  O  O13  1  0.16791900  0.16791900  0.35672500  1
  O  O14  1  0.00000000  0.83208100  0.35672500  1
  O  O15  1  0.83208100  0.00000000  0.35672500  1
  O  O16  1  0.53914600  0.70828100  0.40989300  1
  O  O17  1  0.16913500  0.46085400  0.40989300  1
  O  O18  1  0.29171900  0.83086500  0.40989300  1
  O  O19  1  0.83086500  0.29171900  0.40989300  1
  O  O20  1  0.46085400  0.16913500  0.40989300  1
  O  O21  1  0.70828100  0.53914600  0.40989300  1
