# generated using pymatgen
data_Yb(Ga2Cu)4
_symmetry_space_group_name_H-M   'P 1'
_cell_length_a   6.80922489
_cell_length_b   6.80922489
_cell_length_c   6.80922489
_cell_angle_alpha   98.41515724
_cell_angle_beta   98.41515724
_cell_angle_gamma   135.01651277
_symmetry_Int_Tables_number   1
_chemical_formula_structural   Yb(Ga2Cu)4
_chemical_formula_sum   'Yb1 Ga8 Cu4'
_cell_volume   206.20258179
_cell_formula_units_Z   1
loop_
 _symmetry_equiv_pos_site_id
 _symmetry_equiv_pos_as_xyz
  1  'x, y, z'
loop_
 _atom_site_type_symbol
 _atom_site_label
 _atom_site_symmetry_multiplicity
 _atom_site_fract_x
 _atom_site_fract_y
 _atom_site_fract_z
 _atom_site_occupancy
  Yb  Yb0  1  0.00000000  0.00000000  0.00000000  1
  Ga  Ga1  1  0.00000000  0.34582900  0.34582900  1
  Ga  Ga2  1  0.00000000  0.65417100  0.65417100  1
  Ga  Ga3  1  0.65417100  0.00000000  0.65417100  1
  Ga  Ga4  1  0.34582900  0.00000000  0.34582900  1
  Ga  Ga5  1  0.50000000  0.28398500  0.78398500  1
  Ga  Ga6  1  0.50000000  0.71601500  0.21601500  1
  Ga  Ga7  1  0.71601500  0.50000000  0.21601500  1
  Ga  Ga8  1  0.28398500  0.50000000  0.78398500  1
  Cu  Cu9  1  0.00000000  0.00000000  0.50000000  1
  Cu  Cu10  1  0.50000000  0.50000000  0.50000000  1
  Cu  Cu11  1  0.50000000  0.00000000  0.00000000  1
  Cu  Cu12  1  0.00000000  0.50000000  0.00000000  1
