# generated using pymatgen
data_Mg3WN4
_symmetry_space_group_name_H-M   'P 1'
_cell_length_a   15.98914243
_cell_length_b   27.69780936
_cell_length_c   9.02866248
_cell_angle_alpha   90.00000000
_cell_angle_beta   90.00565856
_cell_angle_gamma   90.00000000
_symmetry_Int_Tables_number   1
_chemical_formula_structural   Mg3WN4
_chemical_formula_sum   'Mg108 W36 N144'
_cell_volume   3998.47153812
_cell_formula_units_Z   36
loop_
 _symmetry_equiv_pos_site_id
 _symmetry_equiv_pos_as_xyz
  1  'x, y, z'
loop_
 _atom_site_type_symbol
 _atom_site_label
 _atom_site_symmetry_multiplicity
 _atom_site_fract_x
 _atom_site_fract_y
 _atom_site_fract_z
 _atom_site_occupancy
  Mg  Mg0  1  0.99998073  0.99995994  0.75405234  1
  Mg  Mg1  1  0.49998073  0.50004006  0.25405234  1
  Mg  Mg2  1  0.99999359  0.66664781  0.86153452  1
  Mg  Mg3  1  0.49999359  0.83335219  0.36153452  1
  Mg  Mg4  1  0.50003926  0.83335250  0.82863213  1
  Mg  Mg5  1  0.00003926  0.66664750  0.32863213  1
  Mg  Mg6  1  0.67388124  0.98405087  0.88517551  1
  Mg  Mg7  1  0.63913197  0.67108179  0.88513942  1
  Mg  Mg8  1  0.18698042  0.84489889  0.88529369  1
  Mg  Mg9  1  0.17388124  0.51594913  0.38517551  1
  Mg  Mg10  1  0.13913197  0.82891821  0.38513942  1
  Mg  Mg11  1  0.68698042  0.65510111  0.38529369  1
  Mg  Mg12  1  0.83988175  0.83041854  0.58588568  1
  Mg  Mg13  1  0.32580323  0.66486742  0.58647171  1
  Mg  Mg14  1  0.83437550  0.50470365  0.58612580  1
  Mg  Mg15  1  0.33988175  0.66958146  0.08588568  1
  Mg  Mg16  1  0.82580323  0.83513258  0.08647171  1
  Mg  Mg17  1  0.33437550  0.99529635  0.08612580  1
  Mg  Mg18  1  0.80275937  0.95166047  0.56584002  1
  Mg  Mg19  1  0.52610079  0.62284358  0.56543307  1
  Mg  Mg20  1  0.17105480  0.92554580  0.56551462  1
  Mg  Mg21  1  0.30275937  0.54833953  0.06584002  1
  Mg  Mg22  1  0.02610079  0.87715642  0.06543307  1
  Mg  Mg23  1  0.67105480  0.57445420  0.06551462  1
  Mg  Mg24  1  0.85437981  0.92917953  0.89568385  1
  Mg  Mg25  1  0.46658453  0.60823061  0.89533864  1
  Mg  Mg26  1  0.17897694  0.96257867  0.89552588  1
  Mg  Mg27  1  0.35437981  0.57082047  0.39568385  1
  Mg  Mg28  1  0.96658453  0.89176939  0.39533864  1
  Mg  Mg29  1  0.67897694  0.53742133  0.39552588  1
  Mg  Mg30  1  0.00944993  0.77630431  0.69227263  1
  Mg  Mg31  1  0.15978408  0.60709851  0.69238344  1
  Mg  Mg32  1  0.83077539  0.61655606  0.69236578  1
  Mg  Mg33  1  0.50944993  0.72369569  0.19227263  1
  Mg  Mg34  1  0.65978408  0.89290149  0.19238344  1
  Mg  Mg35  1  0.33077539  0.88344394  0.19236578  1
  Mg  Mg36  1  0.52651368  0.94463600  0.67097005  1
  Mg  Mg37  1  0.65370577  0.76443789  0.67094828  1
  Mg  Mg38  1  0.31976060  0.79098559  0.67091029  1
  Mg  Mg39  1  0.02651368  0.55536400  0.17097005  1
  Mg  Mg40  1  0.15370577  0.73556211  0.17094828  1
  Mg  Mg41  1  0.81976060  0.70901441  0.17091029  1
  Mg  Mg42  1  0.65942178  0.77887401  0.98150479  1
  Mg  Mg43  1  0.33859133  0.78088885  0.98147449  1
  Mg  Mg44  1  0.50200114  0.94028100  0.98151154  1
  Mg  Mg45  1  0.15942178  0.72112599  0.48150479  1
  Mg  Mg46  1  0.83859133  0.71911115  0.48147449  1
  Mg  Mg47  1  0.00200114  0.55971900  0.48151154  1
  Mg  Mg48  1  0.99561486  0.77845554  0.99160410  1
  Mg  Mg49  1  0.16995507  0.61294129  0.99176199  1
  Mg  Mg50  1  0.83445452  0.60855194  0.99169780  1
  Mg  Mg51  1  0.49561486  0.72154446  0.49160410  1
  Mg  Mg52  1  0.66995507  0.88705871  0.49176199  1
  Mg  Mg53  1  0.33445452  0.89144806  0.49169780  1
  Mg  Mg54  1  0.49998073  0.49995994  0.75405234  1
  Mg  Mg55  1  0.99998073  0.00004006  0.25405234  1
  Mg  Mg56  1  0.49999359  0.16664781  0.86153452  1
  Mg  Mg57  1  0.99999359  0.33335219  0.36153452  1
  Mg  Mg58  1  0.00003926  0.33335250  0.82863213  1
  Mg  Mg59  1  0.50003926  0.16664750  0.32863213  1
  Mg  Mg60  1  0.17388124  0.48405087  0.88517551  1
  Mg  Mg61  1  0.13913197  0.17108179  0.88513942  1
  Mg  Mg62  1  0.68698042  0.34489889  0.88529369  1
  Mg  Mg63  1  0.67388124  0.01594913  0.38517551  1
  Mg  Mg64  1  0.63913197  0.32891821  0.38513942  1
  Mg  Mg65  1  0.18698042  0.15510111  0.38529369  1
  Mg  Mg66  1  0.33988175  0.33041854  0.58588568  1
  Mg  Mg67  1  0.82580323  0.16486742  0.58647171  1
  Mg  Mg68  1  0.33437550  0.00470365  0.58612580  1
  Mg  Mg69  1  0.83988175  0.16958146  0.08588568  1
  Mg  Mg70  1  0.32580323  0.33513258  0.08647171  1
  Mg  Mg71  1  0.83437550  0.49529635  0.08612580  1
  Mg  Mg72  1  0.30275937  0.45166047  0.56584002  1
  Mg  Mg73  1  0.02610079  0.12284358  0.56543307  1
  Mg  Mg74  1  0.67105480  0.42554580  0.56551462  1
  Mg  Mg75  1  0.80275937  0.04833953  0.06584002  1
  Mg  Mg76  1  0.52610079  0.37715642  0.06543307  1
  Mg  Mg77  1  0.17105480  0.07445420  0.06551462  1
  Mg  Mg78  1  0.35437981  0.42917953  0.89568385  1
  Mg  Mg79  1  0.96658453  0.10823061  0.89533864  1
  Mg  Mg80  1  0.67897694  0.46257867  0.89552588  1
  Mg  Mg81  1  0.85437981  0.07082047  0.39568385  1
  Mg  Mg82  1  0.46658453  0.39176939  0.39533864  1
  Mg  Mg83  1  0.17897694  0.03742133  0.39552588  1
  Mg  Mg84  1  0.50944993  0.27630431  0.69227263  1
  Mg  Mg85  1  0.65978408  0.10709851  0.69238344  1
  Mg  Mg86  1  0.33077539  0.11655606  0.69236578  1
  Mg  Mg87  1  0.00944993  0.22369569  0.19227263  1
  Mg  Mg88  1  0.15978408  0.39290149  0.19238344  1
  Mg  Mg89  1  0.83077539  0.38344394  0.19236578  1
  Mg  Mg90  1  0.02651368  0.44463600  0.67097005  1
  Mg  Mg91  1  0.15370577  0.26443789  0.67094828  1
  Mg  Mg92  1  0.81976060  0.29098559  0.67091029  1
  Mg  Mg93  1  0.52651368  0.05536400  0.17097005  1
  Mg  Mg94  1  0.65370577  0.23556211  0.17094828  1
  Mg  Mg95  1  0.31976060  0.20901441  0.17091029  1
  Mg  Mg96  1  0.15942178  0.27887401  0.98150479  1
  Mg  Mg97  1  0.83859133  0.28088885  0.98147449  1
  Mg  Mg98  1  0.00200114  0.44028100  0.98151154  1
  Mg  Mg99  1  0.65942178  0.22112599  0.48150479  1
  Mg  Mg100  1  0.33859133  0.21911115  0.48147449  1
  Mg  Mg101  1  0.50200114  0.05971900  0.48151154  1
  Mg  Mg102  1  0.49561486  0.27845554  0.99160410  1
  Mg  Mg103  1  0.66995507  0.11294129  0.99176199  1
  Mg  Mg104  1  0.33445452  0.10855194  0.99169780  1
  Mg  Mg105  1  0.99561486  0.22154446  0.49160410  1
  Mg  Mg106  1  0.16995507  0.38705871  0.49176199  1
  Mg  Mg107  1  0.83445452  0.39144806  0.49169780  1
  W  W108  1  0.01367014  0.88797678  0.70307413  1
  W  W109  1  0.32520494  0.54911986  0.70326693  1
  W  W110  1  0.66111902  0.56281311  0.70325236  1
  W  W111  1  0.51367014  0.61202322  0.20307413  1
  W  W112  1  0.82520494  0.95088014  0.20326693  1
  W  W113  1  0.16111902  0.93718689  0.20325236  1
  W  W114  1  0.17791238  0.71707472  0.84104057  1
  W  W115  1  0.98666095  0.55249871  0.84104845  1
  W  W116  1  0.83543965  0.73042015  0.84102715  1
  W  W117  1  0.67791238  0.78292528  0.34104057  1
  W  W118  1  0.48666095  0.94750129  0.34104845  1
  W  W119  1  0.33543965  0.76957985  0.34102715  1
  W  W120  1  0.67686141  0.88053020  0.83768333  1
  W  W121  1  0.48236155  0.72136187  0.83744444  1
  W  W122  1  0.34077974  0.89814895  0.83757893  1
  W  W123  1  0.17686141  0.61946980  0.33768333  1
  W  W124  1  0.98236155  0.77863813  0.33744444  1
  W  W125  1  0.84077974  0.60185105  0.33757893  1
  W  W126  1  0.51367014  0.38797678  0.70307413  1
  W  W127  1  0.82520494  0.04911986  0.70326693  1
  W  W128  1  0.16111902  0.06281311  0.70325236  1
  W  W129  1  0.01367014  0.11202322  0.20307413  1
  W  W130  1  0.32520494  0.45088014  0.20326693  1
  W  W131  1  0.66111902  0.43718689  0.20325236  1
  W  W132  1  0.67791238  0.21707472  0.84104057  1
  W  W133  1  0.48666095  0.05249871  0.84104845  1
  W  W134  1  0.33543965  0.23042015  0.84102715  1
  W  W135  1  0.17791238  0.28292528  0.34104057  1
  W  W136  1  0.98666095  0.44750129  0.34104845  1
  W  W137  1  0.83543965  0.26957985  0.34102715  1
  W  W138  1  0.17686141  0.38053020  0.83768333  1
  W  W139  1  0.98236155  0.22136187  0.83744444  1
  W  W140  1  0.84077974  0.39814895  0.83757893  1
  W  W141  1  0.67686141  0.11946980  0.33768333  1
  W  W142  1  0.48236155  0.27863813  0.33744444  1
  W  W143  1  0.34077974  0.10185105  0.33757893  1
  N  N144  1  0.06770980  0.94064555  0.78797942  1
  N  N145  1  0.87713738  0.99572409  0.78805232  1
  N  N146  1  0.55518228  0.56341533  0.78853447  1
  N  N147  1  0.56770980  0.55935445  0.28797942  1
  N  N148  1  0.37713738  0.50427591  0.28805232  1
  N  N149  1  0.05518228  0.93658467  0.28853447  1
  N  N150  1  0.78579753  0.86564114  0.88127478  1
  N  N151  1  0.40552689  0.67431000  0.88065333  1
  N  N152  1  0.30861062  0.96006211  0.88094432  1
  N  N153  1  0.28579753  0.63435886  0.38127478  1
  N  N154  1  0.90552689  0.82569000  0.38065333  1
  N  N155  1  0.80861062  0.53993789  0.38094432  1
  N  N156  1  0.07713616  0.87248774  0.53835413  1
  N  N157  1  0.27024446  0.52516554  0.53849903  1
  N  N158  1  0.65251664  0.60229463  0.53853325  1
  N  N159  1  0.57713616  0.62751226  0.03835413  1
  N  N160  1  0.77024446  0.97483446  0.03849903  1
  N  N161  1  0.15251664  0.89770537  0.03853325  1
  N  N162  1  0.87730016  0.76022000  0.66820765  1
  N  N163  1  0.20169307  0.68122631  0.66829514  1
  N  N164  1  0.92100352  0.55853715  0.66825162  1
  N  N165  1  0.37730016  0.73978000  0.16820765  1
  N  N166  1  0.70169307  0.81877369  0.16829514  1
  N  N167  1  0.42100352  0.94146285  0.16825162  1
  N  N168  1  0.06029460  0.72956507  0.86000989  1
  N  N169  1  0.06424261  0.60504264  0.86013439  1
  N  N170  1  0.87545678  0.66536084  0.86009133  1
  N  N171  1  0.56029460  0.77043493  0.36000989  1
  N  N172  1  0.56424261  0.89495736  0.36013439  1
  N  N173  1  0.37545678  0.83463916  0.36009133  1
  N  N174  1  0.67473497  0.92805446  0.68035880  1
  N  N175  1  0.55477608  0.69869637  0.68018534  1
  N  N176  1  0.27061079  0.87328402  0.68025046  1
  N  N177  1  0.17473497  0.57194554  0.18035880  1
  N  N178  1  0.05477608  0.80130363  0.18018534  1
  N  N179  1  0.77061079  0.62671598  0.18025046  1
  N  N180  1  0.86565019  0.76442784  0.01270448  1
  N  N181  1  0.21383195  0.68495568  0.01270767  1
  N  N182  1  0.92052925  0.55059261  0.01270847  1
  N  N183  1  0.36565019  0.73557216  0.51270448  1
  N  N184  1  0.71383195  0.81504432  0.51270767  1
  N  N185  1  0.42052925  0.94940739  0.51270847  1
  N  N186  1  0.23131338  0.77630161  0.83690495  1
  N  N187  1  0.54879881  0.99618431  0.83690825  1
  N  N188  1  0.71987997  0.72752519  0.83693106  1
  N  N189  1  0.73131338  0.72369839  0.33690495  1
  N  N190  1  0.04879881  0.50381569  0.33690825  1
  N  N191  1  0.21987997  0.77247481  0.33693106  1
  N  N192  1  0.02003954  0.83707833  0.84654646  1
  N  N193  1  0.24566154  0.57140366  0.84666467  1
  N  N194  1  0.73435114  0.59145575  0.84658491  1
  N  N195  1  0.52003954  0.66292167  0.34654646  1
  N  N196  1  0.74566154  0.92859634  0.34666467  1
  N  N197  1  0.23435114  0.90854425  0.34658491  1
  N  N198  1  0.62210141  0.91356401  0.99114914  1
  N  N199  1  0.55925792  0.73218509  0.99102007  1
  N  N200  1  0.31855085  0.85428425  0.99112366  1
  N  N201  1  0.12210141  0.58643599  0.49114914  1
  N  N202  1  0.05925792  0.76781491  0.49102007  1
  N  N203  1  0.81855085  0.64571575  0.49112366  1
  N  N204  1  0.90387281  0.90156283  0.62417139  1
  N  N205  1  0.40058130  0.59720662  0.62452805  1
  N  N206  1  0.69561317  0.50113235  0.62431080  1
  N  N207  1  0.40387281  0.59843717  0.12417139  1
  N  N208  1  0.90058130  0.90279338  0.12452805  1
  N  N209  1  0.19561317  0.99886765  0.12431080  1
  N  N210  1  0.62040115  0.82145355  0.80172909  1
  N  N211  1  0.42197997  0.77913699  0.80166704  1
  N  N212  1  0.45764846  0.89946739  0.80176179  1
  N  N213  1  0.12040115  0.67854645  0.30172909  1
  N  N214  1  0.92197997  0.72086301  0.30166704  1
  N  N215  1  0.95764846  0.60053261  0.30176179  1
  N  N216  1  0.56770980  0.44064555  0.78797942  1
  N  N217  1  0.37713738  0.49572409  0.78805232  1
  N  N218  1  0.05518228  0.06341533  0.78853447  1
  N  N219  1  0.06770980  0.05935445  0.28797942  1
  N  N220  1  0.87713738  0.00427591  0.28805232  1
  N  N221  1  0.55518228  0.43658467  0.28853447  1
  N  N222  1  0.28579753  0.36564114  0.88127478  1
  N  N223  1  0.90552689  0.17431000  0.88065333  1
  N  N224  1  0.80861062  0.46006211  0.88094432  1
  N  N225  1  0.78579753  0.13435886  0.38127478  1
  N  N226  1  0.40552689  0.32569000  0.38065333  1
  N  N227  1  0.30861062  0.03993789  0.38094432  1
  N  N228  1  0.57713616  0.37248774  0.53835413  1
  N  N229  1  0.77024446  0.02516554  0.53849903  1
  N  N230  1  0.15251664  0.10229463  0.53853325  1
  N  N231  1  0.07713616  0.12751226  0.03835413  1
  N  N232  1  0.27024446  0.47483446  0.03849903  1
  N  N233  1  0.65251664  0.39770537  0.03853325  1
  N  N234  1  0.37730016  0.26022000  0.66820765  1
  N  N235  1  0.70169307  0.18122631  0.66829514  1
  N  N236  1  0.42100352  0.05853715  0.66825162  1
  N  N237  1  0.87730016  0.23978000  0.16820765  1
  N  N238  1  0.20169307  0.31877369  0.16829514  1
  N  N239  1  0.92100352  0.44146285  0.16825162  1
  N  N240  1  0.56029460  0.22956507  0.86000989  1
  N  N241  1  0.56424261  0.10504264  0.86013439  1
  N  N242  1  0.37545678  0.16536084  0.86009133  1
  N  N243  1  0.06029460  0.27043493  0.36000989  1
  N  N244  1  0.06424261  0.39495736  0.36013439  1
  N  N245  1  0.87545678  0.33463916  0.36009133  1
  N  N246  1  0.17473497  0.42805446  0.68035880  1
  N  N247  1  0.05477608  0.19869637  0.68018534  1
  N  N248  1  0.77061079  0.37328402  0.68025046  1
  N  N249  1  0.67473497  0.07194554  0.18035880  1
  N  N250  1  0.55477608  0.30130363  0.18018534  1
  N  N251  1  0.27061079  0.12671598  0.18025046  1
  N  N252  1  0.36565019  0.26442784  0.01270448  1
  N  N253  1  0.71383195  0.18495568  0.01270767  1
  N  N254  1  0.42052925  0.05059261  0.01270847  1
  N  N255  1  0.86565019  0.23557216  0.51270448  1
  N  N256  1  0.21383195  0.31504432  0.51270767  1
  N  N257  1  0.92052925  0.44940739  0.51270847  1
  N  N258  1  0.73131338  0.27630161  0.83690495  1
  N  N259  1  0.04879881  0.49618431  0.83690825  1
  N  N260  1  0.21987997  0.22752519  0.83693106  1
  N  N261  1  0.23131338  0.22369839  0.33690495  1
  N  N262  1  0.54879881  0.00381569  0.33690825  1
  N  N263  1  0.71987997  0.27247481  0.33693106  1
  N  N264  1  0.52003954  0.33707833  0.84654646  1
  N  N265  1  0.74566154  0.07140366  0.84666467  1
  N  N266  1  0.23435114  0.09145575  0.84658491  1
  N  N267  1  0.02003954  0.16292167  0.34654646  1
  N  N268  1  0.24566154  0.42859634  0.34666467  1
  N  N269  1  0.73435114  0.40854425  0.34658491  1
  N  N270  1  0.12210141  0.41356401  0.99114914  1
  N  N271  1  0.05925792  0.23218509  0.99102007  1
  N  N272  1  0.81855085  0.35428425  0.99112366  1
  N  N273  1  0.62210141  0.08643599  0.49114914  1
  N  N274  1  0.55925792  0.26781491  0.49102007  1
  N  N275  1  0.31855085  0.14571575  0.49112366  1
  N  N276  1  0.40387281  0.40156283  0.62417139  1
  N  N277  1  0.90058130  0.09720662  0.62452805  1
  N  N278  1  0.19561317  0.00113235  0.62431080  1
  N  N279  1  0.90387281  0.09843717  0.12417139  1
  N  N280  1  0.40058130  0.40279338  0.12452805  1
  N  N281  1  0.69561317  0.49886765  0.12431080  1
  N  N282  1  0.12040115  0.32145355  0.80172909  1
  N  N283  1  0.92197997  0.27913699  0.80166704  1
  N  N284  1  0.95764846  0.39946739  0.80176179  1
  N  N285  1  0.62040115  0.17854645  0.30172909  1
  N  N286  1  0.42197997  0.22086301  0.30166704  1
  N  N287  1  0.45764846  0.10053261  0.30176179  1
