# generated using pymatgen
data_Ca10Si6F
_symmetry_space_group_name_H-M   'P 1'
_cell_length_a   9.14352779
_cell_length_b   9.14352779
_cell_length_c   9.14352779
_cell_angle_alpha   130.68632839
_cell_angle_beta   130.68632839
_cell_angle_gamma   72.31191356
_symmetry_Int_Tables_number   1
_chemical_formula_structural   Ca10Si6F
_chemical_formula_sum   'Ca10 Si6 F1'
_cell_volume   429.68469724
_cell_formula_units_Z   1
loop_
 _symmetry_equiv_pos_site_id
 _symmetry_equiv_pos_as_xyz
  1  'x, y, z'
loop_
 _atom_site_type_symbol
 _atom_site_label
 _atom_site_symmetry_multiplicity
 _atom_site_fract_x
 _atom_site_fract_y
 _atom_site_fract_z
 _atom_site_occupancy
  Ca  Ca0  1  0.76950700  0.43293400  0.00000000  1
  Ca  Ca1  1  0.43293400  0.76950800  0.00000000  1
  Ca  Ca2  1  0.92996400  0.92996400  0.64410600  1
  Ca  Ca3  1  0.28585800  0.28585800  0.35589400  1
  Ca  Ca4  1  0.71414200  0.07003600  0.00000000  1
  Ca  Ca5  1  0.07003600  0.71414200  0.00000000  1
  Ca  Ca6  1  0.56706600  0.56706600  0.33657300  1
  Ca  Ca7  1  0.23049200  0.23049200  0.66342700  1
  Ca  Ca8  1  0.25000000  0.75000000  0.50000000  1
  Ca  Ca9  1  0.75000000  0.25000000  0.50000000  1
  Si  Si10  1  0.00000000  0.50000000  0.50000000  1
  Si  Si11  1  0.50000000  0.00000000  0.50000000  1
  Si  Si12  1  0.13564300  0.36021300  0.00000000  1
  Si  Si13  1  0.36021300  0.13564300  0.00000000  1
  Si  Si14  1  0.86435700  0.86435700  0.22457000  1
  Si  Si15  1  0.63978700  0.63978700  0.77543000  1
  F  F16  1  0.50000000  0.50000000  0.00000000  1
