# generated using pymatgen
data_KNa2Li3Cr2(Si2O5)6
_symmetry_space_group_name_H-M   'P 1'
_cell_length_a   10.17075097
_cell_length_b   10.17075097
_cell_length_c   14.28953300
_cell_angle_alpha   90.00000000
_cell_angle_beta   90.00000000
_cell_angle_gamma   120.00000633
_symmetry_Int_Tables_number   1
_chemical_formula_structural   KNa2Li3Cr2(Si2O5)6
_chemical_formula_sum   'K2 Na4 Li6 Cr4 Si24 O60'
_cell_volume   1280.13178668
_cell_formula_units_Z   2
loop_
 _symmetry_equiv_pos_site_id
 _symmetry_equiv_pos_as_xyz
  1  'x, y, z'
loop_
 _atom_site_type_symbol
 _atom_site_label
 _atom_site_symmetry_multiplicity
 _atom_site_fract_x
 _atom_site_fract_y
 _atom_site_fract_z
 _atom_site_occupancy
  K  K0  1  0.00000000  0.00000000  0.25000000  1
  K  K1  1  0.00000000  0.00000000  0.75000000  1
  Na  Na2  1  0.66666700  0.33333300  0.50000000  1
  Na  Na3  1  0.66666700  0.33333300  0.00000000  1
  Na  Na4  1  0.33333300  0.66666700  0.00000000  1
  Na  Na5  1  0.33333300  0.66666700  0.50000000  1
  Li  Li6  1  0.50000000  0.00000000  0.25000000  1
  Li  Li7  1  0.00000000  0.50000000  0.75000000  1
  Li  Li8  1  0.50000000  0.50000000  0.75000000  1
  Li  Li9  1  0.50000000  0.00000000  0.75000000  1
  Li  Li10  1  0.00000000  0.50000000  0.25000000  1
  Li  Li11  1  0.50000000  0.50000000  0.25000000  1
  Cr  Cr12  1  0.33333300  0.66666700  0.75000000  1
  Cr  Cr13  1  0.66666700  0.33333300  0.75000000  1
  Cr  Cr14  1  0.66666700  0.33333300  0.25000000  1
  Cr  Cr15  1  0.33333300  0.66666700  0.25000000  1
  Si  Si16  1  0.35652300  0.12113700  0.38772500  1
  Si  Si17  1  0.76461400  0.64347700  0.61227500  1
  Si  Si18  1  0.35652300  0.12113700  0.61227500  1
  Si  Si19  1  0.64347700  0.76461400  0.88772500  1
  Si  Si20  1  0.12113700  0.35652300  0.88772500  1
  Si  Si21  1  0.87886300  0.64347700  0.88772500  1
  Si  Si22  1  0.35652300  0.23538600  0.88772500  1
  Si  Si23  1  0.23538600  0.87886300  0.88772500  1
  Si  Si24  1  0.76461400  0.64347700  0.38772500  1
  Si  Si25  1  0.76461400  0.12113700  0.88772500  1
  Si  Si26  1  0.87886300  0.23538600  0.38772500  1
  Si  Si27  1  0.12113700  0.76461400  0.38772500  1
  Si  Si28  1  0.23538600  0.87886300  0.11227500  1
  Si  Si29  1  0.87886300  0.23538600  0.61227500  1
  Si  Si30  1  0.64347700  0.87886300  0.38772500  1
  Si  Si31  1  0.35652300  0.23538600  0.11227500  1
  Si  Si32  1  0.87886300  0.64347700  0.11227500  1
  Si  Si33  1  0.12113700  0.35652300  0.11227500  1
  Si  Si34  1  0.64347700  0.76461400  0.11227500  1
  Si  Si35  1  0.76461400  0.12113700  0.11227500  1
  Si  Si36  1  0.12113700  0.76461400  0.61227500  1
  Si  Si37  1  0.64347700  0.87886300  0.61227500  1
  Si  Si38  1  0.23538600  0.35652300  0.61227500  1
  Si  Si39  1  0.23538600  0.35652300  0.38772500  1
  O  O40  1  0.14110200  0.74009300  0.50000000  1
  O  O41  1  0.49248800  0.65742500  0.82977700  1
  O  O42  1  0.16493700  0.50751200  0.82977700  1
  O  O43  1  0.83506300  0.49248800  0.82977700  1
  O  O44  1  0.34257500  0.50751200  0.67022300  1
  O  O45  1  0.65742500  0.49248800  0.67022300  1
  O  O46  1  0.65742500  0.16493700  0.82977700  1
  O  O47  1  0.83506300  0.34257500  0.67022300  1
  O  O48  1  0.16493700  0.65742500  0.67022300  1
  O  O49  1  0.49248800  0.83506300  0.67022300  1
  O  O50  1  0.50751200  0.34257500  0.82977700  1
  O  O51  1  0.34257500  0.83506300  0.82977700  1
  O  O52  1  0.65742500  0.49248800  0.32977700  1
  O  O53  1  0.50751200  0.16493700  0.32977700  1
  O  O54  1  0.83506300  0.34257500  0.32977700  1
  O  O55  1  0.16493700  0.65742500  0.32977700  1
  O  O56  1  0.34257500  0.83506300  0.17022300  1
  O  O57  1  0.34257500  0.50751200  0.32977700  1
  O  O58  1  0.49248800  0.83506300  0.32977700  1
  O  O59  1  0.50751200  0.34257500  0.17022300  1
  O  O60  1  0.83506300  0.49248800  0.17022300  1
  O  O61  1  0.16493700  0.50751200  0.17022300  1
  O  O62  1  0.49248800  0.65742500  0.17022300  1
  O  O63  1  0.65742500  0.16493700  0.17022300  1
  O  O64  1  0.27627300  0.05332100  0.86460700  1
  O  O65  1  0.72372700  0.77704800  0.63539300  1
  O  O66  1  0.22295200  0.94667900  0.63539300  1
  O  O67  1  0.77704800  0.05332100  0.63539300  1
  O  O68  1  0.94667900  0.22295200  0.86460700  1
  O  O69  1  0.94667900  0.72372700  0.63539300  1
  O  O70  1  0.27627300  0.22295200  0.63539300  1
  O  O71  1  0.72372700  0.94667900  0.86460700  1
  O  O72  1  0.22295200  0.27627300  0.86460700  1
  O  O73  1  0.77704800  0.72372700  0.86460700  1
  O  O74  1  0.74009300  0.14110200  0.00000000  1
  O  O75  1  0.59899100  0.74009300  0.00000000  1
  O  O76  1  0.14110200  0.40100900  0.00000000  1
  O  O77  1  0.85889800  0.59899100  0.00000000  1
  O  O78  1  0.40100900  0.25990700  0.00000000  1
  O  O79  1  0.59899100  0.85889800  0.50000000  1
  O  O80  1  0.25990700  0.40100900  0.50000000  1
  O  O81  1  0.25990700  0.85889800  0.00000000  1
  O  O82  1  0.50751200  0.16493700  0.67022300  1
  O  O83  1  0.85889800  0.25990700  0.50000000  1
  O  O84  1  0.40100900  0.14110200  0.50000000  1
  O  O85  1  0.74009300  0.59899100  0.50000000  1
  O  O86  1  0.94667900  0.22295200  0.13539300  1
  O  O87  1  0.72372700  0.94667900  0.13539300  1
  O  O88  1  0.22295200  0.27627300  0.13539300  1
  O  O89  1  0.77704800  0.72372700  0.13539300  1
  O  O90  1  0.27627300  0.05332100  0.13539300  1
  O  O91  1  0.72372700  0.77704800  0.36460700  1
  O  O92  1  0.05332100  0.27627300  0.36460700  1
  O  O93  1  0.05332100  0.77704800  0.13539300  1
  O  O94  1  0.22295200  0.94667900  0.36460700  1
  O  O95  1  0.77704800  0.05332100  0.36460700  1
  O  O96  1  0.27627300  0.22295200  0.36460700  1
  O  O97  1  0.94667900  0.72372700  0.36460700  1
  O  O98  1  0.05332100  0.77704800  0.86460700  1
  O  O99  1  0.05332100  0.27627300  0.63539300  1
