# generated using pymatgen
data_Hf6Al2Co
_symmetry_space_group_name_H-M   'P 1'
_cell_length_a   3.27280000
_cell_length_b   7.88980203
_cell_length_c   7.88935374
_cell_angle_alpha   120.00187746
_cell_angle_beta   90.00000000
_cell_angle_gamma   90.00000000
_symmetry_Int_Tables_number   1
_chemical_formula_structural   Hf6Al2Co
_chemical_formula_sum   'Hf6 Al2 Co1'
_cell_volume   176.42064961
_cell_formula_units_Z   1
loop_
 _symmetry_equiv_pos_site_id
 _symmetry_equiv_pos_as_xyz
  1  'x, y, z'
loop_
 _atom_site_type_symbol
 _atom_site_label
 _atom_site_symmetry_multiplicity
 _atom_site_fract_x
 _atom_site_fract_y
 _atom_site_fract_z
 _atom_site_occupancy
  Hf  Hf0  1  0.50000000  0.60128300  0.00000000  1
  Hf  Hf1  1  0.50000000  0.39873200  0.39873400  1
  Hf  Hf2  1  0.50000000  0.99999800  0.60126600  1
  Hf  Hf3  1  0.00000000  0.25081100  0.00000000  1
  Hf  Hf4  1  0.00000000  0.74911700  0.74910300  1
  Hf  Hf5  1  0.00000000  0.00001400  0.25089700  1
  Al  Al6  1  0.00000000  0.33331600  0.66665000  1
  Al  Al7  1  0.00000000  0.66666600  0.33335000  1
  Co  Co8  1  0.50000000  0.99996400  0.00000000  1
