# generated using pymatgen
data_AlV9Au2
_symmetry_space_group_name_H-M   'P 1'
_cell_length_a   4.85022900
_cell_length_b   4.85723700
_cell_length_c   14.55154200
_cell_angle_alpha   90.00000000
_cell_angle_beta   90.00000000
_cell_angle_gamma   90.00000000
_symmetry_Int_Tables_number   1
_chemical_formula_structural   AlV9Au2
_chemical_formula_sum   'Al2 V18 Au4'
_cell_volume   342.81558360
_cell_formula_units_Z   2
loop_
 _symmetry_equiv_pos_site_id
 _symmetry_equiv_pos_as_xyz
  1  'x, y, z'
loop_
 _atom_site_type_symbol
 _atom_site_label
 _atom_site_symmetry_multiplicity
 _atom_site_fract_x
 _atom_site_fract_y
 _atom_site_fract_z
 _atom_site_occupancy
  Al  Al0  1  0.50000000  0.50000000  0.83431000  1
  Al  Al1  1  0.50000000  0.50000000  0.16569000  1
  V  V2  1  0.00000000  0.50000000  0.91768300  1
  V  V3  1  0.00000000  0.50000000  0.24997200  1
  V  V4  1  0.00000000  0.50000000  0.57989600  1
  V  V5  1  0.50000000  0.25238600  0.67071500  1
  V  V6  1  0.50000000  0.25392900  0.00000000  1
  V  V7  1  0.50000000  0.25238600  0.32928500  1
  V  V8  1  0.74311500  0.00000000  0.83347200  1
  V  V9  1  0.74311500  0.00000000  0.16652800  1
  V  V10  1  0.75250100  0.00000000  0.50000000  1
  V  V11  1  0.00000000  0.50000000  0.75002800  1
  V  V12  1  0.00000000  0.50000000  0.08231700  1
  V  V13  1  0.00000000  0.50000000  0.42010400  1
  V  V14  1  0.50000000  0.74761400  0.67071500  1
  V  V15  1  0.50000000  0.74607100  0.00000000  1
  V  V16  1  0.50000000  0.74761400  0.32928500  1
  V  V17  1  0.25688500  0.00000000  0.83347200  1
  V  V18  1  0.25688500  0.00000000  0.16652800  1
  V  V19  1  0.24749900  0.00000000  0.50000000  1
  Au  Au20  1  0.50000000  0.50000000  0.50000000  1
  Au  Au21  1  0.00000000  0.00000000  0.66652100  1
  Au  Au22  1  0.00000000  0.00000000  0.00000000  1
  Au  Au23  1  0.00000000  0.00000000  0.33347900  1
