# generated using pymatgen
data_Nd2GaCo2
_symmetry_space_group_name_H-M   'P 1'
_cell_length_a   5.56137800
_cell_length_b   5.56137800
_cell_length_c   5.56137800
_cell_angle_alpha   136.64608969
_cell_angle_beta   120.51883227
_cell_angle_gamma   76.41140230
_symmetry_Int_Tables_number   1
_chemical_formula_structural   Nd2GaCo2
_chemical_formula_sum   'Nd2 Ga1 Co2'
_cell_volume   99.06680770
_cell_formula_units_Z   1
loop_
 _symmetry_equiv_pos_site_id
 _symmetry_equiv_pos_as_xyz
  1  'x, y, z'
loop_
 _atom_site_type_symbol
 _atom_site_label
 _atom_site_symmetry_multiplicity
 _atom_site_fract_x
 _atom_site_fract_y
 _atom_site_fract_z
 _atom_site_occupancy
  Nd  Nd0  1  0.29414300  0.79414300  0.50000000  1
  Nd  Nd1  1  0.70585700  0.20585700  0.50000000  1
  Ga  Ga2  1  0.00000000  0.00000000  0.00000000  1
  Co  Co3  1  0.71268500  0.50000000  0.21268500  1
  Co  Co4  1  0.28731500  0.50000000  0.78731500  1
