# generated using pymatgen
data_CuMoF6
_symmetry_space_group_name_H-M   'P 1'
_cell_length_a   5.02470600
_cell_length_b   5.18833913
_cell_length_c   5.54909053
_cell_angle_alpha   62.15547231
_cell_angle_beta   65.50153575
_cell_angle_gamma   62.78085333
_symmetry_Int_Tables_number   1
_chemical_formula_structural   CuMoF6
_chemical_formula_sum   'Cu1 Mo1 F6'
_cell_volume   109.96936458
_cell_formula_units_Z   1
loop_
 _symmetry_equiv_pos_site_id
 _symmetry_equiv_pos_as_xyz
  1  'x, y, z'
loop_
 _atom_site_type_symbol
 _atom_site_label
 _atom_site_symmetry_multiplicity
 _atom_site_fract_x
 _atom_site_fract_y
 _atom_site_fract_z
 _atom_site_occupancy
  Cu  Cu0  1  0.00000000  0.00000000  0.00000000  1
  Mo  Mo1  1  0.50000000  0.50000000  0.50000000  1
  F  F2  1  0.24991600  0.88943800  0.24226500  1
  F  F3  1  0.75008400  0.11056200  0.75773500  1
  F  F4  1  0.41251100  0.72718900  0.73611700  1
  F  F5  1  0.58748900  0.27281100  0.26388300  1
  F  F6  1  0.87295800  0.62525300  0.25199900  1
  F  F7  1  0.12704200  0.37474700  0.74800100  1
