# generated using pymatgen
data_Sr2UO5
_symmetry_space_group_name_H-M   'P 1'
_cell_length_a   5.72560100
_cell_length_b   8.16564400
_cell_length_c   12.02594310
_cell_angle_alpha   71.50173700
_cell_angle_beta   90.00000000
_cell_angle_gamma   90.00000000
_symmetry_Int_Tables_number   1
_chemical_formula_structural   Sr2UO5
_chemical_formula_sum   'Sr8 U4 O20'
_cell_volume   533.20186007
_cell_formula_units_Z   4
loop_
 _symmetry_equiv_pos_site_id
 _symmetry_equiv_pos_as_xyz
  1  'x, y, z'
loop_
 _atom_site_type_symbol
 _atom_site_label
 _atom_site_symmetry_multiplicity
 _atom_site_fract_x
 _atom_site_fract_y
 _atom_site_fract_z
 _atom_site_occupancy
  Sr  Sr0  1  0.93393900  0.15590500  0.68104700  1
  Sr  Sr1  1  0.43393900  0.84409500  0.81895300  1
  Sr  Sr2  1  0.06606100  0.84409500  0.31895300  1
  Sr  Sr3  1  0.56606100  0.15590500  0.18104700  1
  Sr  Sr4  1  0.50024600  0.34055400  0.86121300  1
  Sr  Sr5  1  0.00024600  0.65944600  0.63878700  1
  Sr  Sr6  1  0.49975400  0.65944600  0.13878700  1
  Sr  Sr7  1  0.99975400  0.34055400  0.36121300  1
  U  U8  1  0.00000000  0.00000000  0.00000000  1
  U  U9  1  0.50000000  0.00000000  0.50000000  1
  U  U10  1  0.00000000  0.50000000  0.00000000  1
  U  U11  1  0.50000000  0.50000000  0.50000000  1
  O  O12  1  0.65226500  0.25081900  0.50116400  1
  O  O13  1  0.15226500  0.74918100  0.99883600  1
  O  O14  1  0.34773500  0.74918100  0.49883600  1
  O  O15  1  0.84773500  0.25081900  0.00116400  1
  O  O16  1  0.75647000  0.01878100  0.37795500  1
  O  O17  1  0.25647000  0.98121900  0.12204500  1
  O  O18  1  0.24353000  0.98121900  0.62204500  1
  O  O19  1  0.74353000  0.01878100  0.87795500  1
  O  O20  1  0.79778000  0.60487300  0.42495200  1
  O  O21  1  0.29778000  0.39512700  0.07504800  1
  O  O22  1  0.20222000  0.39512700  0.57504800  1
  O  O23  1  0.70222000  0.60487300  0.92495200  1
  O  O24  1  0.66971900  0.44611000  0.66423900  1
  O  O25  1  0.16971900  0.55389000  0.83576100  1
  O  O26  1  0.33028100  0.55389000  0.33576100  1
  O  O27  1  0.83028100  0.44611000  0.16423900  1
  O  O28  1  0.71117600  0.89169300  0.64058400  1
  O  O29  1  0.21117600  0.10830700  0.85941600  1
  O  O30  1  0.28882400  0.10830700  0.35941600  1
  O  O31  1  0.78882400  0.89169300  0.14058400  1
