# generated using pymatgen
data_Cs2S3
_symmetry_space_group_name_H-M   'P 1'
_cell_length_a   6.79220706
_cell_length_b   6.79220706
_cell_length_c   8.45192200
_cell_angle_alpha   90.00000000
_cell_angle_beta   90.00000000
_cell_angle_gamma   108.82426927
_symmetry_Int_Tables_number   1
_chemical_formula_structural   Cs2S3
_chemical_formula_sum   'Cs4 S6'
_cell_volume   369.06575211
_cell_formula_units_Z   2
loop_
 _symmetry_equiv_pos_site_id
 _symmetry_equiv_pos_as_xyz
  1  'x, y, z'
loop_
 _atom_site_type_symbol
 _atom_site_label
 _atom_site_symmetry_multiplicity
 _atom_site_fract_x
 _atom_site_fract_y
 _atom_site_fract_z
 _atom_site_occupancy
  Cs  Cs0  1  0.10300400  0.89699600  0.96941500  1
  Cs  Cs1  1  0.89699600  0.10300400  0.46941500  1
  Cs  Cs2  1  0.57116600  0.42883400  0.68854000  1
  Cs  Cs3  1  0.42883400  0.57116600  0.18854000  1
  S  S4  1  0.04962000  0.37959600  0.85575400  1
  S  S5  1  0.62040400  0.95038000  0.85575400  1
  S  S6  1  0.95038000  0.62040400  0.35575400  1
  S  S7  1  0.37959600  0.04962000  0.35575400  1
  S  S8  1  0.79245400  0.20754600  0.99003800  1
  S  S9  1  0.20754600  0.79245400  0.49003800  1
