# generated using pymatgen
data_La2MgSi2
_symmetry_space_group_name_H-M   'P 1'
_cell_length_a   7.53299100
_cell_length_b   7.53299100
_cell_length_c   4.46984300
_cell_angle_alpha   90.00000000
_cell_angle_beta   90.00000000
_cell_angle_gamma   90.00000000
_symmetry_Int_Tables_number   1
_chemical_formula_structural   La2MgSi2
_chemical_formula_sum   'La4 Mg2 Si4'
_cell_volume   253.64550261
_cell_formula_units_Z   2
loop_
 _symmetry_equiv_pos_site_id
 _symmetry_equiv_pos_as_xyz
  1  'x, y, z'
loop_
 _atom_site_type_symbol
 _atom_site_label
 _atom_site_symmetry_multiplicity
 _atom_site_fract_x
 _atom_site_fract_y
 _atom_site_fract_z
 _atom_site_occupancy
  La  La0  1  0.68056400  0.18056400  0.50000000  1
  La  La1  1  0.31943600  0.81943600  0.50000000  1
  La  La2  1  0.18056400  0.31943600  0.50000000  1
  La  La3  1  0.81943600  0.68056400  0.50000000  1
  Mg  Mg4  1  0.00000000  0.00000000  0.00000000  1
  Mg  Mg5  1  0.50000000  0.50000000  0.00000000  1
  Si  Si6  1  0.11270500  0.61270500  0.00000000  1
  Si  Si7  1  0.88729500  0.38729500  0.00000000  1
  Si  Si8  1  0.61270500  0.88729500  0.00000000  1
  Si  Si9  1  0.38729500  0.11270500  0.00000000  1
