# generated using pymatgen
data_Ca3(PO4)2
_symmetry_space_group_name_H-M   'P 1'
_cell_length_a   13.01476141
_cell_length_b   13.00589598
_cell_length_c   27.55326839
_cell_angle_alpha   90.00000000
_cell_angle_beta   90.00000000
_cell_angle_gamma   107.62431569
_symmetry_Int_Tables_number   1
_chemical_formula_structural   Ca3(PO4)2
_chemical_formula_sum   'Ca72 P48 O192'
_cell_volume   4444.99096061
_cell_formula_units_Z   24
loop_
 _symmetry_equiv_pos_site_id
 _symmetry_equiv_pos_as_xyz
  1  'x, y, z'
loop_
 _atom_site_type_symbol
 _atom_site_label
 _atom_site_symmetry_multiplicity
 _atom_site_fract_x
 _atom_site_fract_y
 _atom_site_fract_z
 _atom_site_occupancy
  Ca  Ca0  1  0.91409332  0.80576604  0.52590788  1
  Ca  Ca1  1  0.08590668  0.69423396  0.02590788  1
  Ca  Ca2  1  0.08590668  0.19423396  0.47409212  1
  Ca  Ca3  1  0.91409332  0.30576604  0.97409212  1
  Ca  Ca4  1  0.67221776  0.32067240  0.54958884  1
  Ca  Ca5  1  0.32778224  0.17932760  0.04958884  1
  Ca  Ca6  1  0.32778224  0.67932760  0.45041116  1
  Ca  Ca7  1  0.67221776  0.82067240  0.95041116  1
  Ca  Ca8  1  0.94965781  0.53778081  0.57329451  1
  Ca  Ca9  1  0.05034219  0.96221919  0.07329451  1
  Ca  Ca10  1  0.05034219  0.46221919  0.42670549  1
  Ca  Ca11  1  0.94965781  0.03778081  0.92670549  1
  Ca  Ca12  1  0.44020812  0.08288517  0.58935997  1
  Ca  Ca13  1  0.55979188  0.41711483  0.08935997  1
  Ca  Ca14  1  0.55979188  0.91711483  0.41064003  1
  Ca  Ca15  1  0.44020812  0.58288517  0.91064003  1
  Ca  Ca16  1  0.25454205  0.81089272  0.58709408  1
  Ca  Ca17  1  0.74545795  0.68910728  0.08709408  1
  Ca  Ca18  1  0.74545795  0.18910728  0.41290592  1
  Ca  Ca19  1  0.25454205  0.31089272  0.91290592  1
  Ca  Ca20  1  0.66778120  0.53669786  0.63833064  1
  Ca  Ca21  1  0.33221880  0.96330214  0.13833064  1
  Ca  Ca22  1  0.33221880  0.46330214  0.36166936  1
  Ca  Ca23  1  0.66778120  0.03669786  0.86166936  1
  Ca  Ca24  1  0.05603743  0.67689823  0.69145674  1
  Ca  Ca25  1  0.94396257  0.82310177  0.19145674  1
  Ca  Ca26  1  0.94396257  0.32310177  0.30854326  1
  Ca  Ca27  1  0.05603743  0.17689823  0.80854326  1
  Ca  Ca28  1  0.32336493  0.19434274  0.71563310  1
  Ca  Ca29  1  0.67663507  0.30565726  0.21563310  1
  Ca  Ca30  1  0.67663507  0.80565726  0.28436690  1
  Ca  Ca31  1  0.32336493  0.69434274  0.78436690  1
  Ca  Ca32  1  0.06271930  0.94783641  0.73469756  1
  Ca  Ca33  1  0.93728070  0.55216359  0.23469756  1
  Ca  Ca34  1  0.93728070  0.05216359  0.26530244  1
  Ca  Ca35  1  0.06271930  0.44783641  0.76530244  1
  Ca  Ca36  1  0.56196449  0.43107233  0.75879280  1
  Ca  Ca37  1  0.43803551  0.06892767  0.25879280  1
  Ca  Ca38  1  0.43803551  0.56892767  0.24120720  1
  Ca  Ca39  1  0.56196449  0.93107233  0.74120720  1
  Ca  Ca40  1  0.79198475  0.70511676  0.74530905  1
  Ca  Ca41  1  0.20801525  0.79488324  0.24530905  1
  Ca  Ca42  1  0.20801525  0.29488324  0.25469095  1
  Ca  Ca43  1  0.79198475  0.20511676  0.75469095  1
  Ca  Ca44  1  0.32430097  0.97173787  0.80192141  1
  Ca  Ca45  1  0.67569903  0.52826213  0.30192141  1
  Ca  Ca46  1  0.67569903  0.02826213  0.19807859  1
  Ca  Ca47  1  0.32430097  0.47173787  0.69807859  1
  Ca  Ca48  1  0.92716346  0.81798046  0.85162303  1
  Ca  Ca49  1  0.07283654  0.68201954  0.35162303  1
  Ca  Ca50  1  0.07283654  0.18201954  0.14837697  1
  Ca  Ca51  1  0.92716346  0.31798046  0.64837697  1
  Ca  Ca52  1  0.67599271  0.34843015  0.87255491  1
  Ca  Ca53  1  0.32400729  0.15156985  0.37255491  1
  Ca  Ca54  1  0.32400729  0.65156985  0.12744509  1
  Ca  Ca55  1  0.67599271  0.84843015  0.62744509  1
  Ca  Ca56  1  0.95081466  0.55382129  0.91334384  1
  Ca  Ca57  1  0.04918534  0.94617871  0.41334384  1
  Ca  Ca58  1  0.04918534  0.44617871  0.08665616  1
  Ca  Ca59  1  0.95081466  0.05382129  0.58665616  1
  Ca  Ca60  1  0.43839741  0.07778871  0.92451749  1
  Ca  Ca61  1  0.56160259  0.42221129  0.42451749  1
  Ca  Ca62  1  0.56160259  0.92221129  0.07548251  1
  Ca  Ca63  1  0.43839741  0.57778871  0.57548251  1
  Ca  Ca64  1  0.20022389  0.81825863  0.91456884  1
  Ca  Ca65  1  0.79977611  0.68174137  0.41456884  1
  Ca  Ca66  1  0.79977611  0.18174137  0.08543116  1
  Ca  Ca67  1  0.20022389  0.31825863  0.58543116  1
  Ca  Ca68  1  0.69331927  0.54343447  0.97366536  1
  Ca  Ca69  1  0.30668073  0.95656553  0.47366536  1
  Ca  Ca70  1  0.30668073  0.45656553  0.02633464  1
  Ca  Ca71  1  0.69331927  0.04343447  0.52633464  1
  P  P72  1  0.88873365  0.77671793  0.63685506  1
  P  P73  1  0.11126635  0.72328207  0.13685506  1
  P  P74  1  0.11126635  0.22328207  0.36314494  1
  P  P75  1  0.88873365  0.27671793  0.86314494  1
  P  P76  1  0.45584775  0.33541522  0.63126129  1
  P  P77  1  0.54415225  0.16458478  0.13126129  1
  P  P78  1  0.54415225  0.66458478  0.36873871  1
  P  P79  1  0.45584775  0.83541522  0.86873871  1
  P  P80  1  0.29999344  0.90856275  0.69204574  1
  P  P81  1  0.70000656  0.59143725  0.19204574  1
  P  P82  1  0.70000656  0.09143725  0.30795426  1
  P  P83  1  0.29999344  0.40856275  0.80795426  1
  P  P84  1  0.84345735  0.47901610  0.70822853  1
  P  P85  1  0.15654265  0.02098390  0.20822853  1
  P  P86  1  0.15654265  0.52098390  0.29177147  1
  P  P87  1  0.84345735  0.97901610  0.79177147  1
  P  P88  1  0.10082186  0.72587668  0.80819855  1
  P  P89  1  0.89917814  0.77412332  0.30819855  1
  P  P90  1  0.89917814  0.27412332  0.19180145  1
  P  P91  1  0.10082186  0.22587668  0.69180145  1
  P  P92  1  0.54277193  0.16948801  0.79642944  1
  P  P93  1  0.45722807  0.33051199  0.29642944  1
  P  P94  1  0.45722807  0.83051199  0.20357056  1
  P  P95  1  0.54277193  0.66948801  0.70357056  1
  P  P96  1  0.70060812  0.59535708  0.86331808  1
  P  P97  1  0.29939188  0.90464292  0.36331808  1
  P  P98  1  0.29939188  0.40464292  0.13668192  1
  P  P99  1  0.70060812  0.09535708  0.63668192  1
  P  P100  1  0.15752029  0.03063244  0.86773928  1
  P  P101  1  0.84247971  0.46936756  0.36773928  1
  P  P102  1  0.84247971  0.96936756  0.13226072  1
  P  P103  1  0.15752029  0.53063244  0.63226072  1
  P  P104  1  0.89780074  0.78645666  0.97500847  1
  P  P105  1  0.10219926  0.71354334  0.47500847  1
  P  P106  1  0.10219926  0.21354334  0.02499153  1
  P  P107  1  0.89780074  0.28645666  0.52499153  1
  P  P108  1  0.47553564  0.33794197  0.96467892  1
  P  P109  1  0.52446436  0.16205803  0.46467892  1
  P  P110  1  0.52446436  0.66205803  0.03532108  1
  P  P111  1  0.47553564  0.83794197  0.53532108  1
  P  P112  1  0.30022523  0.93789131  0.02935532  1
  P  P113  1  0.69977477  0.56210869  0.52935532  1
  P  P114  1  0.69977477  0.06210869  0.97064468  1
  P  P115  1  0.30022523  0.43789131  0.47064468  1
  P  P116  1  0.84430108  0.47054276  0.03946545  1
  P  P117  1  0.15569892  0.02945724  0.53946545  1
  P  P118  1  0.15569892  0.52945724  0.96053455  1
  P  P119  1  0.84430108  0.97054276  0.46053455  1
  O  O120  1  0.93525432  0.71240009  0.60044887  1
  O  O121  1  0.06474568  0.78759991  0.10044887  1
  O  O122  1  0.06474568  0.28759991  0.39955113  1
  O  O123  1  0.93525432  0.21240009  0.89955113  1
  O  O124  1  0.96833793  0.81648639  0.67962945  1
  O  O125  1  0.03166207  0.68351361  0.17962945  1
  O  O126  1  0.03166207  0.18351361  0.32037055  1
  O  O127  1  0.96833793  0.31648639  0.82037055  1
  O  O128  1  0.86084911  0.86957570  0.60956293  1
  O  O129  1  0.13915089  0.63042430  0.10956293  1
  O  O130  1  0.13915089  0.13042430  0.39043707  1
  O  O131  1  0.86084911  0.36957570  0.89043707  1
  O  O132  1  0.77894077  0.70775188  0.65921359  1
  O  O133  1  0.22105923  0.79224812  0.15921359  1
  O  O134  1  0.22105923  0.29224812  0.34078641  1
  O  O135  1  0.77894077  0.20775188  0.84078641  1
  O  O136  1  0.39932549  0.21198782  0.63674915  1
  O  O137  1  0.60067451  0.28801218  0.13674915  1
  O  O138  1  0.60067451  0.78801218  0.36325085  1
  O  O139  1  0.39932549  0.71198782  0.86325085  1
  O  O140  1  0.57033178  0.36092731  0.61011236  1
  O  O141  1  0.42966822  0.13907269  0.11011236  1
  O  O142  1  0.42966822  0.63907269  0.38988764  1
  O  O143  1  0.57033178  0.86092731  0.88988764  1
  O  O144  1  0.46414332  0.38447265  0.68375718  1
  O  O145  1  0.53585668  0.11552735  0.18375718  1
  O  O146  1  0.53585668  0.61552735  0.31624282  1
  O  O147  1  0.46414332  0.88447265  0.81624282  1
  O  O148  1  0.38661555  0.38842460  0.60001953  1
  O  O149  1  0.61338445  0.11157540  0.10001953  1
  O  O150  1  0.61338445  0.61157540  0.39998047  1
  O  O151  1  0.38661555  0.88842460  0.89998047  1
  O  O152  1  0.36524318  0.86944094  0.73193933  1
  O  O153  1  0.63475682  0.63055906  0.23193933  1
  O  O154  1  0.63475682  0.13055906  0.26806067  1
  O  O155  1  0.36524318  0.36944094  0.76806067  1
  O  O156  1  0.36887943  0.95376002  0.64728121  1
  O  O157  1  0.63112057  0.54623998  0.14728121  1
  O  O158  1  0.63112057  0.04623998  0.35271879  1
  O  O159  1  0.36887943  0.45376002  0.85271879  1
  O  O160  1  0.25526773  0.99387224  0.71827525  1
  O  O161  1  0.74473227  0.50612776  0.21827525  1
  O  O162  1  0.74473227  0.00612776  0.28172475  1
  O  O163  1  0.25526773  0.49387224  0.78172475  1
  O  O164  1  0.20391679  0.81397728  0.67386405  1
  O  O165  1  0.79608321  0.68602272  0.17386405  1
  O  O166  1  0.79608321  0.18602272  0.32613595  1
  O  O167  1  0.20391679  0.31397728  0.82613595  1
  O  O168  1  0.87703462  0.38423923  0.73143688  1
  O  O169  1  0.12296538  0.11576077  0.23143688  1
  O  O170  1  0.12296538  0.61576077  0.26856312  1
  O  O171  1  0.87703462  0.88423923  0.76856312  1
  O  O172  1  0.89059179  0.49101129  0.65565356  1
  O  O173  1  0.10940821  0.00898871  0.15565356  1
  O  O174  1  0.10940821  0.50898871  0.34434644  1
  O  O175  1  0.89059179  0.99101129  0.84434644  1
  O  O176  1  0.89868559  0.58557591  0.73603534  1
  O  O177  1  0.10131441  0.91442409  0.23603534  1
  O  O178  1  0.10131441  0.41442409  0.26396466  1
  O  O179  1  0.89868559  0.08557591  0.76396466  1
  O  O180  1  0.72060886  0.45729519  0.70799163  1
  O  O181  1  0.27939114  0.04270481  0.20799163  1
  O  O182  1  0.27939114  0.54270481  0.29200837  1
  O  O183  1  0.72060886  0.95729519  0.79200837  1
  O  O184  1  0.04425481  0.79034784  0.77640288  1
  O  O185  1  0.95574519  0.70965216  0.27640288  1
  O  O186  1  0.95574519  0.20965216  0.22359712  1
  O  O187  1  0.04425481  0.29034784  0.72359712  1
  O  O188  1  0.02965939  0.68443671  0.85325798  1
  O  O189  1  0.97034061  0.81556329  0.35325798  1
  O  O190  1  0.97034061  0.31556329  0.14674202  1
  O  O191  1  0.02965939  0.18443671  0.64674202  1
  O  O192  1  0.12439189  0.63605591  0.77683327  1
  O  O193  1  0.87560811  0.86394409  0.27683327  1
  O  O194  1  0.87560811  0.36394409  0.22316673  1
  O  O195  1  0.12439189  0.13605591  0.72316673  1
  O  O196  1  0.21393630  0.79870954  0.82565439  1
  O  O197  1  0.78606370  0.70129046  0.32565439  1
  O  O198  1  0.78606370  0.20129046  0.17434561  1
  O  O199  1  0.21393630  0.29870954  0.67434561  1
  O  O200  1  0.42995465  0.14364884  0.77257667  1
  O  O201  1  0.57004535  0.35635116  0.27257667  1
  O  O202  1  0.57004535  0.85635116  0.22742333  1
  O  O203  1  0.42995465  0.64364884  0.72742333  1
  O  O204  1  0.60600793  0.29124543  0.79399623  1
  O  O205  1  0.39399207  0.20875457  0.29399623  1
  O  O206  1  0.39399207  0.70875457  0.20600377  1
  O  O207  1  0.60600793  0.79124543  0.70600377  1
  O  O208  1  0.53135141  0.13418398  0.85054431  1
  O  O209  1  0.46864859  0.36581602  0.35054431  1
  O  O210  1  0.46864859  0.86581602  0.14945569  1
  O  O211  1  0.53135141  0.63418398  0.64945569  1
  O  O212  1  0.61057609  0.10632070  0.77019130  1
  O  O213  1  0.38942391  0.39367930  0.27019130  1
  O  O214  1  0.38942391  0.89367930  0.22980870  1
  O  O215  1  0.61057609  0.60632070  0.72980870  1
  O  O216  1  0.63264473  0.63651260  0.90113114  1
  O  O217  1  0.36735527  0.86348740  0.40113114  1
  O  O218  1  0.36735527  0.36348740  0.09886886  1
  O  O219  1  0.63264473  0.13651260  0.59886886  1
  O  O220  1  0.63019573  0.49970493  0.83301262  1
  O  O221  1  0.36980427  0.00029507  0.33301262  1
  O  O222  1  0.36980427  0.50029507  0.16698738  1
  O  O223  1  0.63019573  0.99970493  0.66698738  1
  O  O224  1  0.77586065  0.54724198  0.89441100  1
  O  O225  1  0.22413935  0.95275802  0.39441100  1
  O  O226  1  0.22413935  0.45275802  0.10558900  1
  O  O227  1  0.77586065  0.04724198  0.60558900  1
  O  O228  1  0.76825251  0.68739564  0.83017210  1
  O  O229  1  0.23174749  0.81260436  0.33017210  1
  O  O230  1  0.23174749  0.31260436  0.16982790  1
  O  O231  1  0.76825251  0.18739564  0.66982790  1
  O  O232  1  0.12950574  0.13094084  0.88733577  1
  O  O233  1  0.87049426  0.36905916  0.38733577  1
  O  O234  1  0.87049426  0.86905916  0.11266423  1
  O  O235  1  0.12950574  0.63094084  0.61266423  1
  O  O236  1  0.14068215  0.02710336  0.81136423  1
  O  O237  1  0.85931785  0.47289664  0.31136423  1
  O  O238  1  0.85931785  0.97289664  0.18863577  1
  O  O239  1  0.14068215  0.52710336  0.68863577  1
  O  O240  1  0.08031326  0.92775444  0.89205197  1
  O  O241  1  0.91968674  0.57224556  0.39205197  1
  O  O242  1  0.91968674  0.07224556  0.10794803  1
  O  O243  1  0.08031326  0.42775444  0.60794803  1
  O  O244  1  0.27440596  0.03127339  0.87790814  1
  O  O245  1  0.72559404  0.46872661  0.37790814  1
  O  O246  1  0.72559404  0.96872661  0.12209186  1
  O  O247  1  0.27440596  0.53127339  0.62209186  1
  O  O248  1  0.96379666  0.71041781  0.95962161  1
  O  O249  1  0.03620334  0.78958219  0.45962161  1
  O  O250  1  0.03620334  0.28958219  0.04037839  1
  O  O251  1  0.96379666  0.21041781  0.54037839  1
  O  O252  1  0.96764600  0.87579134  0.00743929  1
  O  O253  1  0.03235400  0.62420866  0.50743929  1
  O  O254  1  0.03235400  0.12420866  0.99256071  1
  O  O255  1  0.96764600  0.37579134  0.49256071  1
  O  O256  1  0.85970591  0.83731213  0.92930246  1
  O  O257  1  0.14029409  0.66268787  0.42930246  1
  O  O258  1  0.14029409  0.16268787  0.07069754  1
  O  O259  1  0.85970591  0.33731213  0.57069754  1
  O  O260  1  0.79014069  0.72117995  0.00117507  1
  O  O261  1  0.20985931  0.77882005  0.50117507  1
  O  O262  1  0.20985931  0.27882005  0.99882493  1
  O  O263  1  0.79014069  0.22117995  0.49882493  1
  O  O264  1  0.40089045  0.24082727  0.93607395  1
  O  O265  1  0.59910955  0.25917273  0.43607395  1
  O  O266  1  0.59910955  0.75917273  0.06392605  1
  O  O267  1  0.40089045  0.74082727  0.56392605  1
  O  O268  1  0.59042888  0.37556035  0.94235470  1
  O  O269  1  0.40957112  0.12443965  0.44235470  1
  O  O270  1  0.40957112  0.62443965  0.05764530  1
  O  O271  1  0.59042888  0.87556035  0.55764530  1
  O  O272  1  0.48118985  0.31012958  0.01909346  1
  O  O273  1  0.51881015  0.18987042  0.51909346  1
  O  O274  1  0.51881015  0.68987042  0.98090654  1
  O  O275  1  0.48118985  0.81012958  0.48090654  1
  O  O276  1  0.42215680  0.43020708  0.96040900  1
  O  O277  1  0.57784320  0.06979292  0.46040900  1
  O  O278  1  0.57784320  0.56979292  0.03959100  1
  O  O279  1  0.42215680  0.93020708  0.53959100  1
  O  O280  1  0.37570222  0.89261284  0.06067311  1
  O  O281  1  0.62429778  0.60738716  0.56067311  1
  O  O282  1  0.62429778  0.10738716  0.93932689  1
  O  O283  1  0.37570222  0.39261284  0.43932689  1
  O  O284  1  0.36280343  0.03503750  0.99785448  1
  O  O285  1  0.63719657  0.46496250  0.49785448  1
  O  O286  1  0.63719657  0.96496250  0.00214552  1
  O  O287  1  0.36280343  0.53503750  0.50214552  1
  O  O288  1  0.23553895  0.98687615  0.06640728  1
  O  O289  1  0.76446105  0.51312385  0.56640728  1
  O  O290  1  0.76446105  0.01312385  0.93359272  1
  O  O291  1  0.23553895  0.48687615  0.43359272  1
  O  O292  1  0.22143462  0.84817708  0.99853751  1
  O  O293  1  0.77856538  0.65182292  0.49853751  1
  O  O294  1  0.77856538  0.15182292  0.00146249  1
  O  O295  1  0.22143462  0.34817708  0.50146249  1
  O  O296  1  0.85576875  0.36066650  0.05685549  1
  O  O297  1  0.14423125  0.13933350  0.55685549  1
  O  O298  1  0.14423125  0.63933350  0.94314451  1
  O  O299  1  0.85576875  0.86066650  0.44314451  1
  O  O300  1  0.84558047  0.46824915  0.98275198  1
  O  O301  1  0.15441953  0.03175085  0.48275198  1
  O  O302  1  0.15441953  0.53175085  0.01724802  1
  O  O303  1  0.84558047  0.96824915  0.51724802  1
  O  O304  1  0.94256697  0.55990526  0.05937651  1
  O  O305  1  0.05743303  0.94009474  0.55937651  1
  O  O306  1  0.05743303  0.44009474  0.94062349  1
  O  O307  1  0.94256697  0.05990526  0.44062349  1
  O  O308  1  0.73867116  0.49217810  0.05528137  1
  O  O309  1  0.26132884  0.00782190  0.55528137  1
  O  O310  1  0.26132884  0.50782190  0.94471863  1
  O  O311  1  0.73867116  0.99217810  0.44471863  1
