# generated using pymatgen
data_Pb2BrOF
_symmetry_space_group_name_H-M   'P 1'
_cell_length_a   7.22567166
_cell_length_b   7.22567166
_cell_length_c   5.93846000
_cell_angle_alpha   90.00000000
_cell_angle_beta   90.00000000
_cell_angle_gamma   131.71834697
_symmetry_Int_Tables_number   1
_chemical_formula_structural   Pb2BrOF
_chemical_formula_sum   'Pb4 Br2 O2 F2'
_cell_volume   231.42833598
_cell_formula_units_Z   2
loop_
 _symmetry_equiv_pos_site_id
 _symmetry_equiv_pos_as_xyz
  1  'x, y, z'
loop_
 _atom_site_type_symbol
 _atom_site_label
 _atom_site_symmetry_multiplicity
 _atom_site_fract_x
 _atom_site_fract_y
 _atom_site_fract_z
 _atom_site_occupancy
  Pb  Pb0  1  0.40145200  0.59854800  0.21910300  1
  Pb  Pb1  1  0.59854800  0.40145200  0.78089700  1
  Pb  Pb2  1  0.09854800  0.90145200  0.21910300  1
  Pb  Pb3  1  0.90145200  0.09854800  0.78089700  1
  Br  Br4  1  0.75000000  0.25000000  0.22905500  1
  Br  Br5  1  0.25000000  0.75000000  0.77094500  1
  O  O6  1  0.25000000  0.25000000  0.00000000  1
  O  O7  1  0.75000000  0.75000000  0.00000000  1
  F  F8  1  0.25000000  0.25000000  0.50000000  1
  F  F9  1  0.75000000  0.75000000  0.50000000  1
