# generated using pymatgen
data_Nd3Zn11
_symmetry_space_group_name_H-M   'P 1'
_cell_length_a   4.45842900
_cell_length_b   8.28645089
_cell_length_c   8.28645089
_cell_angle_alpha   66.37257213
_cell_angle_beta   74.39409091
_cell_angle_gamma   74.39409091
_symmetry_Int_Tables_number   1
_chemical_formula_structural   Nd3Zn11
_chemical_formula_sum   'Nd3 Zn11'
_cell_volume   265.59014725
_cell_formula_units_Z   1
loop_
 _symmetry_equiv_pos_site_id
 _symmetry_equiv_pos_as_xyz
  1  'x, y, z'
loop_
 _atom_site_type_symbol
 _atom_site_label
 _atom_site_symmetry_multiplicity
 _atom_site_fract_x
 _atom_site_fract_y
 _atom_site_fract_z
 _atom_site_occupancy
  Nd  Nd0  1  0.69861200  0.30138800  0.30138800  1
  Nd  Nd1  1  0.30138800  0.69861200  0.69861200  1
  Nd  Nd2  1  0.00000000  0.00000000  0.00000000  1
  Zn  Zn3  1  0.66202700  0.70040500  0.97554200  1
  Zn  Zn4  1  0.33797300  0.29959500  0.02445800  1
  Zn  Zn5  1  0.66202700  0.97554200  0.70040500  1
  Zn  Zn6  1  0.33797300  0.02445800  0.29959500  1
  Zn  Zn7  1  0.50000000  0.69840900  0.30159100  1
  Zn  Zn8  1  0.50000000  0.30159100  0.69840900  1
  Zn  Zn9  1  0.86201900  0.41589600  0.86006600  1
  Zn  Zn10  1  0.13798100  0.58410400  0.13993400  1
  Zn  Zn11  1  0.86201900  0.86006600  0.41589600  1
  Zn  Zn12  1  0.13798100  0.13993400  0.58410400  1
  Zn  Zn13  1  0.00000000  0.50000000  0.50000000  1
