# generated using pymatgen
data_Nd2(InSn)3
_symmetry_space_group_name_H-M   'P 1'
_cell_length_a   4.74043300
_cell_length_b   4.76608100
_cell_length_c   9.50085600
_cell_angle_alpha   90.00000000
_cell_angle_beta   90.00000000
_cell_angle_gamma   90.00000000
_symmetry_Int_Tables_number   1
_chemical_formula_structural   Nd2(InSn)3
_chemical_formula_sum   'Nd2 In3 Sn3'
_cell_volume   214.65557256
_cell_formula_units_Z   1
loop_
 _symmetry_equiv_pos_site_id
 _symmetry_equiv_pos_as_xyz
  1  'x, y, z'
loop_
 _atom_site_type_symbol
 _atom_site_label
 _atom_site_symmetry_multiplicity
 _atom_site_fract_x
 _atom_site_fract_y
 _atom_site_fract_z
 _atom_site_occupancy
  Nd  Nd0  1  0.00000000  0.00000000  0.24669500  1
  Nd  Nd1  1  0.00000000  0.00000000  0.75330500  1
  In  In2  1  0.50000000  0.50000000  0.25127600  1
  In  In3  1  0.50000000  0.50000000  0.74872400  1
  In  In4  1  0.00000000  0.50000000  0.50000000  1
  Sn  Sn5  1  0.00000000  0.50000000  0.00000000  1
  Sn  Sn6  1  0.50000000  0.00000000  0.50000000  1
  Sn  Sn7  1  0.50000000  0.00000000  0.00000000  1
