# generated using pymatgen
data_Rb7DyFe6(P4O17)2
_symmetry_space_group_name_H-M   'P 1'
_cell_length_a   9.40784500
_cell_length_b   10.00952323
_cell_length_c   10.14967355
_cell_angle_alpha   91.97441676
_cell_angle_beta   94.12274206
_cell_angle_gamma   116.23677711
_symmetry_Int_Tables_number   1
_chemical_formula_structural   Rb7DyFe6(P4O17)2
_chemical_formula_sum   'Rb7 Dy1 Fe6 P8 O34'
_cell_volume   852.74087152
_cell_formula_units_Z   1
loop_
 _symmetry_equiv_pos_site_id
 _symmetry_equiv_pos_as_xyz
  1  'x, y, z'
loop_
 _atom_site_type_symbol
 _atom_site_label
 _atom_site_symmetry_multiplicity
 _atom_site_fract_x
 _atom_site_fract_y
 _atom_site_fract_z
 _atom_site_occupancy
  Rb  Rb0  1  0.07294300  0.20926900  0.34236200  1
  Rb  Rb1  1  0.92705700  0.79073100  0.65763800  1
  Rb  Rb2  1  0.62649800  0.97375500  0.37653300  1
  Rb  Rb3  1  0.37350200  0.02624500  0.62346700  1
  Rb  Rb4  1  0.67692400  0.43921200  0.90594500  1
  Rb  Rb5  1  0.32307600  0.56078800  0.09405500  1
  Rb  Rb6  1  0.50000000  0.00000000  0.00000000  1
  Dy  Dy7  1  0.50000000  0.50000000  0.50000000  1
  Fe  Fe8  1  0.15616100  0.10787000  0.96642800  1
  Fe  Fe9  1  0.84383900  0.89213000  0.03357200  1
  Fe  Fe10  1  0.83478300  0.09449200  0.75357700  1
  Fe  Fe11  1  0.16521700  0.90550800  0.24642300  1
  Fe  Fe12  1  0.84511700  0.42326100  0.27710000  1
  Fe  Fe13  1  0.15488300  0.57673900  0.72290000  1
  P  P14  1  0.78549900  0.33376400  0.57180400  1
  P  P15  1  0.21450100  0.66623600  0.42819600  1
  P  P16  1  0.19403600  0.26625100  0.69223300  1
  P  P17  1  0.80596400  0.73374900  0.30776700  1
  P  P18  1  0.91012300  0.23095600  0.03791300  1
  P  P19  1  0.08987700  0.76904400  0.96208700  1
  P  P20  1  0.55767300  0.75561000  0.78073700  1
  P  P21  1  0.44232700  0.24439000  0.21926300  1
  O  O22  1  0.37495800  0.21980000  0.07075300  1
  O  O23  1  0.62504200  0.78020000  0.92924700  1
  O  O24  1  0.83826600  0.31242900  0.43289800  1
  O  O25  1  0.16173400  0.68757100  0.56710200  1
  O  O26  1  0.01657500  0.15697500  0.64218100  1
  O  O27  1  0.98342500  0.84302500  0.35781900  1
  O  O28  1  0.18071500  0.91579700  0.89312100  1
  O  O29  1  0.81928500  0.08420300  0.10687900  1
  O  O30  1  0.25876600  0.19698700  0.80063300  1
  O  O31  1  0.74123400  0.80301300  0.19936700  1
  O  O32  1  0.93244000  0.00644000  0.87657200  1
  O  O33  1  0.06756000  0.99356000  0.12342800  1
  O  O34  1  0.20575600  0.41568400  0.75174800  1
  O  O35  1  0.79424400  0.58431600  0.24825200  1
  O  O36  1  0.08706400  0.26744800  0.02880600  1
  O  O37  1  0.91293600  0.73255200  0.97119400  1
  O  O38  1  0.61789400  0.27153200  0.22041000  1
  O  O39  1  0.38210600  0.72846800  0.77959000  1
  O  O40  1  0.29488100  0.29443500  0.57309800  1
  O  O41  1  0.70511900  0.70556500  0.42690200  1
  O  O42  1  0.71564100  0.17661800  0.62824100  1
  O  O43  1  0.28435900  0.82338200  0.37175900  1
  O  O44  1  0.65531800  0.38833100  0.55582100  1
  O  O45  1  0.34468200  0.61166900  0.44417900  1
  O  O46  1  0.81761000  0.21938200  0.89952500  1
  O  O47  1  0.18239000  0.78061800  0.10047500  1
  O  O48  1  0.91007000  0.36518000  0.11869900  1
  O  O49  1  0.08993000  0.63482000  0.88130100  1
  O  O50  1  0.57617500  0.62661800  0.70787900  1
  O  O51  1  0.42382500  0.37338200  0.29212100  1
  O  O52  1  0.64698200  0.90251000  0.70831100  1
  O  O53  1  0.35301800  0.09749000  0.29168900  1
  O  O54  1  0.92636800  0.44615200  0.66550500  1
  O  O55  1  0.07363200  0.55384800  0.33449500  1
