# generated using pymatgen
data_ClF5
_symmetry_space_group_name_H-M   'P 1'
_cell_length_a   4.73365011
_cell_length_b   4.73365011
_cell_length_c   7.60492700
_cell_angle_alpha   90.00000000
_cell_angle_beta   90.00000000
_cell_angle_gamma   98.88795050
_symmetry_Int_Tables_number   1
_chemical_formula_structural   ClF5
_chemical_formula_sum   'Cl2 F10'
_cell_volume   168.36078880
_cell_formula_units_Z   2
loop_
 _symmetry_equiv_pos_site_id
 _symmetry_equiv_pos_as_xyz
  1  'x, y, z'
loop_
 _atom_site_type_symbol
 _atom_site_label
 _atom_site_symmetry_multiplicity
 _atom_site_fract_x
 _atom_site_fract_y
 _atom_site_fract_z
 _atom_site_occupancy
  Cl  Cl0  1  0.82044700  0.17955300  0.68846000  1
  Cl  Cl1  1  0.17955300  0.82044700  0.18846000  1
  F  F2  1  0.08857300  0.46737500  0.68351200  1
  F  F3  1  0.91142700  0.53262500  0.18351200  1
  F  F4  1  0.46737500  0.08857300  0.18351200  1
  F  F5  1  0.53262500  0.91142700  0.68351200  1
  F  F6  1  0.65627700  0.34372300  0.84808500  1
  F  F7  1  0.34372300  0.65627700  0.34808500  1
  F  F8  1  0.65149200  0.34850800  0.54507000  1
  F  F9  1  0.34850800  0.65149200  0.04507000  1
  F  F10  1  0.97029200  0.02970800  0.50736100  1
  F  F11  1  0.02970800  0.97029200  0.00736100  1
