# generated using pymatgen
data_K5Mo8As(H3O16)2
_symmetry_space_group_name_H-M   'P 1'
_cell_length_a   12.51732859
_cell_length_b   12.51732859
_cell_length_c   15.60002800
_cell_angle_alpha   90.00000000
_cell_angle_beta   90.00000000
_cell_angle_gamma   140.46716640
_symmetry_Int_Tables_number   1
_chemical_formula_structural   K5Mo8As(H3O16)2
_chemical_formula_sum   'K10 Mo16 As2 H12 O64'
_cell_volume   1555.82570101
_cell_formula_units_Z   2
loop_
 _symmetry_equiv_pos_site_id
 _symmetry_equiv_pos_as_xyz
  1  'x, y, z'
loop_
 _atom_site_type_symbol
 _atom_site_label
 _atom_site_symmetry_multiplicity
 _atom_site_fract_x
 _atom_site_fract_y
 _atom_site_fract_z
 _atom_site_occupancy
  K  K0  1  0.61652000  0.38348000  0.25000000  1
  K  K1  1  0.38348000  0.61652000  0.75000000  1
  K  K2  1  0.13359800  0.86258200  0.97507800  1
  K  K3  1  0.86258200  0.13359800  0.02492200  1
  K  K4  1  0.13741800  0.86640200  0.52492200  1
  K  K5  1  0.86640200  0.13741800  0.47507800  1
  K  K6  1  0.37944900  0.62123300  0.03318400  1
  K  K7  1  0.62123300  0.37944900  0.96681600  1
  K  K8  1  0.37876700  0.62055100  0.46681600  1
  K  K9  1  0.62055100  0.37876700  0.53318400  1
  Mo  Mo10  1  0.42783300  0.95469200  0.14031700  1
  Mo  Mo11  1  0.95469200  0.42783300  0.85968300  1
  Mo  Mo12  1  0.42919500  0.95490600  0.35913200  1
  Mo  Mo13  1  0.95490600  0.42919500  0.64086800  1
  Mo  Mo14  1  0.57080500  0.04509400  0.85913200  1
  Mo  Mo15  1  0.04509400  0.57080500  0.14086800  1
  Mo  Mo16  1  0.57216700  0.04530800  0.64031700  1
  Mo  Mo17  1  0.04530800  0.57216700  0.35968300  1
  Mo  Mo18  1  0.20939400  0.18988100  0.14618300  1
  Mo  Mo19  1  0.18988100  0.20939400  0.85381700  1
  Mo  Mo20  1  0.20945600  0.19014000  0.35404900  1
  Mo  Mo21  1  0.19014000  0.20945600  0.64595100  1
  Mo  Mo22  1  0.79054400  0.80986000  0.85404900  1
  Mo  Mo23  1  0.80986000  0.79054400  0.14595100  1
  Mo  Mo24  1  0.79060600  0.81011900  0.64618300  1
  Mo  Mo25  1  0.81011900  0.79060600  0.35381700  1
  As  As26  1  0.12322000  0.87678000  0.25000000  1
  As  As27  1  0.87678000  0.12322000  0.75000000  1
  H  H28  1  0.93933400  0.06066600  0.25000000  1
  H  H29  1  0.06066600  0.93933400  0.75000000  1
  H  H30  1  0.31147000  0.68853000  0.25000000  1
  H  H31  1  0.68853000  0.31147000  0.75000000  1
  H  H32  1  0.50144200  0.67902700  0.24960000  1
  H  H33  1  0.67902700  0.50144200  0.75040000  1
  H  H34  1  0.49855800  0.32097300  0.74960000  1
  H  H35  1  0.32097300  0.49855800  0.25040000  1
  H  H36  1  0.23181700  0.92971200  0.77534500  1
  H  H37  1  0.92971200  0.23181700  0.22465500  1
  H  H38  1  0.76818300  0.07028800  0.27534500  1
  H  H39  1  0.07028800  0.76818300  0.72465500  1
  O  O40  1  0.25392900  0.74335200  0.07680600  1
  O  O41  1  0.74335200  0.25392900  0.92319400  1
  O  O42  1  0.25664800  0.74607100  0.42319400  1
  O  O43  1  0.74607100  0.25664800  0.57680600  1
  O  O44  1  0.38502600  0.61497400  0.25000000  1
  O  O45  1  0.61497400  0.38502600  0.75000000  1
  O  O46  1  0.12660400  0.87339600  0.75000000  1
  O  O47  1  0.87339600  0.12660400  0.25000000  1
  O  O48  1  0.48038500  0.06246500  0.25000200  1
  O  O49  1  0.06246500  0.48038500  0.74999800  1
  O  O50  1  0.51961500  0.93753500  0.75000200  1
  O  O51  1  0.93753500  0.51961500  0.24999800  1
  O  O52  1  0.58509900  0.98019900  0.13326800  1
  O  O53  1  0.98019900  0.58509900  0.86673200  1
  O  O54  1  0.58966900  0.98307000  0.36275600  1
  O  O55  1  0.98307000  0.58966900  0.63724400  1
  O  O56  1  0.41033100  0.01693000  0.86275600  1
  O  O57  1  0.01693000  0.41033100  0.13724400  1
  O  O58  1  0.41490100  0.01980100  0.63326800  1
  O  O59  1  0.01980100  0.41490100  0.36673200  1
  O  O60  1  0.48672900  0.10174100  0.07052600  1
  O  O61  1  0.10174100  0.48672900  0.92947400  1
  O  O62  1  0.48808400  0.10134400  0.42929600  1
  O  O63  1  0.10134400  0.48808400  0.57070400  1
  O  O64  1  0.51191600  0.89865600  0.92929600  1
  O  O65  1  0.89865600  0.51191600  0.07070400  1
  O  O66  1  0.51327100  0.89825900  0.57052600  1
  O  O67  1  0.89825900  0.51327100  0.42947400  1
  O  O68  1  0.30591700  0.32726700  0.25010900  1
  O  O69  1  0.32726700  0.30591700  0.74989100  1
  O  O70  1  0.69408300  0.67273300  0.75010900  1
  O  O71  1  0.67273300  0.69408300  0.24989100  1
  O  O72  1  0.38440000  0.27824000  0.09197300  1
  O  O73  1  0.27824000  0.38440000  0.90802700  1
  O  O74  1  0.38471300  0.27791500  0.40767100  1
  O  O75  1  0.27791500  0.38471300  0.59232900  1
  O  O76  1  0.61528700  0.72208500  0.90767100  1
  O  O77  1  0.72208500  0.61528700  0.09232900  1
  O  O78  1  0.61560000  0.72176000  0.59197300  1
  O  O79  1  0.72176000  0.61560000  0.40802700  1
  O  O80  1  0.24869300  0.08596100  0.24972100  1
  O  O81  1  0.08596100  0.24869300  0.75027900  1
  O  O82  1  0.75130700  0.91403900  0.74972100  1
  O  O83  1  0.91403900  0.75130700  0.25027900  1
  O  O84  1  0.03904700  0.96102700  0.10275100  1
  O  O85  1  0.96102700  0.03904700  0.89724900  1
  O  O86  1  0.03897300  0.96095300  0.39724900  1
  O  O87  1  0.96095300  0.03897300  0.60275100  1
  O  O88  1  0.15345600  0.26653300  0.09621400  1
  O  O89  1  0.26653300  0.15345600  0.90378600  1
  O  O90  1  0.15506600  0.26729700  0.40509800  1
  O  O91  1  0.26729700  0.15506600  0.59490200  1
  O  O92  1  0.84493400  0.73270300  0.90509800  1
  O  O93  1  0.73270300  0.84493400  0.09490200  1
  O  O94  1  0.84654400  0.73346700  0.59621400  1
  O  O95  1  0.73346700  0.84654400  0.40378600  1
  O  O96  1  0.16546400  0.83272300  0.16050900  1
  O  O97  1  0.83272300  0.16546400  0.83949100  1
  O  O98  1  0.16727700  0.83453600  0.33949100  1
  O  O99  1  0.83453600  0.16727700  0.66050900  1
  O  O100  1  0.98237400  0.01762600  0.25000000  1
  O  O101  1  0.01762600  0.98237400  0.75000000  1
  O  O102  1  0.26899100  0.73100900  0.25000000  1
  O  O103  1  0.73100900  0.26899100  0.75000000  1
