# generated using pymatgen
data_Cs2U6Pd4S17
_symmetry_space_group_name_H-M   'P 1'
_cell_length_a   10.38840100
_cell_length_b   10.38840100
_cell_length_c   12.87508900
_cell_angle_alpha   90.00000000
_cell_angle_beta   90.00000000
_cell_angle_gamma   90.00000000
_symmetry_Int_Tables_number   1
_chemical_formula_structural   Cs2U6Pd4S17
_chemical_formula_sum   'Cs4 U12 Pd8 S34'
_cell_volume   1389.46512474
_cell_formula_units_Z   2
loop_
 _symmetry_equiv_pos_site_id
 _symmetry_equiv_pos_as_xyz
  1  'x, y, z'
loop_
 _atom_site_type_symbol
 _atom_site_label
 _atom_site_symmetry_multiplicity
 _atom_site_fract_x
 _atom_site_fract_y
 _atom_site_fract_z
 _atom_site_occupancy
  Cs  Cs0  1  0.50000000  0.50000000  0.21273500  1
  Cs  Cs1  1  0.00000000  0.00000000  0.71273500  1
  Cs  Cs2  1  0.50000000  0.50000000  0.78726500  1
  Cs  Cs3  1  0.00000000  0.00000000  0.28726500  1
  U  U4  1  0.61776000  0.73850800  0.50000000  1
  U  U5  1  0.38224000  0.26149200  0.50000000  1
  U  U6  1  0.88224000  0.23850800  0.00000000  1
  U  U7  1  0.11776000  0.76149200  0.00000000  1
  U  U8  1  0.73850800  0.38224000  0.50000000  1
  U  U9  1  0.26149200  0.61776000  0.50000000  1
  U  U10  1  0.23850800  0.11776000  0.00000000  1
  U  U11  1  0.76149200  0.88224000  0.00000000  1
  U  U12  1  0.00000000  0.50000000  0.25000000  1
  U  U13  1  0.50000000  0.00000000  0.75000000  1
  U  U14  1  0.50000000  0.00000000  0.25000000  1
  U  U15  1  0.00000000  0.50000000  0.75000000  1
  Pd  Pd16  1  0.93358000  0.63884200  0.50000000  1
  Pd  Pd17  1  0.06642000  0.36115800  0.50000000  1
  Pd  Pd18  1  0.56642000  0.13884200  0.00000000  1
  Pd  Pd19  1  0.43358000  0.86115800  0.00000000  1
  Pd  Pd20  1  0.63884200  0.06642000  0.50000000  1
  Pd  Pd21  1  0.36115800  0.93358000  0.50000000  1
  Pd  Pd22  1  0.13884200  0.43358000  0.00000000  1
  Pd  Pd23  1  0.86115800  0.56642000  0.00000000  1
  S  S24  1  0.77542400  0.59143000  0.36996100  1
  S  S25  1  0.22457600  0.40857000  0.36996100  1
  S  S26  1  0.72457600  0.09143000  0.86996100  1
  S  S27  1  0.27542400  0.90857000  0.86996100  1
  S  S28  1  0.59143000  0.22457600  0.36996100  1
  S  S29  1  0.40857000  0.77542400  0.36996100  1
  S  S30  1  0.09143000  0.27542400  0.86996100  1
  S  S31  1  0.90857000  0.72457600  0.86996100  1
  S  S32  1  0.22457600  0.40857000  0.63003900  1
  S  S33  1  0.77542400  0.59143000  0.63003900  1
  S  S34  1  0.27542400  0.90857000  0.13003900  1
  S  S35  1  0.72457600  0.09143000  0.13003900  1
  S  S36  1  0.40857000  0.77542400  0.63003900  1
  S  S37  1  0.59143000  0.22457600  0.63003900  1
  S  S38  1  0.90857000  0.72457600  0.13003900  1
  S  S39  1  0.09143000  0.27542400  0.13003900  1
  S  S40  1  0.58131200  0.79942200  0.13099200  1
  S  S41  1  0.41868800  0.20057800  0.13099200  1
  S  S42  1  0.91868800  0.29942200  0.63099200  1
  S  S43  1  0.08131200  0.70057800  0.63099200  1
  S  S44  1  0.79942200  0.41868800  0.13099200  1
  S  S45  1  0.20057800  0.58131200  0.13099200  1
  S  S46  1  0.29942200  0.08131200  0.63099200  1
  S  S47  1  0.70057800  0.91868800  0.63099200  1
  S  S48  1  0.41868800  0.20057800  0.86900800  1
  S  S49  1  0.58131200  0.79942200  0.86900800  1
  S  S50  1  0.08131200  0.70057800  0.36900800  1
  S  S51  1  0.91868800  0.29942200  0.36900800  1
  S  S52  1  0.20057800  0.58131200  0.86900800  1
  S  S53  1  0.79942200  0.41868800  0.86900800  1
  S  S54  1  0.70057800  0.91868800  0.36900800  1
  S  S55  1  0.29942200  0.08131200  0.36900800  1
  S  S56  1  0.50000000  0.50000000  0.50000000  1
  S  S57  1  0.00000000  0.00000000  0.00000000  1
