# generated using pymatgen
data_La2Ti2O7
_symmetry_space_group_name_H-M   'P 1'
_cell_length_a   5.60438500
_cell_length_b   7.79742300
_cell_length_c   26.23729900
_cell_angle_alpha   90.00000000
_cell_angle_beta   90.00000000
_cell_angle_gamma   90.00000000
_symmetry_Int_Tables_number   1
_chemical_formula_structural   La2Ti2O7
_chemical_formula_sum   'La16 Ti16 O56'
_cell_volume   1146.56368246
_cell_formula_units_Z   8
loop_
 _symmetry_equiv_pos_site_id
 _symmetry_equiv_pos_as_xyz
  1  'x, y, z'
loop_
 _atom_site_type_symbol
 _atom_site_label
 _atom_site_symmetry_multiplicity
 _atom_site_fract_x
 _atom_site_fract_y
 _atom_site_fract_z
 _atom_site_occupancy
  La  La0  1  0.70383600  0.62133100  0.05702300  1
  La  La1  1  0.20383600  0.37866900  0.94297700  1
  La  La2  1  0.70383600  0.87866900  0.55702300  1
  La  La3  1  0.20383600  0.12133100  0.44297700  1
  La  La4  1  0.25765500  0.62430200  0.19151600  1
  La  La5  1  0.75765500  0.37569800  0.80848400  1
  La  La6  1  0.25765500  0.87569800  0.69151600  1
  La  La7  1  0.75765500  0.12430200  0.30848400  1
  La  La8  1  0.75057500  0.62579700  0.29688500  1
  La  La9  1  0.25057500  0.37420300  0.70311500  1
  La  La10  1  0.75057500  0.87420300  0.79688500  1
  La  La11  1  0.25057500  0.12579700  0.20311500  1
  La  La12  1  0.15131800  0.62799300  0.46129900  1
  La  La13  1  0.65131800  0.37200700  0.53870100  1
  La  La14  1  0.15131800  0.87200700  0.96129900  1
  La  La15  1  0.65131800  0.12799300  0.03870100  1
  Ti  Ti16  1  0.21131500  0.88184100  0.08931700  1
  Ti  Ti17  1  0.71131500  0.11815900  0.91068300  1
  Ti  Ti18  1  0.21131500  0.61815900  0.58931700  1
  Ti  Ti19  1  0.71131500  0.38184100  0.41068300  1
  Ti  Ti20  1  0.74348600  0.87279800  0.18983100  1
  Ti  Ti21  1  0.24348600  0.12720200  0.81016900  1
  Ti  Ti22  1  0.74348600  0.62720200  0.68983100  1
  Ti  Ti23  1  0.24348600  0.37279800  0.31016900  1
  Ti  Ti24  1  0.24564200  0.87791400  0.31087200  1
  Ti  Ti25  1  0.74564200  0.12208600  0.68912800  1
  Ti  Ti26  1  0.24564200  0.62208600  0.81087200  1
  Ti  Ti27  1  0.74564200  0.37791400  0.18912800  1
  Ti  Ti28  1  0.70462500  0.87412100  0.41269400  1
  Ti  Ti29  1  0.20462500  0.12587900  0.58730600  1
  Ti  Ti30  1  0.70462500  0.62587900  0.91269400  1
  Ti  Ti31  1  0.20462500  0.37412100  0.08730600  1
  O  O32  1  0.41771800  0.39041000  0.03052900  1
  O  O33  1  0.91771800  0.60959000  0.96947100  1
  O  O34  1  0.41771800  0.10959000  0.53052900  1
  O  O35  1  0.91771800  0.89041000  0.46947100  1
  O  O36  1  0.92872800  0.35403000  0.05377800  1
  O  O37  1  0.42872800  0.64597000  0.94622200  1
  O  O38  1  0.92872800  0.14597000  0.55377800  1
  O  O39  1  0.42872800  0.85403000  0.44622200  1
  O  O40  1  0.29779400  0.12490600  0.09729100  1
  O  O41  1  0.79779400  0.87509400  0.90270900  1
  O  O42  1  0.29779400  0.37509400  0.59729100  1
  O  O43  1  0.79779400  0.62490600  0.40270900  1
  O  O44  1  0.55503000  0.42867700  0.13523100  1
  O  O45  1  0.05503000  0.57132300  0.86476900  1
  O  O46  1  0.55503000  0.07132300  0.63523100  1
  O  O47  1  0.05503000  0.92867700  0.36476900  1
  O  O48  1  0.06404300  0.35633400  0.15854000  1
  O  O49  1  0.56404300  0.64366600  0.84146000  1
  O  O50  1  0.06404300  0.14366600  0.65854000  1
  O  O51  1  0.56404300  0.85633400  0.34146000  1
  O  O52  1  0.70514500  0.12505300  0.19544900  1
  O  O53  1  0.33068100  0.12518500  0.29600000  1
  O  O54  1  0.20514500  0.87494700  0.80455100  1
  O  O55  1  0.20514500  0.62505300  0.30455100  1
  O  O56  1  0.49211900  0.40851300  0.23950200  1
  O  O57  1  0.99211900  0.59148700  0.76049800  1
  O  O58  1  0.49211900  0.09148700  0.73950200  1
  O  O59  1  0.99211900  0.90851300  0.26049800  1
  O  O60  1  0.99229300  0.34146600  0.26017700  1
  O  O61  1  0.49229300  0.65853400  0.73982300  1
  O  O62  1  0.99229300  0.15853400  0.76017700  1
  O  O63  1  0.49229300  0.84146600  0.23982300  1
  O  O64  1  0.43032600  0.85782200  0.03531900  1
  O  O65  1  0.93032600  0.14217800  0.96468100  1
  O  O66  1  0.43032600  0.64217800  0.53531900  1
  O  O67  1  0.93032600  0.35782200  0.46468100  1
  O  O68  1  0.94912700  0.89379300  0.04704600  1
  O  O69  1  0.44912700  0.10620700  0.95295400  1
  O  O70  1  0.94912700  0.60620700  0.54704600  1
  O  O71  1  0.44912700  0.39379300  0.45295400  1
  O  O72  1  0.17139800  0.62408900  0.09631400  1
  O  O73  1  0.67139800  0.37591100  0.90368600  1
  O  O74  1  0.17139800  0.87591100  0.59631400  1
  O  O75  1  0.67139800  0.12408900  0.40368600  1
  O  O76  1  0.55087700  0.82208400  0.13619900  1
  O  O77  1  0.05087700  0.17791600  0.86380100  1
  O  O78  1  0.55087700  0.67791600  0.63619900  1
  O  O79  1  0.05087700  0.32208400  0.36380100  1
  O  O80  1  0.06097000  0.89407000  0.15796800  1
  O  O81  1  0.56097000  0.10593000  0.84203200  1
  O  O82  1  0.06097000  0.60593000  0.65796800  1
  O  O83  1  0.56097000  0.39407000  0.34203200  1
  O  O84  1  0.83068100  0.62518500  0.20400000  1
  O  O85  1  0.33068100  0.37481500  0.79600000  1
  O  O86  1  0.83068100  0.87481500  0.70400000  1
  O  O87  1  0.70514500  0.37494700  0.69544900  1
