# generated using pymatgen
data_CsLa(TaBr3)6
_symmetry_space_group_name_H-M   'P 1'
_cell_length_a   10.03199653
_cell_length_b   10.03199653
_cell_length_c   18.74309900
_cell_angle_alpha   90.00000000
_cell_angle_beta   90.00000000
_cell_angle_gamma   120.00000350
_symmetry_Int_Tables_number   1
_chemical_formula_structural   CsLa(TaBr3)6
_chemical_formula_sum   'Cs2 La2 Ta12 Br36'
_cell_volume   1633.60390207
_cell_formula_units_Z   2
loop_
 _symmetry_equiv_pos_site_id
 _symmetry_equiv_pos_as_xyz
  1  'x, y, z'
loop_
 _atom_site_type_symbol
 _atom_site_label
 _atom_site_symmetry_multiplicity
 _atom_site_fract_x
 _atom_site_fract_y
 _atom_site_fract_z
 _atom_site_occupancy
  Cs  Cs0  1  0.33333300  0.66666700  0.75000000  1
  Cs  Cs1  1  0.66666700  0.33333300  0.25000000  1
  La  La2  1  0.66666700  0.33333300  0.75000000  1
  La  La3  1  0.33333300  0.66666700  0.25000000  1
  Ta  Ta4  1  0.85294300  0.03632900  0.56341500  1
  Ta  Ta5  1  0.14705700  0.96367100  0.43658500  1
  Ta  Ta6  1  0.96367100  0.81661300  0.56341500  1
  Ta  Ta7  1  0.85294300  0.81661300  0.93658500  1
  Ta  Ta8  1  0.03632900  0.18338700  0.43658500  1
  Ta  Ta9  1  0.14705700  0.18338700  0.06341500  1
  Ta  Ta10  1  0.18338700  0.14705700  0.56341500  1
  Ta  Ta11  1  0.96367100  0.14705700  0.93658500  1
  Ta  Ta12  1  0.81661300  0.85294300  0.43658500  1
  Ta  Ta13  1  0.03632900  0.85294300  0.06341500  1
  Ta  Ta14  1  0.18338700  0.03632900  0.93658500  1
  Ta  Ta15  1  0.81661300  0.96367100  0.06341500  1
  Br  Br16  1  0.63854100  0.07701400  0.65722100  1
  Br  Br17  1  0.36145900  0.92298600  0.34277900  1
  Br  Br18  1  0.92298600  0.56152700  0.65722100  1
  Br  Br19  1  0.63854100  0.56152700  0.84277900  1
  Br  Br20  1  0.07701400  0.43847300  0.34277900  1
  Br  Br21  1  0.36145900  0.43847300  0.15722100  1
  Br  Br22  1  0.43847300  0.36145900  0.65722100  1
  Br  Br23  1  0.92298600  0.36145900  0.84277900  1
  Br  Br24  1  0.56152700  0.63854100  0.34277900  1
  Br  Br25  1  0.07701400  0.63854100  0.15722100  1
  Br  Br26  1  0.43847300  0.07701400  0.84277900  1
  Br  Br27  1  0.56152700  0.92298600  0.15722100  1
  Br  Br28  1  0.04453700  0.22855600  0.65776000  1
  Br  Br29  1  0.95546300  0.77144400  0.34224000  1
  Br  Br30  1  0.77144400  0.81598100  0.65776000  1
  Br  Br31  1  0.04453700  0.81598100  0.84224000  1
  Br  Br32  1  0.22855600  0.18401900  0.34224000  1
  Br  Br33  1  0.95546300  0.18401900  0.15776000  1
  Br  Br34  1  0.18401900  0.95546300  0.65776000  1
  Br  Br35  1  0.77144400  0.95546300  0.84224000  1
  Br  Br36  1  0.81598100  0.04453700  0.34224000  1
  Br  Br37  1  0.22855600  0.04453700  0.15776000  1
  Br  Br38  1  0.18401900  0.22855600  0.84224000  1
  Br  Br39  1  0.81598100  0.77144400  0.15776000  1
  Br  Br40  1  0.27269700  0.41127900  0.50034100  1
  Br  Br41  1  0.72730300  0.58872100  0.49965900  1
  Br  Br42  1  0.58872100  0.86141700  0.50034100  1
  Br  Br43  1  0.27269700  0.86141700  0.99965900  1
  Br  Br44  1  0.41127900  0.13858300  0.49965900  1
  Br  Br45  1  0.72730300  0.13858300  0.00034100  1
  Br  Br46  1  0.13858300  0.72730300  0.50034100  1
  Br  Br47  1  0.58872100  0.72730300  0.99965900  1
  Br  Br48  1  0.86141700  0.27269700  0.49965900  1
  Br  Br49  1  0.41127900  0.27269700  0.00034100  1
  Br  Br50  1  0.13858300  0.41127900  0.99965900  1
  Br  Br51  1  0.86141700  0.58872100  0.00034100  1
