# generated using pymatgen
data_NiH10(SeO5)2
_symmetry_space_group_name_H-M   'P 1'
_cell_length_a   8.21463043
_cell_length_b   8.21463043
_cell_length_c   10.97082745
_cell_angle_alpha   58.09927254
_cell_angle_beta   58.09927254
_cell_angle_gamma   55.89538251
_symmetry_Int_Tables_number   1
_chemical_formula_structural   NiH10(SeO5)2
_chemical_formula_sum   'Ni2 H20 Se4 O20'
_cell_volume   491.21088922
_cell_formula_units_Z   2
loop_
 _symmetry_equiv_pos_site_id
 _symmetry_equiv_pos_as_xyz
  1  'x, y, z'
loop_
 _atom_site_type_symbol
 _atom_site_label
 _atom_site_symmetry_multiplicity
 _atom_site_fract_x
 _atom_site_fract_y
 _atom_site_fract_z
 _atom_site_occupancy
  Ni  Ni0  1  0.03414700  0.96585300  0.25000000  1
  Ni  Ni1  1  0.96585300  0.03414700  0.75000000  1
  H  H2  1  0.95244300  0.41659300  0.76828600  1
  H  H3  1  0.58340700  0.04755700  0.73171400  1
  H  H4  1  0.04755700  0.58340700  0.23171400  1
  H  H5  1  0.41659300  0.95244300  0.26828600  1
  H  H6  1  0.62976400  0.24911600  0.33393400  1
  H  H7  1  0.75088400  0.37023600  0.16606600  1
  H  H8  1  0.37023600  0.75088400  0.66606600  1
  H  H9  1  0.24911600  0.62976400  0.83393400  1
  H  H10  1  0.31835600  0.56941400  0.33694200  1
  H  H11  1  0.43058600  0.68164400  0.16305800  1
  H  H12  1  0.68164400  0.43058600  0.66305800  1
  H  H13  1  0.56941400  0.31835600  0.83694200  1
  H  H14  1  0.29359200  0.26319500  0.47497600  1
  H  H15  1  0.73680500  0.70640800  0.02502400  1
  H  H16  1  0.70640800  0.73680500  0.52502400  1
  H  H17  1  0.26319500  0.29359200  0.97497600  1
  H  H18  1  0.39763500  0.26244700  0.56252700  1
  H  H19  1  0.73755300  0.60236500  0.93747300  1
  H  H20  1  0.60236500  0.73755300  0.43747300  1
  H  H21  1  0.26244700  0.39763500  0.06252700  1
  Se  Se22  1  0.98936100  0.74479300  0.60694800  1
  Se  Se23  1  0.25520700  0.01063900  0.89305200  1
  Se  Se24  1  0.01063900  0.25520700  0.39305200  1
  Se  Se25  1  0.74479300  0.98936100  0.10694800  1
  O  O26  1  0.94079200  0.83788900  0.18368600  1
  O  O27  1  0.16211100  0.05920800  0.31631400  1
  O  O28  1  0.05920800  0.16211000  0.81631400  1
  O  O29  1  0.83788900  0.94079200  0.68368600  1
  O  O30  1  0.88397500  0.82687800  0.47618400  1
  O  O31  1  0.17312200  0.11602500  0.02381600  1
  O  O32  1  0.11602500  0.17312200  0.52381600  1
  O  O33  1  0.82687800  0.88397500  0.97618400  1
  O  O34  1  0.86171000  0.56894400  0.76133700  1
  O  O35  1  0.43105600  0.13829000  0.73866300  1
  O  O36  1  0.13829000  0.43105600  0.23866300  1
  O  O37  1  0.56894400  0.86171000  0.26133700  1
  O  O38  1  0.76661000  0.23339000  0.25000000  1
  O  O39  1  0.23339000  0.76661000  0.75000000  1
  O  O40  1  0.29874500  0.70125500  0.25000000  1
  O  O41  1  0.70125500  0.29874500  0.75000000  1
  O  O42  1  0.38485600  0.32018600  0.46091900  1
  O  O43  1  0.67981400  0.61514400  0.03908100  1
  O  O44  1  0.61514400  0.67981400  0.53908100  1
  O  O45  1  0.32018600  0.38485600  0.96091900  1
