# generated using pymatgen
data_RbMoPO6
_symmetry_space_group_name_H-M   'P 1'
_cell_length_a   10.26607118
_cell_length_b   9.82243595
_cell_length_c   8.47522280
_cell_angle_alpha   67.79667108
_cell_angle_beta   62.35497818
_cell_angle_gamma   49.84835074
_symmetry_Int_Tables_number   1
_chemical_formula_structural   RbMoPO6
_chemical_formula_sum   'Rb4 Mo4 P4 O24'
_cell_volume   574.72773123
_cell_formula_units_Z   4
loop_
 _symmetry_equiv_pos_site_id
 _symmetry_equiv_pos_as_xyz
  1  'x, y, z'
loop_
 _atom_site_type_symbol
 _atom_site_label
 _atom_site_symmetry_multiplicity
 _atom_site_fract_x
 _atom_site_fract_y
 _atom_site_fract_z
 _atom_site_occupancy
  Rb  Rb0  1  0.79655500  0.20344500  0.20344500  1
  Rb  Rb1  1  0.20344500  0.79655500  0.79655500  1
  Rb  Rb2  1  0.45344500  0.04655500  0.04655500  1
  Rb  Rb3  1  0.04655500  0.45344500  0.45344500  1
  Mo  Mo4  1  0.96896800  0.53103200  0.96896800  1
  Mo  Mo5  1  0.53103200  0.96896800  0.53103200  1
  Mo  Mo6  1  0.28103200  0.71896800  0.28103200  1
  Mo  Mo7  1  0.71896800  0.28103200  0.71896800  1
  P  P8  1  0.36750800  0.36750800  0.63249200  1
  P  P9  1  0.63249200  0.63249200  0.36750800  1
  P  P10  1  0.88249200  0.88249200  0.61750800  1
  P  P11  1  0.61750800  0.61750800  0.88249200  1
  O  O12  1  0.16154100  0.45539500  0.73035500  1
  O  O13  1  0.65270900  0.73035500  0.45539500  1
  O  O14  1  0.73035500  0.65270900  0.16154100  1
  O  O15  1  0.45539500  0.16154100  0.65270900  1
  O  O16  1  0.08845900  0.79460500  0.51964500  1
  O  O17  1  0.59729100  0.51964500  0.79460500  1
  O  O18  1  0.51964500  0.59729100  0.08845900  1
  O  O19  1  0.79460500  0.08845900  0.59729100  1
  O  O20  1  0.44462300  0.39383600  0.72708700  1
  O  O21  1  0.43445300  0.72708700  0.39383600  1
  O  O22  1  0.72708700  0.43445300  0.44462300  1
  O  O23  1  0.39383600  0.44462300  0.43445300  1
  O  O24  1  0.80537700  0.85616400  0.52291300  1
  O  O25  1  0.81554700  0.52291300  0.85616400  1
  O  O26  1  0.52291300  0.81554700  0.80537700  1
  O  O27  1  0.85616400  0.80537700  0.81554700  1
  O  O28  1  0.07343200  0.57125100  0.04007200  1
  O  O29  1  0.31524500  0.04007200  0.57125100  1
  O  O30  1  0.04007200  0.31524500  0.07343200  1
  O  O31  1  0.57125100  0.07343200  0.31524500  1
  O  O32  1  0.17656800  0.67874900  0.20992800  1
  O  O33  1  0.93475500  0.20992800  0.67874900  1
  O  O34  1  0.20992800  0.93475500  0.17656800  1
  O  O35  1  0.67874900  0.17656800  0.93475500  1
