# generated using pymatgen
data_Rb2LuSi4O10F
_symmetry_space_group_name_H-M   'P 1'
_cell_length_a   8.63635900
_cell_length_b   11.80032400
_cell_length_c   11.94651518
_cell_angle_alpha   68.26336827
_cell_angle_beta   90.00000000
_cell_angle_gamma   90.00000000
_symmetry_Int_Tables_number   1
_chemical_formula_structural   Rb2LuSi4O10F
_chemical_formula_sum   'Rb8 Lu4 Si16 O40 F4'
_cell_volume   1130.92275995
_cell_formula_units_Z   4
loop_
 _symmetry_equiv_pos_site_id
 _symmetry_equiv_pos_as_xyz
  1  'x, y, z'
loop_
 _atom_site_type_symbol
 _atom_site_label
 _atom_site_symmetry_multiplicity
 _atom_site_fract_x
 _atom_site_fract_y
 _atom_site_fract_z
 _atom_site_occupancy
  Rb  Rb0  1  0.75000000  0.55331600  0.54995300  1
  Rb  Rb1  1  0.25000000  0.44668400  0.45004700  1
  Rb  Rb2  1  0.25000000  0.91799400  0.07912500  1
  Rb  Rb3  1  0.75000000  0.08200600  0.92087500  1
  Rb  Rb4  1  0.75000000  0.00049300  0.52867600  1
  Rb  Rb5  1  0.25000000  0.99950700  0.47132400  1
  Rb  Rb6  1  0.25000000  0.53560100  0.03141200  1
  Rb  Rb7  1  0.75000000  0.46439900  0.96858800  1
  Lu  Lu8  1  0.00357500  0.70654600  0.70947500  1
  Lu  Lu9  1  0.50357500  0.29345400  0.29052500  1
  Lu  Lu10  1  0.99642500  0.29345400  0.29052500  1
  Lu  Lu11  1  0.49642500  0.70654600  0.70947500  1
  Si  Si12  1  0.93733500  0.61283300  0.22961400  1
  Si  Si13  1  0.43733500  0.38716700  0.77038600  1
  Si  Si14  1  0.06266500  0.38716700  0.77038600  1
  Si  Si15  1  0.56266500  0.61283300  0.22961400  1
  Si  Si16  1  0.06869000  0.98113700  0.75555900  1
  Si  Si17  1  0.56869000  0.01886300  0.24444100  1
  Si  Si18  1  0.93131000  0.01886300  0.24444100  1
  Si  Si19  1  0.43131000  0.98113700  0.75555900  1
  Si  Si20  1  0.43345700  0.75695000  0.38409200  1
  Si  Si21  1  0.93345700  0.24305000  0.61590800  1
  Si  Si22  1  0.56654300  0.24305000  0.61590800  1
  Si  Si23  1  0.06654300  0.75695000  0.38409200  1
  Si  Si24  1  0.93209900  0.77489500  0.96360700  1
  Si  Si25  1  0.43209900  0.22510500  0.03639300  1
  Si  Si26  1  0.06790100  0.22510500  0.03639300  1
  Si  Si27  1  0.56790100  0.77489500  0.96360700  1
  O  O28  1  0.75000000  0.59820000  0.22100200  1
  O  O29  1  0.25000000  0.40180000  0.77899800  1
  O  O30  1  0.75000000  0.27367000  0.63276000  1
  O  O31  1  0.25000000  0.72633000  0.36724000  1
  O  O32  1  0.99435100  0.72553400  0.10478100  1
  O  O33  1  0.49435100  0.27446600  0.89521900  1
  O  O34  1  0.00564900  0.27446600  0.89521900  1
  O  O35  1  0.50564900  0.72553400  0.10478100  1
  O  O36  1  0.96904700  0.65823200  0.34314400  1
  O  O37  1  0.46904700  0.34176800  0.65685600  1
  O  O38  1  0.03095300  0.34176800  0.65685600  1
  O  O39  1  0.53095300  0.65823200  0.34314400  1
  O  O40  1  0.25000000  0.02666500  0.74904600  1
  O  O41  1  0.75000000  0.97333500  0.25095400  1
  O  O42  1  0.96075800  0.10486700  0.71838700  1
  O  O43  1  0.46075800  0.89513300  0.28161300  1
  O  O44  1  0.03924200  0.89513300  0.28161300  1
  O  O45  1  0.53924200  0.10486700  0.71838700  1
  O  O46  1  0.02820200  0.90550700  0.90039000  1
  O  O47  1  0.52820200  0.09449300  0.09961000  1
  O  O48  1  0.97179800  0.09449300  0.09961000  1
  O  O49  1  0.47179800  0.90550700  0.90039000  1
  O  O50  1  0.75000000  0.81714500  0.96324700  1
  O  O51  1  0.25000000  0.18285500  0.03675300  1
  O  O52  1  0.02701000  0.48842600  0.24844300  1
  O  O53  1  0.52701000  0.51157400  0.75155700  1
  O  O54  1  0.97299000  0.51157400  0.75155700  1
  O  O55  1  0.47299000  0.48842600  0.24844300  1
  O  O56  1  0.03186400  0.90241800  0.67499100  1
  O  O57  1  0.53186400  0.09758200  0.32500900  1
  O  O58  1  0.96813600  0.09758200  0.32500900  1
  O  O59  1  0.46813600  0.90241800  0.67499100  1
  O  O60  1  0.96227900  0.67986100  0.89964000  1
  O  O61  1  0.46227900  0.32013900  0.10036000  1
  O  O62  1  0.03772100  0.32013900  0.10036000  1
  O  O63  1  0.53772100  0.67986100  0.89964000  1
  O  O64  1  0.02224900  0.74565700  0.51714600  1
  O  O65  1  0.52224900  0.25434300  0.48285400  1
  O  O66  1  0.97775100  0.25434300  0.48285400  1
  O  O67  1  0.47775100  0.74565700  0.51714600  1
  F  F68  1  0.75000000  0.72973900  0.67897100  1
  F  F69  1  0.25000000  0.27026100  0.32102900  1
  F  F70  1  0.25000000  0.68182100  0.74628300  1
  F  F71  1  0.75000000  0.31817900  0.25371700  1
