# generated using pymatgen
data_Dy4MgRu
_symmetry_space_group_name_H-M   'P 1'
_cell_length_a   9.71008931
_cell_length_b   9.71008931
_cell_length_c   9.71008931
_cell_angle_alpha   60.00000000
_cell_angle_beta   60.00000000
_cell_angle_gamma   60.00000000
_symmetry_Int_Tables_number   1
_chemical_formula_structural   Dy4MgRu
_chemical_formula_sum   'Dy16 Mg4 Ru4'
_cell_volume   647.37313962
_cell_formula_units_Z   4
loop_
 _symmetry_equiv_pos_site_id
 _symmetry_equiv_pos_as_xyz
  1  'x, y, z'
loop_
 _atom_site_type_symbol
 _atom_site_label
 _atom_site_symmetry_multiplicity
 _atom_site_fract_x
 _atom_site_fract_y
 _atom_site_fract_z
 _atom_site_occupancy
  Dy  Dy0  1  0.34397300  0.34397300  0.34397300  1
  Dy  Dy1  1  0.34397300  0.34397300  0.96808100  1
  Dy  Dy2  1  0.34397300  0.96808100  0.34397300  1
  Dy  Dy3  1  0.96808100  0.34397300  0.34397300  1
  Dy  Dy4  1  0.81366900  0.18633100  0.18633100  1
  Dy  Dy5  1  0.18633100  0.81366900  0.81366900  1
  Dy  Dy6  1  0.18633100  0.81366900  0.18633100  1
  Dy  Dy7  1  0.81366900  0.18633100  0.81366900  1
  Dy  Dy8  1  0.18633100  0.18633100  0.81366900  1
  Dy  Dy9  1  0.81366900  0.81366900  0.18633100  1
  Dy  Dy10  1  0.93720500  0.56279500  0.56279500  1
  Dy  Dy11  1  0.56279500  0.93720500  0.93720500  1
  Dy  Dy12  1  0.56279500  0.93720500  0.56279500  1
  Dy  Dy13  1  0.93720500  0.56279500  0.93720500  1
  Dy  Dy14  1  0.56279500  0.56279500  0.93720500  1
  Dy  Dy15  1  0.93720500  0.93720500  0.56279500  1
  Mg  Mg16  1  0.57905600  0.57905600  0.57905600  1
  Mg  Mg17  1  0.57905600  0.57905600  0.26283100  1
  Mg  Mg18  1  0.57905600  0.26283100  0.57905600  1
  Mg  Mg19  1  0.26283100  0.57905600  0.57905600  1
  Ru  Ru20  1  0.13936600  0.13936600  0.13936600  1
  Ru  Ru21  1  0.13936600  0.13936600  0.58190300  1
  Ru  Ru22  1  0.13936600  0.58190300  0.13936600  1
  Ru  Ru23  1  0.58190300  0.13936600  0.13936600  1
