# generated using pymatgen
data_Rb2Mn2Be3F12
_symmetry_space_group_name_H-M   'P 1'
_cell_length_a   10.42428800
_cell_length_b   10.42428800
_cell_length_c   10.42428800
_cell_angle_alpha   90.00000000
_cell_angle_beta   90.00000000
_cell_angle_gamma   90.00000000
_symmetry_Int_Tables_number   1
_chemical_formula_structural   Rb2Mn2Be3F12
_chemical_formula_sum   'Rb8 Mn8 Be12 F48'
_cell_volume   1132.76338966
_cell_formula_units_Z   4
loop_
 _symmetry_equiv_pos_site_id
 _symmetry_equiv_pos_as_xyz
  1  'x, y, z'
loop_
 _atom_site_type_symbol
 _atom_site_label
 _atom_site_symmetry_multiplicity
 _atom_site_fract_x
 _atom_site_fract_y
 _atom_site_fract_z
 _atom_site_occupancy
  Rb  Rb0  1  0.04879400  0.04879400  0.04879400  1
  Rb  Rb1  1  0.45120600  0.95120600  0.54879400  1
  Rb  Rb2  1  0.95120600  0.54879400  0.45120600  1
  Rb  Rb3  1  0.54879400  0.45120600  0.95120600  1
  Rb  Rb4  1  0.81601500  0.81601500  0.81601500  1
  Rb  Rb5  1  0.68398500  0.18398500  0.31601500  1
  Rb  Rb6  1  0.18398500  0.31601500  0.68398500  1
  Rb  Rb7  1  0.31601500  0.68398500  0.18398500  1
  Mn  Mn8  1  0.33445800  0.33445800  0.33445800  1
  Mn  Mn9  1  0.16554200  0.66554200  0.83445800  1
  Mn  Mn10  1  0.66554200  0.83445800  0.16554200  1
  Mn  Mn11  1  0.83445800  0.16554200  0.66554200  1
  Mn  Mn12  1  0.59772100  0.59772100  0.59772100  1
  Mn  Mn13  1  0.90227900  0.40227900  0.09772100  1
  Mn  Mn14  1  0.40227900  0.09772100  0.90227900  1
  Mn  Mn15  1  0.09772100  0.90227900  0.40227900  1
  Be  Be16  1  0.01903900  0.21532100  0.37570300  1
  Be  Be17  1  0.48096100  0.78467900  0.87570300  1
  Be  Be18  1  0.98096100  0.71532100  0.12429700  1
  Be  Be19  1  0.37570300  0.01903900  0.21532100  1
  Be  Be20  1  0.51903900  0.28467900  0.62429700  1
  Be  Be21  1  0.87570300  0.48096100  0.78467900  1
  Be  Be22  1  0.12429700  0.98096100  0.71532100  1
  Be  Be23  1  0.62429700  0.51903900  0.28467900  1
  Be  Be24  1  0.21532100  0.37570300  0.01903900  1
  Be  Be25  1  0.71532100  0.12429700  0.98096100  1
  Be  Be26  1  0.28467900  0.62429700  0.51903900  1
  Be  Be27  1  0.78467900  0.87570300  0.48096100  1
  F  F28  1  0.01122200  0.07291400  0.32919900  1
  F  F29  1  0.48877800  0.92708600  0.82919900  1
  F  F30  1  0.98877800  0.57291400  0.17080100  1
  F  F31  1  0.32919900  0.01122200  0.07291400  1
  F  F32  1  0.51122200  0.42708600  0.67080100  1
  F  F33  1  0.82919900  0.48877800  0.92708600  1
  F  F34  1  0.17080100  0.98877800  0.57291400  1
  F  F35  1  0.67080100  0.51122200  0.42708600  1
  F  F36  1  0.07291400  0.32919900  0.01122200  1
  F  F37  1  0.57291400  0.17080100  0.98877800  1
  F  F38  1  0.42708600  0.67080100  0.51122200  1
  F  F39  1  0.92708600  0.82919900  0.48877800  1
  F  F40  1  0.26566200  0.49817400  0.43929400  1
  F  F41  1  0.23433800  0.50182600  0.93929400  1
  F  F42  1  0.73433800  0.99817400  0.06070600  1
  F  F43  1  0.43929400  0.26566200  0.49817400  1
  F  F44  1  0.76566200  0.00182600  0.56070600  1
  F  F45  1  0.93929400  0.23433800  0.50182600  1
  F  F46  1  0.06070600  0.73433800  0.99817400  1
  F  F47  1  0.56070600  0.76566200  0.00182600  1
  F  F48  1  0.49817400  0.43929400  0.26566200  1
  F  F49  1  0.99817400  0.06070600  0.73433800  1
  F  F50  1  0.00182600  0.56070600  0.76566200  1
  F  F51  1  0.50182600  0.93929400  0.23433800  1
  F  F52  1  0.04447200  0.80482900  0.22766500  1
  F  F53  1  0.45552800  0.19517100  0.72766500  1
  F  F54  1  0.95552800  0.30482900  0.27233500  1
  F  F55  1  0.22766500  0.04447200  0.80482900  1
  F  F56  1  0.54447200  0.69517100  0.77233500  1
  F  F57  1  0.72766500  0.45552800  0.19517100  1
  F  F58  1  0.27233500  0.95552800  0.30482900  1
  F  F59  1  0.77233500  0.54447200  0.69517100  1
  F  F60  1  0.80482900  0.22766500  0.04447200  1
  F  F61  1  0.30482900  0.27233500  0.95552800  1
  F  F62  1  0.69517100  0.77233500  0.54447200  1
  F  F63  1  0.19517100  0.72766500  0.45552800  1
  F  F64  1  0.15994400  0.25524700  0.40263500  1
  F  F65  1  0.34005600  0.74475300  0.90263500  1
  F  F66  1  0.84005600  0.75524700  0.09736500  1
  F  F67  1  0.40263500  0.15994400  0.25524700  1
  F  F68  1  0.65994400  0.24475300  0.59736500  1
  F  F69  1  0.90263500  0.34005600  0.74475300  1
  F  F70  1  0.09736500  0.84005600  0.75524700  1
  F  F71  1  0.59736500  0.65994400  0.24475300  1
  F  F72  1  0.25524700  0.40263500  0.15994400  1
  F  F73  1  0.75524700  0.09736500  0.84005600  1
  F  F74  1  0.24475300  0.59736500  0.65994400  1
  F  F75  1  0.74475300  0.90263500  0.34005600  1
