# generated using pymatgen
data_Tb(BIr)2
_symmetry_space_group_name_H-M   'P 1'
_cell_length_a   7.20081828
_cell_length_b   6.20071275
_cell_length_c   5.49682783
_cell_angle_alpha   75.72201426
_cell_angle_beta   56.56515888
_cell_angle_gamma   47.71282686
_symmetry_Int_Tables_number   1
_chemical_formula_structural   Tb(BIr)2
_chemical_formula_sum   'Tb2 B4 Ir4'
_cell_volume   148.42769512
_cell_formula_units_Z   2
loop_
 _symmetry_equiv_pos_site_id
 _symmetry_equiv_pos_as_xyz
  1  'x, y, z'
loop_
 _atom_site_type_symbol
 _atom_site_label
 _atom_site_symmetry_multiplicity
 _atom_site_fract_x
 _atom_site_fract_y
 _atom_site_fract_z
 _atom_site_occupancy
  Tb  Tb0  1  0.50000000  0.50000000  0.50000000  1
  Tb  Tb1  1  0.75000000  0.75000000  0.75000000  1
  B  B2  1  0.18004300  0.81995700  0.18004300  1
  B  B3  1  0.06995700  0.43004300  0.06995700  1
  B  B4  1  0.81995700  0.18004200  0.81995700  1
  B  B5  1  0.43004300  0.06995700  0.43004300  1
  Ir  Ir6  1  0.87314800  0.87314800  0.12685200  1
  Ir  Ir7  1  0.12685200  0.12685200  0.87314800  1
  Ir  Ir8  1  0.37685200  0.37685200  0.12314800  1
  Ir  Ir9  1  0.12314800  0.12314800  0.37685200  1
