# generated using pymatgen
data_TaGa3
_symmetry_space_group_name_H-M   'P 1'
_cell_length_a   5.15359908
_cell_length_b   5.15359908
_cell_length_c   5.15359908
_cell_angle_alpha   136.35641008
_cell_angle_beta   136.35641008
_cell_angle_gamma   63.42979838
_symmetry_Int_Tables_number   1
_chemical_formula_structural   TaGa3
_chemical_formula_sum   'Ta1 Ga3'
_cell_volume   64.35606118
_cell_formula_units_Z   1
loop_
 _symmetry_equiv_pos_site_id
 _symmetry_equiv_pos_as_xyz
  1  'x, y, z'
loop_
 _atom_site_type_symbol
 _atom_site_label
 _atom_site_symmetry_multiplicity
 _atom_site_fract_x
 _atom_site_fract_y
 _atom_site_fract_z
 _atom_site_occupancy
  Ta  Ta0  1  0.00000000  0.00000000  0.00000000  1
  Ga  Ga1  1  0.50000000  0.50000000  0.00000000  1
  Ga  Ga2  1  0.75000000  0.25000000  0.50000000  1
  Ga  Ga3  1  0.25000000  0.75000000  0.50000000  1
