# generated using pymatgen
data_Sr3DyRhO6
_symmetry_space_group_name_H-M   'P 1'
_cell_length_a   6.86007896
_cell_length_b   6.86007896
_cell_length_c   6.86007862
_cell_angle_alpha   92.14819622
_cell_angle_beta   92.14819622
_cell_angle_gamma   92.14820596
_symmetry_Int_Tables_number   1
_chemical_formula_structural   Sr3DyRhO6
_chemical_formula_sum   'Sr6 Dy2 Rh2 O12'
_cell_volume   322.14180572
_cell_formula_units_Z   2
loop_
 _symmetry_equiv_pos_site_id
 _symmetry_equiv_pos_as_xyz
  1  'x, y, z'
loop_
 _atom_site_type_symbol
 _atom_site_label
 _atom_site_symmetry_multiplicity
 _atom_site_fract_x
 _atom_site_fract_y
 _atom_site_fract_z
 _atom_site_occupancy
  Sr  Sr0  1  0.88125600  0.61874400  0.25000000  1
  Sr  Sr1  1  0.61874400  0.25000000  0.88125600  1
  Sr  Sr2  1  0.25000000  0.88125600  0.61874400  1
  Sr  Sr3  1  0.11874400  0.38125600  0.75000000  1
  Sr  Sr4  1  0.75000000  0.11874400  0.38125600  1
  Sr  Sr5  1  0.38125600  0.75000000  0.11874400  1
  Dy  Dy6  1  0.75000000  0.75000000  0.75000000  1
  Dy  Dy7  1  0.25000000  0.25000000  0.25000000  1
  Rh  Rh8  1  0.50000000  0.50000000  0.50000000  1
  Rh  Rh9  1  0.00000000  0.00000000  0.00000000  1
  O  O10  1  0.59046200  0.79214100  0.45636900  1
  O  O11  1  0.45636900  0.59046200  0.79214100  1
  O  O12  1  0.79214100  0.45636900  0.59046200  1
  O  O13  1  0.90953800  0.04363100  0.70785900  1
  O  O14  1  0.70785900  0.90953800  0.04363100  1
  O  O15  1  0.04363100  0.70785900  0.90953800  1
  O  O16  1  0.40953800  0.20785900  0.54363100  1
  O  O17  1  0.54363100  0.40953800  0.20785900  1
  O  O18  1  0.20785900  0.54363100  0.40953800  1
  O  O19  1  0.09046200  0.95636900  0.29214100  1
  O  O20  1  0.95636900  0.29214100  0.09046200  1
  O  O21  1  0.29214100  0.09046200  0.95636900  1
