# generated using pymatgen
data_H24Pt(N4Cl)2
_symmetry_space_group_name_H-M   'P 1'
_cell_length_a   8.23170300
_cell_length_b   10.64498600
_cell_length_c   10.97363748
_cell_angle_alpha   90.00000000
_cell_angle_beta   125.53753516
_cell_angle_gamma   90.00000000
_symmetry_Int_Tables_number   1
_chemical_formula_structural   H24Pt(N4Cl)2
_chemical_formula_sum   'H48 Pt2 N16 Cl4'
_cell_volume   782.47117680
_cell_formula_units_Z   2
loop_
 _symmetry_equiv_pos_site_id
 _symmetry_equiv_pos_as_xyz
  1  'x, y, z'
loop_
 _atom_site_type_symbol
 _atom_site_label
 _atom_site_symmetry_multiplicity
 _atom_site_fract_x
 _atom_site_fract_y
 _atom_site_fract_z
 _atom_site_occupancy
  H  H0  1  0.33692700  0.13626900  0.09856800  1
  H  H1  1  0.33692700  0.36373100  0.59856800  1
  H  H2  1  0.66307300  0.86373100  0.90143200  1
  H  H3  1  0.66307300  0.63626900  0.40143200  1
  H  H4  1  0.33922800  0.21943100  0.97139300  1
  H  H5  1  0.33922800  0.28056900  0.47139300  1
  H  H6  1  0.66077200  0.78056900  0.02860700  1
  H  H7  1  0.66077200  0.71943100  0.52860700  1
  H  H8  1  0.20305900  0.11028100  0.76016400  1
  H  H9  1  0.20305900  0.38971900  0.26016400  1
  H  H10  1  0.79694100  0.88971900  0.23983600  1
  H  H11  1  0.79694100  0.61028100  0.73983600  1
  H  H12  1  0.16927700  0.82062200  0.08342800  1
  H  H13  1  0.16927700  0.67937800  0.58342800  1
  H  H14  1  0.83072300  0.17937800  0.91657200  1
  H  H15  1  0.83072300  0.32062200  0.41657200  1
  H  H16  1  0.13176700  0.96701900  0.77465000  1
  H  H17  1  0.13176700  0.53298100  0.27465000  1
  H  H18  1  0.86823300  0.03298100  0.22535000  1
  H  H19  1  0.86823300  0.46701900  0.72535000  1
  H  H20  1  0.54502400  0.21075800  0.14770900  1
  H  H21  1  0.54502400  0.28924200  0.64770900  1
  H  H22  1  0.45497600  0.78924200  0.85229100  1
  H  H23  1  0.45497600  0.71075800  0.35229100  1
  H  H24  1  0.54372600  0.09676600  0.40054600  1
  H  H25  1  0.54372600  0.40323400  0.90054600  1
  H  H26  1  0.45627400  0.90323400  0.59945400  1
  H  H27  1  0.45627400  0.59676600  0.09945400  1
  H  H28  1  0.22188900  0.91454800  0.21848500  1
  H  H29  1  0.22188900  0.58545200  0.71848500  1
  H  H30  1  0.77811100  0.08545200  0.78151500  1
  H  H31  1  0.77811100  0.41454800  0.28151500  1
  H  H32  1  0.10252100  0.78342800  0.19256800  1
  H  H33  1  0.10252100  0.71657200  0.69256800  1
  H  H34  1  0.89747900  0.21657200  0.80743200  1
  H  H35  1  0.89747900  0.28342800  0.30743200  1
  H  H36  1  0.26666800  0.98435500  0.70472600  1
  H  H37  1  0.26666800  0.51564500  0.20472600  1
  H  H38  1  0.73333200  0.01564500  0.29527400  1
  H  H39  1  0.73333200  0.48435500  0.79527400  1
  H  H40  1  0.71795000  0.99970600  0.52466900  1
  H  H41  1  0.71795000  0.50029400  0.02466900  1
  H  H42  1  0.28205000  0.00029400  0.47533100  1
  H  H43  1  0.28205000  0.49970600  0.97533100  1
  H  H44  1  0.77500800  0.14383500  0.51160800  1
  H  H45  1  0.77500800  0.35616500  0.01160800  1
  H  H46  1  0.22499200  0.85616500  0.48839200  1
  H  H47  1  0.22499200  0.64383500  0.98839200  1
  Pt  Pt48  1  0.50000000  0.00000000  0.00000000  1
  Pt  Pt49  1  0.50000000  0.50000000  0.50000000  1
  N  N50  1  0.24588000  0.01744800  0.78470800  1
  N  N51  1  0.24588000  0.48255200  0.28470800  1
  N  N52  1  0.75412000  0.98255200  0.21529200  1
  N  N53  1  0.75412000  0.51744800  0.71529200  1
  N  N54  1  0.42320800  0.15973100  0.06209300  1
  N  N55  1  0.42320800  0.34026900  0.56209300  1
  N  N56  1  0.57679200  0.84026900  0.93790700  1
  N  N57  1  0.57679200  0.65973100  0.43790700  1
  N  N58  1  0.68855300  0.06905800  0.44929000  1
  N  N59  1  0.68855300  0.43094200  0.94929000  1
  N  N60  1  0.31144700  0.93094200  0.55071000  1
  N  N61  1  0.31144700  0.56905800  0.05071000  1
  N  N62  1  0.21730800  0.82128800  0.19292200  1
  N  N63  1  0.21730800  0.67871200  0.69292200  1
  N  N64  1  0.78269200  0.17871200  0.80707800  1
  N  N65  1  0.78269200  0.32128900  0.30707800  1
  Cl  Cl66  1  0.14617800  0.16940500  0.24800700  1
  Cl  Cl67  1  0.14617800  0.33059500  0.74800700  1
  Cl  Cl68  1  0.85382200  0.83059500  0.75199300  1
  Cl  Cl69  1  0.85382200  0.66940500  0.25199300  1
