# generated using pymatgen
data_AsH3OF6
_symmetry_space_group_name_H-M   'P 1'
_cell_length_a   5.05474400
_cell_length_b   6.53140251
_cell_length_c   7.87595264
_cell_angle_alpha   86.53919833
_cell_angle_beta   82.72120156
_cell_angle_gamma   81.85294363
_symmetry_Int_Tables_number   1
_chemical_formula_structural   AsH3OF6
_chemical_formula_sum   'As2 H6 O2 F12'
_cell_volume   255.08441215
_cell_formula_units_Z   2
loop_
 _symmetry_equiv_pos_site_id
 _symmetry_equiv_pos_as_xyz
  1  'x, y, z'
loop_
 _atom_site_type_symbol
 _atom_site_label
 _atom_site_symmetry_multiplicity
 _atom_site_fract_x
 _atom_site_fract_y
 _atom_site_fract_z
 _atom_site_occupancy
  As  As0  1  0.44094800  0.76717900  0.75875800  1
  As  As1  1  0.55905200  0.23282100  0.24124200  1
  H  H2  1  0.09487400  0.37140900  0.73276700  1
  H  H3  1  0.90512600  0.62859100  0.26723300  1
  H  H4  1  0.05463300  0.13334800  0.68588600  1
  H  H5  1  0.94536700  0.86665200  0.31411400  1
  H  H6  1  0.87741400  0.24421400  0.85484200  1
  H  H7  1  0.12258600  0.75578600  0.14515800  1
  O  O8  1  0.96471900  0.26859800  0.73478800  1
  O  O9  1  0.03528100  0.73140200  0.26521200  1
  F  F10  1  0.30986600  0.52962900  0.74031800  1
  F  F11  1  0.69013400  0.47037100  0.25968200  1
  F  F12  1  0.18257600  0.89910100  0.63722200  1
  F  F13  1  0.81742400  0.10089900  0.36277800  1
  F  F14  1  0.20232700  0.81551600  0.94713000  1
  F  F15  1  0.79767300  0.18448400  0.05287000  1
  F  F16  1  0.55254300  0.00643800  0.77878500  1
  F  F17  1  0.44745700  0.99356200  0.22121500  1
  F  F18  1  0.67898200  0.63855500  0.88596900  1
  F  F19  1  0.32101800  0.36144500  0.11403100  1
  F  F20  1  0.65654600  0.71898300  0.56920200  1
  F  F21  1  0.34345400  0.28101700  0.43079800  1
