# generated using pymatgen
data_K6CdTe4
_symmetry_space_group_name_H-M   'P 1'
_cell_length_a   11.15848074
_cell_length_b   11.15848074
_cell_length_c   8.52047100
_cell_angle_alpha   90.00000000
_cell_angle_beta   90.00000000
_cell_angle_gamma   120.00000438
_symmetry_Int_Tables_number   1
_chemical_formula_structural   K6CdTe4
_chemical_formula_sum   'K12 Cd2 Te8'
_cell_volume   918.76480704
_cell_formula_units_Z   2
loop_
 _symmetry_equiv_pos_site_id
 _symmetry_equiv_pos_as_xyz
  1  'x, y, z'
loop_
 _atom_site_type_symbol
 _atom_site_label
 _atom_site_symmetry_multiplicity
 _atom_site_fract_x
 _atom_site_fract_y
 _atom_site_fract_z
 _atom_site_occupancy
  K  K0  1  0.47427400  0.94854800  0.97557700  1
  K  K1  1  0.52572600  0.47427400  0.47557700  1
  K  K2  1  0.94854800  0.47427400  0.47557700  1
  K  K3  1  0.05145200  0.52572600  0.97557700  1
  K  K4  1  0.47427400  0.52572600  0.97557700  1
  K  K5  1  0.52572600  0.05145200  0.47557700  1
  K  K6  1  0.70083300  0.85041600  0.29791500  1
  K  K7  1  0.85041600  0.70083300  0.79791500  1
  K  K8  1  0.85041600  0.14958400  0.79791500  1
  K  K9  1  0.14958400  0.85041600  0.29791500  1
  K  K10  1  0.14958400  0.29916700  0.29791500  1
  K  K11  1  0.29916700  0.14958400  0.79791500  1
  Cd  Cd12  1  0.33333300  0.66666700  0.59502500  1
  Cd  Cd13  1  0.66666700  0.33333300  0.09502500  1
  Te  Te14  1  0.61945100  0.80972600  0.69936600  1
  Te  Te15  1  0.80972600  0.61945100  0.19936600  1
  Te  Te16  1  0.80972600  0.19027400  0.19936600  1
  Te  Te17  1  0.19027400  0.80972600  0.69936600  1
  Te  Te18  1  0.19027400  0.38054900  0.69936600  1
  Te  Te19  1  0.38054900  0.19027400  0.19936600  1
  Te  Te20  1  0.33333300  0.66666700  0.25192100  1
  Te  Te21  1  0.66666700  0.33333300  0.75192100  1
