# generated using pymatgen
data_Sm3PO7
_symmetry_space_group_name_H-M   'P 1'
_cell_length_a   9.22828568
_cell_length_b   9.22828568
_cell_length_c   12.23530775
_cell_angle_alpha   102.75353632
_cell_angle_beta   102.75353632
_cell_angle_gamma   90.91170344
_symmetry_Int_Tables_number   1
_chemical_formula_structural   Sm3PO7
_chemical_formula_sum   'Sm18 P6 O42'
_cell_volume   988.90326847
_cell_formula_units_Z   6
loop_
 _symmetry_equiv_pos_site_id
 _symmetry_equiv_pos_as_xyz
  1  'x, y, z'
loop_
 _atom_site_type_symbol
 _atom_site_label
 _atom_site_symmetry_multiplicity
 _atom_site_fract_x
 _atom_site_fract_y
 _atom_site_fract_z
 _atom_site_occupancy
  Sm  Sm0  1  0.32388600  0.01268600  0.91417300  1
  Sm  Sm1  1  0.01268600  0.32388600  0.91417300  1
  Sm  Sm2  1  0.68232900  0.29732800  0.68597800  1
  Sm  Sm3  1  0.29732800  0.68232900  0.68597800  1
  Sm  Sm4  1  0.66941100  0.32249500  0.99702000  1
  Sm  Sm5  1  0.32249500  0.66941100  0.99702000  1
  Sm  Sm6  1  0.65209600  0.96670400  0.79787500  1
  Sm  Sm7  1  0.96670400  0.65209600  0.79787500  1
  Sm  Sm8  1  0.66530300  0.01431700  0.13202400  1
  Sm  Sm9  1  0.01431700  0.66530300  0.13202400  1
  Sm  Sm10  1  0.31463500  0.96593000  0.23929000  1
  Sm  Sm11  1  0.96593000  0.31463500  0.23929000  1
  Sm  Sm12  1  0.32845000  0.01355000  0.57431700  1
  Sm  Sm13  1  0.01355000  0.32845000  0.57431700  1
  Sm  Sm14  1  0.65777200  0.30992300  0.37439400  1
  Sm  Sm15  1  0.30992300  0.65777200  0.37439400  1
  Sm  Sm16  1  0.65658000  0.96712000  0.45718500  1
  Sm  Sm17  1  0.96712000  0.65658000  0.45718500  1
  P  P18  1  0.65651000  0.65651000  0.95134100  1
  P  P19  1  0.98589900  0.98589900  0.36575200  1
  P  P20  1  0.32109300  0.32109300  0.41920000  1
  P  P21  1  0.32492100  0.32492100  0.79808800  1
  P  P22  1  0.99438300  0.99438300  0.00365200  1
  P  P23  1  0.65202700  0.65202700  0.57408100  1
  O  O24  1  0.38605600  0.93241700  0.74158700  1
  O  O25  1  0.93241700  0.38605600  0.74158700  1
  O  O26  1  0.41910400  0.41910400  0.36776600  1
  O  O27  1  0.69203500  0.69203500  0.46559700  1
  O  O28  1  0.48835400  0.29442600  0.79467200  1
  O  O29  1  0.29442600  0.48835400  0.79467200  1
  O  O30  1  0.70249900  0.27772800  0.18582100  1
  O  O31  1  0.27772800  0.70249900  0.18582100  1
  O  O32  1  0.56041400  0.56041400  0.00543700  1
  O  O33  1  0.42502000  0.23031700  0.49261700  1
  O  O34  1  0.23031700  0.42502000  0.49261700  1
  O  O35  1  0.08485400  0.08485400  0.47707900  1
  O  O36  1  0.59484000  0.04583900  0.63012100  1
  O  O37  1  0.04583900  0.59484000  0.63012100  1
  O  O38  1  0.21555200  0.21555200  0.31121600  1
  O  O39  1  0.89689300  0.89689300  0.89128500  1
  O  O40  1  0.77808800  0.20548300  0.84942600  1
  O  O41  1  0.20548300  0.77808800  0.84942600  1
  O  O42  1  0.41197000  0.91565400  0.07421000  1
  O  O43  1  0.91565400  0.41197000  0.07421000  1
  O  O44  1  0.29214700  0.29214700  0.91109100  1
  O  O45  1  0.56818100  0.06380500  0.29742800  1
  O  O46  1  0.06380500  0.56818100  0.29742800  1
  O  O47  1  0.87718100  0.87718100  0.39730600  1
  O  O48  1  0.75387100  0.75387100  0.68325800  1
  O  O49  1  0.21835400  0.21835400  0.69337100  1
  O  O50  1  0.10363700  0.10363700  0.97278400  1
  O  O51  1  0.76444200  0.76444200  0.05668900  1
  O  O52  1  0.55015000  0.74554700  0.87805100  1
  O  O53  1  0.74554700  0.55015000  0.87805100  1
  O  O54  1  0.48703600  0.68046300  0.57308000  1
  O  O55  1  0.68046300  0.48703600  0.57308000  1
  O  O56  1  0.57230900  0.08457200  0.96339100  1
  O  O57  1  0.08457200  0.57230900  0.96339100  1
  O  O58  1  0.40755800  0.89511100  0.40815400  1
  O  O59  1  0.89511100  0.40755800  0.40815400  1
  O  O60  1  0.77534300  0.20122100  0.52249000  1
  O  O61  1  0.20122100  0.77534300  0.52249000  1
  O  O62  1  0.88921800  0.08368500  0.29519800  1
  O  O63  1  0.08368500  0.88921800  0.29519800  1
  O  O64  1  0.89580700  0.09047100  0.07380100  1
  O  O65  1  0.09047100  0.89580700  0.07380100  1
