# generated using pymatgen
data_LiNbN2
_symmetry_space_group_name_H-M   'P 1'
_cell_length_a   4.25263900
_cell_length_b   6.17384100
_cell_length_c   7.41939400
_cell_angle_alpha   90.00000000
_cell_angle_beta   90.00000000
_cell_angle_gamma   90.00000000
_symmetry_Int_Tables_number   1
_chemical_formula_structural   LiNbN2
_chemical_formula_sum   'Li4 Nb4 N8'
_cell_volume   194.79705766
_cell_formula_units_Z   4
loop_
 _symmetry_equiv_pos_site_id
 _symmetry_equiv_pos_as_xyz
  1  'x, y, z'
loop_
 _atom_site_type_symbol
 _atom_site_label
 _atom_site_symmetry_multiplicity
 _atom_site_fract_x
 _atom_site_fract_y
 _atom_site_fract_z
 _atom_site_occupancy
  Li  Li0  1  0.75000000  0.57631700  0.60659400  1
  Li  Li1  1  0.25000000  0.42368300  0.39340600  1
  Li  Li2  1  0.25000000  0.92368300  0.10659400  1
  Li  Li3  1  0.75000000  0.07631700  0.89340600  1
  Nb  Nb4  1  0.75000000  0.57978000  0.13418600  1
  Nb  Nb5  1  0.25000000  0.42022000  0.86581400  1
  Nb  Nb6  1  0.25000000  0.92022000  0.63418600  1
  Nb  Nb7  1  0.75000000  0.07978000  0.36581400  1
  N  N8  1  0.25000000  0.59242400  0.64693000  1
  N  N9  1  0.75000000  0.40757600  0.35307000  1
  N  N10  1  0.75000000  0.90757600  0.14693000  1
  N  N11  1  0.25000000  0.09242400  0.85307000  1
  N  N12  1  0.25000000  0.58025400  0.10280400  1
  N  N13  1  0.75000000  0.41974600  0.89719600  1
  N  N14  1  0.75000000  0.91974600  0.60280400  1
  N  N15  1  0.25000000  0.08025400  0.39719600  1
