# generated using pymatgen
data_CsYCdSe3
_symmetry_space_group_name_H-M   'P 1'
_cell_length_a   8.46932576
_cell_length_b   8.46932576
_cell_length_c   11.22843500
_cell_angle_alpha   90.00000000
_cell_angle_beta   90.00000000
_cell_angle_gamma   150.52977012
_symmetry_Int_Tables_number   1
_chemical_formula_structural   CsYCdSe3
_chemical_formula_sum   'Cs2 Y2 Cd2 Se6'
_cell_volume   396.23847646
_cell_formula_units_Z   2
loop_
 _symmetry_equiv_pos_site_id
 _symmetry_equiv_pos_as_xyz
  1  'x, y, z'
loop_
 _atom_site_type_symbol
 _atom_site_label
 _atom_site_symmetry_multiplicity
 _atom_site_fract_x
 _atom_site_fract_y
 _atom_site_fract_z
 _atom_site_occupancy
  Cs  Cs0  1  0.74418400  0.25581600  0.25000000  1
  Cs  Cs1  1  0.25581600  0.74418400  0.75000000  1
  Y  Y2  1  0.00000000  0.00000000  0.50000000  1
  Y  Y3  1  0.00000000  0.00000000  0.00000000  1
  Cd  Cd4  1  0.46057500  0.53942500  0.25000000  1
  Cd  Cd5  1  0.53942500  0.46057500  0.75000000  1
  Se  Se6  1  0.06042600  0.93957400  0.25000000  1
  Se  Se7  1  0.93957400  0.06042600  0.75000000  1
  Se  Se8  1  0.61684100  0.38315900  0.54533200  1
  Se  Se9  1  0.61684100  0.38315900  0.95466800  1
  Se  Se10  1  0.38315900  0.61684100  0.04533200  1
  Se  Se11  1  0.38315900  0.61684100  0.45466800  1
