# generated using pymatgen
data_Rb2Mo(OF2)2
_symmetry_space_group_name_H-M   'P 1'
_cell_length_a   7.96043503
_cell_length_b   7.96043503
_cell_length_c   7.20446600
_cell_angle_alpha   90.00000000
_cell_angle_beta   90.00000000
_cell_angle_gamma   134.44955289
_symmetry_Int_Tables_number   1
_chemical_formula_structural   Rb2Mo(OF2)2
_chemical_formula_sum   'Rb4 Mo2 O4 F8'
_cell_volume   325.90640081
_cell_formula_units_Z   2
loop_
 _symmetry_equiv_pos_site_id
 _symmetry_equiv_pos_as_xyz
  1  'x, y, z'
loop_
 _atom_site_type_symbol
 _atom_site_label
 _atom_site_symmetry_multiplicity
 _atom_site_fract_x
 _atom_site_fract_y
 _atom_site_fract_z
 _atom_site_occupancy
  Rb  Rb0  1  0.44132700  0.55260900  0.25000000  1
  Rb  Rb1  1  0.55260900  0.44132700  0.75000000  1
  Rb  Rb2  1  0.75117700  0.22075500  0.25000000  1
  Rb  Rb3  1  0.22075500  0.75117700  0.75000000  1
  Mo  Mo4  1  0.11571000  0.88896000  0.25000000  1
  Mo  Mo5  1  0.88896000  0.11571000  0.75000000  1
  O  O6  1  0.06712700  0.30130300  0.93769800  1
  O  O7  1  0.30130300  0.06712700  0.06230200  1
  O  O8  1  0.30130300  0.06712700  0.43769800  1
  O  O9  1  0.06712700  0.30130300  0.56230200  1
  F  F10  1  0.93971800  0.97407000  0.25000000  1
  F  F11  1  0.97407000  0.93971800  0.75000000  1
  F  F12  1  0.85768400  0.61714300  0.07079700  1
  F  F13  1  0.61714300  0.85768400  0.92920300  1
  F  F14  1  0.61714300  0.85768400  0.57079700  1
  F  F15  1  0.85768400  0.61714300  0.42920300  1
  F  F16  1  0.21146100  0.71469800  0.25000000  1
  F  F17  1  0.71469800  0.21146100  0.75000000  1
