# generated using pymatgen
data_K3ErV2O8
_symmetry_space_group_name_H-M   'P 1'
_cell_length_a   6.01180490
_cell_length_b   6.01208942
_cell_length_c   7.86570900
_cell_angle_alpha   89.99999737
_cell_angle_beta   89.99751862
_cell_angle_gamma   120.00156441
_symmetry_Int_Tables_number   1
_chemical_formula_structural   K3ErV2O8
_chemical_formula_sum   'K3 Er1 V2 O8'
_cell_volume   246.20222257
_cell_formula_units_Z   1
loop_
 _symmetry_equiv_pos_site_id
 _symmetry_equiv_pos_as_xyz
  1  'x, y, z'
loop_
 _atom_site_type_symbol
 _atom_site_label
 _atom_site_symmetry_multiplicity
 _atom_site_fract_x
 _atom_site_fract_y
 _atom_site_fract_z
 _atom_site_occupancy
  K  K0  1  0.66661100  0.33330500  0.29317700  1
  K  K1  1  0.33338900  0.66669500  0.70682300  1
  K  K2  1  0.00000000  0.00000000  0.00000000  1
  Er  Er3  1  0.00000000  0.00000000  0.50000000  1
  V  V4  1  0.66660400  0.33330200  0.74369400  1
  V  V5  1  0.33339600  0.66669800  0.25630600  1
  O  O6  1  0.66660700  0.33330400  0.95852300  1
  O  O7  1  0.33339300  0.66669600  0.04147700  1
  O  O8  1  0.82642100  0.65287000  0.66811700  1
  O  O9  1  0.34713300  0.17356600  0.66811800  1
  O  O10  1  0.82642100  0.17355200  0.66811700  1
  O  O11  1  0.17357900  0.34713000  0.33188300  1
  O  O12  1  0.65286700  0.82643400  0.33188200  1
  O  O13  1  0.17357900  0.82644800  0.33188300  1
