# generated using pymatgen
data_Y2Mo(SeO4)3
_symmetry_space_group_name_H-M   'P 1'
_cell_length_a   6.60317900
_cell_length_b   7.18197155
_cell_length_c   10.92683697
_cell_angle_alpha   84.80542436
_cell_angle_beta   73.11137927
_cell_angle_gamma   86.54104825
_symmetry_Int_Tables_number   1
_chemical_formula_structural   Y2Mo(SeO4)3
_chemical_formula_sum   'Y4 Mo2 Se6 O24'
_cell_volume   493.49221343
_cell_formula_units_Z   2
loop_
 _symmetry_equiv_pos_site_id
 _symmetry_equiv_pos_as_xyz
  1  'x, y, z'
loop_
 _atom_site_type_symbol
 _atom_site_label
 _atom_site_symmetry_multiplicity
 _atom_site_fract_x
 _atom_site_fract_y
 _atom_site_fract_z
 _atom_site_occupancy
  Y  Y0  1  0.73261700  0.63831300  0.50935200  1
  Y  Y1  1  0.26738300  0.36168700  0.49064800  1
  Y  Y2  1  0.20340700  0.18317500  0.16831100  1
  Y  Y3  1  0.79659300  0.81682500  0.83168900  1
  Mo  Mo4  1  0.72251100  0.89302000  0.20639300  1
  Mo  Mo5  1  0.27748900  0.10698000  0.79360700  1
  Se  Se6  1  0.20216100  0.66052700  0.21653500  1
  Se  Se7  1  0.79783900  0.33947300  0.78346500  1
  Se  Se8  1  0.65806400  0.36246700  0.14214800  1
  Se  Se9  1  0.34193600  0.63753300  0.85785200  1
  Se  Se10  1  0.78779700  0.13987500  0.49327400  1
  Se  Se11  1  0.21220300  0.86012500  0.50672600  1
  O  O12  1  0.69195500  0.67350500  0.29973800  1
  O  O13  1  0.30804500  0.32649500  0.70026200  1
  O  O14  1  0.71876400  0.96003800  0.41672900  1
  O  O15  1  0.28123600  0.03996200  0.58327100  1
  O  O16  1  0.45174400  0.97475600  0.23294000  1
  O  O17  1  0.54825600  0.02524400  0.76706000  1
  O  O18  1  0.82464900  0.17070400  0.17840700  1
  O  O19  1  0.17535100  0.82929600  0.82159300  1
  O  O20  1  0.78528100  0.83298700  0.04512000  1
  O  O21  1  0.21471900  0.16701300  0.95488000  1
  O  O22  1  0.05859200  0.87357900  0.19600200  1
  O  O23  1  0.94140800  0.12642100  0.80399800  1
  O  O24  1  0.09953900  0.49915400  0.14871900  1
  O  O25  1  0.90046100  0.50084600  0.85128100  1
  O  O26  1  0.08159100  0.60035900  0.38241100  1
  O  O27  1  0.91840900  0.39964100  0.61758900  1
  O  O28  1  0.54991600  0.27139500  0.03820500  1
  O  O29  1  0.45008400  0.72860500  0.96179500  1
  O  O30  1  0.42524100  0.34526000  0.27027600  1
  O  O31  1  0.57475900  0.65474000  0.72972400  1
  O  O32  1  0.04178800  0.19180100  0.39245000  1
  O  O33  1  0.95821200  0.80819900  0.60755000  1
  O  O34  1  0.64007000  0.33813300  0.45987600  1
  O  O35  1  0.35993000  0.66186700  0.54012400  1
