# generated using pymatgen
data_Ba8Si6Sn
_symmetry_space_group_name_H-M   'P 1'
_cell_length_a   8.82667700
_cell_length_b   8.83476500
_cell_length_c   27.43303700
_cell_angle_alpha   90.00000000
_cell_angle_beta   90.00000000
_cell_angle_gamma   90.00000000
_symmetry_Int_Tables_number   1
_chemical_formula_structural   Ba8Si6Sn
_chemical_formula_sum   'Ba32 Si24 Sn4'
_cell_volume   2139.27258519
_cell_formula_units_Z   4
loop_
 _symmetry_equiv_pos_site_id
 _symmetry_equiv_pos_as_xyz
  1  'x, y, z'
loop_
 _atom_site_type_symbol
 _atom_site_label
 _atom_site_symmetry_multiplicity
 _atom_site_fract_x
 _atom_site_fract_y
 _atom_site_fract_z
 _atom_site_occupancy
  Ba  Ba0  1  0.17958600  0.55025200  0.41384000  1
  Ba  Ba1  1  0.32041400  0.94974800  0.91384000  1
  Ba  Ba2  1  0.32041400  0.05025200  0.58616000  1
  Ba  Ba3  1  0.17958600  0.44974800  0.08616000  1
  Ba  Ba4  1  0.82041400  0.44974800  0.58616000  1
  Ba  Ba5  1  0.67958600  0.05025200  0.08616000  1
  Ba  Ba6  1  0.67958600  0.94974800  0.41384000  1
  Ba  Ba7  1  0.82041400  0.55025200  0.91384000  1
  Ba  Ba8  1  0.49151700  0.68536500  0.18586300  1
  Ba  Ba9  1  0.00848300  0.81463500  0.68586300  1
  Ba  Ba10  1  0.00848300  0.18536500  0.81413700  1
  Ba  Ba11  1  0.49151700  0.31463500  0.31413700  1
  Ba  Ba12  1  0.50848300  0.31463500  0.81413700  1
  Ba  Ba13  1  0.99151700  0.18536500  0.31413700  1
  Ba  Ba14  1  0.99151700  0.81463500  0.18586300  1
  Ba  Ba15  1  0.50848300  0.68536500  0.68586300  1
  Ba  Ba16  1  0.49319800  0.71178500  0.02183500  1
  Ba  Ba17  1  0.00680200  0.78821500  0.52183500  1
  Ba  Ba18  1  0.00680200  0.21178500  0.97816500  1
  Ba  Ba19  1  0.49319800  0.28821500  0.47816500  1
  Ba  Ba20  1  0.50680200  0.28821500  0.97816500  1
  Ba  Ba21  1  0.99319800  0.21178500  0.47816500  1
  Ba  Ba22  1  0.99319800  0.78821500  0.02183500  1
  Ba  Ba23  1  0.50680200  0.71178500  0.52183500  1
  Ba  Ba24  1  0.36956200  0.82526800  0.32482800  1
  Ba  Ba25  1  0.13043800  0.67473200  0.82482800  1
  Ba  Ba26  1  0.13043800  0.32526800  0.67517200  1
  Ba  Ba27  1  0.36956200  0.17473200  0.17517200  1
  Ba  Ba28  1  0.63043800  0.17473200  0.67517200  1
  Ba  Ba29  1  0.86956200  0.32526800  0.17517200  1
  Ba  Ba30  1  0.86956200  0.67473200  0.32482800  1
  Ba  Ba31  1  0.63043800  0.82526800  0.82482800  1
  Si  Si32  1  0.26754500  0.86863800  0.10766800  1
  Si  Si33  1  0.23245500  0.63136200  0.60766800  1
  Si  Si34  1  0.23245500  0.36863800  0.89233200  1
  Si  Si35  1  0.26754500  0.13136200  0.39233200  1
  Si  Si36  1  0.73245500  0.13136200  0.89233200  1
  Si  Si37  1  0.76754500  0.36863800  0.39233200  1
  Si  Si38  1  0.76754500  0.63136200  0.10766800  1
  Si  Si39  1  0.73245500  0.86863800  0.60766800  1
  Si  Si40  1  0.29286000  0.05991900  0.04596000  1
  Si  Si41  1  0.20714000  0.44008100  0.54596000  1
  Si  Si42  1  0.20714000  0.55991900  0.95404000  1
  Si  Si43  1  0.29286000  0.94008100  0.45404000  1
  Si  Si44  1  0.70714000  0.94008100  0.95404000  1
  Si  Si45  1  0.79286000  0.55991900  0.45404000  1
  Si  Si46  1  0.79286000  0.44008100  0.04596000  1
  Si  Si47  1  0.70714000  0.05991900  0.54596000  1
  Si  Si48  1  0.07648200  0.07006200  0.10060800  1
  Si  Si49  1  0.42351800  0.42993800  0.60060800  1
  Si  Si50  1  0.42351800  0.57006200  0.89939200  1
  Si  Si51  1  0.07648200  0.92993800  0.39939200  1
  Si  Si52  1  0.92351800  0.92993800  0.89939200  1
  Si  Si53  1  0.57648200  0.57006200  0.39939200  1
  Si  Si54  1  0.57648200  0.42993800  0.10060800  1
  Si  Si55  1  0.92351800  0.07006200  0.60060800  1
  Sn  Sn56  1  0.17402500  0.50000000  0.25000000  1
  Sn  Sn57  1  0.32597500  0.00000000  0.75000000  1
  Sn  Sn58  1  0.82597500  0.50000000  0.75000000  1
  Sn  Sn59  1  0.67402500  0.00000000  0.25000000  1
