# generated using pymatgen
data_SiIr2
_symmetry_space_group_name_H-M   'P 1'
_cell_length_a   4.01758400
_cell_length_b   5.32718900
_cell_length_c   7.73703000
_cell_angle_alpha   90.00000000
_cell_angle_beta   90.00000000
_cell_angle_gamma   90.00000000
_symmetry_Int_Tables_number   1
_chemical_formula_structural   SiIr2
_chemical_formula_sum   'Si4 Ir8'
_cell_volume   165.59123750
_cell_formula_units_Z   4
loop_
 _symmetry_equiv_pos_site_id
 _symmetry_equiv_pos_as_xyz
  1  'x, y, z'
loop_
 _atom_site_type_symbol
 _atom_site_label
 _atom_site_symmetry_multiplicity
 _atom_site_fract_x
 _atom_site_fract_y
 _atom_site_fract_z
 _atom_site_occupancy
  Si  Si0  1  0.25000000  0.29240100  0.89892000  1
  Si  Si1  1  0.25000000  0.79240100  0.60108000  1
  Si  Si2  1  0.75000000  0.70759900  0.10108000  1
  Si  Si3  1  0.75000000  0.20759900  0.39892000  1
  Ir  Ir4  1  0.25000000  0.84063500  0.92428500  1
  Ir  Ir5  1  0.25000000  0.34063500  0.57571500  1
  Ir  Ir6  1  0.75000000  0.15936500  0.07571500  1
  Ir  Ir7  1  0.75000000  0.65936500  0.42428500  1
  Ir  Ir8  1  0.25000000  0.97810800  0.30062200  1
  Ir  Ir9  1  0.25000000  0.47810800  0.19937800  1
  Ir  Ir10  1  0.75000000  0.02189200  0.69937800  1
  Ir  Ir11  1  0.75000000  0.52189200  0.80062200  1
