# generated using pymatgen
data_Zr2Te3
_symmetry_space_group_name_H-M   'P 1'
_cell_length_a   7.89891633
_cell_length_b   7.89891633
_cell_length_c   7.89891615
_cell_angle_alpha   52.54167002
_cell_angle_beta   52.54167002
_cell_angle_gamma   52.54166568
_symmetry_Int_Tables_number   1
_chemical_formula_structural   Zr2Te3
_chemical_formula_sum   'Zr4 Te6'
_cell_volume   287.47849374
_cell_formula_units_Z   2
loop_
 _symmetry_equiv_pos_site_id
 _symmetry_equiv_pos_as_xyz
  1  'x, y, z'
loop_
 _atom_site_type_symbol
 _atom_site_label
 _atom_site_symmetry_multiplicity
 _atom_site_fract_x
 _atom_site_fract_y
 _atom_site_fract_z
 _atom_site_occupancy
  Zr  Zr0  1  0.50000000  0.50000000  0.50000000  1
  Zr  Zr1  1  0.16040700  0.16040700  0.16040700  1
  Zr  Zr2  1  0.83959300  0.83959300  0.83959300  1
  Zr  Zr3  1  0.00000000  0.00000000  0.00000000  1
  Te  Te4  1  0.57248700  0.26866400  0.92363900  1
  Te  Te5  1  0.92363900  0.57248700  0.26866400  1
  Te  Te6  1  0.26866400  0.92363900  0.57248700  1
  Te  Te7  1  0.73133600  0.07636100  0.42751300  1
  Te  Te8  1  0.07636100  0.42751300  0.73133600  1
  Te  Te9  1  0.42751300  0.73133600  0.07636100  1
