# generated using pymatgen
data_Ca(GaAs)2
_symmetry_space_group_name_H-M   'P 1'
_cell_length_a   8.73735852
_cell_length_b   8.73735852
_cell_length_c   8.73735829
_cell_angle_alpha   26.70768799
_cell_angle_beta   26.70768799
_cell_angle_gamma   26.70768946
_symmetry_Int_Tables_number   1
_chemical_formula_structural   Ca(GaAs)2
_chemical_formula_sum   'Ca1 Ga2 As2'
_cell_volume   118.79517301
_cell_formula_units_Z   1
loop_
 _symmetry_equiv_pos_site_id
 _symmetry_equiv_pos_as_xyz
  1  'x, y, z'
loop_
 _atom_site_type_symbol
 _atom_site_label
 _atom_site_symmetry_multiplicity
 _atom_site_fract_x
 _atom_site_fract_y
 _atom_site_fract_z
 _atom_site_occupancy
  Ca  Ca0  1  0.00000000  0.00000000  0.00000000  1
  Ga  Ga1  1  0.54909200  0.54909200  0.54909200  1
  Ga  Ga2  1  0.45090800  0.45090800  0.45090800  1
  As  As3  1  0.74315000  0.74315000  0.74315000  1
  As  As4  1  0.25685000  0.25685000  0.25685000  1
