# generated using pymatgen
data_SmH12(NO5)3
_symmetry_space_group_name_H-M   'P 1'
_cell_length_a   6.98751500
_cell_length_b   9.42721151
_cell_length_c   12.02286462
_cell_angle_alpha   110.75445516
_cell_angle_beta   91.75888046
_cell_angle_gamma   109.58912376
_symmetry_Int_Tables_number   1
_chemical_formula_structural   SmH12(NO5)3
_chemical_formula_sum   'Sm2 H24 N6 O30'
_cell_volume   687.60206947
_cell_formula_units_Z   2
loop_
 _symmetry_equiv_pos_site_id
 _symmetry_equiv_pos_as_xyz
  1  'x, y, z'
loop_
 _atom_site_type_symbol
 _atom_site_label
 _atom_site_symmetry_multiplicity
 _atom_site_fract_x
 _atom_site_fract_y
 _atom_site_fract_z
 _atom_site_occupancy
  Sm  Sm0  1  0.90341700  0.60374200  0.77828400  1
  Sm  Sm1  1  0.09658300  0.39625800  0.22171600  1
  H  H2  1  0.73889400  0.64755300  0.02488200  1
  H  H3  1  0.26110600  0.35244700  0.97511800  1
  H  H4  1  0.78331400  0.48397600  0.98153700  1
  H  H5  1  0.21668600  0.51602400  0.01846300  1
  H  H6  1  0.73012500  0.65851400  0.55748300  1
  H  H7  1  0.26987500  0.34148600  0.44251700  1
  H  H8  1  0.77693300  0.49518400  0.50705300  1
  H  H9  1  0.22306700  0.50481600  0.49294700  1
  H  H10  1  0.74833600  0.89140400  0.88183800  1
  H  H11  1  0.25166400  0.10859600  0.11816200  1
  H  H12  1  0.56886300  0.73875400  0.78377900  1
  H  H13  1  0.43113700  0.26124600  0.21622100  1
  H  H14  1  0.47957900  0.35221900  0.77484500  1
  H  H15  1  0.52042100  0.64778100  0.22515500  1
  H  H16  1  0.47531500  0.33779400  0.63882600  1
  H  H17  1  0.52468500  0.66220600  0.36117400  1
  H  H18  1  0.41202500  0.18257800  0.88539500  1
  H  H19  1  0.58797500  0.81742200  0.11460500  1
  H  H20  1  0.20443300  0.14151300  0.80594100  1
  H  H21  1  0.79556700  0.85848700  0.19405900  1
  H  H22  1  0.44236500  0.17206100  0.43514300  1
  H  H23  1  0.55763500  0.82793900  0.56485700  1
  H  H24  1  0.22521200  0.11764800  0.47465200  1
  H  H25  1  0.77478800  0.88235200  0.52534800  1
  N  N26  1  0.24114000  0.81621800  0.68010200  1
  N  N27  1  0.75886000  0.18378200  0.31989800  1
  N  N28  1  0.24942700  0.82738300  0.99742600  1
  N  N29  1  0.75057300  0.17261700  0.00257400  1
  N  N30  1  0.94580800  0.28125400  0.68661800  1
  N  N31  1  0.05419200  0.71874600  0.31338200  1
  O  O32  1  0.77333400  0.56807700  0.95495700  1
  O  O33  1  0.22666600  0.43192300  0.04504300  1
  O  O34  1  0.76250700  0.57580900  0.58084700  1
  O  O35  1  0.23749300  0.42419100  0.41915300  1
  O  O36  1  0.70829700  0.77672700  0.82670000  1
  O  O37  1  0.29170300  0.22327300  0.17330000  1
  O  O38  1  0.54658000  0.40836800  0.72278100  1
  O  O39  1  0.45342000  0.59163200  0.27721900  1
  O  O40  1  0.32565600  0.23316200  0.85958700  1
  O  O41  1  0.67434400  0.76683800  0.14041300  1
  O  O42  1  0.34482800  0.21380900  0.48287100  1
  O  O43  1  0.65517200  0.78619100  0.51712900  1
  O  O44  1  0.22922400  0.67234300  0.67059300  1
  O  O45  1  0.77077600  0.32765700  0.32940700  1
  O  O46  1  0.11241400  0.87006900  0.73565200  1
  O  O47  1  0.88758600  0.12993100  0.26434800  1
  O  O48  1  0.37352900  0.89814500  0.63749500  1
  O  O49  1  0.62647100  0.10185500  0.36250500  1
  O  O50  1  0.23111300  0.68288900  0.92713000  1
  O  O51  1  0.76888700  0.31711100  0.07287000  1
  O  O52  1  0.11552500  0.88214900  0.97474500  1
  O  O53  1  0.88447500  0.11785100  0.02525500  1
  O  O54  1  0.39348200  0.91180400  0.08484800  1
  O  O55  1  0.60651800  0.08819600  0.91515200  1
  O  O56  1  0.94313500  0.35685400  0.79855800  1
  O  O57  1  0.05686500  0.64314600  0.20144200  1
  O  O58  1  0.91940100  0.34997700  0.61550700  1
  O  O59  1  0.08059900  0.65002300  0.38449300  1
  O  O60  1  0.97469400  0.15078300  0.65009000  1
  O  O61  1  0.02530600  0.84921700  0.34991000  1
