# generated using pymatgen
data_MoW
_symmetry_space_group_name_H-M   'P 1'
_cell_length_a   2.75668148
_cell_length_b   2.75668148
_cell_length_c   4.50038200
_cell_angle_alpha   90.00000000
_cell_angle_beta   90.00000000
_cell_angle_gamma   109.64131655
_symmetry_Int_Tables_number   1
_chemical_formula_structural   MoW
_chemical_formula_sum   'Mo1 W1'
_cell_volume   32.20982040
_cell_formula_units_Z   1
loop_
 _symmetry_equiv_pos_site_id
 _symmetry_equiv_pos_as_xyz
  1  'x, y, z'
loop_
 _atom_site_type_symbol
 _atom_site_label
 _atom_site_symmetry_multiplicity
 _atom_site_fract_x
 _atom_site_fract_y
 _atom_site_fract_z
 _atom_site_occupancy
  Mo  Mo0  1  0.00000000  0.00000000  0.00000000  1
  W  W1  1  0.50000000  0.50000000  0.50000000  1
