# generated using pymatgen
data_Ca3BCBr2N
_symmetry_space_group_name_H-M   'P 1'
_cell_length_a   3.92379300
_cell_length_b   11.43886200
_cell_length_c   14.54723000
_cell_angle_alpha   90.00000000
_cell_angle_beta   90.00000000
_cell_angle_gamma   90.00000000
_symmetry_Int_Tables_number   1
_chemical_formula_structural   Ca3BCBr2N
_chemical_formula_sum   'Ca12 B4 C4 Br8 N4'
_cell_volume   652.93389474
_cell_formula_units_Z   4
loop_
 _symmetry_equiv_pos_site_id
 _symmetry_equiv_pos_as_xyz
  1  'x, y, z'
loop_
 _atom_site_type_symbol
 _atom_site_label
 _atom_site_symmetry_multiplicity
 _atom_site_fract_x
 _atom_site_fract_y
 _atom_site_fract_z
 _atom_site_occupancy
  Ca  Ca0  1  0.25000000  0.35747800  0.39135800  1
  Ca  Ca1  1  0.75000000  0.64252200  0.60864200  1
  Ca  Ca2  1  0.75000000  0.85747800  0.10864200  1
  Ca  Ca3  1  0.25000000  0.14252200  0.89135800  1
  Ca  Ca4  1  0.25000000  0.56929800  0.14318000  1
  Ca  Ca5  1  0.75000000  0.43070200  0.85682000  1
  Ca  Ca6  1  0.75000000  0.06929800  0.35682000  1
  Ca  Ca7  1  0.25000000  0.93070200  0.64318000  1
  Ca  Ca8  1  0.25000000  0.19971700  0.19268100  1
  Ca  Ca9  1  0.75000000  0.80028300  0.80731900  1
  Ca  Ca10  1  0.75000000  0.69971700  0.30731900  1
  Ca  Ca11  1  0.25000000  0.30028300  0.69268100  1
  B  B12  1  0.25000000  0.89864000  0.24372600  1
  B  B13  1  0.75000000  0.10136000  0.75627400  1
  B  B14  1  0.75000000  0.39864000  0.25627400  1
  B  B15  1  0.25000000  0.60136000  0.74372600  1
  C  C16  1  0.25000000  0.78034800  0.20681800  1
  C  C17  1  0.75000000  0.21965200  0.79318200  1
  C  C18  1  0.75000000  0.28034800  0.29318200  1
  C  C19  1  0.25000000  0.71965200  0.70681800  1
  Br  Br20  1  0.25000000  0.60627900  0.44436200  1
  Br  Br21  1  0.75000000  0.39372100  0.55563800  1
  Br  Br22  1  0.75000000  0.10627900  0.05563800  1
  Br  Br23  1  0.25000000  0.89372100  0.94436200  1
  Br  Br24  1  0.25000000  0.36095400  0.01139600  1
  Br  Br25  1  0.75000000  0.63904600  0.98860400  1
  Br  Br26  1  0.75000000  0.86095400  0.48860400  1
  Br  Br27  1  0.25000000  0.13904600  0.51139600  1
  N  N28  1  0.25000000  0.01328800  0.27012100  1
  N  N29  1  0.75000000  0.98671200  0.72987900  1
  N  N30  1  0.75000000  0.51328800  0.22987900  1
  N  N31  1  0.25000000  0.48671200  0.77012100  1
