# generated using pymatgen
data_Pr(BIr)2
_symmetry_space_group_name_H-M   'P 1'
_cell_length_a   7.15486910
_cell_length_b   6.16040880
_cell_length_c   5.61054008
_cell_angle_alpha   74.70340292
_cell_angle_beta   56.15079219
_cell_angle_gamma   49.14580489
_symmetry_Int_Tables_number   1
_chemical_formula_structural   Pr(BIr)2
_chemical_formula_sum   'Pr2 B4 Ir4'
_cell_volume   153.34214728
_cell_formula_units_Z   2
loop_
 _symmetry_equiv_pos_site_id
 _symmetry_equiv_pos_as_xyz
  1  'x, y, z'
loop_
 _atom_site_type_symbol
 _atom_site_label
 _atom_site_symmetry_multiplicity
 _atom_site_fract_x
 _atom_site_fract_y
 _atom_site_fract_z
 _atom_site_occupancy
  Pr  Pr0  1  0.50000000  0.50000000  0.50000000  1
  Pr  Pr1  1  0.75000000  0.75000000  0.75000000  1
  B  B2  1  0.17740600  0.82259400  0.17740600  1
  B  B3  1  0.07259400  0.42740600  0.07259400  1
  B  B4  1  0.82259400  0.17740600  0.82259400  1
  B  B5  1  0.42740600  0.07259400  0.42740600  1
  Ir  Ir6  1  0.87067100  0.87067100  0.12932900  1
  Ir  Ir7  1  0.12932900  0.12932900  0.87067100  1
  Ir  Ir8  1  0.37932900  0.37932900  0.12067100  1
  Ir  Ir9  1  0.12067100  0.12067100  0.37932900  1
