# generated using pymatgen
data_Fe3Co3Si2
_symmetry_space_group_name_H-M   'P 1'
_cell_length_a   6.88201631
_cell_length_b   6.88201631
_cell_length_c   6.88201609
_cell_angle_alpha   33.50438136
_cell_angle_beta   33.50438136
_cell_angle_gamma   33.50437470
_symmetry_Int_Tables_number   1
_chemical_formula_structural   Fe3Co3Si2
_chemical_formula_sum   'Fe3 Co3 Si2'
_cell_volume   88.45686020
_cell_formula_units_Z   1
loop_
 _symmetry_equiv_pos_site_id
 _symmetry_equiv_pos_as_xyz
  1  'x, y, z'
loop_
 _atom_site_type_symbol
 _atom_site_label
 _atom_site_symmetry_multiplicity
 _atom_site_fract_x
 _atom_site_fract_y
 _atom_site_fract_z
 _atom_site_occupancy
  Fe  Fe0  1  0.62509100  0.62509100  0.62509100  1
  Fe  Fe1  1  0.74950400  0.74950400  0.74950400  1
  Fe  Fe2  1  0.25036500  0.25036500  0.25036500  1
  Co  Co3  1  0.37570400  0.37570400  0.37570400  1
  Co  Co4  1  0.87441100  0.87441100  0.87441100  1
  Co  Co5  1  0.12490300  0.12490300  0.12490300  1
  Si  Si6  1  0.99957300  0.99957300  0.99957300  1
  Si  Si7  1  0.50045000  0.50045000  0.50045000  1
