# generated using pymatgen
data_NiSb3
_symmetry_space_group_name_H-M   'P 1'
_cell_length_a   8.01286541
_cell_length_b   8.01286541
_cell_length_c   8.01286541
_cell_angle_alpha   109.47122063
_cell_angle_beta   109.47122063
_cell_angle_gamma   109.47122063
_symmetry_Int_Tables_number   1
_chemical_formula_structural   NiSb3
_chemical_formula_sum   'Ni4 Sb12'
_cell_volume   396.04237210
_cell_formula_units_Z   4
loop_
 _symmetry_equiv_pos_site_id
 _symmetry_equiv_pos_as_xyz
  1  'x, y, z'
loop_
 _atom_site_type_symbol
 _atom_site_label
 _atom_site_symmetry_multiplicity
 _atom_site_fract_x
 _atom_site_fract_y
 _atom_site_fract_z
 _atom_site_occupancy
  Ni  Ni0  1  0.00000000  0.00000000  0.50000000  1
  Ni  Ni1  1  0.50000000  0.00000000  0.00000000  1
  Ni  Ni2  1  0.00000000  0.50000000  0.00000000  1
  Ni  Ni3  1  0.50000000  0.50000000  0.50000000  1
  Sb  Sb4  1  0.15963300  0.82156000  0.66192700  1
  Sb  Sb5  1  0.84036700  0.17844000  0.33807300  1
  Sb  Sb6  1  0.84036700  0.50229500  0.66192700  1
  Sb  Sb7  1  0.15963300  0.49770500  0.33807300  1
  Sb  Sb8  1  0.82156000  0.66192700  0.15963300  1
  Sb  Sb9  1  0.17844000  0.33807300  0.84036700  1
  Sb  Sb10  1  0.50229500  0.66192700  0.84036700  1
  Sb  Sb11  1  0.49770500  0.33807300  0.15963300  1
  Sb  Sb12  1  0.66192700  0.15963300  0.82156000  1
  Sb  Sb13  1  0.33807300  0.84036700  0.17844000  1
  Sb  Sb14  1  0.66192700  0.84036700  0.50229500  1
  Sb  Sb15  1  0.33807300  0.15963300  0.49770500  1
