# generated using pymatgen
data_YGePd2
_symmetry_space_group_name_H-M   'P 1'
_cell_length_a   5.61253600
_cell_length_b   7.13598500
_cell_length_c   7.45014000
_cell_angle_alpha   90.00000000
_cell_angle_beta   90.00000000
_cell_angle_gamma   90.00000000
_symmetry_Int_Tables_number   1
_chemical_formula_structural   YGePd2
_chemical_formula_sum   'Y4 Ge4 Pd8'
_cell_volume   298.38535381
_cell_formula_units_Z   4
loop_
 _symmetry_equiv_pos_site_id
 _symmetry_equiv_pos_as_xyz
  1  'x, y, z'
loop_
 _atom_site_type_symbol
 _atom_site_label
 _atom_site_symmetry_multiplicity
 _atom_site_fract_x
 _atom_site_fract_y
 _atom_site_fract_z
 _atom_site_occupancy
  Y  Y0  1  0.14542000  0.75000000  0.52755800  1
  Y  Y1  1  0.85458000  0.25000000  0.47244200  1
  Y  Y2  1  0.64542000  0.25000000  0.97244200  1
  Y  Y3  1  0.35458000  0.75000000  0.02755800  1
  Ge  Ge4  1  0.85557100  0.75000000  0.87710400  1
  Ge  Ge5  1  0.14442900  0.25000000  0.12289600  1
  Ge  Ge6  1  0.35557100  0.25000000  0.62289600  1
  Ge  Ge7  1  0.64442900  0.75000000  0.37710400  1
  Pd  Pd8  1  0.59048200  0.55189300  0.67886000  1
  Pd  Pd9  1  0.40951800  0.44810700  0.32114000  1
  Pd  Pd10  1  0.09048200  0.44810700  0.82114000  1
  Pd  Pd11  1  0.40951800  0.05189300  0.32114000  1
  Pd  Pd12  1  0.90951800  0.55189300  0.17886000  1
  Pd  Pd13  1  0.59048200  0.94810700  0.67886000  1
  Pd  Pd14  1  0.90951800  0.94810700  0.17886000  1
  Pd  Pd15  1  0.09048200  0.05189300  0.82114000  1
