# generated using pymatgen
data_GdSiPt
_symmetry_space_group_name_H-M   'P 1'
_cell_length_a   7.83686230
_cell_length_b   7.83686230
_cell_length_c   7.83686230
_cell_angle_alpha   149.56230704
_cell_angle_beta   149.56230704
_cell_angle_gamma   43.58427020
_symmetry_Int_Tables_number   1
_chemical_formula_structural   GdSiPt
_chemical_formula_sum   'Gd2 Si2 Pt2'
_cell_volume   123.18736866
_cell_formula_units_Z   2
loop_
 _symmetry_equiv_pos_site_id
 _symmetry_equiv_pos_as_xyz
  1  'x, y, z'
loop_
 _atom_site_type_symbol
 _atom_site_label
 _atom_site_symmetry_multiplicity
 _atom_site_fract_x
 _atom_site_fract_y
 _atom_site_fract_z
 _atom_site_occupancy
  Gd  Gd0  1  0.74972400  0.24972400  0.50000000  1
  Gd  Gd1  1  0.99972400  0.99972400  0.00000000  1
  Si  Si2  1  0.16906000  0.66906000  0.50000000  1
  Si  Si3  1  0.41906000  0.41906000  0.00000000  1
  Pt  Pt4  1  0.33521600  0.83521600  0.50000000  1
  Pt  Pt5  1  0.58521600  0.58521600  0.00000000  1
