# generated using pymatgen
data_Zr6CuBi2
_symmetry_space_group_name_H-M   'P 1'
_cell_length_a   7.85407794
_cell_length_b   7.85407794
_cell_length_c   3.84055500
_cell_angle_alpha   90.00000000
_cell_angle_beta   90.00000000
_cell_angle_gamma   119.99999948
_symmetry_Int_Tables_number   1
_chemical_formula_structural   Zr6CuBi2
_chemical_formula_sum   'Zr6 Cu1 Bi2'
_cell_volume   205.17055634
_cell_formula_units_Z   1
loop_
 _symmetry_equiv_pos_site_id
 _symmetry_equiv_pos_as_xyz
  1  'x, y, z'
loop_
 _atom_site_type_symbol
 _atom_site_label
 _atom_site_symmetry_multiplicity
 _atom_site_fract_x
 _atom_site_fract_y
 _atom_site_fract_z
 _atom_site_occupancy
  Zr  Zr0  1  0.39431800  0.39431800  0.50000000  1
  Zr  Zr1  1  0.60568200  0.00000000  0.50000000  1
  Zr  Zr2  1  0.00000000  0.60568200  0.50000000  1
  Zr  Zr3  1  0.76250400  0.76250400  0.00000000  1
  Zr  Zr4  1  0.23749600  0.00000000  0.00000000  1
  Zr  Zr5  1  0.00000000  0.23749600  0.00000000  1
  Cu  Cu6  1  0.00000000  0.00000000  0.50000000  1
  Bi  Bi7  1  0.66666700  0.33333300  0.00000000  1
  Bi  Bi8  1  0.33333300  0.66666700  0.00000000  1
