# generated using pymatgen
data_K5FeO4
_symmetry_space_group_name_H-M   'P 1'
_cell_length_a   6.78806900
_cell_length_b   11.53001200
_cell_length_c   20.58400900
_cell_angle_alpha   90.00000000
_cell_angle_beta   90.00000000
_cell_angle_gamma   90.00000000
_symmetry_Int_Tables_number   1
_chemical_formula_structural   K5FeO4
_chemical_formula_sum   'K40 Fe8 O32'
_cell_volume   1611.03869088
_cell_formula_units_Z   8
loop_
 _symmetry_equiv_pos_site_id
 _symmetry_equiv_pos_as_xyz
  1  'x, y, z'
loop_
 _atom_site_type_symbol
 _atom_site_label
 _atom_site_symmetry_multiplicity
 _atom_site_fract_x
 _atom_site_fract_y
 _atom_site_fract_z
 _atom_site_occupancy
  K  K0  1  0.07566600  0.35291700  0.99910100  1
  K  K1  1  0.41611300  0.06368900  0.43420800  1
  K  K2  1  0.58388700  0.43631100  0.93420800  1
  K  K3  1  0.08388700  0.56368900  0.56579200  1
  K  K4  1  0.08388700  0.06368900  0.93420800  1
  K  K5  1  0.58388700  0.93631100  0.56579200  1
  K  K6  1  0.41611300  0.56368900  0.06579200  1
  K  K7  1  0.91611300  0.43631100  0.43420800  1
  K  K8  1  0.92648900  0.70283700  0.36535700  1
  K  K9  1  0.42648900  0.29716300  0.13464300  1
  K  K10  1  0.57351100  0.20283700  0.63464300  1
  K  K11  1  0.07351100  0.79716300  0.86535700  1
  K  K12  1  0.07351100  0.29716300  0.63464300  1
  K  K13  1  0.57351100  0.70283700  0.86535700  1
  K  K14  1  0.42648900  0.79716300  0.36535700  1
  K  K15  1  0.92648900  0.20283700  0.13464300  1
  K  K16  1  0.61002700  0.08377500  0.24786700  1
  K  K17  1  0.11002700  0.91622500  0.25213300  1
  K  K18  1  0.88997300  0.58377500  0.75213300  1
  K  K19  1  0.38997300  0.41622500  0.74786700  1
  K  K20  1  0.38997300  0.91622500  0.75213300  1
  K  K21  1  0.88997300  0.08377500  0.74786700  1
  K  K22  1  0.11002700  0.41622500  0.24786700  1
  K  K23  1  0.61002700  0.58377500  0.25213300  1
  K  K24  1  0.60603800  0.82816700  0.17460100  1
  K  K25  1  0.42433400  0.85291700  0.00089900  1
  K  K26  1  0.57566600  0.64708300  0.50089900  1
  K  K27  1  0.91611300  0.93631100  0.06579200  1
  K  K28  1  0.07566600  0.85291700  0.50089900  1
  K  K29  1  0.57566600  0.14708300  0.99910100  1
  K  K30  1  0.42433400  0.35291700  0.49910100  1
  K  K31  1  0.92433400  0.64708300  0.00089900  1
  K  K32  1  0.60603800  0.32816700  0.32539900  1
  K  K33  1  0.10603800  0.67183300  0.17460100  1
  K  K34  1  0.89396200  0.82816700  0.67460100  1
  K  K35  1  0.39396200  0.17183300  0.82539900  1
  K  K36  1  0.39396200  0.67183300  0.67460100  1
  K  K37  1  0.89396200  0.32816700  0.82539900  1
  K  K38  1  0.10603800  0.17183300  0.32539900  1
  K  K39  1  0.92433400  0.14708300  0.49910100  1
  Fe  Fe40  1  0.82182300  0.46441700  0.12450200  1
  Fe  Fe41  1  0.32182300  0.53558300  0.37549800  1
  Fe  Fe42  1  0.67817700  0.96441700  0.87549800  1
  Fe  Fe43  1  0.17817700  0.03558300  0.62450200  1
  Fe  Fe44  1  0.17817700  0.53558300  0.87549800  1
  Fe  Fe45  1  0.67817700  0.46441700  0.62450200  1
  Fe  Fe46  1  0.32182300  0.03558300  0.12450200  1
  Fe  Fe47  1  0.82182300  0.96441700  0.37549800  1
  O  O48  1  0.74522400  0.12667300  0.37188500  1
  O  O49  1  0.24522400  0.87332700  0.12811500  1
  O  O50  1  0.75477600  0.62667300  0.62811500  1
  O  O51  1  0.25477600  0.37332700  0.87188500  1
  O  O52  1  0.25477600  0.87332700  0.62811500  1
  O  O53  1  0.75477600  0.12667300  0.87188500  1
  O  O54  1  0.24522400  0.37332700  0.37188500  1
  O  O55  1  0.74522400  0.62667300  0.12811500  1
  O  O56  1  0.74028000  0.38467100  0.20358600  1
  O  O57  1  0.24028000  0.61532900  0.29641400  1
  O  O58  1  0.75972000  0.88467100  0.79641400  1
  O  O59  1  0.25972000  0.11532900  0.70358600  1
  O  O60  1  0.25972000  0.61532900  0.79641400  1
  O  O61  1  0.75972000  0.38467100  0.70358600  1
  O  O62  1  0.24028000  0.11532900  0.20358600  1
  O  O63  1  0.74028000  0.88467100  0.29641400  1
  O  O64  1  0.70425300  0.38538200  0.05149400  1
  O  O65  1  0.20425300  0.61461800  0.44850600  1
  O  O66  1  0.79574700  0.88538200  0.94850600  1
  O  O67  1  0.29574700  0.11461800  0.55149400  1
  O  O68  1  0.29574700  0.61461800  0.94850600  1
  O  O69  1  0.79574700  0.38538200  0.55149400  1
  O  O70  1  0.20425300  0.11461800  0.05149400  1
  O  O71  1  0.70425300  0.88538200  0.44850600  1
  O  O72  1  0.60509900  0.04403700  0.11744000  1
  O  O73  1  0.10509900  0.95596300  0.38256000  1
  O  O74  1  0.89490100  0.54403700  0.88256000  1
  O  O75  1  0.39490100  0.45596300  0.61744000  1
  O  O76  1  0.39490100  0.95596300  0.88256000  1
  O  O77  1  0.89490100  0.04403700  0.61744000  1
  O  O78  1  0.10509900  0.45596300  0.11744000  1
  O  O79  1  0.60509900  0.54403700  0.38256000  1
