# generated using pymatgen
data_PrTaO4
_symmetry_space_group_name_H-M   'P 1'
_cell_length_a   5.55662500
_cell_length_b   7.72984800
_cell_length_c   7.80859691
_cell_angle_alpha   79.63998528
_cell_angle_beta   90.00000000
_cell_angle_gamma   90.00000000
_symmetry_Int_Tables_number   1
_chemical_formula_structural   PrTaO4
_chemical_formula_sum   'Pr4 Ta4 O16'
_cell_volume   329.92595849
_cell_formula_units_Z   4
loop_
 _symmetry_equiv_pos_site_id
 _symmetry_equiv_pos_as_xyz
  1  'x, y, z'
loop_
 _atom_site_type_symbol
 _atom_site_label
 _atom_site_symmetry_multiplicity
 _atom_site_fract_x
 _atom_site_fract_y
 _atom_site_fract_z
 _atom_site_occupancy
  Pr  Pr0  1  0.22134000  0.34769200  0.89872200  1
  Pr  Pr1  1  0.72134000  0.65230800  0.60127800  1
  Pr  Pr2  1  0.77866000  0.65230800  0.10127800  1
  Pr  Pr3  1  0.27866000  0.34769200  0.39872200  1
  Ta  Ta4  1  0.73297000  0.16532600  0.69412300  1
  Ta  Ta5  1  0.23297000  0.83467400  0.80587700  1
  Ta  Ta6  1  0.26703000  0.83467400  0.30587700  1
  Ta  Ta7  1  0.76703000  0.16532600  0.19412300  1
  O  O8  1  0.50719600  0.32954700  0.13040900  1
  O  O9  1  0.00719600  0.67045300  0.36959100  1
  O  O10  1  0.49280400  0.67045300  0.86959100  1
  O  O11  1  0.99280400  0.32954700  0.63040900  1
  O  O12  1  0.98363400  0.38279000  0.17084900  1
  O  O13  1  0.48363400  0.61721000  0.32915100  1
  O  O14  1  0.01636600  0.61721000  0.82915100  1
  O  O15  1  0.51636600  0.38279000  0.67084900  1
  O  O16  1  0.84655400  0.16791100  0.94487100  1
  O  O17  1  0.34655400  0.83208900  0.55512900  1
  O  O18  1  0.15344600  0.83208900  0.05512900  1
  O  O19  1  0.65344600  0.16791100  0.44487100  1
  O  O20  1  0.41106800  0.05663200  0.79522400  1
  O  O21  1  0.91106800  0.94336800  0.70477600  1
  O  O22  1  0.58893200  0.94336800  0.20477600  1
  O  O23  1  0.08893200  0.05663200  0.29522400  1
