# generated using pymatgen
data_Sr5Re3BrO15
_symmetry_space_group_name_H-M   'P 1'
_cell_length_a   7.55465700
_cell_length_b   10.75396500
_cell_length_c   18.81928000
_cell_angle_alpha   90.00000000
_cell_angle_beta   90.00000000
_cell_angle_gamma   90.00000000
_symmetry_Int_Tables_number   1
_chemical_formula_structural   Sr5Re3BrO15
_chemical_formula_sum   'Sr20 Re12 Br4 O60'
_cell_volume   1528.92567467
_cell_formula_units_Z   4
loop_
 _symmetry_equiv_pos_site_id
 _symmetry_equiv_pos_as_xyz
  1  'x, y, z'
loop_
 _atom_site_type_symbol
 _atom_site_label
 _atom_site_symmetry_multiplicity
 _atom_site_fract_x
 _atom_site_fract_y
 _atom_site_fract_z
 _atom_site_occupancy
  Sr  Sr0  1  0.25931300  0.38837400  0.10778300  1
  Sr  Sr1  1  0.74068700  0.61162600  0.89221700  1
  Sr  Sr2  1  0.24068700  0.88837400  0.89221700  1
  Sr  Sr3  1  0.74068700  0.61162600  0.60778300  1
  Sr  Sr4  1  0.75931300  0.11162600  0.10778300  1
  Sr  Sr5  1  0.25931300  0.38837400  0.39221700  1
  Sr  Sr6  1  0.75931300  0.11162600  0.39221700  1
  Sr  Sr7  1  0.24068700  0.88837400  0.60778300  1
  Sr  Sr8  1  0.28048900  0.48478200  0.75000000  1
  Sr  Sr9  1  0.71951100  0.51521800  0.25000000  1
  Sr  Sr10  1  0.21951100  0.98478200  0.25000000  1
  Sr  Sr11  1  0.78048900  0.01521800  0.75000000  1
  Sr  Sr12  1  0.00060900  0.25373300  0.58499500  1
  Sr  Sr13  1  0.99939100  0.74626700  0.41500500  1
  Sr  Sr14  1  0.49939100  0.75373300  0.41500500  1
  Sr  Sr15  1  0.99939100  0.74626700  0.08499500  1
  Sr  Sr16  1  0.50060900  0.24626700  0.58499500  1
  Sr  Sr17  1  0.00060900  0.25373300  0.91500500  1
  Sr  Sr18  1  0.50060900  0.24626700  0.91500500  1
  Sr  Sr19  1  0.49939100  0.75373300  0.08499500  1
  Re  Re20  1  0.22023800  0.14648300  0.75000000  1
  Re  Re21  1  0.77976200  0.85351700  0.25000000  1
  Re  Re22  1  0.27976200  0.64648300  0.25000000  1
  Re  Re23  1  0.72023800  0.35351700  0.75000000  1
  Re  Re24  1  0.20730700  0.55878800  0.55705000  1
  Re  Re25  1  0.79269300  0.44121200  0.44295000  1
  Re  Re26  1  0.29269300  0.05878800  0.44295000  1
  Re  Re27  1  0.79269300  0.44121200  0.05705000  1
  Re  Re28  1  0.70730700  0.94121200  0.55705000  1
  Re  Re29  1  0.20730700  0.55878800  0.94295000  1
  Re  Re30  1  0.70730700  0.94121200  0.94295000  1
  Re  Re31  1  0.29269300  0.05878800  0.05705000  1
  Br  Br32  1  0.11913000  0.75642900  0.75000000  1
  Br  Br33  1  0.88087000  0.24357100  0.25000000  1
  Br  Br34  1  0.38087000  0.25642900  0.25000000  1
  Br  Br35  1  0.61913000  0.74357100  0.75000000  1
  O  O36  1  0.12572100  0.11004900  0.11610400  1
  O  O37  1  0.87427900  0.88995100  0.88389600  1
  O  O38  1  0.37427900  0.61004900  0.88389600  1
  O  O39  1  0.87427900  0.88995100  0.61610400  1
  O  O40  1  0.62572100  0.38995100  0.11610400  1
  O  O41  1  0.12572100  0.11004900  0.38389600  1
  O  O42  1  0.62572100  0.38995100  0.38389600  1
  O  O43  1  0.37427900  0.61004900  0.61610400  1
  O  O44  1  0.22654300  0.09987600  0.53522400  1
  O  O45  1  0.77345700  0.90012400  0.46477600  1
  O  O46  1  0.27345700  0.59987600  0.46477600  1
  O  O47  1  0.77345700  0.90012400  0.03522400  1
  O  O48  1  0.72654300  0.40012400  0.53522400  1
  O  O49  1  0.22654300  0.09987600  0.96477600  1
  O  O50  1  0.72654300  0.40012400  0.96477600  1
  O  O51  1  0.27345700  0.59987600  0.03522400  1
  O  O52  1  0.41751900  0.06107700  0.75000000  1
  O  O53  1  0.58248100  0.93892300  0.25000000  1
  O  O54  1  0.08248100  0.56107700  0.25000000  1
  O  O55  1  0.91751900  0.43892300  0.75000000  1
  O  O56  1  0.25082100  0.27318400  0.68279900  1
  O  O57  1  0.74917900  0.72681600  0.31720100  1
  O  O58  1  0.24917900  0.77318400  0.31720100  1
  O  O59  1  0.74917900  0.72681600  0.18279900  1
  O  O60  1  0.75082100  0.22681600  0.68279900  1
  O  O61  1  0.25082100  0.27318400  0.81720100  1
  O  O62  1  0.75082100  0.22681600  0.81720100  1
  O  O63  1  0.24917900  0.77318400  0.18279900  1
  O  O64  1  0.03886500  0.48908700  0.61545600  1
  O  O65  1  0.96113500  0.51091300  0.38454400  1
  O  O66  1  0.46113500  0.98908700  0.38454400  1
  O  O67  1  0.96113500  0.51091300  0.11545500  1
  O  O68  1  0.53886500  0.01091300  0.61545600  1
  O  O69  1  0.03886500  0.48908700  0.88454400  1
  O  O70  1  0.53886500  0.01091300  0.88454400  1
  O  O71  1  0.46113500  0.98908700  0.11545500  1
  O  O72  1  0.05514300  0.69367900  0.55128300  1
  O  O73  1  0.94485700  0.30632100  0.44871700  1
  O  O74  1  0.44485700  0.19367900  0.44871700  1
  O  O75  1  0.94485700  0.30632100  0.05128300  1
  O  O76  1  0.55514300  0.80632100  0.55128300  1
  O  O77  1  0.05514300  0.69367900  0.94871700  1
  O  O78  1  0.55514300  0.80632100  0.94871700  1
  O  O79  1  0.44485700  0.19367900  0.05128300  1
  O  O80  1  0.07805900  0.07124600  0.68248400  1
  O  O81  1  0.92194100  0.92875400  0.31751600  1
  O  O82  1  0.42194100  0.57124600  0.31751600  1
  O  O83  1  0.92194100  0.92875400  0.18248400  1
  O  O84  1  0.57805900  0.42875400  0.68248400  1
  O  O85  1  0.07805900  0.07124600  0.81751600  1
  O  O86  1  0.57805900  0.42875400  0.81751600  1
  O  O87  1  0.42194100  0.57124600  0.18248400  1
  O  O88  1  0.26390000  0.39649300  0.53136700  1
  O  O89  1  0.73610000  0.60350700  0.46863300  1
  O  O90  1  0.23610000  0.89649300  0.46863300  1
  O  O91  1  0.73610000  0.60350700  0.03136700  1
  O  O92  1  0.76390000  0.10350700  0.53136700  1
  O  O93  1  0.26390000  0.39649300  0.96863300  1
  O  O94  1  0.76390000  0.10350700  0.96863300  1
  O  O95  1  0.23610000  0.89649300  0.03136700  1
