# generated using pymatgen
data_YMn2SiC
_symmetry_space_group_name_H-M   'P 1'
_cell_length_a   5.60292433
_cell_length_b   5.60292433
_cell_length_c   7.00637300
_cell_angle_alpha   90.00000000
_cell_angle_beta   90.00000000
_cell_angle_gamma   141.25168187
_symmetry_Int_Tables_number   1
_chemical_formula_structural   YMn2SiC
_chemical_formula_sum   'Y2 Mn4 Si2 C2'
_cell_volume   137.66645252
_cell_formula_units_Z   2
loop_
 _symmetry_equiv_pos_site_id
 _symmetry_equiv_pos_as_xyz
  1  'x, y, z'
loop_
 _atom_site_type_symbol
 _atom_site_label
 _atom_site_symmetry_multiplicity
 _atom_site_fract_x
 _atom_site_fract_y
 _atom_site_fract_z
 _atom_site_occupancy
  Y  Y0  1  0.54398500  0.45601500  0.25000000  1
  Y  Y1  1  0.45601500  0.54398500  0.75000000  1
  Mn  Mn2  1  0.83165200  0.16834800  0.06164200  1
  Mn  Mn3  1  0.16834800  0.83165200  0.93835800  1
  Mn  Mn4  1  0.16834800  0.83165200  0.56164200  1
  Mn  Mn5  1  0.83165200  0.16834800  0.43835800  1
  Si  Si6  1  0.26495500  0.73504500  0.25000000  1
  Si  Si7  1  0.73504500  0.26495500  0.75000000  1
  C  C8  1  0.00000000  0.00000000  0.00000000  1
  C  C9  1  0.00000000  0.00000000  0.50000000  1
