# generated using pymatgen
data_Ca10Ag(PO4)7
_symmetry_space_group_name_H-M   'P 1'
_cell_length_a   13.95611831
_cell_length_b   13.95611831
_cell_length_c   13.95611782
_cell_angle_alpha   44.40253051
_cell_angle_beta   44.40253051
_cell_angle_gamma   44.40252991
_symmetry_Int_Tables_number   1
_chemical_formula_structural   Ca10Ag(PO4)7
_chemical_formula_sum   'Ca20 Ag2 P14 O56'
_cell_volume   1209.73967888
_cell_formula_units_Z   2
loop_
 _symmetry_equiv_pos_site_id
 _symmetry_equiv_pos_as_xyz
  1  'x, y, z'
loop_
 _atom_site_type_symbol
 _atom_site_label
 _atom_site_symmetry_multiplicity
 _atom_site_fract_x
 _atom_site_fract_y
 _atom_site_fract_z
 _atom_site_occupancy
  Ca  Ca0  1  0.00147400  0.00147400  0.00147400  1
  Ca  Ca1  1  0.50147400  0.50147400  0.50147400  1
  Ca  Ca2  1  0.93928800  0.92832100  0.34464900  1
  Ca  Ca3  1  0.92832100  0.34464900  0.93928800  1
  Ca  Ca4  1  0.34464900  0.93928800  0.92832100  1
  Ca  Ca5  1  0.42832100  0.43928800  0.84464900  1
  Ca  Ca6  1  0.43928800  0.84464900  0.42832100  1
  Ca  Ca7  1  0.84464900  0.42832100  0.43928800  1
  Ca  Ca8  1  0.15158100  0.59127700  0.56856500  1
  Ca  Ca9  1  0.59127700  0.56856500  0.15158100  1
  Ca  Ca10  1  0.56856500  0.15158100  0.59127700  1
  Ca  Ca11  1  0.09127700  0.65158100  0.06856500  1
  Ca  Ca12  1  0.65158100  0.06856500  0.09127700  1
  Ca  Ca13  1  0.06856500  0.09127700  0.65158100  1
  Ca  Ca14  1  0.94267200  0.53326100  0.55478400  1
  Ca  Ca15  1  0.53326100  0.55478400  0.94267200  1
  Ca  Ca16  1  0.55478400  0.94267200  0.53326100  1
  Ca  Ca17  1  0.03326100  0.44267200  0.05478400  1
  Ca  Ca18  1  0.44267200  0.05478400  0.03326100  1
  Ca  Ca19  1  0.05478400  0.03326100  0.44267200  1
  Ag  Ag20  1  0.32226500  0.32226500  0.32226500  1
  Ag  Ag21  1  0.82226500  0.82226500  0.82226500  1
  P  P22  1  0.73522100  0.73522100  0.73522100  1
  P  P23  1  0.23522100  0.23522100  0.23522100  1
  P  P24  1  0.31439800  0.81890400  0.27809900  1
  P  P25  1  0.81890400  0.27809900  0.31439800  1
  P  P26  1  0.27809900  0.31439800  0.81890400  1
  P  P27  1  0.31890400  0.81439800  0.77809900  1
  P  P28  1  0.81439800  0.77809900  0.31890400  1
  P  P29  1  0.77809900  0.31890400  0.81439800  1
  P  P30  1  0.23369400  0.67872900  0.19568400  1
  P  P31  1  0.67872900  0.19568400  0.23369400  1
  P  P32  1  0.19568400  0.23369400  0.67872900  1
  P  P33  1  0.17872900  0.73369400  0.69568400  1
  P  P34  1  0.73369400  0.69568400  0.17872900  1
  P  P35  1  0.69568400  0.17872900  0.73369400  1
  O  O36  1  0.69376800  0.69376800  0.69376800  1
  O  O37  1  0.19376800  0.19376800  0.19376800  1
  O  O38  1  0.89220000  0.74117500  0.61130000  1
  O  O39  1  0.74117500  0.61130000  0.89220000  1
  O  O40  1  0.61130000  0.89220000  0.74117500  1
  O  O41  1  0.24117500  0.39220000  0.11130000  1
  O  O42  1  0.39220000  0.11130000  0.24117500  1
  O  O43  1  0.11130000  0.24117500  0.39220000  1
  O  O44  1  0.37326600  0.64363000  0.36254800  1
  O  O45  1  0.64363000  0.36254800  0.37326600  1
  O  O46  1  0.36254800  0.37326600  0.64363000  1
  O  O47  1  0.14363000  0.87326600  0.86254800  1
  O  O48  1  0.87326600  0.86254800  0.14363000  1
  O  O49  1  0.86254800  0.14363000  0.87326600  1
  O  O50  1  0.40917400  0.85939500  0.10617300  1
  O  O51  1  0.85939500  0.10617300  0.40917400  1
  O  O52  1  0.10617300  0.40917400  0.85939500  1
  O  O53  1  0.35939500  0.90917400  0.60617300  1
  O  O54  1  0.90917400  0.60617300  0.35939500  1
  O  O55  1  0.60617300  0.35939500  0.90917400  1
  O  O56  1  0.33750400  0.88009500  0.31629600  1
  O  O57  1  0.88009500  0.31629600  0.33750400  1
  O  O58  1  0.31629600  0.33750400  0.88009500  1
  O  O59  1  0.38009500  0.83750400  0.81629600  1
  O  O60  1  0.83750400  0.81629600  0.38009500  1
  O  O61  1  0.81629600  0.38009500  0.83750400  1
  O  O62  1  0.14356400  0.88731200  0.33024300  1
  O  O63  1  0.88731200  0.33024300  0.14356400  1
  O  O64  1  0.33024300  0.14356400  0.88731200  1
  O  O65  1  0.38731200  0.64356400  0.83024300  1
  O  O66  1  0.64356400  0.83024300  0.38731200  1
  O  O67  1  0.83024300  0.38731200  0.64356400  1
  O  O68  1  0.39781200  0.66134700  0.10979100  1
  O  O69  1  0.66134700  0.10979100  0.39781200  1
  O  O70  1  0.10979100  0.39781200  0.66134700  1
  O  O71  1  0.16134700  0.89781200  0.60979100  1
  O  O72  1  0.89781200  0.60979100  0.16134700  1
  O  O73  1  0.60979100  0.16134700  0.89781200  1
  O  O74  1  0.13955100  0.85367300  0.13031000  1
  O  O75  1  0.85367300  0.13031000  0.13955100  1
  O  O76  1  0.13031000  0.13955100  0.85367300  1
  O  O77  1  0.35367300  0.63955100  0.63031000  1
  O  O78  1  0.63955100  0.63031000  0.35367300  1
  O  O79  1  0.63031000  0.35367300  0.63955100  1
  O  O80  1  0.16056300  0.62181700  0.36821600  1
  O  O81  1  0.62181700  0.36821600  0.16056300  1
  O  O82  1  0.36821600  0.16056300  0.62181700  1
  O  O83  1  0.12181700  0.66056300  0.86821600  1
  O  O84  1  0.66056300  0.86821600  0.12181700  1
  O  O85  1  0.86821600  0.12181700  0.66056300  1
  O  O86  1  0.24015400  0.59441200  0.15484200  1
  O  O87  1  0.59441200  0.15484200  0.24015400  1
  O  O88  1  0.15484200  0.24015400  0.59441200  1
  O  O89  1  0.09441200  0.74015400  0.65484200  1
  O  O90  1  0.74015400  0.65484200  0.09441200  1
  O  O91  1  0.65484200  0.09441200  0.74015400  1
