# generated using pymatgen
data_KGaP2O7
_symmetry_space_group_name_H-M   'P 1'
_cell_length_a   9.98509400
_cell_length_b   7.44513800
_cell_length_c   8.29662170
_cell_angle_alpha   73.09462372
_cell_angle_beta   90.00000000
_cell_angle_gamma   90.00000000
_symmetry_Int_Tables_number   1
_chemical_formula_structural   KGaP2O7
_chemical_formula_sum   'K4 Ga4 P8 O28'
_cell_volume   590.12110521
_cell_formula_units_Z   4
loop_
 _symmetry_equiv_pos_site_id
 _symmetry_equiv_pos_as_xyz
  1  'x, y, z'
loop_
 _atom_site_type_symbol
 _atom_site_label
 _atom_site_symmetry_multiplicity
 _atom_site_fract_x
 _atom_site_fract_y
 _atom_site_fract_z
 _atom_site_occupancy
  K  K0  1  0.32098900  0.17702300  0.94357500  1
  K  K1  1  0.82098900  0.82297700  0.55642500  1
  K  K2  1  0.67901100  0.82297700  0.05642500  1
  K  K3  1  0.17901100  0.17702300  0.44357500  1
  Ga  Ga4  1  0.60078200  0.23802100  0.24063600  1
  Ga  Ga5  1  0.10078200  0.76197900  0.25936400  1
  Ga  Ga6  1  0.39921800  0.76197900  0.75936400  1
  Ga  Ga7  1  0.89921800  0.23802100  0.74063600  1
  P  P8  1  0.59691700  0.12940700  0.66948000  1
  P  P9  1  0.09691700  0.87059300  0.83052000  1
  P  P10  1  0.40308300  0.87059300  0.33052000  1
  P  P11  1  0.90308300  0.12940700  0.16948000  1
  P  P12  1  0.86593500  0.43836400  0.30950300  1
  P  P13  1  0.36593500  0.56163600  0.19049700  1
  P  P14  1  0.13406500  0.56163600  0.69049700  1
  P  P15  1  0.63406500  0.43836400  0.80950300  1
  O  O16  1  0.55578100  0.33372600  0.68891100  1
  O  O17  1  0.05578100  0.66627400  0.81108900  1
  O  O18  1  0.44421900  0.66627400  0.31108900  1
  O  O19  1  0.94421900  0.33372600  0.18891100  1
  O  O20  1  0.76310700  0.07983700  0.24750500  1
  O  O21  1  0.26310700  0.92016300  0.25249500  1
  O  O22  1  0.23689300  0.92016300  0.75249500  1
  O  O23  1  0.73689300  0.07983700  0.74750500  1
  O  O24  1  0.00461600  0.99156000  0.27792700  1
  O  O25  1  0.50461600  0.00844000  0.22207300  1
  O  O26  1  0.99538400  0.00844000  0.72207300  1
  O  O27  1  0.49538400  0.99156000  0.77792700  1
  O  O28  1  0.90783100  0.14355400  0.98525900  1
  O  O29  1  0.40783100  0.85644600  0.51474100  1
  O  O30  1  0.09216900  0.85644600  0.01474100  1
  O  O31  1  0.59216900  0.14355400  0.48525900  1
  O  O32  1  0.60412200  0.32017600  0.98864700  1
  O  O33  1  0.10412200  0.67982400  0.51135300  1
  O  O34  1  0.39587800  0.67982400  0.01135300  1
  O  O35  1  0.89587800  0.32017600  0.48864700  1
  O  O36  1  0.57608900  0.63738300  0.76323500  1
  O  O37  1  0.07608900  0.36261700  0.73676500  1
  O  O38  1  0.42391100  0.36261700  0.23676500  1
  O  O39  1  0.92391100  0.63738300  0.26323500  1
  O  O40  1  0.78267700  0.45197800  0.75672600  1
  O  O41  1  0.28267700  0.54802200  0.74327400  1
  O  O42  1  0.21732300  0.54802200  0.24327400  1
  O  O43  1  0.71732300  0.45197800  0.25672600  1
