# generated using pymatgen
data_Sr10P6SO24
_symmetry_space_group_name_H-M   'P 1'
_cell_length_a   9.93135772
_cell_length_b   9.93135772
_cell_length_c   7.28635200
_cell_angle_alpha   90.00000000
_cell_angle_beta   90.00000000
_cell_angle_gamma   119.99999814
_symmetry_Int_Tables_number   1
_chemical_formula_structural   Sr10P6SO24
_chemical_formula_sum   'Sr10 P6 S1 O24'
_cell_volume   622.38345355
_cell_formula_units_Z   1
loop_
 _symmetry_equiv_pos_site_id
 _symmetry_equiv_pos_as_xyz
  1  'x, y, z'
loop_
 _atom_site_type_symbol
 _atom_site_label
 _atom_site_symmetry_multiplicity
 _atom_site_fract_x
 _atom_site_fract_y
 _atom_site_fract_z
 _atom_site_occupancy
  Sr  Sr0  1  0.98861600  0.74278000  0.74076400  1
  Sr  Sr1  1  0.25722000  0.24583500  0.74076400  1
  Sr  Sr2  1  0.75416500  0.01138400  0.74076400  1
  Sr  Sr3  1  0.74278000  0.75416500  0.25923600  1
  Sr  Sr4  1  0.01138400  0.25722000  0.25923600  1
  Sr  Sr5  1  0.24583500  0.98861600  0.25923600  1
  Sr  Sr6  1  0.66666700  0.33333300  0.48117700  1
  Sr  Sr7  1  0.33333300  0.66666700  0.51882300  1
  Sr  Sr8  1  0.66666700  0.33333300  0.97906300  1
  Sr  Sr9  1  0.33333300  0.66666700  0.02093700  1
  P  P10  1  0.36903800  0.97108300  0.75301600  1
  P  P11  1  0.60204500  0.63096200  0.75301600  1
  P  P12  1  0.97108300  0.60204500  0.24698400  1
  P  P13  1  0.02891700  0.39795500  0.75301600  1
  P  P14  1  0.39795500  0.36903800  0.24698400  1
  P  P15  1  0.63096200  0.02891700  0.24698400  1
  S  S16  1  0.00000000  0.00000000  0.50000000  1
  O  O17  1  0.47921200  0.15027900  0.73918200  1
  O  O18  1  0.09919400  0.38110200  0.56946800  1
  O  O19  1  0.28190900  0.90080600  0.56946800  1
  O  O20  1  0.61889800  0.71809100  0.56946800  1
  O  O21  1  0.90080600  0.61889800  0.43053200  1
  O  O22  1  0.71809100  0.09919400  0.43053200  1
  O  O23  1  0.38110200  0.28190900  0.43053200  1
  O  O24  1  0.06488000  0.30987600  0.90469000  1
  O  O25  1  0.24499600  0.93512000  0.90469000  1
  O  O26  1  0.69012400  0.75500400  0.90469000  1
  O  O27  1  0.30987600  0.24499600  0.09531000  1
  O  O28  1  0.11244800  0.57613500  0.79491900  1
  O  O29  1  0.46368700  0.88755200  0.79491900  1
  O  O30  1  0.42386500  0.53631300  0.79491900  1
  O  O31  1  0.88755200  0.42386500  0.20508100  1
  O  O32  1  0.53631300  0.11244800  0.20508100  1
  O  O33  1  0.32893300  0.47921200  0.26081800  1
  O  O34  1  0.52078800  0.84972100  0.26081800  1
  O  O35  1  0.15027900  0.67106700  0.26081800  1
  O  O36  1  0.67106700  0.52078800  0.73918200  1
  O  O37  1  0.75500400  0.06488000  0.09531000  1
  O  O38  1  0.84972100  0.32893300  0.73918200  1
  O  O39  1  0.57613500  0.46368700  0.20508100  1
  O  O40  1  0.93512000  0.69012400  0.09531000  1
