# generated using pymatgen
data_P4S3
_symmetry_space_group_name_H-M   'P 1'
_cell_length_a   10.58265200
_cell_length_b   11.56383100
_cell_length_c   15.27687200
_cell_angle_alpha   90.00000000
_cell_angle_beta   90.00000000
_cell_angle_gamma   90.00000000
_symmetry_Int_Tables_number   1
_chemical_formula_structural   P4S3
_chemical_formula_sum   'P32 S24'
_cell_volume   1869.52247656
_cell_formula_units_Z   8
loop_
 _symmetry_equiv_pos_site_id
 _symmetry_equiv_pos_as_xyz
  1  'x, y, z'
loop_
 _atom_site_type_symbol
 _atom_site_label
 _atom_site_symmetry_multiplicity
 _atom_site_fract_x
 _atom_site_fract_y
 _atom_site_fract_z
 _atom_site_occupancy
  P  P0  1  0.85654700  0.05209200  0.76356400  1
  P  P1  1  0.35654700  0.94790800  0.23643600  1
  P  P2  1  0.64345300  0.55209200  0.73643600  1
  P  P3  1  0.14345300  0.44790800  0.26356400  1
  P  P4  1  0.14345300  0.94790800  0.23643600  1
  P  P5  1  0.64345300  0.05209200  0.76356400  1
  P  P6  1  0.35654700  0.44790800  0.26356400  1
  P  P7  1  0.85654700  0.55209200  0.73643600  1
  P  P8  1  0.25000000  0.79969600  0.17492200  1
  P  P9  1  0.75000000  0.20030400  0.82507800  1
  P  P10  1  0.25000000  0.29969600  0.32507800  1
  P  P11  1  0.75000000  0.70030400  0.67492200  1
  P  P12  1  0.85666700  0.72413200  0.15737100  1
  P  P13  1  0.35666700  0.27586800  0.84262900  1
  P  P14  1  0.64333300  0.22413200  0.34262900  1
  P  P15  1  0.14333300  0.77586800  0.65737100  1
  P  P16  1  0.14333300  0.27586800  0.84262900  1
  P  P17  1  0.64333300  0.72413200  0.15737100  1
  P  P18  1  0.35666700  0.77586800  0.65737100  1
  P  P19  1  0.85666700  0.22413200  0.34262900  1
  P  P20  1  0.25000000  0.46960700  0.98323600  1
  P  P21  1  0.75000000  0.53039300  0.01676400  1
  P  P22  1  0.25000000  0.96960700  0.51676400  1
  P  P23  1  0.75000000  0.03039300  0.48323600  1
  P  P24  1  0.75000000  0.08414000  0.27093200  1
  P  P25  1  0.25000000  0.91586000  0.72906800  1
  P  P26  1  0.75000000  0.58414000  0.22906800  1
  P  P27  1  0.25000000  0.41586000  0.77093200  1
  P  P28  1  0.75000000  0.47479900  0.54182500  1
  P  P29  1  0.25000000  0.52520100  0.45817500  1
  P  P30  1  0.75000000  0.97479900  0.95817500  1
  P  P31  1  0.25000000  0.02520100  0.04182500  1
  S  S32  1  0.90255800  0.64629000  0.03728100  1
  S  S33  1  0.40255800  0.35371000  0.96271900  1
  S  S34  1  0.59744200  0.14629000  0.46271900  1
  S  S35  1  0.09744200  0.85371000  0.53728100  1
  S  S36  1  0.09744200  0.35371000  0.96271900  1
  S  S37  1  0.59744200  0.64629000  0.03728100  1
  S  S38  1  0.40255800  0.85371000  0.53728100  1
  S  S39  1  0.90255800  0.14629000  0.46271900  1
  S  S40  1  0.90268900  0.94645400  0.87073300  1
  S  S41  1  0.40268900  0.05354600  0.12926700  1
  S  S42  1  0.59731100  0.44645400  0.62926700  1
  S  S43  1  0.09731100  0.55354600  0.37073300  1
  S  S44  1  0.09731100  0.05354600  0.12926700  1
  S  S45  1  0.59731100  0.94645400  0.87073300  1
  S  S46  1  0.40268900  0.55354600  0.37073300  1
  S  S47  1  0.90268900  0.44645400  0.62926700  1
  S  S48  1  0.25000000  0.84169400  0.04104500  1
  S  S49  1  0.75000000  0.15830600  0.95895500  1
  S  S50  1  0.25000000  0.34169400  0.45895500  1
  S  S51  1  0.75000000  0.65830600  0.54104500  1
  S  S52  1  0.25000000  0.55414700  0.85999300  1
  S  S53  1  0.75000000  0.44585300  0.14000700  1
  S  S54  1  0.25000000  0.05414700  0.64000700  1
  S  S55  1  0.75000000  0.94585300  0.35999300  1
