# generated using pymatgen
data_Gd3Lu
_symmetry_space_group_name_H-M   'P 1'
_cell_length_a   7.15044970
_cell_length_b   7.15044970
_cell_length_c   5.71233800
_cell_angle_alpha   90.00000000
_cell_angle_beta   90.00000000
_cell_angle_gamma   119.99999721
_symmetry_Int_Tables_number   1
_chemical_formula_structural   Gd3Lu
_chemical_formula_sum   'Gd6 Lu2'
_cell_volume   252.93635303
_cell_formula_units_Z   2
loop_
 _symmetry_equiv_pos_site_id
 _symmetry_equiv_pos_as_xyz
  1  'x, y, z'
loop_
 _atom_site_type_symbol
 _atom_site_label
 _atom_site_symmetry_multiplicity
 _atom_site_fract_x
 _atom_site_fract_y
 _atom_site_fract_z
 _atom_site_occupancy
  Gd  Gd0  1  0.83218600  0.16781400  0.75000000  1
  Gd  Gd1  1  0.33562800  0.16781400  0.75000000  1
  Gd  Gd2  1  0.83218600  0.66437200  0.75000000  1
  Gd  Gd3  1  0.16781400  0.83218600  0.25000000  1
  Gd  Gd4  1  0.66437200  0.83218600  0.25000000  1
  Gd  Gd5  1  0.16781400  0.33562800  0.25000000  1
  Lu  Lu6  1  0.66666700  0.33333300  0.25000000  1
  Lu  Lu7  1  0.33333300  0.66666700  0.75000000  1
