# generated using pymatgen
data_Hf3As2
_symmetry_space_group_name_H-M   'P 1'
_cell_length_a   3.69185800
_cell_length_b   10.05518500
_cell_length_c   10.55023700
_cell_angle_alpha   90.00000000
_cell_angle_beta   90.00000000
_cell_angle_gamma   90.00000000
_symmetry_Int_Tables_number   1
_chemical_formula_structural   Hf3As2
_chemical_formula_sum   'Hf12 As8'
_cell_volume   391.64922318
_cell_formula_units_Z   4
loop_
 _symmetry_equiv_pos_site_id
 _symmetry_equiv_pos_as_xyz
  1  'x, y, z'
loop_
 _atom_site_type_symbol
 _atom_site_label
 _atom_site_symmetry_multiplicity
 _atom_site_fract_x
 _atom_site_fract_y
 _atom_site_fract_z
 _atom_site_occupancy
  Hf  Hf0  1  0.25000000  0.62521300  0.54485500  1
  Hf  Hf1  1  0.25000000  0.87478700  0.04485500  1
  Hf  Hf2  1  0.75000000  0.37478700  0.45514500  1
  Hf  Hf3  1  0.75000000  0.12521300  0.95514500  1
  Hf  Hf4  1  0.75000000  0.06840900  0.62821300  1
  Hf  Hf5  1  0.75000000  0.43159100  0.12821300  1
  Hf  Hf6  1  0.25000000  0.93159100  0.37178700  1
  Hf  Hf7  1  0.25000000  0.56840900  0.87178700  1
  Hf  Hf8  1  0.25000000  0.29298600  0.71507900  1
  Hf  Hf9  1  0.25000000  0.20701400  0.21507900  1
  Hf  Hf10  1  0.75000000  0.70701400  0.28492100  1
  Hf  Hf11  1  0.75000000  0.79298600  0.78492100  1
  As  As12  1  0.25000000  0.17680100  0.47023200  1
  As  As13  1  0.25000000  0.32319900  0.97023200  1
  As  As14  1  0.75000000  0.82319900  0.52976800  1
  As  As15  1  0.75000000  0.67680100  0.02976800  1
  As  As16  1  0.75000000  0.49832400  0.69337400  1
  As  As17  1  0.75000000  0.00167600  0.19337400  1
  As  As18  1  0.25000000  0.50167600  0.30662600  1
  As  As19  1  0.25000000  0.99832400  0.80662600  1
