# generated using pymatgen
data_Cs3Sm7Te12
_symmetry_space_group_name_H-M   'P 1'
_cell_length_a   4.52920600
_cell_length_b   13.96572500
_cell_length_c   28.66373800
_cell_angle_alpha   90.00000000
_cell_angle_beta   90.00000000
_cell_angle_gamma   90.00000000
_symmetry_Int_Tables_number   1
_chemical_formula_structural   Cs3Sm7Te12
_chemical_formula_sum   'Cs6 Sm14 Te24'
_cell_volume   1813.08592114
_cell_formula_units_Z   2
loop_
 _symmetry_equiv_pos_site_id
 _symmetry_equiv_pos_as_xyz
  1  'x, y, z'
loop_
 _atom_site_type_symbol
 _atom_site_label
 _atom_site_symmetry_multiplicity
 _atom_site_fract_x
 _atom_site_fract_y
 _atom_site_fract_z
 _atom_site_occupancy
  Cs  Cs0  1  0.50000000  0.03236600  0.36943900  1
  Cs  Cs1  1  0.50000000  0.46071000  0.63352600  1
  Cs  Cs2  1  0.00000000  0.53929000  0.13352600  1
  Cs  Cs3  1  0.00000000  0.96763400  0.86943900  1
  Cs  Cs4  1  0.50000000  0.31078100  0.02889000  1
  Cs  Cs5  1  0.00000000  0.68921900  0.52889000  1
  Sm  Sm6  1  0.50000000  0.66975200  0.31806300  1
  Sm  Sm7  1  0.50000000  0.83183700  0.68266200  1
  Sm  Sm8  1  0.00000000  0.16816300  0.18266200  1
  Sm  Sm9  1  0.00000000  0.33024800  0.81806300  1
  Sm  Sm10  1  0.50000000  0.33920400  0.28751700  1
  Sm  Sm11  1  0.50000000  0.16114500  0.71258900  1
  Sm  Sm12  1  0.00000000  0.83885500  0.21258900  1
  Sm  Sm13  1  0.00000000  0.66079600  0.78751700  1
  Sm  Sm14  1  0.50000000  0.25014500  0.50017400  1
  Sm  Sm15  1  0.00000000  0.74985500  0.00017400  1
  Sm  Sm16  1  0.50000000  0.53452000  0.91503300  1
  Sm  Sm17  1  0.50000000  0.96552300  0.08374100  1
  Sm  Sm18  1  0.00000000  0.03447700  0.58374100  1
  Sm  Sm19  1  0.00000000  0.46548000  0.41503300  1
  Te  Te20  1  0.50000000  0.62081700  0.42420000  1
  Te  Te21  1  0.50000000  0.88009100  0.57627800  1
  Te  Te22  1  0.00000000  0.11990900  0.07627800  1
  Te  Te23  1  0.00000000  0.37918300  0.92420000  1
  Te  Te24  1  0.50000000  0.32191000  0.17677300  1
  Te  Te25  1  0.50000000  0.17870400  0.82166900  1
  Te  Te26  1  0.00000000  0.82129600  0.32166900  1
  Te  Te27  1  0.00000000  0.67809000  0.67677300  1
  Te  Te28  1  0.50000000  0.59353200  0.01967100  1
  Te  Te29  1  0.50000000  0.90249400  0.98086400  1
  Te  Te30  1  0.00000000  0.09750600  0.48086400  1
  Te  Te31  1  0.00000000  0.40646800  0.51967100  1
  Te  Te32  1  0.50000000  0.31211700  0.39572500  1
  Te  Te33  1  0.50000000  0.18666400  0.60421100  1
  Te  Te34  1  0.00000000  0.81333600  0.10421100  1
  Te  Te35  1  0.00000000  0.68788300  0.89572500  1
  Te  Te36  1  0.50000000  0.49732700  0.80217900  1
  Te  Te37  1  0.50000000  0.00240700  0.19751100  1
  Te  Te38  1  0.00000000  0.99759300  0.69751100  1
  Te  Te39  1  0.00000000  0.50267300  0.30217900  1
  Te  Te40  1  0.50000000  0.68890900  0.21035500  1
  Te  Te41  1  0.50000000  0.81072100  0.78992900  1
  Te  Te42  1  0.00000000  0.18927900  0.28992900  1
  Te  Te43  1  0.00000000  0.31109100  0.71035500  1
