# generated using pymatgen
data_LiMn(CO3)2
_symmetry_space_group_name_H-M   'P 1'
_cell_length_a   4.72730110
_cell_length_b   20.63882937
_cell_length_c   4.59883741
_cell_angle_alpha   83.65279847
_cell_angle_beta   118.10488154
_cell_angle_gamma   94.33138490
_symmetry_Int_Tables_number   1
_chemical_formula_structural   LiMn(CO3)2
_chemical_formula_sum   'Li4 Mn4 C8 O24'
_cell_volume   393.21673570
_cell_formula_units_Z   4
loop_
 _symmetry_equiv_pos_site_id
 _symmetry_equiv_pos_as_xyz
  1  'x, y, z'
loop_
 _atom_site_type_symbol
 _atom_site_label
 _atom_site_symmetry_multiplicity
 _atom_site_fract_x
 _atom_site_fract_y
 _atom_site_fract_z
 _atom_site_occupancy
  Li  Li0  1  0.00036900  0.99994100  0.00029000  1
  Li  Li1  1  0.75016300  0.24995400  0.25020400  1
  Li  Li2  1  0.49977100  0.50001000  0.49991100  1
  Li  Li3  1  0.25012100  0.74999200  0.75013900  1
  Mn  Mn4  1  0.87514800  0.62507100  0.12491800  1
  Mn  Mn5  1  0.62447000  0.87501800  0.37445800  1
  Mn  Mn6  1  0.37494800  0.12486500  0.62520100  1
  Mn  Mn7  1  0.12528200  0.37505600  0.87559200  1
  C  C8  1  0.06827400  0.18341500  0.95097000  1
  C  C9  1  0.81825300  0.43356700  0.20100800  1
  C  C10  1  0.56822000  0.68349100  0.45081400  1
  C  C11  1  0.31821100  0.93353600  0.70096400  1
  C  C12  1  0.68160900  0.06637700  0.29886100  1
  C  C13  1  0.43179000  0.31653900  0.54915200  1
  C  C14  1  0.18185500  0.56653800  0.79908000  1
  C  C15  1  0.93170100  0.81655900  0.04901300  1
  O  O16  1  0.95319400  0.06272800  0.30806400  1
  O  O17  1  0.70323000  0.31273700  0.55813700  1
  O  O18  1  0.45305400  0.56273700  0.80809100  1
  O  O19  1  0.20305500  0.81273000  0.05810500  1
  O  O20  1  0.33618500  0.18181600  0.22882500  1
  O  O21  1  0.08600300  0.43221600  0.47898000  1
  O  O22  1  0.83622900  0.68195200  0.72867300  1
  O  O23  1  0.58596000  0.93213600  0.97884200  1
  O  O24  1  0.08591000  0.18282000  0.67525600  1
  O  O25  1  0.83571800  0.43286900  0.92521500  1
  O  O26  1  0.58571900  0.68287300  0.17498200  1
  O  O27  1  0.33569300  0.93287600  0.42506800  1
  O  O28  1  0.66427700  0.06712100  0.57467900  1
  O  O29  1  0.41428300  0.31714000  0.82491000  1
  O  O30  1  0.16435500  0.56712500  0.07486600  1
  O  O31  1  0.91417200  0.81715600  0.32469100  1
  O  O32  1  0.41382000  0.06759400  0.02084500  1
  O  O33  1  0.16394000  0.31811200  0.27139100  1
  O  O34  1  0.91382800  0.56813900  0.52118600  1
  O  O35  1  0.66377300  0.81813700  0.77119500  1
  O  O36  1  0.79697300  0.18725600  0.94187800  1
  O  O37  1  0.54678000  0.43727000  0.19185500  1
  O  O38  1  0.29694300  0.68727400  0.44186000  1
  O  O39  1  0.04671900  0.93725800  0.69183200  1
