# generated using pymatgen
data_TmZnPd
_symmetry_space_group_name_H-M   'P 1'
_cell_length_a   4.03158900
_cell_length_b   7.03633900
_cell_length_c   8.21039000
_cell_angle_alpha   90.00000000
_cell_angle_beta   90.00000000
_cell_angle_gamma   90.00000000
_symmetry_Int_Tables_number   1
_chemical_formula_structural   TmZnPd
_chemical_formula_sum   'Tm4 Zn4 Pd4'
_cell_volume   232.90928033
_cell_formula_units_Z   4
loop_
 _symmetry_equiv_pos_site_id
 _symmetry_equiv_pos_as_xyz
  1  'x, y, z'
loop_
 _atom_site_type_symbol
 _atom_site_label
 _atom_site_symmetry_multiplicity
 _atom_site_fract_x
 _atom_site_fract_y
 _atom_site_fract_z
 _atom_site_occupancy
  Tm  Tm0  1  0.75000000  0.44949200  0.18742500  1
  Tm  Tm1  1  0.75000000  0.94949200  0.31257500  1
  Tm  Tm2  1  0.25000000  0.55050800  0.81257500  1
  Tm  Tm3  1  0.25000000  0.05050800  0.68742500  1
  Zn  Zn4  1  0.75000000  0.86992700  0.93642700  1
  Zn  Zn5  1  0.75000000  0.36992700  0.56357300  1
  Zn  Zn6  1  0.25000000  0.13007300  0.06357300  1
  Zn  Zn7  1  0.25000000  0.63007300  0.43642700  1
  Pd  Pd8  1  0.75000000  0.25518600  0.87698800  1
  Pd  Pd9  1  0.75000000  0.75518600  0.62301200  1
  Pd  Pd10  1  0.25000000  0.74481400  0.12301200  1
  Pd  Pd11  1  0.25000000  0.24481400  0.37698800  1
