# generated using pymatgen
data_NdRu2
_symmetry_space_group_name_H-M   'P 1'
_cell_length_a   5.33079038
_cell_length_b   5.33079038
_cell_length_c   9.18197500
_cell_angle_alpha   90.00000000
_cell_angle_beta   90.00000000
_cell_angle_gamma   120.00000471
_symmetry_Int_Tables_number   1
_chemical_formula_structural   NdRu2
_chemical_formula_sum   'Nd4 Ru8'
_cell_volume   225.96955354
_cell_formula_units_Z   4
loop_
 _symmetry_equiv_pos_site_id
 _symmetry_equiv_pos_as_xyz
  1  'x, y, z'
loop_
 _atom_site_type_symbol
 _atom_site_label
 _atom_site_symmetry_multiplicity
 _atom_site_fract_x
 _atom_site_fract_y
 _atom_site_fract_z
 _atom_site_occupancy
  Nd  Nd0  1  0.33333300  0.66666700  0.43356300  1
  Nd  Nd1  1  0.66666700  0.33333300  0.56643700  1
  Nd  Nd2  1  0.66666700  0.33333300  0.93356300  1
  Nd  Nd3  1  0.33333300  0.66666700  0.06643700  1
  Ru  Ru4  1  0.00000000  0.00000000  0.50000000  1
  Ru  Ru5  1  0.00000000  0.00000000  0.00000000  1
  Ru  Ru6  1  0.82978200  0.17021800  0.25000000  1
  Ru  Ru7  1  0.82978200  0.65956400  0.25000000  1
  Ru  Ru8  1  0.34043600  0.17021800  0.25000000  1
  Ru  Ru9  1  0.17021800  0.82978200  0.75000000  1
  Ru  Ru10  1  0.17021800  0.34043600  0.75000000  1
  Ru  Ru11  1  0.65956400  0.82978200  0.75000000  1
