# generated using pymatgen
data_Ti6P2O
_symmetry_space_group_name_H-M   'P 1'
_cell_length_a   5.18558525
_cell_length_b   5.18558525
_cell_length_c   7.73342082
_cell_angle_alpha   88.72366209
_cell_angle_beta   88.72366209
_cell_angle_gamma   37.02173364
_symmetry_Int_Tables_number   1
_chemical_formula_structural   Ti6P2O
_chemical_formula_sum   'Ti6 P2 O1'
_cell_volume   125.17825866
_cell_formula_units_Z   1
loop_
 _symmetry_equiv_pos_site_id
 _symmetry_equiv_pos_as_xyz
  1  'x, y, z'
loop_
 _atom_site_type_symbol
 _atom_site_label
 _atom_site_symmetry_multiplicity
 _atom_site_fract_x
 _atom_site_fract_y
 _atom_site_fract_z
 _atom_site_occupancy
  Ti  Ti0  1  0.55523300  0.55523300  0.75928600  1
  Ti  Ti1  1  0.44476700  0.44476700  0.24071400  1
  Ti  Ti2  1  0.86273500  0.86273500  0.54745600  1
  Ti  Ti3  1  0.13726500  0.13726500  0.45254400  1
  Ti  Ti4  1  0.86082400  0.86082400  0.94420900  1
  Ti  Ti5  1  0.13917600  0.13917600  0.05579100  1
  P  P6  1  0.25128200  0.25128200  0.75203900  1
  P  P7  1  0.74871800  0.74871800  0.24796100  1
  O  O8  1  0.50000000  0.50000000  0.50000000  1
