# generated using pymatgen
data_Mg149Al
_symmetry_space_group_name_H-M   'P 1'
_cell_length_a   15.91944317
_cell_length_b   15.91944889
_cell_length_c   15.57301448
_cell_angle_alpha   90.00000000
_cell_angle_beta   90.00000000
_cell_angle_gamma   120.00001418
_symmetry_Int_Tables_number   1
_chemical_formula_structural   Mg149Al
_chemical_formula_sum   'Mg149 Al1'
_cell_volume   3417.89848002
_cell_formula_units_Z   1
loop_
 _symmetry_equiv_pos_site_id
 _symmetry_equiv_pos_as_xyz
  1  'x, y, z'
loop_
 _atom_site_type_symbol
 _atom_site_label
 _atom_site_symmetry_multiplicity
 _atom_site_fract_x
 _atom_site_fract_y
 _atom_site_fract_z
 _atom_site_occupancy
  Mg  Mg0  1  0.19804613  0.00083230  -0.00000000  1
  Mg  Mg1  1  0.80278617  0.00083230  -0.00000000  1
  Mg  Mg2  1  0.99916770  0.19721383  -0.00000000  1
  Mg  Mg3  1  0.19804613  0.19721383  -0.00000000  1
  Mg  Mg4  1  0.80034220  0.19965780  -0.00000000  1
  Mg  Mg5  1  0.39931560  0.19965780  -0.00000000  1
  Mg  Mg6  1  0.59988592  0.19977085  -0.00000000  1
  Mg  Mg7  1  0.19932166  0.39864332  -0.00000000  1
  Mg  Mg8  1  0.00006618  0.39956284  -0.00000000  1
  Mg  Mg9  1  0.39949666  0.39956284  -0.00000000  1
  Mg  Mg10  1  0.80022915  0.40011508  -0.00000000  1
  Mg  Mg11  1  0.59988592  0.40011508  -0.00000000  1
  Mg  Mg12  1  0.40010314  0.59989586  -0.00000000  1
  Mg  Mg13  1  0.19979272  0.59989686  -0.00000000  1
  Mg  Mg14  1  0.00006618  0.60050234  -0.00000000  1
  Mg  Mg15  1  0.60043716  0.60050334  -0.00000000  1
  Mg  Mg16  1  0.80034220  0.60068440  -0.00000000  1
  Mg  Mg17  1  0.40010314  0.80020728  -0.00000000  1
  Mg  Mg18  1  0.19932166  0.80067834  -0.00000000  1
  Mg  Mg19  1  0.60135668  0.80067834  -0.00000000  1
  Mg  Mg20  1  0.99916770  0.80195387  -0.00000000  1
  Mg  Mg21  1  0.80278617  0.80195387  -0.00000000  1
  Mg  Mg22  1  0.60043716  0.99993482  -0.00000000  1
  Mg  Mg23  1  0.39949666  0.99993482  -0.00000000  1
  Mg  Mg24  1  0.06574375  0.13148750  0.16469887  1
  Mg  Mg25  1  0.86851350  0.93425725  0.16469887  1
  Mg  Mg26  1  0.06574375  0.93425725  0.16469887  1
  Mg  Mg27  1  0.26613634  0.33243373  0.16611988  1
  Mg  Mg28  1  0.06629839  0.33243373  0.16611988  1
  Mg  Mg29  1  0.66756527  0.73386366  0.16611988  1
  Mg  Mg30  1  0.06629839  0.73386366  0.16611988  1
  Mg  Mg31  1  0.66756527  0.93370161  0.16611988  1
  Mg  Mg32  1  0.26613634  0.93370161  0.16611988  1
  Mg  Mg33  1  0.66666600  0.33333300  0.16655761  1
  Mg  Mg34  1  0.46667269  0.53332731  0.16637863  1
  Mg  Mg35  1  0.06665461  0.53332731  0.16637863  1
  Mg  Mg36  1  0.46667269  0.93334639  0.16637863  1
  Mg  Mg37  1  0.46669178  0.13327455  0.16646965  1
  Mg  Mg38  1  0.66658277  0.13327455  0.16646965  1
  Mg  Mg39  1  0.46669178  0.33341823  0.16646965  1
  Mg  Mg40  1  0.86672545  0.33341823  0.16646965  1
  Mg  Mg41  1  0.86672545  0.53330822  0.16646965  1
  Mg  Mg42  1  0.66658277  0.53330822  0.16646965  1
  Mg  Mg43  1  0.26650745  0.53301490  0.16651755  1
  Mg  Mg44  1  0.46698510  0.73349255  0.16651755  1
  Mg  Mg45  1  0.26650745  0.73349255  0.16651755  1
  Mg  Mg46  1  0.86634611  0.13365389  0.16708054  1
  Mg  Mg47  1  0.26730778  0.13365389  0.16708054  1
  Mg  Mg48  1  0.86634611  0.73269222  0.16708054  1
  Mg  Mg49  1  0.00000000  0.00000000  0.33290697  1
  Mg  Mg50  1  0.19941661  0.99984071  0.33312556  1
  Mg  Mg51  1  0.80042410  0.99984071  0.33312556  1
  Mg  Mg52  1  0.00016029  0.19957590  0.33312556  1
  Mg  Mg53  1  0.19941661  0.19957690  0.33312556  1
  Mg  Mg54  1  0.00016029  0.80058339  0.33312556  1
  Mg  Mg55  1  0.80042410  0.80058339  0.33312556  1
  Mg  Mg56  1  0.19991008  0.39982016  0.33303622  1
  Mg  Mg57  1  0.19991008  0.80008992  0.33303622  1
  Mg  Mg58  1  0.60018084  0.80009092  0.33303622  1
  Mg  Mg59  1  0.60025216  0.99997119  0.33311257  1
  Mg  Mg60  1  0.39971903  0.99997119  0.33311257  1
  Mg  Mg61  1  0.00002881  0.39974784  0.33311257  1
  Mg  Mg62  1  0.39971903  0.39974784  0.33311257  1
  Mg  Mg63  1  0.00002881  0.60028097  0.33311257  1
  Mg  Mg64  1  0.60025216  0.60028197  0.33311257  1
  Mg  Mg65  1  0.60000532  0.20000965  0.33306745  1
  Mg  Mg66  1  0.79999035  0.39999468  0.33306745  1
  Mg  Mg67  1  0.60000532  0.39999568  0.33306745  1
  Mg  Mg68  1  0.39988085  0.19993992  0.33328634  1
  Mg  Mg69  1  0.80005908  0.19994092  0.33328634  1
  Mg  Mg70  1  0.80005908  0.60011915  0.33328634  1
  Mg  Mg71  1  0.39999074  0.60000826  0.33314331  1
  Mg  Mg72  1  0.20001752  0.60000926  0.33314331  1
  Mg  Mg73  1  0.39999074  0.79998248  0.33314331  1
  Mg  Mg74  1  0.06651025  0.13301949  0.50000000  1
  Mg  Mg75  1  0.26635509  0.13317804  0.50000000  1
  Mg  Mg76  1  0.86682196  0.13317804  0.50000000  1
  Mg  Mg77  1  0.46661288  0.13316714  0.50000000  1
  Mg  Mg78  1  0.66655426  0.13316714  0.50000000  1
  Mg  Mg79  1  0.26658814  0.33301490  0.50000000  1
  Mg  Mg80  1  0.06642676  0.33301490  0.50000000  1
  Mg  Mg81  1  0.66666600  0.33333300  0.50000000  1
  Mg  Mg82  1  0.46661288  0.33344574  0.50000000  1
  Mg  Mg83  1  0.86683286  0.33344574  0.50000000  1
  Mg  Mg84  1  0.26652020  0.53304140  0.50000000  1
  Mg  Mg85  1  0.06647172  0.53323536  0.50000000  1
  Mg  Mg86  1  0.46676464  0.53323636  0.50000000  1
  Mg  Mg87  1  0.86683286  0.53338712  0.50000000  1
  Mg  Mg88  1  0.66655426  0.53338712  0.50000000  1
  Mg  Mg89  1  0.26652020  0.73347980  0.50000000  1
  Mg  Mg90  1  0.46695860  0.73347980  0.50000000  1
  Mg  Mg91  1  0.66698510  0.73341186  0.50000000  1
  Mg  Mg92  1  0.06642676  0.73341186  0.50000000  1
  Mg  Mg93  1  0.86682196  0.73364491  0.50000000  1
  Mg  Mg94  1  0.46676464  0.93352828  0.50000000  1
  Mg  Mg95  1  0.86698051  0.93349075  0.50000000  1
  Mg  Mg96  1  0.06651025  0.93349075  0.50000000  1
  Mg  Mg97  1  0.26658814  0.93357324  0.50000000  1
  Mg  Mg98  1  0.66698510  0.93357424  0.50000000  1
  Mg  Mg99  1  0.39999074  0.60000826  0.66685669  1
  Mg  Mg100  1  0.20001752  0.60000926  0.66685669  1
  Mg  Mg101  1  0.39999074  0.79998248  0.66685669  1
  Mg  Mg102  1  0.39988085  0.19993992  0.66671366  1
  Mg  Mg103  1  0.80005908  0.19994092  0.66671366  1
  Mg  Mg104  1  0.80005908  0.60011915  0.66671366  1
  Mg  Mg105  1  0.60000532  0.20000965  0.66693255  1
  Mg  Mg106  1  0.79999035  0.39999468  0.66693255  1
  Mg  Mg107  1  0.60000532  0.39999568  0.66693255  1
  Mg  Mg108  1  0.60025216  0.99997119  0.66688743  1
  Mg  Mg109  1  0.39971903  0.99997119  0.66688743  1
  Mg  Mg110  1  0.00002881  0.39974784  0.66688743  1
  Mg  Mg111  1  0.39971903  0.39974784  0.66688743  1
  Mg  Mg112  1  0.00002881  0.60028097  0.66688743  1
  Mg  Mg113  1  0.60025216  0.60028197  0.66688743  1
  Mg  Mg114  1  0.19991008  0.39982016  0.66696378  1
  Mg  Mg115  1  0.19991008  0.80008992  0.66696378  1
  Mg  Mg116  1  0.60018084  0.80009092  0.66696378  1
  Mg  Mg117  1  0.19941661  0.99984071  0.66687544  1
  Mg  Mg118  1  0.80042410  0.99984071  0.66687544  1
  Mg  Mg119  1  0.00016029  0.19957590  0.66687544  1
  Mg  Mg120  1  0.19941661  0.19957690  0.66687544  1
  Mg  Mg121  1  0.00016029  0.80058339  0.66687544  1
  Mg  Mg122  1  0.80042410  0.80058339  0.66687544  1
  Mg  Mg123  1  0.00000000  0.00000000  0.66709303  1
  Mg  Mg124  1  0.86634611  0.13365389  0.83291946  1
  Mg  Mg125  1  0.26730778  0.13365389  0.83291946  1
  Mg  Mg126  1  0.86634611  0.73269222  0.83291946  1
  Mg  Mg127  1  0.26650745  0.53301490  0.83348145  1
  Mg  Mg128  1  0.46698510  0.73349255  0.83348145  1
  Mg  Mg129  1  0.26650745  0.73349255  0.83348145  1
  Mg  Mg130  1  0.46669178  0.13327455  0.83353035  1
  Mg  Mg131  1  0.66658277  0.13327455  0.83353035  1
  Mg  Mg132  1  0.46669178  0.33341823  0.83353035  1
  Mg  Mg133  1  0.86672545  0.33341823  0.83353035  1
  Mg  Mg134  1  0.86672545  0.53330822  0.83353035  1
  Mg  Mg135  1  0.66658277  0.53330822  0.83353035  1
  Mg  Mg136  1  0.46667269  0.53332731  0.83362037  1
  Mg  Mg137  1  0.06665461  0.53332731  0.83362037  1
  Mg  Mg138  1  0.46667269  0.93334639  0.83362037  1
  Mg  Mg139  1  0.66666600  0.33333300  0.83344339  1
  Mg  Mg140  1  0.26613634  0.33243373  0.83388012  1
  Mg  Mg141  1  0.06629839  0.33243373  0.83388012  1
  Mg  Mg142  1  0.66756527  0.73386366  0.83388012  1
  Mg  Mg143  1  0.06629839  0.73386366  0.83388012  1
  Mg  Mg144  1  0.66756527  0.93370161  0.83388012  1
  Mg  Mg145  1  0.26613634  0.93370161  0.83388012  1
  Mg  Mg146  1  0.06574375  0.13148750  0.83530113  1
  Mg  Mg147  1  0.86851350  0.93425725  0.83530113  1
  Mg  Mg148  1  0.06574375  0.93425725  0.83530113  1
  Al  Al149  1  0.00000000  0.00000000  -0.00000000  1
