# generated using pymatgen
data_LaNiSn2
_symmetry_space_group_name_H-M   'P 1'
_cell_length_a   9.40110578
_cell_length_b   9.40110578
_cell_length_c   4.59964500
_cell_angle_alpha   90.00000000
_cell_angle_beta   90.00000000
_cell_angle_gamma   152.00610939
_symmetry_Int_Tables_number   1
_chemical_formula_structural   LaNiSn2
_chemical_formula_sum   'La2 Ni2 Sn4'
_cell_volume   190.81142677
_cell_formula_units_Z   2
loop_
 _symmetry_equiv_pos_site_id
 _symmetry_equiv_pos_as_xyz
  1  'x, y, z'
loop_
 _atom_site_type_symbol
 _atom_site_label
 _atom_site_symmetry_multiplicity
 _atom_site_fract_x
 _atom_site_fract_y
 _atom_site_fract_z
 _atom_site_occupancy
  La  La0  1  0.89022600  0.10977400  0.75000000  1
  La  La1  1  0.10977400  0.89022600  0.25000000  1
  Ni  Ni2  1  0.68321300  0.31678700  0.75000000  1
  Ni  Ni3  1  0.31678700  0.68321300  0.25000000  1
  Sn  Sn4  1  0.54692600  0.45307400  0.75000000  1
  Sn  Sn5  1  0.45307400  0.54692600  0.25000000  1
  Sn  Sn6  1  0.25101100  0.74898900  0.75000000  1
  Sn  Sn7  1  0.74898900  0.25101100  0.25000000  1
