# generated using pymatgen
data_AlFePO5
_symmetry_space_group_name_H-M   'P 1'
_cell_length_a   5.55967420
_cell_length_b   7.22775425
_cell_length_c   10.64722700
_cell_angle_alpha   90.00085218
_cell_angle_beta   90.00241087
_cell_angle_gamma   98.15945686
_symmetry_Int_Tables_number   1
_chemical_formula_structural   AlFePO5
_chemical_formula_sum   'Al4 Fe4 P4 O20'
_cell_volume   423.51658931
_cell_formula_units_Z   4
loop_
 _symmetry_equiv_pos_site_id
 _symmetry_equiv_pos_as_xyz
  1  'x, y, z'
loop_
 _atom_site_type_symbol
 _atom_site_label
 _atom_site_symmetry_multiplicity
 _atom_site_fract_x
 _atom_site_fract_y
 _atom_site_fract_z
 _atom_site_occupancy
  Al  Al0  1  0.55550600  0.35777500  0.17398300  1
  Al  Al1  1  0.94449800  0.64222000  0.67397400  1
  Al  Al2  1  0.44451800  0.64222400  0.82601600  1
  Al  Al3  1  0.05552300  0.35777300  0.32602400  1
  Fe  Fe4  1  0.60952600  0.01707700  0.35550600  1
  Fe  Fe5  1  0.89051300  0.98293800  0.85546900  1
  Fe  Fe6  1  0.39045600  0.98290800  0.64450300  1
  Fe  Fe7  1  0.10947500  0.01704600  0.14452200  1
  P  P8  1  0.06955700  0.77703800  0.40321000  1
  P  P9  1  0.43042900  0.22295800  0.90320500  1
  P  P10  1  0.93043700  0.22296800  0.59679500  1
  P  P11  1  0.56956800  0.77705100  0.09679300  1
  O  O12  1  0.75903600  0.26924800  0.27647100  1
  O  O13  1  0.74100200  0.73074300  0.77646800  1
  O  O14  1  0.24100100  0.73072400  0.72351000  1
  O  O15  1  0.25903800  0.26924400  0.22354400  1
  O  O16  1  0.11168700  0.60371800  0.32614300  1
  O  O17  1  0.38830600  0.39628200  0.82614500  1
  O  O18  1  0.88831500  0.39628400  0.67385800  1
  O  O19  1  0.61169500  0.60372600  0.17385700  1
  O  O20  1  0.59632800  0.28324400  0.01735200  1
  O  O21  1  0.90363600  0.71674500  0.51734700  1
  O  O22  1  0.40367000  0.71675500  0.98264000  1
  O  O23  1  0.09634700  0.28325400  0.48265800  1
  O  O24  1  0.94292000  0.90963100  0.31940500  1
  O  O25  1  0.55704800  0.09036500  0.81939300  1
  O  O26  1  0.05707400  0.09038900  0.68060600  1
  O  O27  1  0.44293900  0.90965300  0.18059700  1
  O  O28  1  0.68233200  0.12124700  0.54807800  1
  O  O29  1  0.81764700  0.87876900  0.04807400  1
  O  O30  1  0.31764200  0.87876000  0.45193300  1
  O  O31  1  0.18233000  0.12124500  0.95192000  1
