# generated using pymatgen
data_Cs5Tc6S8Br7
_symmetry_space_group_name_H-M   'P 1'
_cell_length_a   19.81968474
_cell_length_b   19.81968474
_cell_length_c   19.81968483
_cell_angle_alpha   30.12189223
_cell_angle_beta   30.12189223
_cell_angle_gamma   30.12189217
_symmetry_Int_Tables_number   1
_chemical_formula_structural   Cs5Tc6S8Br7
_chemical_formula_sum   'Cs10 Tc12 S16 Br14'
_cell_volume   1737.11443441
_cell_formula_units_Z   2
loop_
 _symmetry_equiv_pos_site_id
 _symmetry_equiv_pos_as_xyz
  1  'x, y, z'
loop_
 _atom_site_type_symbol
 _atom_site_label
 _atom_site_symmetry_multiplicity
 _atom_site_fract_x
 _atom_site_fract_y
 _atom_site_fract_z
 _atom_site_occupancy
  Cs  Cs0  1  0.25000000  0.91834900  0.58165100  1
  Cs  Cs1  1  0.58165100  0.25000000  0.91834900  1
  Cs  Cs2  1  0.91834900  0.58165100  0.25000000  1
  Cs  Cs3  1  0.08165100  0.41834900  0.75000000  1
  Cs  Cs4  1  0.75000000  0.08165100  0.41834900  1
  Cs  Cs5  1  0.41834900  0.75000000  0.08165100  1
  Cs  Cs6  1  0.67034800  0.67034800  0.67034800  1
  Cs  Cs7  1  0.17034800  0.17034800  0.17034800  1
  Cs  Cs8  1  0.32965200  0.32965200  0.32965200  1
  Cs  Cs9  1  0.82965200  0.82965200  0.82965200  1
  Tc  Tc10  1  0.13533100  0.84434900  0.96408700  1
  Tc  Tc11  1  0.96408700  0.13533100  0.84434900  1
  Tc  Tc12  1  0.84434900  0.96408700  0.13533100  1
  Tc  Tc13  1  0.46408700  0.34434900  0.63533100  1
  Tc  Tc14  1  0.63533100  0.46408700  0.34434900  1
  Tc  Tc15  1  0.34434900  0.63533100  0.46408700  1
  Tc  Tc16  1  0.86466900  0.15565100  0.03591300  1
  Tc  Tc17  1  0.03591300  0.86466900  0.15565100  1
  Tc  Tc18  1  0.15565100  0.03591300  0.86466900  1
  Tc  Tc19  1  0.53591300  0.65565100  0.36466900  1
  Tc  Tc20  1  0.36466900  0.53591300  0.65565100  1
  Tc  Tc21  1  0.65565100  0.36466900  0.53591300  1
  S  S22  1  0.29942800  0.76561600  0.98684100  1
  S  S23  1  0.98684100  0.29942800  0.76561600  1
  S  S24  1  0.76561600  0.98684100  0.29942800  1
  S  S25  1  0.48684100  0.26561600  0.79942800  1
  S  S26  1  0.79942800  0.48684100  0.26561600  1
  S  S27  1  0.26561600  0.79942800  0.48684100  1
  S  S28  1  0.70057200  0.23438400  0.01315900  1
  S  S29  1  0.01315900  0.70057200  0.23438400  1
  S  S30  1  0.23438400  0.01315900  0.70057200  1
  S  S31  1  0.51315900  0.73438400  0.20057200  1
  S  S32  1  0.20057200  0.51315900  0.73438400  1
  S  S33  1  0.73438400  0.20057200  0.51315900  1
  S  S34  1  0.94813300  0.94813300  0.94813300  1
  S  S35  1  0.44813300  0.44813300  0.44813300  1
  S  S36  1  0.05186700  0.05186700  0.05186700  1
  S  S37  1  0.55186700  0.55186700  0.55186700  1
  Br  Br38  1  0.33250100  0.62559300  0.90912400  1
  Br  Br39  1  0.90912400  0.33250100  0.62559300  1
  Br  Br40  1  0.62559300  0.90912400  0.33250100  1
  Br  Br41  1  0.40912400  0.12559300  0.83250100  1
  Br  Br42  1  0.83250100  0.40912400  0.12559300  1
  Br  Br43  1  0.12559300  0.83250100  0.40912400  1
  Br  Br44  1  0.66749900  0.37440700  0.09087600  1
  Br  Br45  1  0.09087600  0.66749900  0.37440700  1
  Br  Br46  1  0.37440700  0.09087600  0.66749900  1
  Br  Br47  1  0.59087600  0.87440700  0.16749900  1
  Br  Br48  1  0.16749900  0.59087600  0.87440700  1
  Br  Br49  1  0.87440700  0.16749900  0.59087600  1
  Br  Br50  1  0.25000000  0.25000000  0.25000000  1
  Br  Br51  1  0.75000000  0.75000000  0.75000000  1
