# generated using pymatgen
data_Nd2Be2GeO7
_symmetry_space_group_name_H-M   'P 1'
_cell_length_a   7.63068300
_cell_length_b   7.63068300
_cell_length_c   4.92897100
_cell_angle_alpha   90.00000000
_cell_angle_beta   90.00000000
_cell_angle_gamma   90.00000000
_symmetry_Int_Tables_number   1
_chemical_formula_structural   Nd2Be2GeO7
_chemical_formula_sum   'Nd4 Be4 Ge2 O14'
_cell_volume   287.00078670
_cell_formula_units_Z   2
loop_
 _symmetry_equiv_pos_site_id
 _symmetry_equiv_pos_as_xyz
  1  'x, y, z'
loop_
 _atom_site_type_symbol
 _atom_site_label
 _atom_site_symmetry_multiplicity
 _atom_site_fract_x
 _atom_site_fract_y
 _atom_site_fract_z
 _atom_site_occupancy
  Nd  Nd0  1  0.15953300  0.34046700  0.50543800  1
  Nd  Nd1  1  0.84046700  0.65953300  0.50543800  1
  Nd  Nd2  1  0.65953300  0.15953300  0.49456200  1
  Nd  Nd3  1  0.34046700  0.84046700  0.49456200  1
  Be  Be4  1  0.63263100  0.86736900  0.95775300  1
  Be  Be5  1  0.36736900  0.13263100  0.95775300  1
  Be  Be6  1  0.13263100  0.63263100  0.04224700  1
  Be  Be7  1  0.86736900  0.36736900  0.04224700  1
  Ge  Ge8  1  0.00000000  0.00000000  0.00000000  1
  Ge  Ge9  1  0.50000000  0.50000000  0.00000000  1
  O  O10  1  0.00000000  0.50000000  0.17574600  1
  O  O11  1  0.50000000  0.00000000  0.82425400  1
  O  O12  1  0.64134000  0.85866000  0.27906100  1
  O  O13  1  0.35866000  0.14134000  0.27906100  1
  O  O14  1  0.14134000  0.64134000  0.72093900  1
  O  O15  1  0.85866000  0.35866000  0.72093900  1
  O  O16  1  0.07695900  0.82637600  0.20539700  1
  O  O17  1  0.92304100  0.17362400  0.20539700  1
  O  O18  1  0.17362400  0.07695900  0.79460300  1
  O  O19  1  0.42304100  0.32637600  0.79460300  1
  O  O20  1  0.82637600  0.92304100  0.79460300  1
  O  O21  1  0.57695900  0.67362400  0.79460300  1
  O  O22  1  0.32637600  0.57695900  0.20539700  1
  O  O23  1  0.67362400  0.42304100  0.20539700  1
