# generated using pymatgen
data_Nb3In2Cl9
_symmetry_space_group_name_H-M   'P 1'
_cell_length_a   9.81535590
_cell_length_b   9.81535590
_cell_length_c   9.71360288
_cell_angle_alpha   76.60962428
_cell_angle_beta   76.60962428
_cell_angle_gamma   115.52852290
_symmetry_Int_Tables_number   1
_chemical_formula_structural   Nb3In2Cl9
_chemical_formula_sum   'Nb6 In4 Cl18'
_cell_volume   760.71563066
_cell_formula_units_Z   2
loop_
 _symmetry_equiv_pos_site_id
 _symmetry_equiv_pos_as_xyz
  1  'x, y, z'
loop_
 _atom_site_type_symbol
 _atom_site_label
 _atom_site_symmetry_multiplicity
 _atom_site_fract_x
 _atom_site_fract_y
 _atom_site_fract_z
 _atom_site_occupancy
  Nb  Nb0  1  0.61545300  0.61545300  0.12981300  1
  Nb  Nb1  1  0.38454700  0.38454700  0.87018700  1
  Nb  Nb2  1  0.45495900  0.27787200  0.14176200  1
  Nb  Nb3  1  0.54504100  0.72212800  0.85823800  1
  Nb  Nb4  1  0.72212800  0.54504100  0.85823800  1
  Nb  Nb5  1  0.27787200  0.45495900  0.14176200  1
  In  In6  1  0.72756100  0.04934800  0.32884800  1
  In  In7  1  0.27243900  0.95065200  0.67115200  1
  In  In8  1  0.95065200  0.27243900  0.67115200  1
  In  In9  1  0.04934800  0.72756100  0.32884800  1
  Cl  Cl10  1  0.70925800  0.29074200  0.00000000  1
  Cl  Cl11  1  0.29074200  0.70925800  0.00000000  1
  Cl  Cl12  1  0.39509500  0.99219900  0.32424300  1
  Cl  Cl13  1  0.60490500  0.00780100  0.67575700  1
  Cl  Cl14  1  0.00780100  0.60490500  0.67575700  1
  Cl  Cl15  1  0.99219900  0.39509500  0.32424300  1
  Cl  Cl16  1  0.31208400  0.10226400  0.01462800  1
  Cl  Cl17  1  0.68791600  0.89773600  0.98537200  1
  Cl  Cl18  1  0.89773600  0.68791600  0.98537200  1
  Cl  Cl19  1  0.10226400  0.31208400  0.01462800  1
  Cl  Cl20  1  0.76183400  0.76183400  0.29015500  1
  Cl  Cl21  1  0.23816600  0.23816600  0.70984500  1
  Cl  Cl22  1  0.81522100  0.81522100  0.66509400  1
  Cl  Cl23  1  0.18477900  0.18477900  0.33490600  1
  Cl  Cl24  1  0.58412200  0.37338400  0.31763200  1
  Cl  Cl25  1  0.41587800  0.62661600  0.68236800  1
  Cl  Cl26  1  0.62661600  0.41587800  0.68236800  1
  Cl  Cl27  1  0.37338400  0.58412200  0.31763200  1
