# generated using pymatgen
data_Cs10P4PdSe16
_symmetry_space_group_name_H-M   'P 1'
_cell_length_a   14.27525100
_cell_length_b   14.27525100
_cell_length_c   11.94830600
_cell_angle_alpha   90.00000000
_cell_angle_beta   90.00000000
_cell_angle_gamma   90.00000000
_symmetry_Int_Tables_number   1
_chemical_formula_structural   Cs10P4PdSe16
_chemical_formula_sum   'Cs20 P8 Pd2 Se32'
_cell_volume   2434.85914575
_cell_formula_units_Z   2
loop_
 _symmetry_equiv_pos_site_id
 _symmetry_equiv_pos_as_xyz
  1  'x, y, z'
loop_
 _atom_site_type_symbol
 _atom_site_label
 _atom_site_symmetry_multiplicity
 _atom_site_fract_x
 _atom_site_fract_y
 _atom_site_fract_z
 _atom_site_occupancy
  Cs  Cs0  1  0.35355700  0.50000000  0.50000000  1
  Cs  Cs1  1  0.64644300  0.50000000  0.50000000  1
  Cs  Cs2  1  0.50000000  0.35355700  0.00000000  1
  Cs  Cs3  1  0.50000000  0.64644300  0.00000000  1
  Cs  Cs4  1  0.50000000  0.00000000  0.30221700  1
  Cs  Cs5  1  0.50000000  0.00000000  0.69778300  1
  Cs  Cs6  1  0.00000000  0.50000000  0.19778300  1
  Cs  Cs7  1  0.00000000  0.50000000  0.80221700  1
  Cs  Cs8  1  0.25876800  0.25876800  0.25000000  1
  Cs  Cs9  1  0.74123200  0.74123200  0.25000000  1
  Cs  Cs10  1  0.74123200  0.25876800  0.75000000  1
  Cs  Cs11  1  0.25876800  0.74123200  0.75000000  1
  Cs  Cs12  1  0.74123200  0.25876800  0.25000000  1
  Cs  Cs13  1  0.25876800  0.74123200  0.25000000  1
  Cs  Cs14  1  0.74123200  0.74123200  0.75000000  1
  Cs  Cs15  1  0.25876800  0.25876800  0.75000000  1
  Cs  Cs16  1  0.15846800  0.00000000  0.50000000  1
  Cs  Cs17  1  0.84153200  0.00000000  0.50000000  1
  Cs  Cs18  1  0.00000000  0.15846800  0.00000000  1
  Cs  Cs19  1  0.00000000  0.84153200  0.00000000  1
  P  P20  1  0.00000000  0.26369900  0.50000000  1
  P  P21  1  0.00000000  0.73630100  0.50000000  1
  P  P22  1  0.73630100  0.00000000  0.00000000  1
  P  P23  1  0.26369900  0.00000000  0.00000000  1
  P  P24  1  0.50000000  0.24127900  0.50000000  1
  P  P25  1  0.50000000  0.75872100  0.50000000  1
  P  P26  1  0.75872100  0.50000000  0.00000000  1
  P  P27  1  0.24127900  0.50000000  0.00000000  1
  Pd  Pd28  1  0.00000000  0.50000000  0.50000000  1
  Pd  Pd29  1  0.50000000  0.00000000  0.00000000  1
  Se  Se30  1  0.11752700  0.37155700  0.50000000  1
  Se  Se31  1  0.88247300  0.62844300  0.50000000  1
  Se  Se32  1  0.88247300  0.37155700  0.50000000  1
  Se  Se33  1  0.11752700  0.62844300  0.50000000  1
  Se  Se34  1  0.62844300  0.11752700  0.00000000  1
  Se  Se35  1  0.37155700  0.88247300  0.00000000  1
  Se  Se36  1  0.62844300  0.88247300  0.00000000  1
  Se  Se37  1  0.37155700  0.11752700  0.00000000  1
  Se  Se38  1  0.00000000  0.17850400  0.34810200  1
  Se  Se39  1  0.00000000  0.82149600  0.34810200  1
  Se  Se40  1  0.00000000  0.17850400  0.65189800  1
  Se  Se41  1  0.00000000  0.82149600  0.65189800  1
  Se  Se42  1  0.82149600  0.00000000  0.15189800  1
  Se  Se43  1  0.17850400  0.00000000  0.15189800  1
  Se  Se44  1  0.82149600  0.00000000  0.84810200  1
  Se  Se45  1  0.17850400  0.00000000  0.84810200  1
  Se  Se46  1  0.37106800  0.15106200  0.50000000  1
  Se  Se47  1  0.62893200  0.84893800  0.50000000  1
  Se  Se48  1  0.62893200  0.15106200  0.50000000  1
  Se  Se49  1  0.37106800  0.84893800  0.50000000  1
  Se  Se50  1  0.84893800  0.37106800  0.00000000  1
  Se  Se51  1  0.15106200  0.62893200  0.00000000  1
  Se  Se52  1  0.84893800  0.62893200  0.00000000  1
  Se  Se53  1  0.15106200  0.37106800  0.00000000  1
  Se  Se54  1  0.50000000  0.32949700  0.34676800  1
  Se  Se55  1  0.50000000  0.67050300  0.34676800  1
  Se  Se56  1  0.50000000  0.32949700  0.65323200  1
  Se  Se57  1  0.50000000  0.67050300  0.65323200  1
  Se  Se58  1  0.67050300  0.50000000  0.15323200  1
  Se  Se59  1  0.32949700  0.50000000  0.15323200  1
  Se  Se60  1  0.67050300  0.50000000  0.84676800  1
  Se  Se61  1  0.32949700  0.50000000  0.84676800  1
