# generated using pymatgen
data_Zn2Cr3FeO8
_symmetry_space_group_name_H-M   'P 1'
_cell_length_a   6.01304239
_cell_length_b   6.01304380
_cell_length_c   6.01303530
_cell_angle_alpha   60.12894127
_cell_angle_beta   119.87099645
_cell_angle_gamma   119.87079421
_symmetry_Int_Tables_number   1
_chemical_formula_structural   Zn2Cr3FeO8
_chemical_formula_sum   'Zn2 Cr3 Fe1 O8'
_cell_volume   154.18254040
_cell_formula_units_Z   1
loop_
 _symmetry_equiv_pos_site_id
 _symmetry_equiv_pos_as_xyz
  1  'x, y, z'
loop_
 _atom_site_type_symbol
 _atom_site_label
 _atom_site_symmetry_multiplicity
 _atom_site_fract_x
 _atom_site_fract_y
 _atom_site_fract_z
 _atom_site_occupancy
  Zn  Zn0  1  0.24941400  0.75058600  0.75058700  1
  Zn  Zn1  1  0.00058700  0.99941200  0.99941400  1
  Cr  Cr2  1  0.62500200  0.87500300  0.37500200  1
  Cr  Cr3  1  0.62500400  0.37501000  0.87499800  1
  Cr  Cr4  1  0.12498900  0.37499500  0.37499400  1
  Fe  Fe5  1  0.62500100  0.37499900  0.37500100  1
  O  O6  1  0.86312800  0.13687200  0.13687400  1
  O  O7  1  0.38687300  0.61312600  0.61312700  1
  O  O8  1  0.86484900  0.59155200  0.13515300  1
  O  O9  1  0.86484900  0.13515100  0.59155400  1
  O  O10  1  0.40844900  0.13515100  0.13515300  1
  O  O11  1  0.38515200  0.15844700  0.61484900  1
  O  O12  1  0.38515200  0.61484800  0.15844700  1
  O  O13  1  0.84155300  0.61484800  0.61484800  1
