# generated using pymatgen
data_YSnF7
_symmetry_space_group_name_H-M   'P 1'
_cell_length_a   5.67851700
_cell_length_b   9.00543600
_cell_length_c   12.12798923
_cell_angle_alpha   62.50092252
_cell_angle_beta   90.00000000
_cell_angle_gamma   90.00000000
_symmetry_Int_Tables_number   1
_chemical_formula_structural   YSnF7
_chemical_formula_sum   'Y4 Sn4 F28'
_cell_volume   550.12456876
_cell_formula_units_Z   4
loop_
 _symmetry_equiv_pos_site_id
 _symmetry_equiv_pos_as_xyz
  1  'x, y, z'
loop_
 _atom_site_type_symbol
 _atom_site_label
 _atom_site_symmetry_multiplicity
 _atom_site_fract_x
 _atom_site_fract_y
 _atom_site_fract_z
 _atom_site_occupancy
  Y  Y0  1  0.75778800  0.81364900  0.76557000  1
  Y  Y1  1  0.25778800  0.18635100  0.73443000  1
  Y  Y2  1  0.24221200  0.18635100  0.23443000  1
  Y  Y3  1  0.74221200  0.81364900  0.26557000  1
  Sn  Sn4  1  0.75678800  0.27258100  0.95658800  1
  Sn  Sn5  1  0.25678800  0.72741900  0.54341200  1
  Sn  Sn6  1  0.24321200  0.72741900  0.04341200  1
  Sn  Sn7  1  0.74321200  0.27258100  0.45658800  1
  F  F8  1  0.45468600  0.70712000  0.91944800  1
  F  F9  1  0.95468600  0.29288000  0.58055200  1
  F  F10  1  0.54531400  0.29288000  0.08055200  1
  F  F11  1  0.04531400  0.70712000  0.41944800  1
  F  F12  1  0.44965500  0.28092600  0.54630900  1
  F  F13  1  0.94965500  0.71907400  0.95369100  1
  F  F14  1  0.55034500  0.71907400  0.45369100  1
  F  F15  1  0.05034500  0.28092600  0.04630900  1
  F  F16  1  0.77183500  0.52103200  0.85879500  1
  F  F17  1  0.27183500  0.47896800  0.64120500  1
  F  F18  1  0.22816500  0.47896800  0.14120500  1
  F  F19  1  0.72816500  0.52103200  0.35879500  1
  F  F20  1  0.75857800  0.02363800  0.05358900  1
  F  F21  1  0.25857800  0.97636200  0.44641100  1
  F  F22  1  0.24142200  0.97636200  0.94641100  1
  F  F23  1  0.74142200  0.02363800  0.55358900  1
  F  F24  1  0.97984900  0.72982000  0.64462100  1
  F  F25  1  0.47984900  0.27018000  0.85537900  1
  F  F26  1  0.02015100  0.27018000  0.35537900  1
  F  F27  1  0.52015100  0.72982000  0.14462100  1
  F  F28  1  0.04066300  0.74498300  0.17287900  1
  F  F29  1  0.54066300  0.25501700  0.32712100  1
  F  F30  1  0.95933700  0.25501700  0.82712100  1
  F  F31  1  0.45933700  0.74498300  0.67287900  1
  F  F32  1  0.42382800  0.97170100  0.23430000  1
  F  F33  1  0.92382800  0.02829900  0.26570000  1
  F  F34  1  0.57617200  0.02829900  0.76570000  1
  F  F35  1  0.07617200  0.97170100  0.73430000  1
