# generated using pymatgen
data_Ca2FeIrO6
_symmetry_space_group_name_H-M   'P 1'
_cell_length_a   5.58643100
_cell_length_b   9.45769406
_cell_length_c   9.46596413
_cell_angle_alpha   69.94461590
_cell_angle_beta   90.00092558
_cell_angle_gamma   89.99889131
_symmetry_Int_Tables_number   1
_chemical_formula_structural   Ca2FeIrO6
_chemical_formula_sum   'Ca8 Fe4 Ir4 O24'
_cell_volume   469.80468645
_cell_formula_units_Z   4
loop_
 _symmetry_equiv_pos_site_id
 _symmetry_equiv_pos_as_xyz
  1  'x, y, z'
loop_
 _atom_site_type_symbol
 _atom_site_label
 _atom_site_symmetry_multiplicity
 _atom_site_fract_x
 _atom_site_fract_y
 _atom_site_fract_z
 _atom_site_occupancy
  Ca  Ca0  1  0.94634500  0.11819100  0.13093500  1
  Ca  Ca1  1  0.94432700  0.61775200  0.63122800  1
  Ca  Ca2  1  0.44636700  0.88202500  0.36905800  1
  Ca  Ca3  1  0.44421800  0.38203500  0.86878900  1
  Ca  Ca4  1  0.55367600  0.11817900  0.63093800  1
  Ca  Ca5  1  0.55567900  0.61774200  0.13121600  1
  Ca  Ca6  1  0.05361000  0.88204500  0.86903800  1
  Ca  Ca7  1  0.05575400  0.38203400  0.36876500  1
  Fe  Fe8  1  0.49998000  0.50011400  0.49997200  1
  Fe  Fe9  1  0.00007800  0.50013400  0.99999800  1
  Fe  Fe10  1  0.49999100  0.99985500  0.00002100  1
  Fe  Fe11  1  0.00001500  0.99987300  0.50004800  1
  Ir  Ir12  1  0.50003800  0.25037000  0.24917400  1
  Ir  Ir13  1  0.50000200  0.74965500  0.75084200  1
  Ir  Ir14  1  0.00001400  0.74961400  0.25086100  1
  Ir  Ir15  1  0.99996000  0.25037000  0.74917300  1
  O  O16  1  0.47224300  0.32766200  0.42062900  1
  O  O17  1  0.47503900  0.82931200  0.91866400  1
  O  O18  1  0.97500300  0.17076000  0.58160700  1
  O  O19  1  0.97225800  0.67242900  0.07928500  1
  O  O20  1  0.02492800  0.82925100  0.41855300  1
  O  O21  1  0.02775700  0.32764800  0.92058700  1
  O  O22  1  0.52775400  0.67234200  0.57915700  1
  O  O23  1  0.52496700  0.17070200  0.08155000  1
  O  O24  1  0.20281100  0.91973000  0.12542500  1
  O  O25  1  0.20001200  0.42276300  0.62510600  1
  O  O26  1  0.70264100  0.08040800  0.37445300  1
  O  O27  1  0.70013400  0.57698800  0.87510400  1
  O  O28  1  0.29709100  0.91979700  0.62537600  1
  O  O29  1  0.30000000  0.42277200  0.12507100  1
  O  O30  1  0.79736500  0.08041400  0.87442500  1
  O  O31  1  0.79995500  0.57704500  0.37505200  1
  O  O32  1  0.20928100  0.12692100  0.32555100  1
  O  O33  1  0.20497200  0.62731700  0.82354000  1
  O  O34  1  0.70909300  0.87312300  0.17436300  1
  O  O35  1  0.70528400  0.37255400  0.67656700  1
  O  O36  1  0.29066500  0.12693500  0.82552000  1
  O  O37  1  0.29489200  0.62737300  0.32351500  1
  O  O38  1  0.79104600  0.87319900  0.67432200  1
  O  O39  1  0.79475400  0.37256700  0.17652200  1
