# generated using pymatgen
data_Ti3V2Cr(PO4)6
_symmetry_space_group_name_H-M   'P 1'
_cell_length_a   8.61064029
_cell_length_b   8.61064029
_cell_length_c   8.61064019
_cell_angle_alpha   60.23177651
_cell_angle_beta   60.23177651
_cell_angle_gamma   60.23177407
_symmetry_Int_Tables_number   1
_chemical_formula_structural   Ti3V2Cr(PO4)6
_chemical_formula_sum   'Ti3 V2 Cr1 P6 O24'
_cell_volume   453.79970634
_cell_formula_units_Z   1
loop_
 _symmetry_equiv_pos_site_id
 _symmetry_equiv_pos_as_xyz
  1  'x, y, z'
loop_
 _atom_site_type_symbol
 _atom_site_label
 _atom_site_symmetry_multiplicity
 _atom_site_fract_x
 _atom_site_fract_y
 _atom_site_fract_z
 _atom_site_occupancy
  Ti  Ti0  1  0.64562200  0.64562200  0.64562200  1
  Ti  Ti1  1  0.85544800  0.85544800  0.85544800  1
  Ti  Ti2  1  0.35463500  0.35463500  0.35463500  1
  V  V3  1  0.99959300  0.99959300  0.99959300  1
  V  V4  1  0.50075800  0.50075800  0.50075800  1
  Cr  Cr5  1  0.14272700  0.14272700  0.14272700  1
  P  P6  1  0.95637700  0.24988600  0.54085900  1
  P  P7  1  0.54085900  0.95637700  0.24988600  1
  P  P8  1  0.24988600  0.54085900  0.95637700  1
  P  P9  1  0.75108000  0.45517600  0.04482200  1
  P  P10  1  0.45517600  0.04482200  0.75108000  1
  P  P11  1  0.04482200  0.75108000  0.45517600  1
  O  O12  1  0.49834800  0.11781000  0.31331300  1
  O  O13  1  0.31331300  0.49834800  0.11781000  1
  O  O14  1  0.11781000  0.31331300  0.49834800  1
  O  O15  1  0.94295100  0.08743200  0.73727900  1
  O  O16  1  0.99296700  0.19004900  0.38409600  1
  O  O17  1  0.76172700  0.41386700  0.56143300  1
  O  O18  1  0.73727900  0.94295100  0.08743200  1
  O  O19  1  0.56143300  0.76172700  0.41386700  1
  O  O20  1  0.81318400  0.61626300  0.00160100  1
  O  O21  1  0.41386700  0.56143300  0.76172700  1
  O  O22  1  0.91283000  0.26075400  0.05838000  1
  O  O23  1  0.61626300  0.00160100  0.81318400  1
  O  O24  1  0.38409600  0.99296700  0.19004900  1
  O  O25  1  0.08743200  0.73727900  0.94295100  1
  O  O26  1  0.58681500  0.44187700  0.23866800  1
  O  O27  1  0.19004900  0.38409600  0.99296700  1
  O  O28  1  0.44187700  0.23866800  0.58681500  1
  O  O29  1  0.26075400  0.05838000  0.91283000  1
  O  O30  1  0.23866800  0.58681500  0.44187700  1
  O  O31  1  0.00160100  0.81318400  0.61626300  1
  O  O32  1  0.05838000  0.91283000  0.26075400  1
  O  O33  1  0.88522500  0.68677700  0.49938300  1
  O  O34  1  0.68677700  0.49938300  0.88522500  1
  O  O35  1  0.49938300  0.88522500  0.68677700  1
