# generated using pymatgen
data_K3Ge4Au
_symmetry_space_group_name_H-M   'P 1'
_cell_length_a   6.19527700
_cell_length_b   6.71184600
_cell_length_c   12.17578200
_cell_angle_alpha   90.00000000
_cell_angle_beta   90.00000000
_cell_angle_gamma   90.00000000
_symmetry_Int_Tables_number   1
_chemical_formula_structural   K3Ge4Au
_chemical_formula_sum   'K6 Ge8 Au2'
_cell_volume   506.29026414
_cell_formula_units_Z   2
loop_
 _symmetry_equiv_pos_site_id
 _symmetry_equiv_pos_as_xyz
  1  'x, y, z'
loop_
 _atom_site_type_symbol
 _atom_site_label
 _atom_site_symmetry_multiplicity
 _atom_site_fract_x
 _atom_site_fract_y
 _atom_site_fract_z
 _atom_site_occupancy
  K  K0  1  0.42165200  0.50000000  0.50000000  1
  K  K1  1  0.57834800  0.00000000  0.00000000  1
  K  K2  1  0.16880600  0.00000000  0.23720700  1
  K  K3  1  0.16880600  0.00000000  0.76279300  1
  K  K4  1  0.83119400  0.50000000  0.26279300  1
  K  K5  1  0.83119400  0.50000000  0.73720700  1
  Ge  Ge6  1  0.94227700  0.20736300  0.50000000  1
  Ge  Ge7  1  0.67274100  0.00000000  0.61445200  1
  Ge  Ge8  1  0.32725900  0.50000000  0.11445200  1
  Ge  Ge9  1  0.32725900  0.50000000  0.88554800  1
  Ge  Ge10  1  0.05772300  0.70736300  0.00000000  1
  Ge  Ge11  1  0.05772300  0.29263700  0.00000000  1
  Ge  Ge12  1  0.67274100  0.00000000  0.38554800  1
  Ge  Ge13  1  0.94227700  0.79263700  0.50000000  1
  Au  Au14  1  0.69082000  0.50000000  0.00000000  1
  Au  Au15  1  0.30918000  0.00000000  0.50000000  1
