# generated using pymatgen
data_Sm6Ti4Al43
_symmetry_space_group_name_H-M   'P 1'
_cell_length_a   11.16502810
_cell_length_b   11.16502810
_cell_length_c   17.97226500
_cell_angle_alpha   90.00000000
_cell_angle_beta   90.00000000
_cell_angle_gamma   120.00000061
_symmetry_Int_Tables_number   1
_chemical_formula_structural   Sm6Ti4Al43
_chemical_formula_sum   'Sm12 Ti8 Al86'
_cell_volume   1940.22941165
_cell_formula_units_Z   2
loop_
 _symmetry_equiv_pos_site_id
 _symmetry_equiv_pos_as_xyz
  1  'x, y, z'
loop_
 _atom_site_type_symbol
 _atom_site_label
 _atom_site_symmetry_multiplicity
 _atom_site_fract_x
 _atom_site_fract_y
 _atom_site_fract_z
 _atom_site_occupancy
  Sm  Sm0  1  0.53004300  0.00000000  0.59633900  1
  Sm  Sm1  1  0.46995700  0.00000000  0.40366100  1
  Sm  Sm2  1  0.00000000  0.53004300  0.59633900  1
  Sm  Sm3  1  0.46995700  0.00000000  0.09633900  1
  Sm  Sm4  1  0.00000000  0.53004300  0.90366100  1
  Sm  Sm5  1  0.00000000  0.46995700  0.40366100  1
  Sm  Sm6  1  0.53004300  0.00000000  0.90366100  1
  Sm  Sm7  1  0.00000000  0.46995700  0.09633900  1
  Sm  Sm8  1  0.46995700  0.46995700  0.59633900  1
  Sm  Sm9  1  0.53004300  0.53004300  0.40366100  1
  Sm  Sm10  1  0.53004300  0.53004300  0.09633900  1
  Sm  Sm11  1  0.46995700  0.46995700  0.90366100  1
  Ti  Ti12  1  0.00000000  0.00000000  0.50000000  1
  Ti  Ti13  1  0.00000000  0.00000000  0.00000000  1
  Ti  Ti14  1  0.72793400  0.00000000  0.75000000  1
  Ti  Ti15  1  0.27206600  0.00000000  0.25000000  1
  Ti  Ti16  1  0.00000000  0.72793400  0.75000000  1
  Ti  Ti17  1  0.00000000  0.27206600  0.25000000  1
  Ti  Ti18  1  0.27206600  0.27206600  0.75000000  1
  Ti  Ti19  1  0.72793400  0.72793400  0.25000000  1
  Al  Al20  1  0.15018300  0.59776900  0.75000000  1
  Al  Al21  1  0.84981700  0.40223100  0.25000000  1
  Al  Al22  1  0.40223100  0.55241400  0.75000000  1
  Al  Al23  1  0.59776900  0.15018300  0.75000000  1
  Al  Al24  1  0.59776900  0.44758600  0.25000000  1
  Al  Al25  1  0.40223100  0.84981700  0.25000000  1
  Al  Al26  1  0.44758600  0.84981700  0.75000000  1
  Al  Al27  1  0.55241400  0.40223100  0.75000000  1
  Al  Al28  1  0.55241400  0.15018300  0.25000000  1
  Al  Al29  1  0.44758600  0.59776900  0.25000000  1
  Al  Al30  1  0.84981700  0.44758600  0.75000000  1
  Al  Al31  1  0.15018300  0.55241400  0.25000000  1
  Al  Al32  1  0.15648300  0.00000000  0.11611700  1
  Al  Al33  1  0.84351700  0.00000000  0.88388300  1
  Al  Al34  1  0.00000000  0.15648300  0.11611700  1
  Al  Al35  1  0.84351700  0.00000000  0.61611700  1
  Al  Al36  1  0.00000000  0.15648300  0.38388300  1
  Al  Al37  1  0.00000000  0.84351700  0.88388300  1
  Al  Al38  1  0.15648300  0.00000000  0.38388300  1
  Al  Al39  1  0.00000000  0.84351700  0.61611700  1
  Al  Al40  1  0.84351700  0.84351700  0.11611700  1
  Al  Al41  1  0.15648300  0.15648300  0.88388300  1
  Al  Al42  1  0.15648300  0.15648300  0.61611700  1
  Al  Al43  1  0.84351700  0.84351700  0.38388300  1
  Al  Al44  1  0.24725100  0.49450200  0.50000000  1
  Al  Al45  1  0.75274900  0.50549800  0.50000000  1
  Al  Al46  1  0.50549800  0.75274900  0.50000000  1
  Al  Al47  1  0.75274900  0.50549800  0.00000000  1
  Al  Al48  1  0.49450200  0.24725100  0.00000000  1
  Al  Al49  1  0.49450200  0.24725100  0.50000000  1
  Al  Al50  1  0.24725100  0.49450200  0.00000000  1
  Al  Al51  1  0.50549800  0.75274900  0.00000000  1
  Al  Al52  1  0.24725100  0.75274900  0.50000000  1
  Al  Al53  1  0.75274900  0.24725100  0.50000000  1
  Al  Al54  1  0.75274900  0.24725100  0.00000000  1
  Al  Al55  1  0.24725100  0.75274900  0.00000000  1
  Al  Al56  1  0.14603300  0.00000000  0.75000000  1
  Al  Al57  1  0.85396700  0.00000000  0.25000000  1
  Al  Al58  1  0.00000000  0.14603300  0.75000000  1
  Al  Al59  1  0.00000000  0.85396700  0.25000000  1
  Al  Al60  1  0.85396700  0.85396700  0.75000000  1
  Al  Al61  1  0.14603300  0.14603300  0.25000000  1
  Al  Al62  1  0.33333300  0.66666700  0.62655800  1
  Al  Al63  1  0.66666700  0.33333300  0.37344200  1
  Al  Al64  1  0.66666700  0.33333300  0.12655800  1
  Al  Al65  1  0.66666700  0.33333300  0.87344200  1
  Al  Al66  1  0.33333300  0.66666700  0.87344200  1
  Al  Al67  1  0.33333300  0.66666700  0.12655800  1
  Al  Al68  1  0.33333300  0.66666700  0.37344200  1
  Al  Al69  1  0.66666700  0.33333300  0.62655800  1
  Al  Al70  1  0.25227700  0.00000000  0.52935100  1
  Al  Al71  1  0.74772300  0.00000000  0.47064900  1
  Al  Al72  1  0.00000000  0.25227700  0.52935100  1
  Al  Al73  1  0.74772300  0.00000000  0.02935100  1
  Al  Al74  1  0.00000000  0.25227700  0.97064900  1
  Al  Al75  1  0.00000000  0.74772300  0.47064900  1
  Al  Al76  1  0.25227700  0.00000000  0.97064900  1
  Al  Al77  1  0.00000000  0.74772300  0.02935100  1
  Al  Al78  1  0.74772300  0.74772300  0.52935100  1
  Al  Al79  1  0.25227700  0.25227700  0.47064900  1
  Al  Al80  1  0.25227700  0.25227700  0.02935100  1
  Al  Al81  1  0.74772300  0.74772300  0.97064900  1
  Al  Al82  1  0.15794800  0.39238700  0.66548900  1
  Al  Al83  1  0.84205200  0.60761300  0.33451100  1
  Al  Al84  1  0.60761300  0.76556200  0.66548900  1
  Al  Al85  1  0.84205200  0.60761300  0.16548900  1
  Al  Al86  1  0.39238700  0.15794800  0.83451100  1
  Al  Al87  1  0.39238700  0.23443800  0.33451100  1
  Al  Al88  1  0.15794800  0.39238700  0.83451100  1
  Al  Al89  1  0.60761300  0.84205200  0.16548900  1
  Al  Al90  1  0.23443800  0.84205200  0.66548900  1
  Al  Al91  1  0.39238700  0.23443800  0.16548900  1
  Al  Al92  1  0.76556200  0.60761300  0.83451100  1
  Al  Al93  1  0.76556200  0.15794800  0.33451100  1
  Al  Al94  1  0.60761300  0.76556200  0.83451100  1
  Al  Al95  1  0.23443800  0.39238700  0.16548900  1
  Al  Al96  1  0.60761300  0.84205200  0.33451100  1
  Al  Al97  1  0.39238700  0.15794800  0.66548900  1
  Al  Al98  1  0.76556200  0.15794800  0.16548900  1
  Al  Al99  1  0.23443800  0.39238700  0.33451100  1
  Al  Al100  1  0.23443800  0.84205200  0.83451100  1
  Al  Al101  1  0.76556200  0.60761300  0.66548900  1
  Al  Al102  1  0.84205200  0.23443800  0.83451100  1
  Al  Al103  1  0.15794800  0.76556200  0.16548900  1
  Al  Al104  1  0.15794800  0.76556200  0.33451100  1
  Al  Al105  1  0.84205200  0.23443800  0.66548900  1
