# generated using pymatgen
data_Sn2Bi2O7
_symmetry_space_group_name_H-M   'P 1'
_cell_length_a   7.65048084
_cell_length_b   7.65048084
_cell_length_c   37.48751100
_cell_angle_alpha   90.00000000
_cell_angle_beta   90.00000000
_cell_angle_gamma   120.00000726
_symmetry_Int_Tables_number   1
_chemical_formula_structural   Sn2Bi2O7
_chemical_formula_sum   'Sn24 Bi24 O84'
_cell_volume   1900.17968065
_cell_formula_units_Z   12
loop_
 _symmetry_equiv_pos_site_id
 _symmetry_equiv_pos_as_xyz
  1  'x, y, z'
loop_
 _atom_site_type_symbol
 _atom_site_label
 _atom_site_symmetry_multiplicity
 _atom_site_fract_x
 _atom_site_fract_y
 _atom_site_fract_z
 _atom_site_occupancy
  Sn  Sn0  1  0.99883700  0.83489400  0.34632100  1
  Sn  Sn1  1  0.16510600  0.16394300  0.67965400  1
  Sn  Sn2  1  0.83605700  0.00116300  0.01298800  1
  Sn  Sn3  1  0.50346800  0.83604400  0.34517700  1
  Sn  Sn4  1  0.16395600  0.66742500  0.67851000  1
  Sn  Sn5  1  0.33257500  0.49653200  0.01184400  1
  Sn  Sn6  1  0.49971900  0.33105500  0.34577000  1
  Sn  Sn7  1  0.66894500  0.16866300  0.67910300  1
  Sn  Sn8  1  0.83133700  0.50028100  0.01243700  1
  Sn  Sn9  1  0.33352000  0.00029200  0.26227600  1
  Sn  Sn10  1  0.99970800  0.33322800  0.59561000  1
  Sn  Sn11  1  0.66677200  0.66648000  0.92894300  1
  Sn  Sn12  1  0.00322900  0.83445700  0.84659800  1
  Sn  Sn13  1  0.16554300  0.16877200  0.17993200  1
  Sn  Sn14  1  0.83122800  0.99677100  0.51326500  1
  Sn  Sn15  1  0.49878200  0.83372000  0.84502000  1
  Sn  Sn16  1  0.16628000  0.66506200  0.17835300  1
  Sn  Sn17  1  0.33493800  0.50121800  0.51168600  1
  Sn  Sn18  1  0.50018900  0.33579700  0.84646400  1
  Sn  Sn19  1  0.66420300  0.16439200  0.17979800  1
  Sn  Sn20  1  0.83560800  0.49981100  0.51313100  1
  Sn  Sn21  1  0.33147800  0.99967800  0.76230500  1
  Sn  Sn22  1  0.00032200  0.33180100  0.09563800  1
  Sn  Sn23  1  0.66819900  0.66852200  0.42897200  1
  Bi  Bi24  1  0.02024700  0.37316900  0.34626300  1
  Bi  Bi25  1  0.62683100  0.64707800  0.67959600  1
  Bi  Bi26  1  0.35292200  0.97975300  0.01292900  1
  Bi  Bi27  1  0.87225300  0.99925400  0.26515900  1
  Bi  Bi28  1  0.00074600  0.87299900  0.59849200  1
  Bi  Bi29  1  0.12700100  0.12774700  0.93182600  1
  Bi  Bi30  1  0.32998000  0.53946700  0.25959300  1
  Bi  Bi31  1  0.46053300  0.79051200  0.59292600  1
  Bi  Bi32  1  0.20948800  0.67002000  0.92625900  1
  Bi  Bi33  1  0.79063000  0.45992700  0.26449900  1
  Bi  Bi34  1  0.54007300  0.33070300  0.59783200  1
  Bi  Bi35  1  0.66929700  0.20937000  0.93116500  1
  Bi  Bi36  1  0.96660400  0.29815200  0.84633800  1
  Bi  Bi37  1  0.70184800  0.66845100  0.17967100  1
  Bi  Bi38  1  0.33154900  0.03339600  0.51300400  1
  Bi  Bi39  1  0.79751800  0.00768300  0.75878400  1
  Bi  Bi40  1  0.99231700  0.78983500  0.09211700  1
  Bi  Bi41  1  0.21016500  0.20248200  0.42545100  1
  Bi  Bi42  1  0.33929700  0.46626100  0.76751000  1
  Bi  Bi43  1  0.53373900  0.87303600  0.10084300  1
  Bi  Bi44  1  0.12696400  0.66070300  0.43417700  1
  Bi  Bi45  1  0.87559100  0.54370100  0.76271700  1
  Bi  Bi46  1  0.45629900  0.33189000  0.09605100  1
  Bi  Bi47  1  0.66811000  0.12440900  0.42938400  1
  O  O48  1  0.00867600  0.34515400  0.28450000  1
  O  O49  1  0.65484600  0.66352300  0.61783300  1
  O  O50  1  0.33647700  0.99132400  0.95116700  1
  O  O51  1  0.00354200  0.34147400  0.40984800  1
  O  O52  1  0.65852600  0.66206700  0.74318100  1
  O  O53  1  0.33793300  0.99645800  0.07651400  1
  O  O54  1  0.99004500  0.32819100  0.78444400  1
  O  O55  1  0.67180900  0.66185400  0.11777700  1
  O  O56  1  0.33814600  0.00995500  0.45111100  1
  O  O57  1  0.99650100  0.32380900  0.91001600  1
  O  O58  1  0.67619100  0.67269200  0.24335000  1
  O  O59  1  0.32730800  0.00349900  0.57668300  1
  O  O60  1  0.38749600  0.52588100  0.33389600  1
  O  O61  1  0.47411900  0.86161400  0.66722900  1
  O  O62  1  0.13838600  0.61250400  0.00056300  1
  O  O63  1  0.79904000  0.92877600  0.33025300  1
  O  O64  1  0.07122400  0.87026400  0.66358700  1
  O  O65  1  0.12973600  0.20096000  0.99692000  1
  O  O66  1  0.80558700  0.52817900  0.33185200  1
  O  O67  1  0.47182100  0.27740800  0.66518500  1
  O  O68  1  0.72259200  0.19441300  0.99851900  1
  O  O69  1  0.48267900  0.26942100  0.29127600  1
  O  O70  1  0.73057900  0.21325800  0.62460900  1
  O  O71  1  0.78674200  0.51732100  0.95794300  1
  O  O72  1  0.45397000  0.85019800  0.29042100  1
  O  O73  1  0.14980200  0.60377200  0.62375400  1
  O  O74  1  0.39622800  0.54603000  0.95708700  1
  O  O75  1  0.06714100  0.88286100  0.29155200  1
  O  O76  1  0.11713900  0.18428000  0.62488600  1
  O  O77  1  0.81572000  0.93285900  0.95821900  1
  O  O78  1  0.21433900  0.73402500  0.23296400  1
  O  O79  1  0.26597500  0.48031400  0.56629800  1
  O  O80  1  0.51968600  0.78566100  0.89963100  1
  O  O81  1  0.18610200  0.12454200  0.23460400  1
  O  O82  1  0.87545800  0.06155900  0.56793700  1
  O  O83  1  0.93844100  0.81389800  0.90127000  1
  O  O84  1  0.60443400  0.15073900  0.23430700  1
  O  O85  1  0.84926100  0.45369500  0.56764000  1
  O  O86  1  0.54630500  0.39556600  0.90097300  1
  O  O87  1  0.93754000  0.78839300  0.40077200  1
  O  O88  1  0.21160700  0.14914800  0.73410500  1
  O  O89  1  0.85085200  0.06246000  0.06743900  1
  O  O90  1  0.54801500  0.81696900  0.40016000  1
  O  O91  1  0.18303100  0.73104600  0.73349300  1
  O  O92  1  0.26895400  0.45198500  0.06682700  1
  O  O93  1  0.52277500  0.39889300  0.40029800  1
  O  O94  1  0.60110700  0.12388200  0.73363100  1
  O  O95  1  0.87611800  0.47722500  0.06696500  1
  O  O96  1  0.40526600  0.53767600  0.82995700  1
  O  O97  1  0.46232400  0.86759000  0.16329000  1
  O  O98  1  0.13241000  0.59473400  0.49662400  1
  O  O99  1  0.80853400  0.94902500  0.83469000  1
  O  O100  1  0.05097500  0.85950900  0.16802400  1
  O  O101  1  0.14049100  0.19146600  0.50135700  1
  O  O102  1  0.80290300  0.53234900  0.83287700  1
  O  O103  1  0.46765100  0.27055400  0.16621000  1
  O  O104  1  0.72944600  0.19709700  0.49954300  1
  O  O105  1  0.45038300  0.26652000  0.79170200  1
  O  O106  1  0.73348000  0.18386300  0.12503500  1
  O  O107  1  0.81613700  0.54961700  0.45836800  1
  O  O108  1  0.48412100  0.88157300  0.79048100  1
  O  O109  1  0.11842700  0.60254800  0.12381500  1
  O  O110  1  0.39745200  0.51587900  0.45714800  1
  O  O111  1  0.06521500  0.84867100  0.79166900  1
  O  O112  1  0.15132900  0.21654400  0.12500200  1
  O  O113  1  0.78345600  0.93478500  0.45833600  1
  O  O114  1  0.53067700  0.39574300  0.02599000  1
  O  O115  1  0.60425700  0.13493400  0.35932400  1
  O  O116  1  0.86506600  0.46932300  0.69265700  1
  O  O117  1  0.85982400  0.05776000  0.19247300  1
  O  O118  1  0.94224000  0.80206400  0.52580700  1
  O  O119  1  0.19793600  0.14017600  0.85914000  1
  O  O120  1  0.26315700  0.46734400  0.19406900  1
  O  O121  1  0.53265600  0.79581300  0.52740300  1
  O  O122  1  0.20418700  0.73684300  0.86073600  1
  O  O123  1  0.93343900  0.80010800  0.02783800  1
  O  O124  1  0.19989200  0.13333100  0.36117100  1
  O  O125  1  0.86666900  0.06656100  0.69450500  1
  O  O126  1  0.85946300  0.47286500  0.19125600  1
  O  O127  1  0.52713500  0.38659800  0.52459000  1
  O  O128  1  0.61340200  0.14053700  0.85792300  1
  O  O129  1  0.52717100  0.80650600  0.02339200  1
  O  O130  1  0.19349400  0.72066500  0.35672500  1
  O  O131  1  0.27933500  0.47282900  0.69005900  1
