# generated using pymatgen
data_EuMgSi
_symmetry_space_group_name_H-M   'P 1'
_cell_length_a   4.51918800
_cell_length_b   7.56321400
_cell_length_c   8.42338300
_cell_angle_alpha   90.00000000
_cell_angle_beta   90.00000000
_cell_angle_gamma   90.00000000
_symmetry_Int_Tables_number   1
_chemical_formula_structural   EuMgSi
_chemical_formula_sum   'Eu4 Mg4 Si4'
_cell_volume   287.90774324
_cell_formula_units_Z   4
loop_
 _symmetry_equiv_pos_site_id
 _symmetry_equiv_pos_as_xyz
  1  'x, y, z'
loop_
 _atom_site_type_symbol
 _atom_site_label
 _atom_site_symmetry_multiplicity
 _atom_site_fract_x
 _atom_site_fract_y
 _atom_site_fract_z
 _atom_site_occupancy
  Eu  Eu0  1  0.25000000  0.01813200  0.31423200  1
  Eu  Eu1  1  0.25000000  0.51813200  0.18576800  1
  Eu  Eu2  1  0.75000000  0.98186800  0.68576800  1
  Eu  Eu3  1  0.75000000  0.48186800  0.81423200  1
  Mg  Mg4  1  0.25000000  0.14965600  0.93463300  1
  Mg  Mg5  1  0.25000000  0.64965600  0.56536700  1
  Mg  Mg6  1  0.75000000  0.85034400  0.06536700  1
  Mg  Mg7  1  0.75000000  0.35034400  0.43463300  1
  Si  Si8  1  0.25000000  0.27531900  0.61156100  1
  Si  Si9  1  0.25000000  0.77531900  0.88843900  1
  Si  Si10  1  0.75000000  0.72468100  0.38843900  1
  Si  Si11  1  0.75000000  0.22468100  0.11156100  1
