# generated using pymatgen
data_Sr5Pb3F
_symmetry_space_group_name_H-M   'P 1'
_cell_length_a   10.17893668
_cell_length_b   10.17893668
_cell_length_c   10.17893668
_cell_angle_alpha   128.88638629
_cell_angle_beta   128.88638629
_cell_angle_gamma   75.19345180
_symmetry_Int_Tables_number   1
_chemical_formula_structural   Sr5Pb3F
_chemical_formula_sum   'Sr10 Pb6 F2'
_cell_volume   622.07423633
_cell_formula_units_Z   2
loop_
 _symmetry_equiv_pos_site_id
 _symmetry_equiv_pos_as_xyz
  1  'x, y, z'
loop_
 _atom_site_type_symbol
 _atom_site_label
 _atom_site_symmetry_multiplicity
 _atom_site_fract_x
 _atom_site_fract_y
 _atom_site_fract_z
 _atom_site_occupancy
  Sr  Sr0  1  0.50000000  0.50000000  0.00000000  1
  Sr  Sr1  1  0.00000000  0.00000000  0.00000000  1
  Sr  Sr2  1  0.50771400  0.00771400  0.81916200  1
  Sr  Sr3  1  0.18855200  0.68855200  0.18083800  1
  Sr  Sr4  1  0.00771400  0.18855200  0.50000000  1
  Sr  Sr5  1  0.68855200  0.50771400  0.50000000  1
  Sr  Sr6  1  0.49228600  0.99228600  0.18083800  1
  Sr  Sr7  1  0.81144800  0.31144800  0.81916200  1
  Sr  Sr8  1  0.99228600  0.81144800  0.50000000  1
  Sr  Sr9  1  0.31144800  0.49228600  0.50000000  1
  Pb  Pb10  1  0.25000000  0.25000000  0.00000000  1
  Pb  Pb11  1  0.75000000  0.75000000  0.00000000  1
  Pb  Pb12  1  0.87275600  0.37275600  0.24551200  1
  Pb  Pb13  1  0.12724400  0.62724400  0.75448900  1
  Pb  Pb14  1  0.37275600  0.12724400  0.50000000  1
  Pb  Pb15  1  0.62724400  0.87275600  0.50000000  1
  F  F16  1  0.25000000  0.75000000  0.50000000  1
  F  F17  1  0.75000000  0.25000000  0.50000000  1
