# generated using pymatgen
data_Cu6Hg3(SbS3)4
_symmetry_space_group_name_H-M   'P 1'
_cell_length_a   8.78539968
_cell_length_b   8.78539968
_cell_length_c   8.78540034
_cell_angle_alpha   107.50675401
_cell_angle_beta   107.50675401
_cell_angle_gamma   107.50674640
_symmetry_Int_Tables_number   1
_chemical_formula_structural   Cu6Hg3(SbS3)4
_chemical_formula_sum   'Cu6 Hg3 Sb4 S12'
_cell_volume   556.72541714
_cell_formula_units_Z   1
loop_
 _symmetry_equiv_pos_site_id
 _symmetry_equiv_pos_as_xyz
  1  'x, y, z'
loop_
 _atom_site_type_symbol
 _atom_site_label
 _atom_site_symmetry_multiplicity
 _atom_site_fract_x
 _atom_site_fract_y
 _atom_site_fract_z
 _atom_site_occupancy
  Cu  Cu0  1  0.22972400  0.70491300  0.08246200  1
  Cu  Cu1  1  0.70491300  0.08246200  0.22972400  1
  Cu  Cu2  1  0.08246200  0.22972400  0.70491300  1
  Cu  Cu3  1  0.18770000  0.45606500  0.40047300  1
  Cu  Cu4  1  0.45606500  0.40047300  0.18770000  1
  Cu  Cu5  1  0.40047300  0.18770000  0.45606500  1
  Hg  Hg6  1  0.92762000  0.78702800  0.31714000  1
  Hg  Hg7  1  0.78702800  0.31714000  0.92762000  1
  Hg  Hg8  1  0.31714000  0.92762000  0.78702800  1
  Sb  Sb9  1  0.61872700  0.83094100  0.54853800  1
  Sb  Sb10  1  0.83094100  0.54853800  0.61872700  1
  Sb  Sb11  1  0.54853800  0.61872700  0.83094100  1
  Sb  Sb12  1  0.98251400  0.98251400  0.98251400  1
  S  S13  1  0.82655300  0.01293100  0.45900400  1
  S  S14  1  0.01293100  0.45900400  0.82655300  1
  S  S15  1  0.45900400  0.82655300  0.01293100  1
  S  S16  1  0.05940900  0.64114100  0.50778000  1
  S  S17  1  0.64114100  0.50778000  0.05940900  1
  S  S18  1  0.50778000  0.05940900  0.64114100  1
  S  S19  1  0.16550800  0.92993800  0.22177300  1
  S  S20  1  0.92993800  0.22177300  0.16550800  1
  S  S21  1  0.22177300  0.16550800  0.92993800  1
  S  S22  1  0.34870300  0.60040600  0.28200800  1
  S  S23  1  0.60040600  0.28200800  0.34870300  1
  S  S24  1  0.28200800  0.34870300  0.60040600  1
