# generated using pymatgen
data_KMn3O6
_symmetry_space_group_name_H-M   'P 1'
_cell_length_a   7.26151426
_cell_length_b   7.26151426
_cell_length_c   15.85452232
_cell_angle_alpha   87.95258313
_cell_angle_beta   87.95258313
_cell_angle_gamma   47.10400694
_symmetry_Int_Tables_number   1
_chemical_formula_structural   KMn3O6
_chemical_formula_sum   'K4 Mn12 O24'
_cell_volume   611.98215552
_cell_formula_units_Z   4
loop_
 _symmetry_equiv_pos_site_id
 _symmetry_equiv_pos_as_xyz
  1  'x, y, z'
loop_
 _atom_site_type_symbol
 _atom_site_label
 _atom_site_symmetry_multiplicity
 _atom_site_fract_x
 _atom_site_fract_y
 _atom_site_fract_z
 _atom_site_occupancy
  K  K0  1  0.65849300  0.32188900  0.60057600  1
  K  K1  1  0.32188900  0.65849300  0.10057600  1
  K  K2  1  0.67811100  0.34150700  0.89942400  1
  K  K3  1  0.34150700  0.67811100  0.39942400  1
  Mn  Mn4  1  0.37234500  0.12731100  0.25028100  1
  Mn  Mn5  1  0.87268900  0.62765500  0.24971900  1
  Mn  Mn6  1  0.36191000  0.11296600  0.58081100  1
  Mn  Mn7  1  0.86697200  0.61971700  0.58139200  1
  Mn  Mn8  1  0.88703400  0.63809000  0.91918900  1
  Mn  Mn9  1  0.38028300  0.13302800  0.91860800  1
  Mn  Mn10  1  0.62765500  0.87268900  0.74971900  1
  Mn  Mn11  1  0.12731100  0.37234500  0.75028100  1
  Mn  Mn12  1  0.11296600  0.36191000  0.08081100  1
  Mn  Mn13  1  0.61971700  0.86697200  0.08139200  1
  Mn  Mn14  1  0.63809000  0.88703400  0.41918900  1
  Mn  Mn15  1  0.13302800  0.38028300  0.41860800  1
  O  O16  1  0.81052200  0.56040000  0.81588600  1
  O  O17  1  0.30649400  0.06105300  0.81474700  1
  O  O18  1  0.43960000  0.18947800  0.68411400  1
  O  O19  1  0.93894700  0.69350600  0.68525300  1
  O  O20  1  0.06105300  0.30649400  0.31474700  1
  O  O21  1  0.56040000  0.81052200  0.31588600  1
  O  O22  1  0.18947800  0.43960000  0.18411400  1
  O  O23  1  0.69350600  0.93894700  0.18525300  1
  O  O24  1  0.70619200  0.96419100  0.87302900  1
  O  O25  1  0.21479600  0.45840400  0.87366200  1
  O  O26  1  0.03580900  0.29380800  0.62697100  1
  O  O27  1  0.54159600  0.78520400  0.62633800  1
  O  O28  1  0.45840400  0.21479600  0.37366200  1
  O  O29  1  0.96419100  0.70619200  0.37302900  1
  O  O30  1  0.78520400  0.54159600  0.12633800  1
  O  O31  1  0.29380800  0.03580900  0.12697100  1
  O  O32  1  0.55426600  0.79979200  0.97169900  1
  O  O33  1  0.04642500  0.30569900  0.97048000  1
  O  O34  1  0.20020800  0.44573400  0.52830100  1
  O  O35  1  0.69430100  0.95357500  0.52952000  1
  O  O36  1  0.30569900  0.04642500  0.47048000  1
  O  O37  1  0.79979200  0.55426600  0.47169900  1
  O  O38  1  0.95357500  0.69430100  0.02952000  1
  O  O39  1  0.44573400  0.20020800  0.02830100  1
