# generated using pymatgen
data_Ba8Li13GaSb12
_symmetry_space_group_name_H-M   'P 1'
_cell_length_a   9.48724943
_cell_length_b   9.48724943
_cell_length_c   21.20573383
_cell_angle_alpha   83.27825160
_cell_angle_beta   83.27825160
_cell_angle_gamma   30.40401608
_symmetry_Int_Tables_number   1
_chemical_formula_structural   Ba8Li13GaSb12
_chemical_formula_sum   'Ba8 Li13 Ga1 Sb12'
_cell_volume   958.84182401
_cell_formula_units_Z   1
loop_
 _symmetry_equiv_pos_site_id
 _symmetry_equiv_pos_as_xyz
  1  'x, y, z'
loop_
 _atom_site_type_symbol
 _atom_site_label
 _atom_site_symmetry_multiplicity
 _atom_site_fract_x
 _atom_site_fract_y
 _atom_site_fract_z
 _atom_site_occupancy
  Ba  Ba0  1  0.11733500  0.11733500  0.95963900  1
  Ba  Ba1  1  0.61451900  0.61451900  0.45415900  1
  Ba  Ba2  1  0.38738500  0.38738500  0.54142200  1
  Ba  Ba3  1  0.88407100  0.88407100  0.04424100  1
  Ba  Ba4  1  0.56691000  0.56691000  0.66916100  1
  Ba  Ba5  1  0.06952300  0.06952300  0.17228800  1
  Ba  Ba6  1  0.92833800  0.92833800  0.83088400  1
  Ba  Ba7  1  0.43103600  0.43103600  0.32750500  1
  Li  Li8  1  0.88709200  0.88709200  0.65828400  1
  Li  Li9  1  0.38383600  0.38383600  0.15898200  1
  Li  Li10  1  0.61715400  0.61715400  0.84159100  1
  Li  Li11  1  0.11593000  0.11593000  0.34086200  1
  Li  Li12  1  0.18781700  0.18781700  0.54473700  1
  Li  Li13  1  0.69023000  0.69023000  0.04570700  1
  Li  Li14  1  0.30963700  0.30963700  0.95508400  1
  Li  Li15  1  0.81115000  0.81115000  0.45250400  1
  Li  Li16  1  0.75030300  0.75030300  0.75323800  1
  Li  Li17  1  0.24995500  0.24995500  0.24894800  1
  Li  Li18  1  0.74102400  0.74102400  0.17326800  1
  Li  Li19  1  0.25923800  0.25923800  0.82955700  1
  Li  Li20  1  0.75891500  0.75891500  0.32656200  1
  Ga  Ga21  1  0.24060500  0.24060500  0.67215100  1
  Sb  Sb22  1  0.74882500  0.74882500  0.59815000  1
  Sb  Sb23  1  0.24934800  0.24934800  0.09100900  1
  Sb  Sb24  1  0.75044900  0.75044900  0.90473600  1
  Sb  Sb25  1  0.25048700  0.25048700  0.41263600  1
  Sb  Sb26  1  0.02341500  0.02341500  0.56314700  1
  Sb  Sb27  1  0.52369800  0.52369800  0.06076900  1
  Sb  Sb28  1  0.47809500  0.47809500  0.93555000  1
  Sb  Sb29  1  0.97593100  0.97593100  0.43869400  1
  Sb  Sb30  1  0.37169400  0.37169400  0.72466700  1
  Sb  Sb31  1  0.87584300  0.87584300  0.22721400  1
  Sb  Sb32  1  0.12569000  0.12569000  0.76870600  1
  Sb  Sb33  1  0.62451900  0.62451900  0.27394300  1
