# generated using pymatgen
data_SmEuCuS3
_symmetry_space_group_name_H-M   'P 1'
_cell_length_a   3.96491500
_cell_length_b   10.53066200
_cell_length_c   12.80449600
_cell_angle_alpha   90.00000000
_cell_angle_beta   90.00000000
_cell_angle_gamma   90.00000000
_symmetry_Int_Tables_number   1
_chemical_formula_structural   SmEuCuS3
_chemical_formula_sum   'Sm4 Eu4 Cu4 S12'
_cell_volume   534.62842276
_cell_formula_units_Z   4
loop_
 _symmetry_equiv_pos_site_id
 _symmetry_equiv_pos_as_xyz
  1  'x, y, z'
loop_
 _atom_site_type_symbol
 _atom_site_label
 _atom_site_symmetry_multiplicity
 _atom_site_fract_x
 _atom_site_fract_y
 _atom_site_fract_z
 _atom_site_occupancy
  Sm  Sm0  1  0.25000000  0.01698600  0.26405400  1
  Sm  Sm1  1  0.25000000  0.51698600  0.23594600  1
  Sm  Sm2  1  0.75000000  0.98301400  0.73594600  1
  Sm  Sm3  1  0.75000000  0.48301400  0.76405400  1
  Eu  Eu4  1  0.25000000  0.78459300  0.99834600  1
  Eu  Eu5  1  0.25000000  0.28459300  0.50165400  1
  Eu  Eu6  1  0.75000000  0.21540700  0.00165400  1
  Eu  Eu7  1  0.75000000  0.71540700  0.49834600  1
  Cu  Cu8  1  0.25000000  0.23365000  0.77654800  1
  Cu  Cu9  1  0.25000000  0.73365000  0.72345200  1
  Cu  Cu10  1  0.75000000  0.76635000  0.22345200  1
  Cu  Cu11  1  0.75000000  0.26635000  0.27654800  1
  S  S12  1  0.25000000  0.05229700  0.88431800  1
  S  S13  1  0.25000000  0.55229700  0.61568200  1
  S  S14  1  0.75000000  0.94770300  0.11568200  1
  S  S15  1  0.75000000  0.44770300  0.38431800  1
  S  S16  1  0.25000000  0.39786300  0.90030400  1
  S  S17  1  0.25000000  0.89786300  0.59969600  1
  S  S18  1  0.75000000  0.60213700  0.09969600  1
  S  S19  1  0.75000000  0.10213700  0.40030400  1
  S  S20  1  0.25000000  0.25980100  0.17076600  1
  S  S21  1  0.25000000  0.75980100  0.32923400  1
  S  S22  1  0.75000000  0.74019900  0.82923400  1
  S  S23  1  0.75000000  0.24019900  0.67076600  1
