# generated using pymatgen
data_Rb7Fe7P8(HO9)4
_symmetry_space_group_name_H-M   'P 1'
_cell_length_a   8.33192700
_cell_length_b   22.54221900
_cell_length_c   10.13253554
_cell_angle_alpha   90.00000000
_cell_angle_beta   108.85832991
_cell_angle_gamma   90.00000000
_symmetry_Int_Tables_number   1
_chemical_formula_structural   Rb7Fe7P8(HO9)4
_chemical_formula_sum   'Rb14 Fe14 P16 H8 O72'
_cell_volume   1800.93729157
_cell_formula_units_Z   2
loop_
 _symmetry_equiv_pos_site_id
 _symmetry_equiv_pos_as_xyz
  1  'x, y, z'
loop_
 _atom_site_type_symbol
 _atom_site_label
 _atom_site_symmetry_multiplicity
 _atom_site_fract_x
 _atom_site_fract_y
 _atom_site_fract_z
 _atom_site_occupancy
  Rb  Rb0  1  0.50000000  0.00000000  0.00000000  1
  Rb  Rb1  1  0.50000000  0.50000000  0.50000000  1
  Rb  Rb2  1  0.36845900  0.85525000  0.23302400  1
  Rb  Rb3  1  0.63154100  0.35525000  0.26697600  1
  Rb  Rb4  1  0.63154100  0.14475000  0.76697600  1
  Rb  Rb5  1  0.36845900  0.64475000  0.73302400  1
  Rb  Rb6  1  0.07248500  0.75691300  0.39872500  1
  Rb  Rb7  1  0.92751500  0.25691300  0.10127500  1
  Rb  Rb8  1  0.92751500  0.24308700  0.60127500  1
  Rb  Rb9  1  0.07248500  0.74308700  0.89872500  1
  Rb  Rb10  1  0.87744500  0.93543100  0.39176200  1
  Rb  Rb11  1  0.12255500  0.43543100  0.10823800  1
  Rb  Rb12  1  0.12255500  0.06456900  0.60823800  1
  Rb  Rb13  1  0.87744500  0.56456900  0.89176200  1
  Fe  Fe14  1  0.00000000  0.00000000  0.00000000  1
  Fe  Fe15  1  0.00000000  0.50000000  0.50000000  1
  Fe  Fe16  1  0.60384300  0.07788200  0.38451200  1
  Fe  Fe17  1  0.39615700  0.57788200  0.11548800  1
  Fe  Fe18  1  0.39615700  0.92211800  0.61548800  1
  Fe  Fe19  1  0.60384300  0.42211800  0.88451200  1
  Fe  Fe20  1  0.48432400  0.16645000  0.07859700  1
  Fe  Fe21  1  0.51567600  0.66645000  0.42140300  1
  Fe  Fe22  1  0.51567600  0.83355000  0.92140300  1
  Fe  Fe23  1  0.48432400  0.33355000  0.57859700  1
  Fe  Fe24  1  0.22025200  0.12438900  0.21641400  1
  Fe  Fe25  1  0.77974800  0.62438900  0.28358600  1
  Fe  Fe26  1  0.77974800  0.87561100  0.78358600  1
  Fe  Fe27  1  0.22025200  0.37561100  0.71641400  1
  P  P28  1  0.50163300  0.21233400  0.37599200  1
  P  P29  1  0.49836700  0.71233400  0.12400800  1
  P  P30  1  0.49836700  0.78766600  0.62400800  1
  P  P31  1  0.50163300  0.28766600  0.87599200  1
  P  P32  1  0.15698800  0.13415500  0.92660800  1
  P  P33  1  0.84301200  0.63415500  0.57339200  1
  P  P34  1  0.84301200  0.86584500  0.07339200  1
  P  P35  1  0.15698800  0.36584500  0.42660800  1
  P  P36  1  0.84191800  0.09144400  0.18884100  1
  P  P37  1  0.15808200  0.59144400  0.31115900  1
  P  P38  1  0.15808200  0.90855600  0.81115900  1
  P  P39  1  0.84191800  0.40855600  0.68884100  1
  P  P40  1  0.30743700  0.99494300  0.31893500  1
  P  P41  1  0.69256300  0.49494300  0.18106500  1
  P  P42  1  0.69256300  0.00505700  0.68106500  1
  P  P43  1  0.30743700  0.50505700  0.81893500  1
  H  H44  1  0.25389100  0.18704200  0.49157800  1
  H  H45  1  0.74610900  0.68704200  0.00842200  1
  H  H46  1  0.74610900  0.81295800  0.50842200  1
  H  H47  1  0.25389100  0.31295800  0.99157800  1
  H  H48  1  0.28498600  0.21892400  0.63186400  1
  H  H49  1  0.71501400  0.71892400  0.86813600  1
  H  H50  1  0.71501400  0.78107600  0.36813600  1
  H  H51  1  0.28498600  0.28107600  0.13186400  1
  O  O52  1  0.61066700  0.16087300  0.46388600  1
  O  O53  1  0.38933300  0.66087300  0.03611400  1
  O  O54  1  0.38933300  0.83912700  0.53611400  1
  O  O55  1  0.61066700  0.33912700  0.96388600  1
  O  O56  1  0.30889500  0.19642500  0.33854800  1
  O  O57  1  0.69110500  0.69642500  0.16145200  1
  O  O58  1  0.69110500  0.80357500  0.66145200  1
  O  O59  1  0.30889500  0.30357500  0.83854800  1
  O  O60  1  0.54811600  0.22408700  0.24077000  1
  O  O61  1  0.45188400  0.72408700  0.25923000  1
  O  O62  1  0.45188400  0.77591300  0.75923000  1
  O  O63  1  0.54811600  0.27591300  0.74077000  1
  O  O64  1  0.45704300  0.73015200  0.53703400  1
  O  O65  1  0.54295700  0.23015200  0.96296600  1
  O  O66  1  0.54295700  0.26984800  0.46296600  1
  O  O67  1  0.45704300  0.76984800  0.03703400  1
  O  O68  1  0.10984200  0.08201100  0.01270000  1
  O  O69  1  0.89015800  0.58201100  0.48730000  1
  O  O70  1  0.89015800  0.91798900  0.98730000  1
  O  O71  1  0.10984200  0.41798900  0.51270000  1
  O  O72  1  0.01169600  0.15158600  0.79944900  1
  O  O73  1  0.98830400  0.65158600  0.70055100  1
  O  O74  1  0.98830400  0.84841400  0.20055100  1
  O  O75  1  0.01169600  0.34841400  0.29944900  1
  O  O76  1  0.21296600  0.18355900  0.04587100  1
  O  O77  1  0.78703400  0.68355900  0.45412900  1
  O  O78  1  0.78703400  0.81644100  0.95412900  1
  O  O79  1  0.21296600  0.31644100  0.54587100  1
  O  O80  1  0.32772200  0.11986700  0.90083200  1
  O  O81  1  0.67227800  0.61986700  0.59916800  1
  O  O82  1  0.67227800  0.88013300  0.09916800  1
  O  O83  1  0.32772200  0.38013300  0.40083200  1
  O  O84  1  0.88111800  0.03168200  0.13106300  1
  O  O85  1  0.11888200  0.53168200  0.36893700  1
  O  O86  1  0.11888200  0.96831800  0.86893700  1
  O  O87  1  0.88111800  0.46831800  0.63106300  1
  O  O88  1  0.68828700  0.12134100  0.07883600  1
  O  O89  1  0.31171300  0.62134100  0.42116400  1
  O  O90  1  0.31171300  0.87865900  0.92116400  1
  O  O91  1  0.68828700  0.37865900  0.57883600  1
  O  O92  1  0.80373600  0.07617300  0.32643600  1
  O  O93  1  0.19626400  0.57617300  0.17356400  1
  O  O94  1  0.19626400  0.92382700  0.67356400  1
  O  O95  1  0.80373600  0.42382700  0.82643600  1
  O  O96  1  0.98990600  0.13673200  0.22478800  1
  O  O97  1  0.01009400  0.63673200  0.27521200  1
  O  O98  1  0.01009400  0.86326800  0.77521200  1
  O  O99  1  0.98990600  0.36326800  0.72478800  1
  O  O100  1  0.72653400  0.05099600  0.57879500  1
  O  O101  1  0.27346600  0.55099600  0.92120500  1
  O  O102  1  0.27346600  0.94900400  0.42120500  1
  O  O103  1  0.72653400  0.44900400  0.07879500  1
  O  O104  1  0.25771700  0.05823900  0.35613100  1
  O  O105  1  0.74228300  0.55823900  0.14386900  1
  O  O106  1  0.74228300  0.94176100  0.64386900  1
  O  O107  1  0.25771700  0.44176100  0.85613100  1
  O  O108  1  0.50118200  0.99551900  0.33627100  1
  O  O109  1  0.49881800  0.49551900  0.16372900  1
  O  O110  1  0.49881800  0.00448100  0.66372900  1
  O  O111  1  0.50118200  0.50448100  0.83627100  1
  O  O112  1  0.20468900  0.97677100  0.16821900  1
  O  O113  1  0.79531100  0.47677100  0.33178100  1
  O  O114  1  0.79531100  0.02322900  0.83178100  1
  O  O115  1  0.20468900  0.52322900  0.66821900  1
  O  O116  1  0.44657000  0.10647700  0.20789100  1
  O  O117  1  0.55343000  0.60647700  0.29210900  1
  O  O118  1  0.55343000  0.89352300  0.79210900  1
  O  O119  1  0.44657000  0.39352300  0.70789100  1
  O  O120  1  0.24086100  0.18165900  0.58488300  1
  O  O121  1  0.75913900  0.68165900  0.91511700  1
  O  O122  1  0.75913900  0.81834100  0.41511700  1
  O  O123  1  0.24086100  0.31834100  0.08488300  1
