# generated using pymatgen
data_ErCd6
_symmetry_space_group_name_H-M   'P 1'
_cell_length_a   13.63476868
_cell_length_b   13.63476868
_cell_length_c   13.63476868
_cell_angle_alpha   110.23026408
_cell_angle_beta   109.63441307
_cell_angle_gamma   108.55342655
_symmetry_Int_Tables_number   1
_chemical_formula_structural   ErCd6
_chemical_formula_sum   'Er12 Cd72'
_cell_volume   1950.85981561
_cell_formula_units_Z   12
loop_
 _symmetry_equiv_pos_site_id
 _symmetry_equiv_pos_as_xyz
  1  'x, y, z'
loop_
 _atom_site_type_symbol
 _atom_site_label
 _atom_site_symmetry_multiplicity
 _atom_site_fract_x
 _atom_site_fract_y
 _atom_site_fract_z
 _atom_site_occupancy
  Er  Er0  1  0.80724500  0.50940000  0.70215500  1
  Er  Er1  1  0.19275500  0.49060000  0.29784500  1
  Er  Er2  1  0.19275500  0.89491000  0.70215500  1
  Er  Er3  1  0.80724500  0.10509000  0.29784500  1
  Er  Er4  1  0.10860600  0.30209100  0.80651500  1
  Er  Er5  1  0.89139400  0.69790900  0.19348500  1
  Er  Er6  1  0.49557600  0.30209100  0.19348500  1
  Er  Er7  1  0.50442400  0.69790900  0.80651500  1
  Er  Er8  1  0.30122400  0.18974500  0.49096900  1
  Er  Er9  1  0.69877600  0.81025500  0.50903100  1
  Er  Er10  1  0.30122400  0.81025500  0.11148000  1
  Er  Er11  1  0.69877600  0.18974500  0.88852000  1
  Cd  Cd12  1  0.99970900  0.67828000  0.00183500  1
  Cd  Cd13  1  0.32355500  0.32172000  0.32142900  1
  Cd  Cd14  1  0.00029100  0.00212600  0.67857100  1
  Cd  Cd15  1  0.67644500  0.99787400  0.99816500  1
  Cd  Cd16  1  0.00029100  0.32172000  0.99816500  1
  Cd  Cd17  1  0.67644500  0.67828000  0.67857100  1
  Cd  Cd18  1  0.99970900  0.99787400  0.32142900  1
  Cd  Cd19  1  0.32355500  0.00212600  0.00183500  1
  Cd  Cd20  1  0.59577300  0.24905200  0.65327800  1
  Cd  Cd21  1  0.40422700  0.75094800  0.34672200  1
  Cd  Cd22  1  0.40422700  0.05750500  0.65327800  1
  Cd  Cd23  1  0.59577300  0.94249500  0.34672200  1
  Cd  Cd24  1  0.94122500  0.34660400  0.59462100  1
  Cd  Cd25  1  0.05877500  0.65339600  0.40537900  1
  Cd  Cd26  1  0.75198400  0.34660400  0.40537900  1
  Cd  Cd27  1  0.24801600  0.65339600  0.59462100  1
  Cd  Cd28  1  0.34495900  0.40407100  0.74903000  1
  Cd  Cd29  1  0.65504100  0.59592900  0.25097000  1
  Cd  Cd30  1  0.34495900  0.59592900  0.94088800  1
  Cd  Cd31  1  0.65504100  0.40407100  0.05911200  1
  Cd  Cd32  1  0.74183500  0.64736500  0.90553000  1
  Cd  Cd33  1  0.25816500  0.35263500  0.09447000  1
  Cd  Cd34  1  0.25816500  0.16369400  0.90553000  1
  Cd  Cd35  1  0.74183500  0.83630600  0.09447000  1
  Cd  Cd36  1  0.85669900  0.09065400  0.76604600  1
  Cd  Cd37  1  0.14330100  0.90934600  0.23395400  1
  Cd  Cd38  1  0.32460800  0.09065400  0.23395400  1
  Cd  Cd39  1  0.67539200  0.90934600  0.76604600  1
  Cd  Cd40  1  0.09537500  0.24105300  0.33642900  1
  Cd  Cd41  1  0.90462500  0.75894700  0.66357100  1
  Cd  Cd42  1  0.09537500  0.75894700  0.85432200  1
  Cd  Cd43  1  0.90462500  0.24105300  0.14567800  1
  Cd  Cd44  1  0.58952000  0.58952000  0.00000000  1
  Cd  Cd45  1  0.41048000  0.41048000  0.00000000  1
  Cd  Cd46  1  0.59521200  0.00000000  0.59521200  1
  Cd  Cd47  1  0.40478800  0.00000000  0.40478800  1
  Cd  Cd48  1  0.00000000  0.40434700  0.40434700  1
  Cd  Cd49  1  0.00000000  0.59565300  0.59565300  1
  Cd  Cd50  1  0.50000000  0.30941300  0.80941300  1
  Cd  Cd51  1  0.50000000  0.69058700  0.19058700  1
  Cd  Cd52  1  0.69134800  0.19134800  0.50000000  1
  Cd  Cd53  1  0.30865200  0.80865200  0.50000000  1
  Cd  Cd54  1  0.18826900  0.50000000  0.68826900  1
  Cd  Cd55  1  0.81173100  0.50000000  0.31173100  1
  Cd  Cd56  1  0.77846300  0.45501500  0.91860100  1
  Cd  Cd57  1  0.46358600  0.54498500  0.32344800  1
  Cd  Cd58  1  0.22153700  0.14013800  0.67655200  1
  Cd  Cd59  1  0.53641400  0.85986200  0.08139900  1
  Cd  Cd60  1  0.86030000  0.08412900  0.54269200  1
  Cd  Cd61  1  0.13970000  0.68239200  0.22382900  1
  Cd  Cd62  1  0.54143700  0.31760800  0.45730800  1
  Cd  Cd63  1  0.45856300  0.91587100  0.77617100  1
  Cd  Cd64  1  0.31888600  0.45962100  0.54041200  1
  Cd  Cd65  1  0.91920800  0.77847400  0.45958800  1
  Cd  Cd66  1  0.08079200  0.54037900  0.85926500  1
  Cd  Cd67  1  0.68111400  0.22152600  0.14073500  1
  Cd  Cd68  1  0.22153700  0.54498500  0.08139900  1
  Cd  Cd69  1  0.53641400  0.45501500  0.67655200  1
  Cd  Cd70  1  0.77846300  0.85986200  0.32344800  1
  Cd  Cd71  1  0.46358600  0.14013800  0.91860100  1
  Cd  Cd72  1  0.13970000  0.91587100  0.45730800  1
  Cd  Cd73  1  0.86030000  0.31760800  0.77617100  1
  Cd  Cd74  1  0.45856300  0.68239200  0.54269200  1
  Cd  Cd75  1  0.54143700  0.08412900  0.22382900  1
  Cd  Cd76  1  0.68111400  0.54037900  0.45958800  1
  Cd  Cd77  1  0.08079200  0.22152600  0.54041200  1
  Cd  Cd78  1  0.91920800  0.45962100  0.14073500  1
  Cd  Cd79  1  0.31888600  0.77847400  0.85926500  1
  Cd  Cd80  1  0.91475400  0.82412900  0.90937500  1
  Cd  Cd81  1  0.08524600  0.17587100  0.09062500  1
  Cd  Cd82  1  0.08524600  0.99462100  0.90937500  1
  Cd  Cd83  1  0.91475400  0.00537900  0.09062500  1
