# generated using pymatgen
data_Cs3Hf2CuTe10
_symmetry_space_group_name_H-M   'P 1'
_cell_length_a   10.21424300
_cell_length_b   11.26824704
_cell_length_c   11.48303144
_cell_angle_alpha   89.54039934
_cell_angle_beta   89.33461137
_cell_angle_gamma   78.12013890
_symmetry_Int_Tables_number   1
_chemical_formula_structural   Cs3Hf2CuTe10
_chemical_formula_sum   'Cs6 Hf4 Cu2 Te20'
_cell_volume   1293.24134419
_cell_formula_units_Z   2
loop_
 _symmetry_equiv_pos_site_id
 _symmetry_equiv_pos_as_xyz
  1  'x, y, z'
loop_
 _atom_site_type_symbol
 _atom_site_label
 _atom_site_symmetry_multiplicity
 _atom_site_fract_x
 _atom_site_fract_y
 _atom_site_fract_z
 _atom_site_occupancy
  Cs  Cs0  1  0.88457400  0.89109100  0.26148000  1
  Cs  Cs1  1  0.11542600  0.10890900  0.73852000  1
  Cs  Cs2  1  0.44547700  0.76434900  0.38999900  1
  Cs  Cs3  1  0.55452300  0.23565100  0.61000100  1
  Cs  Cs4  1  0.30053400  0.62495500  0.89599600  1
  Cs  Cs5  1  0.69946600  0.37504500  0.10400400  1
  Hf  Hf6  1  0.10756400  0.37729400  0.36426400  1
  Hf  Hf7  1  0.89243600  0.62270600  0.63573600  1
  Hf  Hf8  1  0.30784100  0.15942700  0.14292600  1
  Hf  Hf9  1  0.69215900  0.84057300  0.85707400  1
  Cu  Cu10  1  0.92121800  0.37810200  0.55604500  1
  Cu  Cu11  1  0.07878200  0.62189800  0.44395500  1
  Te  Te12  1  0.84351600  0.55950100  0.39890200  1
  Te  Te13  1  0.15648400  0.44049900  0.60109800  1
  Te  Te14  1  0.92831700  0.20722700  0.40637000  1
  Te  Te15  1  0.07168300  0.79277300  0.59363000  1
  Te  Te16  1  0.19291100  0.58882700  0.24180900  1
  Te  Te17  1  0.80708900  0.41117300  0.75819100  1
  Te  Te18  1  0.21453700  0.11752700  0.39079000  1
  Te  Te19  1  0.78546300  0.88247300  0.60921000  1
  Te  Te20  1  0.07998200  0.36306700  0.10975200  1
  Te  Te21  1  0.92001800  0.63693300  0.89024800  1
  Te  Te22  1  0.39032700  0.35746600  0.29021400  1
  Te  Te23  1  0.60967300  0.64253400  0.70978600  1
  Te  Te24  1  0.04436200  0.12226800  0.06808300  1
  Te  Te25  1  0.95563800  0.87773200  0.93191700  1
  Te  Te26  1  0.52381200  0.09091900  0.30349600  1
  Te  Te27  1  0.47618800  0.90908100  0.69650400  1
  Te  Te28  1  0.33175400  0.91281200  0.07046900  1
  Te  Te29  1  0.66824600  0.08718800  0.92953100  1
  Te  Te30  1  0.40885400  0.24504100  0.93074900  1
  Te  Te31  1  0.59114600  0.75495900  0.06925100  1
