# generated using pymatgen
data_KMg3Cu(AsO4)3
_symmetry_space_group_name_H-M   'P 1'
_cell_length_a   8.93838603
_cell_length_b   8.93838603
_cell_length_c   6.88878871
_cell_angle_alpha   74.12406961
_cell_angle_beta   74.12406961
_cell_angle_gamma   92.74958300
_symmetry_Int_Tables_number   1
_chemical_formula_structural   KMg3Cu(AsO4)3
_chemical_formula_sum   'K2 Mg6 Cu2 As6 O24'
_cell_volume   504.68625107
_cell_formula_units_Z   2
loop_
 _symmetry_equiv_pos_site_id
 _symmetry_equiv_pos_as_xyz
  1  'x, y, z'
loop_
 _atom_site_type_symbol
 _atom_site_label
 _atom_site_symmetry_multiplicity
 _atom_site_fract_x
 _atom_site_fract_y
 _atom_site_fract_z
 _atom_site_occupancy
  K  K0  1  0.51531100  0.48468900  0.25000000  1
  K  K1  1  0.48468900  0.51531100  0.75000000  1
  Mg  Mg2  1  0.24244500  0.75755500  0.25000000  1
  Mg  Mg3  1  0.75755500  0.24244500  0.75000000  1
  Mg  Mg4  1  0.56200000  0.87806500  0.36575300  1
  Mg  Mg5  1  0.43800000  0.12193500  0.63424700  1
  Mg  Mg6  1  0.12193500  0.43800000  0.13424700  1
  Mg  Mg7  1  0.87806500  0.56200000  0.86575300  1
  Cu  Cu8  1  0.99753600  0.00246400  0.25000000  1
  Cu  Cu9  1  0.00246400  0.99753600  0.75000000  1
  As  As10  1  0.78480100  0.21519900  0.25000000  1
  As  As11  1  0.21519900  0.78480100  0.75000000  1
  As  As12  1  0.37776000  0.14762300  0.12917000  1
  As  As13  1  0.62224000  0.85237700  0.87083000  1
  As  As14  1  0.85237700  0.62224000  0.37083000  1
  As  As15  1  0.14762300  0.37776000  0.62917000  1
  O  O16  1  0.49109400  0.82939400  0.11753800  1
  O  O17  1  0.50890600  0.17060600  0.88246200  1
  O  O18  1  0.17060600  0.50890600  0.38246200  1
  O  O19  1  0.82939400  0.49109400  0.61753800  1
  O  O20  1  0.67322800  0.24906400  0.47695500  1
  O  O21  1  0.32677200  0.75093600  0.52304500  1
  O  O22  1  0.75093600  0.32677200  0.02304500  1
  O  O23  1  0.24906400  0.67322800  0.97695500  1
  O  O24  1  0.67574500  0.68625200  0.37449400  1
  O  O25  1  0.32425500  0.31374800  0.62550600  1
  O  O26  1  0.31374800  0.32425500  0.12550600  1
  O  O27  1  0.68625200  0.67574500  0.87449400  1
  O  O28  1  0.77609700  0.01650200  0.26095000  1
  O  O29  1  0.22390300  0.98349800  0.73905000  1
  O  O30  1  0.98349800  0.22390300  0.23905000  1
  O  O31  1  0.01650200  0.77609700  0.76095000  1
  O  O32  1  0.22401600  0.99955500  0.18621300  1
  O  O33  1  0.77598400  0.00044500  0.81378700  1
  O  O34  1  0.00044500  0.77598400  0.31378700  1
  O  O35  1  0.99955500  0.22401600  0.68621300  1
  O  O36  1  0.47128300  0.09347000  0.32063100  1
  O  O37  1  0.52871700  0.90653000  0.67936900  1
  O  O38  1  0.90653000  0.52871700  0.17936900  1
  O  O39  1  0.09347000  0.47128300  0.82063100  1
