# generated using pymatgen
data_Cs2Ti(AgS2)2
_symmetry_space_group_name_H-M   'P 1'
_cell_length_a   6.10972100
_cell_length_b   6.10972100
_cell_length_c   14.00481600
_cell_angle_alpha   90.00000000
_cell_angle_beta   90.00000000
_cell_angle_gamma   90.00000000
_symmetry_Int_Tables_number   1
_chemical_formula_structural   Cs2Ti(AgS2)2
_chemical_formula_sum   'Cs4 Ti2 Ag4 S8'
_cell_volume   522.78144474
_cell_formula_units_Z   2
loop_
 _symmetry_equiv_pos_site_id
 _symmetry_equiv_pos_as_xyz
  1  'x, y, z'
loop_
 _atom_site_type_symbol
 _atom_site_label
 _atom_site_symmetry_multiplicity
 _atom_site_fract_x
 _atom_site_fract_y
 _atom_site_fract_z
 _atom_site_occupancy
  Cs  Cs0  1  0.76463800  0.76463800  0.00000000  1
  Cs  Cs1  1  0.23536200  0.76463800  0.50000000  1
  Cs  Cs2  1  0.76463800  0.23536200  0.50000000  1
  Cs  Cs3  1  0.23536200  0.23536200  0.00000000  1
  Ti  Ti4  1  0.50000000  0.50000000  0.75000000  1
  Ti  Ti5  1  0.50000000  0.50000000  0.25000000  1
  Ag  Ag6  1  0.00000000  0.50000000  0.75000000  1
  Ag  Ag7  1  0.50000000  0.00000000  0.75000000  1
  Ag  Ag8  1  0.00000000  0.50000000  0.25000000  1
  Ag  Ag9  1  0.50000000  0.00000000  0.25000000  1
  S  S10  1  0.71349600  0.71349600  0.65114600  1
  S  S11  1  0.28650400  0.28650400  0.65114600  1
  S  S12  1  0.71349600  0.71349600  0.34885400  1
  S  S13  1  0.71349600  0.28650400  0.15114600  1
  S  S14  1  0.28650400  0.71349600  0.84885400  1
  S  S15  1  0.28650400  0.28650400  0.34885400  1
  S  S16  1  0.28650400  0.71349600  0.15114600  1
  S  S17  1  0.71349600  0.28650400  0.84885400  1
