# generated using pymatgen
data_TlBi(SO4)2
_symmetry_space_group_name_H-M   'P 1'
_cell_length_a   7.69267800
_cell_length_b   10.81375395
_cell_length_c   11.03578337
_cell_angle_alpha   60.74180378
_cell_angle_beta   69.94924016
_cell_angle_gamma   69.77640365
_symmetry_Int_Tables_number   1
_chemical_formula_structural   TlBi(SO4)2
_chemical_formula_sum   'Tl4 Bi4 S8 O32'
_cell_volume   734.38600824
_cell_formula_units_Z   4
loop_
 _symmetry_equiv_pos_site_id
 _symmetry_equiv_pos_as_xyz
  1  'x, y, z'
loop_
 _atom_site_type_symbol
 _atom_site_label
 _atom_site_symmetry_multiplicity
 _atom_site_fract_x
 _atom_site_fract_y
 _atom_site_fract_z
 _atom_site_occupancy
  Tl  Tl0  1  0.00000000  0.50000000  0.50000000  1
  Tl  Tl1  1  0.00000000  0.00000000  0.50000000  1
  Tl  Tl2  1  0.00000000  0.50000000  0.00000000  1
  Tl  Tl3  1  0.00000000  0.00000000  0.00000000  1
  Bi  Bi4  1  0.49898800  0.28722400  0.25053600  1
  Bi  Bi5  1  0.50101200  0.71277600  0.74946400  1
  Bi  Bi6  1  0.50474000  0.78502100  0.24787300  1
  Bi  Bi7  1  0.49526000  0.21497900  0.75212700  1
  S  S8  1  0.66945700  0.89485200  0.38814700  1
  S  S9  1  0.33054300  0.10514800  0.61185300  1
  S  S10  1  0.32116600  0.11517600  0.11488100  1
  S  S11  1  0.67883400  0.88482400  0.88511900  1
  S  S12  1  0.67878000  0.39469000  0.38235300  1
  S  S13  1  0.32122000  0.60531000  0.61764700  1
  S  S14  1  0.32870800  0.61642600  0.11234000  1
  S  S15  1  0.67129200  0.38357400  0.88766000  1
  O  O16  1  0.46441500  0.90185600  0.41042200  1
  O  O17  1  0.53558500  0.09814400  0.58957800  1
  O  O18  1  0.47227100  0.40181400  0.40507200  1
  O  O19  1  0.52772900  0.59818600  0.59492800  1
  O  O20  1  0.53434400  0.54409000  0.08989300  1
  O  O21  1  0.46565600  0.45591000  0.91010700  1
  O  O22  1  0.52685500  0.04064700  0.09623100  1
  O  O23  1  0.47314500  0.95935300  0.90376900  1
  O  O24  1  0.26968200  0.20869100  0.97191400  1
  O  O25  1  0.73031800  0.79130900  0.02808600  1
  O  O26  1  0.28069800  0.20897000  0.18903200  1
  O  O27  1  0.71930200  0.79103000  0.81096800  1
  O  O28  1  0.29073300  0.71185300  0.18427900  1
  O  O29  1  0.70926700  0.28814700  0.81572100  1
  O  O30  1  0.71722100  0.54393900  0.30690400  1
  O  O31  1  0.28277900  0.45606100  0.69309600  1
  O  O32  1  0.70985200  0.04284100  0.31563400  1
  O  O33  1  0.29014800  0.95715900  0.68436600  1
  O  O34  1  0.77709300  0.81244300  0.29730800  1
  O  O35  1  0.22290700  0.18755700  0.70269200  1
  O  O36  1  0.21042000  0.99809700  0.19988900  1
  O  O37  1  0.78958000  0.00190300  0.80011100  1
  O  O38  1  0.78425500  0.31200000  0.29184700  1
  O  O39  1  0.21574500  0.68800000  0.70815300  1
  O  O40  1  0.73862600  0.31863300  0.52088200  1
  O  O41  1  0.26137400  0.68136700  0.47911800  1
  O  O42  1  0.73064500  0.81598200  0.52736600  1
  O  O43  1  0.26935500  0.18401800  0.47263400  1
  O  O44  1  0.73226100  0.29369800  0.02660400  1
  O  O45  1  0.26773900  0.70630200  0.97339600  1
  O  O46  1  0.22150500  0.49637600  0.20408200  1
  O  O47  1  0.77849500  0.50362400  0.79591800  1
