# generated using pymatgen
data_KTlSe2
_symmetry_space_group_name_H-M   'P 1'
_cell_length_a   6.85324536
_cell_length_b   6.85324536
_cell_length_c   6.85324536
_cell_angle_alpha   106.05490732
_cell_angle_beta   106.05490732
_cell_angle_gamma   116.54388598
_symmetry_Int_Tables_number   1
_chemical_formula_structural   KTlSe2
_chemical_formula_sum   'K2 Tl2 Se4'
_cell_volume   244.91520435
_cell_formula_units_Z   2
loop_
 _symmetry_equiv_pos_site_id
 _symmetry_equiv_pos_as_xyz
  1  'x, y, z'
loop_
 _atom_site_type_symbol
 _atom_site_label
 _atom_site_symmetry_multiplicity
 _atom_site_fract_x
 _atom_site_fract_y
 _atom_site_fract_z
 _atom_site_occupancy
  K  K0  1  0.75000000  0.75000000  0.00000000  1
  K  K1  1  0.25000000  0.25000000  0.00000000  1
  Tl  Tl2  1  0.75000000  0.25000000  0.50000000  1
  Tl  Tl3  1  0.25000000  0.75000000  0.50000000  1
  Se  Se4  1  0.82373400  0.32373400  0.14746800  1
  Se  Se5  1  0.17626600  0.67626600  0.85253200  1
  Se  Se6  1  0.67626600  0.82373400  0.50000000  1
  Se  Se7  1  0.32373400  0.17626600  0.50000000  1
