# generated using pymatgen
data_Yb(ZnSi)2
_symmetry_space_group_name_H-M   'P 1'
_cell_length_a   5.86761057
_cell_length_b   5.86761057
_cell_length_c   5.86761057
_cell_angle_alpha   137.89579644
_cell_angle_beta   137.89579644
_cell_angle_gamma   61.06262864
_symmetry_Int_Tables_number   1
_chemical_formula_structural   Yb(ZnSi)2
_chemical_formula_sum   'Yb1 Zn2 Si2'
_cell_volume   89.81264425
_cell_formula_units_Z   1
loop_
 _symmetry_equiv_pos_site_id
 _symmetry_equiv_pos_as_xyz
  1  'x, y, z'
loop_
 _atom_site_type_symbol
 _atom_site_label
 _atom_site_symmetry_multiplicity
 _atom_site_fract_x
 _atom_site_fract_y
 _atom_site_fract_z
 _atom_site_occupancy
  Yb  Yb0  1  0.00000000  0.00000000  0.00000000  1
  Zn  Zn1  1  0.75000000  0.25000000  0.50000000  1
  Zn  Zn2  1  0.25000000  0.75000000  0.50000000  1
  Si  Si3  1  0.38451500  0.38451500  0.00000000  1
  Si  Si4  1  0.61548500  0.61548500  0.00000000  1
