# generated using pymatgen
data_MnBPbO4
_symmetry_space_group_name_H-M   'P 1'
_cell_length_a   6.07646700
_cell_length_b   6.81441801
_cell_length_c   8.76399201
_cell_angle_alpha   90.00545692
_cell_angle_beta   90.00054805
_cell_angle_gamma   89.99884466
_symmetry_Int_Tables_number   1
_chemical_formula_structural   MnBPbO4
_chemical_formula_sum   'Mn4 B4 Pb4 O16'
_cell_volume   362.89575246
_cell_formula_units_Z   4
loop_
 _symmetry_equiv_pos_site_id
 _symmetry_equiv_pos_as_xyz
  1  'x, y, z'
loop_
 _atom_site_type_symbol
 _atom_site_label
 _atom_site_symmetry_multiplicity
 _atom_site_fract_x
 _atom_site_fract_y
 _atom_site_fract_z
 _atom_site_occupancy
  Mn  Mn0  1  0.49993000  0.00000600  0.00018000  1
  Mn  Mn1  1  0.99990000  0.00011800  0.00002400  1
  Mn  Mn2  1  0.99983100  0.49981700  0.50003900  1
  Mn  Mn3  1  0.50001700  0.49996700  0.49978400  1
  B  B4  1  0.24997700  0.79746700  0.73715300  1
  B  B5  1  0.25002300  0.29746900  0.76287600  1
  B  B6  1  0.74997700  0.20253900  0.26281900  1
  B  B7  1  0.75002000  0.70257600  0.23712700  1
  Pb  Pb8  1  0.25000200  0.53620000  0.14955100  1
  Pb  Pb9  1  0.25005800  0.03624600  0.35039200  1
  Pb  Pb10  1  0.75002200  0.46375600  0.85032000  1
  Pb  Pb11  1  0.75004800  0.96378600  0.64968800  1
  O  O12  1  0.25001700  0.89043400  0.10234800  1
  O  O13  1  0.24998100  0.39047300  0.39761100  1
  O  O14  1  0.75001900  0.10948800  0.89776600  1
  O  O15  1  0.74998300  0.60950300  0.60226400  1
  O  O16  1  0.25004200  0.72072200  0.59282100  1
  O  O17  1  0.25005400  0.22078000  0.90716700  1
  O  O18  1  0.75004200  0.27930500  0.40716600  1
  O  O19  1  0.75005100  0.77928900  0.09288900  1
  O  O20  1  0.04997500  0.83853900  0.81102400  1
  O  O21  1  0.44999900  0.33846600  0.68905600  1
  O  O22  1  0.55003700  0.16147500  0.18902100  1
  O  O23  1  0.95000700  0.66155300  0.31091400  1
  O  O24  1  0.94997300  0.16161400  0.18912400  1
  O  O25  1  0.54998500  0.66151800  0.31094300  1
  O  O26  1  0.45003200  0.83839600  0.81090800  1
  O  O27  1  0.04999800  0.33850000  0.68902300  1
