# generated using pymatgen
data_AlH6N2F3
_symmetry_space_group_name_H-M   'P 1'
_cell_length_a   3.78005900
_cell_length_b   5.69581440
_cell_length_c   5.46112430
_cell_angle_alpha   95.35683088
_cell_angle_beta   110.24821892
_cell_angle_gamma   70.62025286
_symmetry_Int_Tables_number   1
_chemical_formula_structural   AlH6N2F3
_chemical_formula_sum   'Al1 H6 N2 F3'
_cell_volume   104.03348280
_cell_formula_units_Z   1
loop_
 _symmetry_equiv_pos_site_id
 _symmetry_equiv_pos_as_xyz
  1  'x, y, z'
loop_
 _atom_site_type_symbol
 _atom_site_label
 _atom_site_symmetry_multiplicity
 _atom_site_fract_x
 _atom_site_fract_y
 _atom_site_fract_z
 _atom_site_occupancy
  Al  Al0  1  0.00000000  0.00000000  0.00000000  1
  H  H1  1  0.12191700  0.55520000  0.79903400  1
  H  H2  1  0.87808300  0.44480000  0.20096600  1
  H  H3  1  0.14044800  0.74886100  0.60287200  1
  H  H4  1  0.28643600  0.25113900  0.39712800  1
  H  H5  1  0.85955200  0.25113900  0.39712800  1
  H  H6  1  0.71356400  0.74886100  0.60287200  1
  N  N7  1  0.99632300  0.73406700  0.72671200  1
  N  N8  1  0.00367700  0.26593300  0.27328800  1
  F  F9  1  0.24518200  0.76611900  0.25648400  1
  F  F10  1  0.75481800  0.23388100  0.74351600  1
  F  F11  1  0.50000000  0.00000000  0.00000000  1
