# generated using pymatgen
data_Yb3SnH2
_symmetry_space_group_name_H-M   'P 1'
_cell_length_a   7.13830711
_cell_length_b   7.13830711
_cell_length_c   5.25918400
_cell_angle_alpha   90.00000000
_cell_angle_beta   90.00000000
_cell_angle_gamma   104.26249160
_symmetry_Int_Tables_number   1
_chemical_formula_structural   Yb3SnH2
_chemical_formula_sum   'Yb6 Sn2 H4'
_cell_volume   259.72396307
_cell_formula_units_Z   2
loop_
 _symmetry_equiv_pos_site_id
 _symmetry_equiv_pos_as_xyz
  1  'x, y, z'
loop_
 _atom_site_type_symbol
 _atom_site_label
 _atom_site_symmetry_multiplicity
 _atom_site_fract_x
 _atom_site_fract_y
 _atom_site_fract_z
 _atom_site_occupancy
  Yb  Yb0  1  0.88981700  0.11018300  0.75000000  1
  Yb  Yb1  1  0.11018300  0.88981700  0.25000000  1
  Yb  Yb2  1  0.81377400  0.59173100  0.75000000  1
  Yb  Yb3  1  0.18622600  0.40826900  0.25000000  1
  Yb  Yb4  1  0.40826900  0.18622600  0.75000000  1
  Yb  Yb5  1  0.59173100  0.81377400  0.25000000  1
  Sn  Sn6  1  0.30828900  0.69171100  0.75000000  1
  Sn  Sn7  1  0.69171100  0.30828900  0.25000000  1
  H  H8  1  0.15042100  0.15042100  0.50000000  1
  H  H9  1  0.84957900  0.84957900  0.50000000  1
  H  H10  1  0.84957900  0.84957900  0.00000000  1
  H  H11  1  0.15042100  0.15042100  0.00000000  1
