# generated using pymatgen
data_CsCoO2
_symmetry_space_group_name_H-M   'P 1'
_cell_length_a   6.11921688
_cell_length_b   7.06248742
_cell_length_c   8.30818027
_cell_angle_alpha   89.13437818
_cell_angle_beta   88.00154849
_cell_angle_gamma   64.32794220
_symmetry_Int_Tables_number   1
_chemical_formula_structural   CsCoO2
_chemical_formula_sum   'Cs4 Co4 O8'
_cell_volume   323.41413338
_cell_formula_units_Z   4
loop_
 _symmetry_equiv_pos_site_id
 _symmetry_equiv_pos_as_xyz
  1  'x, y, z'
loop_
 _atom_site_type_symbol
 _atom_site_label
 _atom_site_symmetry_multiplicity
 _atom_site_fract_x
 _atom_site_fract_y
 _atom_site_fract_z
 _atom_site_occupancy
  Cs  Cs0  1  0.66608700  0.17471200  0.43033200  1
  Cs  Cs1  1  0.15920000  0.17471200  0.06966800  1
  Cs  Cs2  1  0.33391300  0.82528800  0.56966800  1
  Cs  Cs3  1  0.84080000  0.82528800  0.93033200  1
  Co  Co4  1  0.95502100  0.59188700  0.35635600  1
  Co  Co5  1  0.45309100  0.59188700  0.14364400  1
  Co  Co6  1  0.04497900  0.40811300  0.64364400  1
  Co  Co7  1  0.54690900  0.40811300  0.85635600  1
  O  O8  1  0.59763500  0.30711200  0.07409900  1
  O  O9  1  0.09525300  0.30711200  0.42590100  1
  O  O10  1  0.40236500  0.69288800  0.92590100  1
  O  O11  1  0.90474800  0.69288800  0.57409900  1
  O  O12  1  0.15292300  0.69415400  0.25000000  1
  O  O13  1  0.84707700  0.30584600  0.75000000  1
  O  O14  1  0.67085700  0.65828500  0.25000000  1
  O  O15  1  0.32914300  0.34171500  0.75000000  1
