# generated using pymatgen
data_Ca4Al6CrO16
_symmetry_space_group_name_H-M   'P 1'
_cell_length_a   8.09639229
_cell_length_b   8.09639229
_cell_length_c   8.09639229
_cell_angle_alpha   109.84905498
_cell_angle_beta   109.84905498
_cell_angle_gamma   108.71816629
_symmetry_Int_Tables_number   1
_chemical_formula_structural   Ca4Al6CrO16
_chemical_formula_sum   'Ca4 Al6 Cr1 O16'
_cell_volume   408.50422806
_cell_formula_units_Z   1
loop_
 _symmetry_equiv_pos_site_id
 _symmetry_equiv_pos_as_xyz
  1  'x, y, z'
loop_
 _atom_site_type_symbol
 _atom_site_label
 _atom_site_symmetry_multiplicity
 _atom_site_fract_x
 _atom_site_fract_y
 _atom_site_fract_z
 _atom_site_occupancy
  Ca  Ca0  1  0.57942500  0.00643800  0.01856300  1
  Ca  Ca1  1  0.99356200  0.01212600  0.57298700  1
  Ca  Ca2  1  0.98787400  0.56086100  0.98143700  1
  Ca  Ca3  1  0.43913900  0.42057500  0.42701300  1
  Al  Al4  1  0.49173200  0.74746200  0.24636100  1
  Al  Al5  1  0.25000000  0.75000000  0.50000000  1
  Al  Al6  1  0.75462900  0.50826800  0.25573000  1
  Al  Al7  1  0.75000000  0.25000000  0.50000000  1
  Al  Al8  1  0.50110100  0.24537100  0.75363900  1
  Al  Al9  1  0.25253800  0.49889900  0.74427000  1
  Cr  Cr10  1  0.00000000  0.00000000  0.00000000  1
  O  O11  1  0.40569200  0.99720400  0.71445400  1
  O  O12  1  0.70022000  0.30542100  0.30269400  1
  O  O13  1  0.39784800  0.70510800  0.99556200  1
  O  O14  1  0.69457900  0.99727300  0.39479900  1
  O  O15  1  0.00279600  0.71725000  0.40848800  1
  O  O16  1  0.29489200  0.29045400  0.69274100  1
  O  O17  1  0.28275000  0.69123800  0.28554600  1
  O  O18  1  0.00272700  0.39752600  0.69730600  1
  O  O19  1  0.70954600  0.40228700  0.00443800  1
  O  O20  1  0.60247400  0.29978000  0.60520100  1
  O  O21  1  0.30876200  0.59430800  0.59151200  1
  O  O22  1  0.59771300  0.60215200  0.30725900  1
  O  O23  1  0.90625300  0.04462900  0.15429100  1
  O  O24  1  0.95537100  0.10966200  0.86162400  1
  O  O25  1  0.89033800  0.75196200  0.84570900  1
  O  O26  1  0.24803800  0.09374700  0.13837600  1
