# generated using pymatgen
data_K2BeCl4
_symmetry_space_group_name_H-M   'P 1'
_cell_length_a   6.94852200
_cell_length_b   8.95776400
_cell_length_c   12.22098600
_cell_angle_alpha   90.00000000
_cell_angle_beta   90.00000000
_cell_angle_gamma   90.00000000
_symmetry_Int_Tables_number   1
_chemical_formula_structural   K2BeCl4
_chemical_formula_sum   'K8 Be4 Cl16'
_cell_volume   760.67352296
_cell_formula_units_Z   4
loop_
 _symmetry_equiv_pos_site_id
 _symmetry_equiv_pos_as_xyz
  1  'x, y, z'
loop_
 _atom_site_type_symbol
 _atom_site_label
 _atom_site_symmetry_multiplicity
 _atom_site_fract_x
 _atom_site_fract_y
 _atom_site_fract_z
 _atom_site_occupancy
  K  K0  1  0.75000000  0.51466800  0.32095200  1
  K  K1  1  0.25000000  0.48533200  0.67904800  1
  K  K2  1  0.25000000  0.98533200  0.82095200  1
  K  K3  1  0.75000000  0.01466800  0.17904800  1
  K  K4  1  0.75000000  0.84975600  0.58666000  1
  K  K5  1  0.25000000  0.15024400  0.41334000  1
  K  K6  1  0.25000000  0.65024400  0.08666000  1
  K  K7  1  0.75000000  0.34975600  0.91334000  1
  Be  Be8  1  0.75000000  0.76799800  0.92214500  1
  Be  Be9  1  0.25000000  0.23200200  0.07785500  1
  Be  Be10  1  0.25000000  0.73200200  0.42214500  1
  Be  Be11  1  0.75000000  0.26799800  0.57785500  1
  Cl  Cl12  1  0.98865800  0.68706100  0.84656500  1
  Cl  Cl13  1  0.01134200  0.31293900  0.15343500  1
  Cl  Cl14  1  0.01134200  0.81293900  0.34656500  1
  Cl  Cl15  1  0.48865800  0.31293900  0.15343500  1
  Cl  Cl16  1  0.98865800  0.18706100  0.65343500  1
  Cl  Cl17  1  0.51134200  0.68706100  0.84656500  1
  Cl  Cl18  1  0.51134200  0.18706100  0.65343500  1
  Cl  Cl19  1  0.48865800  0.81293900  0.34656500  1
  Cl  Cl20  1  0.75000000  0.99431300  0.91661200  1
  Cl  Cl21  1  0.25000000  0.00568700  0.08338800  1
  Cl  Cl22  1  0.25000000  0.50568700  0.41661200  1
  Cl  Cl23  1  0.75000000  0.49431300  0.58338800  1
  Cl  Cl24  1  0.75000000  0.18941100  0.42033100  1
  Cl  Cl25  1  0.25000000  0.81058900  0.57966900  1
  Cl  Cl26  1  0.25000000  0.31058900  0.92033100  1
  Cl  Cl27  1  0.75000000  0.68941100  0.07966900  1
