# generated using pymatgen
data_TbMn2O5
_symmetry_space_group_name_H-M   'P 1'
_cell_length_a   5.79328000
_cell_length_b   7.38493100
_cell_length_c   8.59228600
_cell_angle_alpha   90.00000000
_cell_angle_beta   90.00000000
_cell_angle_gamma   90.00000000
_symmetry_Int_Tables_number   1
_chemical_formula_structural   TbMn2O5
_chemical_formula_sum   'Tb4 Mn8 O20'
_cell_volume   367.60354049
_cell_formula_units_Z   4
loop_
 _symmetry_equiv_pos_site_id
 _symmetry_equiv_pos_as_xyz
  1  'x, y, z'
loop_
 _atom_site_type_symbol
 _atom_site_label
 _atom_site_symmetry_multiplicity
 _atom_site_fract_x
 _atom_site_fract_y
 _atom_site_fract_z
 _atom_site_occupancy
  Tb  Tb0  1  0.00000000  0.36197100  0.67080800  1
  Tb  Tb1  1  0.00000000  0.63802900  0.32919200  1
  Tb  Tb2  1  0.00000000  0.86197100  0.82919200  1
  Tb  Tb3  1  0.00000000  0.13802900  0.17080800  1
  Mn  Mn4  1  0.50000000  0.08877800  0.84878200  1
  Mn  Mn5  1  0.50000000  0.91122200  0.15121800  1
  Mn  Mn6  1  0.50000000  0.58877800  0.65121800  1
  Mn  Mn7  1  0.50000000  0.41122200  0.34878200  1
  Mn  Mn8  1  0.25399800  0.50000000  0.00000000  1
  Mn  Mn9  1  0.74600200  0.00000000  0.50000000  1
  Mn  Mn10  1  0.74600200  0.50000000  0.00000000  1
  Mn  Mn11  1  0.25399800  0.00000000  0.50000000  1
  O  O12  1  0.24110200  0.89414400  0.29307200  1
  O  O13  1  0.24110200  0.10585600  0.70692800  1
  O  O14  1  0.75889800  0.39414400  0.20692800  1
  O  O15  1  0.75889800  0.60585600  0.79307200  1
  O  O16  1  0.75889800  0.10585600  0.70692800  1
  O  O17  1  0.75889800  0.89414400  0.29307200  1
  O  O18  1  0.24110200  0.60585600  0.79307200  1
  O  O19  1  0.24110200  0.39414400  0.20692800  1
  O  O20  1  0.50000000  0.34891100  0.93098800  1
  O  O21  1  0.50000000  0.65108900  0.06901200  1
  O  O22  1  0.50000000  0.84891100  0.56901200  1
  O  O23  1  0.50000000  0.15108900  0.43098800  1
  O  O24  1  0.27105800  0.00000000  0.00000000  1
  O  O25  1  0.72894200  0.50000000  0.50000000  1
  O  O26  1  0.72894200  0.00000000  0.00000000  1
  O  O27  1  0.27105800  0.50000000  0.50000000  1
  O  O28  1  0.00000000  0.16307000  0.44331400  1
  O  O29  1  0.00000000  0.83693000  0.55668600  1
  O  O30  1  0.00000000  0.66307000  0.05668600  1
  O  O31  1  0.00000000  0.33693000  0.94331400  1
