# generated using pymatgen
data_U2Cu3Si4Ni
_symmetry_space_group_name_H-M   'P 1'
_cell_length_a   3.94908500
_cell_length_b   3.94908500
_cell_length_c   9.90106100
_cell_angle_alpha   90.00000000
_cell_angle_beta   90.00000000
_cell_angle_gamma   90.00000000
_symmetry_Int_Tables_number   1
_chemical_formula_structural   U2Cu3Si4Ni
_chemical_formula_sum   'U2 Cu3 Si4 Ni1'
_cell_volume   154.40974272
_cell_formula_units_Z   1
loop_
 _symmetry_equiv_pos_site_id
 _symmetry_equiv_pos_as_xyz
  1  'x, y, z'
loop_
 _atom_site_type_symbol
 _atom_site_label
 _atom_site_symmetry_multiplicity
 _atom_site_fract_x
 _atom_site_fract_y
 _atom_site_fract_z
 _atom_site_occupancy
  U  U0  1  0.50000000  0.00000000  0.75407800  1
  U  U1  1  0.00000000  0.50000000  0.24592200  1
  Cu  Cu2  1  0.00000000  0.00000000  0.50000000  1
  Cu  Cu3  1  0.00000000  0.00000000  0.00000000  1
  Cu  Cu4  1  0.50000000  0.50000000  0.50000000  1
  Si  Si5  1  0.00000000  0.50000000  0.87340700  1
  Si  Si6  1  0.50000000  0.00000000  0.36278400  1
  Si  Si7  1  0.50000000  0.00000000  0.12659300  1
  Si  Si8  1  0.00000000  0.50000000  0.63721600  1
  Ni  Ni9  1  0.50000000  0.50000000  0.00000000  1
