# generated using pymatgen
data_Ca3(BN2)2
_symmetry_space_group_name_H-M   'P 1'
_cell_length_a   6.32839600
_cell_length_b   6.32839600
_cell_length_c   20.95543000
_cell_angle_alpha   90.00000000
_cell_angle_beta   90.00000000
_cell_angle_gamma   108.85247387
_symmetry_Int_Tables_number   1
_chemical_formula_structural   Ca3(BN2)2
_chemical_formula_sum   'Ca18 B12 N24'
_cell_volume   794.21368197
_cell_formula_units_Z   6
loop_
 _symmetry_equiv_pos_site_id
 _symmetry_equiv_pos_as_xyz
  1  'x, y, z'
loop_
 _atom_site_type_symbol
 _atom_site_label
 _atom_site_symmetry_multiplicity
 _atom_site_fract_x
 _atom_site_fract_y
 _atom_site_fract_z
 _atom_site_occupancy
  Ca  Ca0  1  0.97129400  0.97129400  0.25374200  1
  Ca  Ca1  1  0.02870600  0.02870600  0.74625800  1
  Ca  Ca2  1  0.52870600  0.52870600  0.75374200  1
  Ca  Ca3  1  0.47129400  0.47129400  0.24625800  1
  Ca  Ca4  1  0.23513600  0.72675400  0.37800400  1
  Ca  Ca5  1  0.27324600  0.76486400  0.62199600  1
  Ca  Ca6  1  0.77324600  0.26486400  0.87800400  1
  Ca  Ca7  1  0.73513600  0.22675400  0.12199600  1
  Ca  Ca8  1  0.76486400  0.27324600  0.62199600  1
  Ca  Ca9  1  0.72675400  0.23513600  0.37800400  1
  Ca  Ca10  1  0.22675400  0.73513600  0.12199600  1
  Ca  Ca11  1  0.26486400  0.77324600  0.87800400  1
  Ca  Ca12  1  0.24036000  0.24036000  0.37923000  1
  Ca  Ca13  1  0.75964000  0.75964000  0.62077000  1
  Ca  Ca14  1  0.25964000  0.25964000  0.87923000  1
  Ca  Ca15  1  0.74036000  0.74036000  0.12077000  1
  Ca  Ca16  1  0.00000000  0.00000000  0.50000000  1
  Ca  Ca17  1  0.50000000  0.50000000  0.00000000  1
  B  B18  1  0.73252400  0.73252400  0.37152300  1
  B  B19  1  0.26747600  0.26747600  0.62847700  1
  B  B20  1  0.76747600  0.76747600  0.87152300  1
  B  B21  1  0.23252400  0.23252400  0.12847700  1
  B  B22  1  0.46899600  0.96899600  0.25000000  1
  B  B23  1  0.03100400  0.53100400  0.75000000  1
  B  B24  1  0.53100400  0.03100400  0.75000000  1
  B  B25  1  0.96899600  0.46899600  0.25000000  1
  B  B26  1  0.50000000  0.00000000  0.50000000  1
  B  B27  1  0.00000000  0.50000000  0.50000000  1
  B  B28  1  0.50000000  0.00000000  0.00000000  1
  B  B29  1  0.00000000  0.50000000  0.00000000  1
  N  N30  1  0.03209400  0.38857700  0.44848200  1
  N  N31  1  0.61142300  0.96790600  0.55151800  1
  N  N32  1  0.11142300  0.46790600  0.94848200  1
  N  N33  1  0.53209400  0.88857700  0.05151800  1
  N  N34  1  0.96790600  0.61142300  0.55151800  1
  N  N35  1  0.38857700  0.03209400  0.44848200  1
  N  N36  1  0.88857700  0.53209400  0.05151800  1
  N  N37  1  0.46790600  0.11142300  0.94848200  1
  N  N38  1  0.56145400  0.87643800  0.20489100  1
  N  N39  1  0.12356200  0.43854600  0.79510900  1
  N  N40  1  0.62356200  0.93854600  0.70489100  1
  N  N41  1  0.06145400  0.37643800  0.29510900  1
  N  N42  1  0.43854600  0.12356200  0.79510900  1
  N  N43  1  0.87643800  0.56145400  0.20489100  1
  N  N44  1  0.37643800  0.06145400  0.29510900  1
  N  N45  1  0.93854600  0.62356200  0.70489100  1
  N  N46  1  0.55410000  0.55410000  0.35919300  1
  N  N47  1  0.44590000  0.44590000  0.64080700  1
  N  N48  1  0.94590000  0.94590000  0.85919300  1
  N  N49  1  0.05410000  0.05410000  0.14080700  1
  N  N50  1  0.91407100  0.91407100  0.37974500  1
  N  N51  1  0.08592900  0.08592900  0.62025500  1
  N  N52  1  0.58592900  0.58592900  0.87974500  1
  N  N53  1  0.41407100  0.41407100  0.12025500  1
