# generated using pymatgen
data_Nb(ZnGa)3
_symmetry_space_group_name_H-M   'P 1'
_cell_length_a   5.64328465
_cell_length_b   5.64328465
_cell_length_c   5.64328504
_cell_angle_alpha   58.08257780
_cell_angle_beta   58.08257780
_cell_angle_gamma   58.08258247
_symmetry_Int_Tables_number   1
_chemical_formula_structural   Nb(ZnGa)3
_chemical_formula_sum   'Nb1 Zn3 Ga3'
_cell_volume   121.49411407
_cell_formula_units_Z   1
loop_
 _symmetry_equiv_pos_site_id
 _symmetry_equiv_pos_as_xyz
  1  'x, y, z'
loop_
 _atom_site_type_symbol
 _atom_site_label
 _atom_site_symmetry_multiplicity
 _atom_site_fract_x
 _atom_site_fract_y
 _atom_site_fract_z
 _atom_site_occupancy
  Nb  Nb0  1  0.00000000  0.00000000  0.00000000  1
  Zn  Zn1  1  0.00000000  0.00000000  0.50000000  1
  Zn  Zn2  1  0.50000000  0.00000000  0.00000000  1
  Zn  Zn3  1  0.00000000  0.50000000  0.00000000  1
  Ga  Ga4  1  0.50000000  0.50000000  0.00000000  1
  Ga  Ga5  1  0.00000000  0.50000000  0.50000000  1
  Ga  Ga6  1  0.50000000  0.00000000  0.50000000  1
