# generated using pymatgen
data_Nb5Ge3B
_symmetry_space_group_name_H-M   'P 1'
_cell_length_a   7.77997166
_cell_length_b   7.77997166
_cell_length_c   5.37184800
_cell_angle_alpha   90.00000000
_cell_angle_beta   90.00000000
_cell_angle_gamma   119.99999711
_symmetry_Int_Tables_number   1
_chemical_formula_structural   Nb5Ge3B
_chemical_formula_sum   'Nb10 Ge6 B2'
_cell_volume   281.58556641
_cell_formula_units_Z   2
loop_
 _symmetry_equiv_pos_site_id
 _symmetry_equiv_pos_as_xyz
  1  'x, y, z'
loop_
 _atom_site_type_symbol
 _atom_site_label
 _atom_site_symmetry_multiplicity
 _atom_site_fract_x
 _atom_site_fract_y
 _atom_site_fract_z
 _atom_site_occupancy
  Nb  Nb0  1  0.66666700  0.33333300  0.50000000  1
  Nb  Nb1  1  0.33333300  0.66666700  0.50000000  1
  Nb  Nb2  1  0.33333300  0.66666700  0.00000000  1
  Nb  Nb3  1  0.66666700  0.33333300  0.00000000  1
  Nb  Nb4  1  0.75642400  0.75642400  0.25000000  1
  Nb  Nb5  1  0.24357600  0.00000000  0.25000000  1
  Nb  Nb6  1  0.00000000  0.24357600  0.25000000  1
  Nb  Nb7  1  0.24357600  0.24357600  0.75000000  1
  Nb  Nb8  1  0.75642400  0.00000000  0.75000000  1
  Nb  Nb9  1  0.00000000  0.75642400  0.75000000  1
  Ge  Ge10  1  0.40062400  0.40062400  0.25000000  1
  Ge  Ge11  1  0.59937600  0.00000000  0.25000000  1
  Ge  Ge12  1  0.00000000  0.59937600  0.25000000  1
  Ge  Ge13  1  0.59937600  0.59937600  0.75000000  1
  Ge  Ge14  1  0.40062400  0.00000000  0.75000000  1
  Ge  Ge15  1  0.00000000  0.40062400  0.75000000  1
  B  B16  1  0.00000000  0.00000000  0.50000000  1
  B  B17  1  0.00000000  0.00000000  0.00000000  1
