# generated using pymatgen
data_SnPd2
_symmetry_space_group_name_H-M   'P 1'
_cell_length_a   4.33008500
_cell_length_b   5.72798900
_cell_length_c   8.38948400
_cell_angle_alpha   90.00000000
_cell_angle_beta   90.00000000
_cell_angle_gamma   90.00000000
_symmetry_Int_Tables_number   1
_chemical_formula_structural   SnPd2
_chemical_formula_sum   'Sn4 Pd8'
_cell_volume   208.08168072
_cell_formula_units_Z   4
loop_
 _symmetry_equiv_pos_site_id
 _symmetry_equiv_pos_as_xyz
  1  'x, y, z'
loop_
 _atom_site_type_symbol
 _atom_site_label
 _atom_site_symmetry_multiplicity
 _atom_site_fract_x
 _atom_site_fract_y
 _atom_site_fract_z
 _atom_site_occupancy
  Sn  Sn0  1  0.75000000  0.79830000  0.89334500  1
  Sn  Sn1  1  0.75000000  0.29830000  0.60665500  1
  Sn  Sn2  1  0.25000000  0.20170000  0.10665500  1
  Sn  Sn3  1  0.25000000  0.70170000  0.39334500  1
  Pd  Pd4  1  0.75000000  0.45261200  0.28442700  1
  Pd  Pd5  1  0.75000000  0.95261200  0.21557300  1
  Pd  Pd6  1  0.25000000  0.54738800  0.71557300  1
  Pd  Pd7  1  0.25000000  0.04738800  0.78442700  1
  Pd  Pd8  1  0.75000000  0.32563300  0.93236800  1
  Pd  Pd9  1  0.75000000  0.82563300  0.56763200  1
  Pd  Pd10  1  0.25000000  0.67436700  0.06763200  1
  Pd  Pd11  1  0.25000000  0.17436700  0.43236800  1
