# generated using pymatgen
data_RbSm2Ag3Te5
_symmetry_space_group_name_H-M   'P 1'
_cell_length_a   4.63388800
_cell_length_b   8.48058155
_cell_length_c   18.71028700
_cell_angle_alpha   90.00000000
_cell_angle_beta   90.00000000
_cell_angle_gamma   105.85511958
_symmetry_Int_Tables_number   1
_chemical_formula_structural   RbSm2Ag3Te5
_chemical_formula_sum   'Rb2 Sm4 Ag6 Te10'
_cell_volume   707.30487042
_cell_formula_units_Z   2
loop_
 _symmetry_equiv_pos_site_id
 _symmetry_equiv_pos_as_xyz
  1  'x, y, z'
loop_
 _atom_site_type_symbol
 _atom_site_label
 _atom_site_symmetry_multiplicity
 _atom_site_fract_x
 _atom_site_fract_y
 _atom_site_fract_z
 _atom_site_occupancy
  Rb  Rb0  1  0.44183000  0.88366000  0.25000000  1
  Rb  Rb1  1  0.55817000  0.11634000  0.75000000  1
  Sm  Sm2  1  0.30973100  0.61946300  0.90597700  1
  Sm  Sm3  1  0.69026900  0.38053700  0.09402300  1
  Sm  Sm4  1  0.30973100  0.61946300  0.59402300  1
  Sm  Sm5  1  0.69026900  0.38053700  0.40597700  1
  Ag  Ag6  1  0.16398500  0.32797000  0.25000000  1
  Ag  Ag7  1  0.83601500  0.67203000  0.75000000  1
  Ag  Ag8  1  0.91374200  0.82748400  0.47116900  1
  Ag  Ag9  1  0.08625800  0.17251600  0.52883100  1
  Ag  Ag10  1  0.91374200  0.82748400  0.02883100  1
  Ag  Ag11  1  0.08625800  0.17251600  0.97116900  1
  Te  Te12  1  0.93989300  0.87978700  0.87772000  1
  Te  Te13  1  0.06010700  0.12021300  0.12228000  1
  Te  Te14  1  0.93989300  0.87978700  0.62228000  1
  Te  Te15  1  0.06010700  0.12021300  0.37772000  1
  Te  Te16  1  0.67379100  0.34758200  0.92673500  1
  Te  Te17  1  0.32620900  0.65241800  0.07326500  1
  Te  Te18  1  0.67379100  0.34758200  0.57326500  1
  Te  Te19  1  0.32620900  0.65241800  0.42673500  1
  Te  Te20  1  0.76047200  0.52094400  0.25000000  1
  Te  Te21  1  0.23952800  0.47905600  0.75000000  1
