# generated using pymatgen
data_Nd3Ni
_symmetry_space_group_name_H-M   'P 1'
_cell_length_a   6.55749100
_cell_length_b   7.08312100
_cell_length_c   10.02911400
_cell_angle_alpha   90.00000000
_cell_angle_beta   90.00000000
_cell_angle_gamma   90.00000000
_symmetry_Int_Tables_number   1
_chemical_formula_structural   Nd3Ni
_chemical_formula_sum   'Nd12 Ni4'
_cell_volume   465.82729467
_cell_formula_units_Z   4
loop_
 _symmetry_equiv_pos_site_id
 _symmetry_equiv_pos_as_xyz
  1  'x, y, z'
loop_
 _atom_site_type_symbol
 _atom_site_label
 _atom_site_symmetry_multiplicity
 _atom_site_fract_x
 _atom_site_fract_y
 _atom_site_fract_z
 _atom_site_occupancy
  Nd  Nd0  1  0.32134000  0.67850700  0.06561400  1
  Nd  Nd1  1  0.17866000  0.17850700  0.43438600  1
  Nd  Nd2  1  0.67866000  0.32149300  0.56561400  1
  Nd  Nd3  1  0.82134000  0.82149300  0.93438600  1
  Nd  Nd4  1  0.67866000  0.32149300  0.93438600  1
  Nd  Nd5  1  0.82134000  0.82149300  0.56561400  1
  Nd  Nd6  1  0.32134000  0.67850700  0.43438600  1
  Nd  Nd7  1  0.17866000  0.17850700  0.06561400  1
  Nd  Nd8  1  0.86235700  0.53519900  0.25000000  1
  Nd  Nd9  1  0.63764300  0.03519900  0.25000000  1
  Nd  Nd10  1  0.13764300  0.46480100  0.75000000  1
  Nd  Nd11  1  0.36235700  0.96480100  0.75000000  1
  Ni  Ni12  1  0.06440100  0.89078000  0.25000000  1
  Ni  Ni13  1  0.43559900  0.39078000  0.25000000  1
  Ni  Ni14  1  0.93559900  0.10922000  0.75000000  1
  Ni  Ni15  1  0.56440100  0.60922000  0.75000000  1
