# generated using pymatgen
data_RbVN2
_symmetry_space_group_name_H-M   'P 1'
_cell_length_a   5.85770859
_cell_length_b   5.85770859
_cell_length_c   5.85770859
_cell_angle_alpha   120.18636770
_cell_angle_beta   120.18636770
_cell_angle_gamma   89.67750365
_symmetry_Int_Tables_number   1
_chemical_formula_structural   RbVN2
_chemical_formula_sum   'Rb2 V2 N4'
_cell_volume   141.72149489
_cell_formula_units_Z   2
loop_
 _symmetry_equiv_pos_site_id
 _symmetry_equiv_pos_as_xyz
  1  'x, y, z'
loop_
 _atom_site_type_symbol
 _atom_site_label
 _atom_site_symmetry_multiplicity
 _atom_site_fract_x
 _atom_site_fract_y
 _atom_site_fract_z
 _atom_site_occupancy
  Rb  Rb0  1  0.25000000  0.75000000  0.50000000  1
  Rb  Rb1  1  0.50000000  0.50000000  0.00000000  1
  V  V2  1  0.75000000  0.25000000  0.50000000  1
  V  V3  1  0.00000000  0.00000000  0.00000000  1
  N  N4  1  0.83206600  0.12500000  0.20706600  1
  N  N5  1  0.91793400  0.62500000  0.79293400  1
  N  N6  1  0.37500000  0.16793400  0.29293400  1
  N  N7  1  0.87500000  0.08206600  0.70706600  1
