# generated using pymatgen
data_CsPr6FeI10
_symmetry_space_group_name_H-M   'P 1'
_cell_length_a   13.89315200
_cell_length_b   14.31273000
_cell_length_c   15.66001600
_cell_angle_alpha   90.00000000
_cell_angle_beta   90.00000000
_cell_angle_gamma   90.00000000
_symmetry_Int_Tables_number   1
_chemical_formula_structural   CsPr6FeI10
_chemical_formula_sum   'Cs4 Pr24 Fe4 I40'
_cell_volume   3113.97747902
_cell_formula_units_Z   4
loop_
 _symmetry_equiv_pos_site_id
 _symmetry_equiv_pos_as_xyz
  1  'x, y, z'
loop_
 _atom_site_type_symbol
 _atom_site_label
 _atom_site_symmetry_multiplicity
 _atom_site_fract_x
 _atom_site_fract_y
 _atom_site_fract_z
 _atom_site_occupancy
  Cs  Cs0  1  0.25000000  0.48688300  0.41642600  1
  Cs  Cs1  1  0.75000000  0.51311700  0.58357400  1
  Cs  Cs2  1  0.75000000  0.98688300  0.08357400  1
  Cs  Cs3  1  0.25000000  0.01311700  0.91642600  1
  Pr  Pr4  1  0.25000000  0.39334600  0.00792600  1
  Pr  Pr5  1  0.75000000  0.60665400  0.99207400  1
  Pr  Pr6  1  0.75000000  0.89334600  0.49207400  1
  Pr  Pr7  1  0.25000000  0.10665400  0.50792600  1
  Pr  Pr8  1  0.25000000  0.89560700  0.23094600  1
  Pr  Pr9  1  0.75000000  0.10439300  0.76905400  1
  Pr  Pr10  1  0.75000000  0.39560700  0.26905400  1
  Pr  Pr11  1  0.25000000  0.60439300  0.73094600  1
  Pr  Pr12  1  0.60810000  0.38298700  0.05787300  1
  Pr  Pr13  1  0.39190000  0.61701300  0.94212700  1
  Pr  Pr14  1  0.39190000  0.88298700  0.44212700  1
  Pr  Pr15  1  0.10810000  0.61701300  0.94212700  1
  Pr  Pr16  1  0.60810000  0.11701300  0.55787300  1
  Pr  Pr17  1  0.89190000  0.38298700  0.05787300  1
  Pr  Pr18  1  0.89190000  0.11701300  0.55787300  1
  Pr  Pr19  1  0.10810000  0.88298700  0.44212700  1
  Pr  Pr20  1  0.10850700  0.11579900  0.29674500  1
  Pr  Pr21  1  0.89149300  0.88420100  0.70325500  1
  Pr  Pr22  1  0.89149300  0.61579900  0.20325500  1
  Pr  Pr23  1  0.60850700  0.88420100  0.70325500  1
  Pr  Pr24  1  0.10850700  0.38420100  0.79674500  1
  Pr  Pr25  1  0.39149300  0.11579900  0.29674500  1
  Pr  Pr26  1  0.39149300  0.38420100  0.79674500  1
  Pr  Pr27  1  0.60850700  0.61579900  0.20325500  1
  Fe  Fe28  1  0.25000000  0.00071800  0.37108600  1
  Fe  Fe29  1  0.75000000  0.99928200  0.62891400  1
  Fe  Fe30  1  0.75000000  0.50071800  0.12891400  1
  Fe  Fe31  1  0.25000000  0.49928200  0.87108600  1
  I  I32  1  0.07570300  0.24836700  0.46237600  1
  I  I33  1  0.92429700  0.75163300  0.53762400  1
  I  I34  1  0.92429700  0.74836700  0.03762400  1
  I  I35  1  0.57570300  0.75163300  0.53762400  1
  I  I36  1  0.07570300  0.25163300  0.96237600  1
  I  I37  1  0.42429700  0.24836700  0.46237600  1
  I  I38  1  0.42429700  0.25163300  0.96237600  1
  I  I39  1  0.57570300  0.74836700  0.03762400  1
  I  I40  1  0.08366000  0.50133200  0.12494000  1
  I  I41  1  0.91634000  0.49866800  0.87506000  1
  I  I42  1  0.91634000  0.00133200  0.37506000  1
  I  I43  1  0.58366000  0.49866800  0.87506000  1
  I  I44  1  0.08366000  0.99866800  0.62494000  1
  I  I45  1  0.41634000  0.50133200  0.12494000  1
  I  I46  1  0.41634000  0.99866800  0.62494000  1
  I  I47  1  0.58366000  0.00133200  0.37506000  1
  I  I48  1  0.25000000  0.76270800  0.03682000  1
  I  I49  1  0.75000000  0.23729200  0.96318000  1
  I  I50  1  0.75000000  0.26270800  0.46318000  1
  I  I51  1  0.25000000  0.73729200  0.53682000  1
  I  I52  1  0.25000000  0.27410700  0.21763600  1
  I  I53  1  0.75000000  0.72589300  0.78236400  1
  I  I54  1  0.75000000  0.77410700  0.28236400  1
  I  I55  1  0.25000000  0.22589300  0.71763600  1
  I  I56  1  0.59074500  0.23750800  0.21190400  1
  I  I57  1  0.40925500  0.76249200  0.78809600  1
  I  I58  1  0.40925500  0.73750800  0.28809600  1
  I  I59  1  0.09074500  0.76249200  0.78809600  1
  I  I60  1  0.59074500  0.26249200  0.71190400  1
  I  I61  1  0.90925500  0.23750800  0.21190400  1
  I  I62  1  0.90925500  0.26249200  0.71190400  1
  I  I63  1  0.09074500  0.73750800  0.28809600  1
  I  I64  1  0.08223500  0.00055700  0.12417100  1
  I  I65  1  0.91776500  0.99944300  0.87582900  1
  I  I66  1  0.91776500  0.50055700  0.37582900  1
  I  I67  1  0.58223500  0.99944300  0.87582900  1
  I  I68  1  0.08223500  0.49944300  0.62417100  1
  I  I69  1  0.41776500  0.00055700  0.12417100  1
  I  I70  1  0.41776500  0.49944300  0.62417100  1
  I  I71  1  0.58223500  0.50055700  0.37582900  1
