# generated using pymatgen
data_ErGa2Pd
_symmetry_space_group_name_H-M   'P 1'
_cell_length_a   5.52957599
_cell_length_b   5.52957599
_cell_length_c   6.61152300
_cell_angle_alpha   90.00000000
_cell_angle_beta   90.00000000
_cell_angle_gamma   132.83306978
_symmetry_Int_Tables_number   1
_chemical_formula_structural   ErGa2Pd
_chemical_formula_sum   'Er2 Ga4 Pd2'
_cell_volume   148.24809386
_cell_formula_units_Z   2
loop_
 _symmetry_equiv_pos_site_id
 _symmetry_equiv_pos_as_xyz
  1  'x, y, z'
loop_
 _atom_site_type_symbol
 _atom_site_label
 _atom_site_symmetry_multiplicity
 _atom_site_fract_x
 _atom_site_fract_y
 _atom_site_fract_z
 _atom_site_occupancy
  Er  Er0  1  0.58760300  0.41239700  0.25000000  1
  Er  Er1  1  0.41239700  0.58760300  0.75000000  1
  Ga  Ga2  1  0.87205100  0.12794900  0.44699600  1
  Ga  Ga3  1  0.12794900  0.87205100  0.55300400  1
  Ga  Ga4  1  0.87205100  0.12794900  0.05300400  1
  Ga  Ga5  1  0.12794900  0.87205100  0.94699600  1
  Pd  Pd6  1  0.29979700  0.70020300  0.25000000  1
  Pd  Pd7  1  0.70020300  0.29979700  0.75000000  1
