# generated using pymatgen
data_Sb2Br9
_symmetry_space_group_name_H-M   'P 1'
_cell_length_a   7.79190193
_cell_length_b   7.79190193
_cell_length_c   9.32067300
_cell_angle_alpha   90.00000000
_cell_angle_beta   90.00000000
_cell_angle_gamma   119.99999944
_symmetry_Int_Tables_number   1
_chemical_formula_structural   Sb2Br9
_chemical_formula_sum   'Sb2 Br9'
_cell_volume   490.07761056
_cell_formula_units_Z   1
loop_
 _symmetry_equiv_pos_site_id
 _symmetry_equiv_pos_as_xyz
  1  'x, y, z'
loop_
 _atom_site_type_symbol
 _atom_site_label
 _atom_site_symmetry_multiplicity
 _atom_site_fract_x
 _atom_site_fract_y
 _atom_site_fract_z
 _atom_site_occupancy
  Sb  Sb0  1  0.33333300  0.66666700  0.18685400  1
  Sb  Sb1  1  0.66666700  0.33333300  0.81314600  1
  Br  Br2  1  0.00000000  0.50000000  0.00000000  1
  Br  Br3  1  0.50000000  0.00000000  0.00000000  1
  Br  Br4  1  0.50000000  0.50000000  0.00000000  1
  Br  Br5  1  0.17398700  0.82601300  0.32922400  1
  Br  Br6  1  0.65202600  0.82601300  0.32922400  1
  Br  Br7  1  0.17398700  0.34797400  0.32922400  1
  Br  Br8  1  0.82601300  0.17398700  0.67077600  1
  Br  Br9  1  0.34797400  0.17398700  0.67077600  1
  Br  Br10  1  0.82601300  0.65202600  0.67077600  1
