# generated using pymatgen
data_LiSbS2
_symmetry_space_group_name_H-M   'P 1'
_cell_length_a   5.58511878
_cell_length_b   5.58511878
_cell_length_c   6.76699588
_cell_angle_alpha   65.65101650
_cell_angle_beta   65.65101650
_cell_angle_gamma   89.88865168
_symmetry_Int_Tables_number   1
_chemical_formula_structural   LiSbS2
_chemical_formula_sum   'Li2 Sb2 S4'
_cell_volume   171.57659478
_cell_formula_units_Z   2
loop_
 _symmetry_equiv_pos_site_id
 _symmetry_equiv_pos_as_xyz
  1  'x, y, z'
loop_
 _atom_site_type_symbol
 _atom_site_label
 _atom_site_symmetry_multiplicity
 _atom_site_fract_x
 _atom_site_fract_y
 _atom_site_fract_z
 _atom_site_occupancy
  Li  Li0  1  0.13012700  0.86987300  0.75000000  1
  Li  Li1  1  0.86987300  0.13012700  0.25000000  1
  Sb  Sb2  1  0.39020500  0.60979500  0.25000000  1
  Sb  Sb3  1  0.60979500  0.39020500  0.75000000  1
  S  S4  1  0.84130200  0.63697000  0.24533900  1
  S  S5  1  0.36303000  0.15869800  0.25466100  1
  S  S6  1  0.15869800  0.36303000  0.75466100  1
  S  S7  1  0.63697000  0.84130200  0.74533900  1
