# generated using pymatgen
data_Ba2SrWO6
_symmetry_space_group_name_H-M   'P 1'
_cell_length_a   6.11553194
_cell_length_b   6.11553194
_cell_length_c   6.21433298
_cell_angle_alpha   60.30952835
_cell_angle_beta   60.30952835
_cell_angle_gamma   60.09459647
_symmetry_Int_Tables_number   1
_chemical_formula_structural   Ba2SrWO6
_chemical_formula_sum   'Ba2 Sr1 W1 O6'
_cell_volume   165.22527617
_cell_formula_units_Z   1
loop_
 _symmetry_equiv_pos_site_id
 _symmetry_equiv_pos_as_xyz
  1  'x, y, z'
loop_
 _atom_site_type_symbol
 _atom_site_label
 _atom_site_symmetry_multiplicity
 _atom_site_fract_x
 _atom_site_fract_y
 _atom_site_fract_z
 _atom_site_occupancy
  Ba  Ba0  1  0.75263500  0.75263500  0.23907500  1
  Ba  Ba1  1  0.24736500  0.24736500  0.76092500  1
  Sr  Sr2  1  0.00000000  0.00000000  0.50000000  1
  W  W3  1  0.50000000  0.50000000  0.00000000  1
  O  O4  1  0.31532100  0.76757100  0.17683300  1
  O  O5  1  0.23242900  0.68467900  0.82316700  1
  O  O6  1  0.68467900  0.23242900  0.82316700  1
  O  O7  1  0.76757100  0.31532100  0.17683300  1
  O  O8  1  0.28085800  0.28085800  0.29322200  1
  O  O9  1  0.71914200  0.71914200  0.70677800  1
