# generated using pymatgen
data_Cs2Mo3SeO12
_symmetry_space_group_name_H-M   'P 1'
_cell_length_a   7.41850900
_cell_length_b   7.41850853
_cell_length_c   12.96140600
_cell_angle_alpha   90.00000000
_cell_angle_beta   90.00000000
_cell_angle_gamma   119.99999763
_symmetry_Int_Tables_number   1
_chemical_formula_structural   Cs2Mo3SeO12
_chemical_formula_sum   'Cs4 Mo6 Se2 O24'
_cell_volume   617.75459578
_cell_formula_units_Z   2
loop_
 _symmetry_equiv_pos_site_id
 _symmetry_equiv_pos_as_xyz
  1  'x, y, z'
loop_
 _atom_site_type_symbol
 _atom_site_label
 _atom_site_symmetry_multiplicity
 _atom_site_fract_x
 _atom_site_fract_y
 _atom_site_fract_z
 _atom_site_occupancy
  Cs  Cs0  1  0.66666700  0.33333300  0.22897400  1
  Cs  Cs1  1  0.33333300  0.66666700  0.72897400  1
  Cs  Cs2  1  0.66666700  0.33333300  0.60173300  1
  Cs  Cs3  1  0.33333300  0.66666700  0.10173300  1
  Mo  Mo4  1  0.80321200  0.66127800  0.89776600  1
  Mo  Mo5  1  0.66127800  0.85806700  0.39776600  1
  Mo  Mo6  1  0.85806700  0.19678800  0.89776600  1
  Mo  Mo7  1  0.14193300  0.80321200  0.39776600  1
  Mo  Mo8  1  0.33872200  0.14193300  0.89776600  1
  Mo  Mo9  1  0.19678800  0.33872200  0.39776600  1
  Se  Se10  1  0.00000000  0.00000000  0.17859500  1
  Se  Se11  1  0.00000000  0.00000000  0.67859500  1
  O  O12  1  0.75279800  0.87080900  0.23380900  1
  O  O13  1  0.88198900  0.75279800  0.73380900  1
  O  O14  1  0.87080900  0.11801100  0.73380900  1
  O  O15  1  0.12919100  0.88198900  0.23380900  1
  O  O16  1  0.11801100  0.24720200  0.23380900  1
  O  O17  1  0.24720200  0.12919100  0.73380900  1
  O  O18  1  0.45334700  0.91180200  0.35603200  1
  O  O19  1  0.54154600  0.45334700  0.85603200  1
  O  O20  1  0.91180200  0.45845400  0.85603200  1
  O  O21  1  0.08819800  0.54154600  0.35603200  1
  O  O22  1  0.45845400  0.54665300  0.35603200  1
  O  O23  1  0.54665300  0.08819800  0.85603200  1
  O  O24  1  0.12288400  0.87245100  0.90773000  1
  O  O25  1  0.25043300  0.12288400  0.40773000  1
  O  O26  1  0.87245100  0.74956700  0.40773000  1
  O  O27  1  0.12754900  0.25043300  0.90773000  1
  O  O28  1  0.74956700  0.87711600  0.90773000  1
  O  O29  1  0.87711600  0.12754900  0.40773000  1
  O  O30  1  0.60112000  0.80134700  0.52799500  1
  O  O31  1  0.20022700  0.39888000  0.52799500  1
  O  O32  1  0.19865300  0.79977300  0.52799500  1
  O  O33  1  0.80134700  0.20022700  0.02799500  1
  O  O34  1  0.79977300  0.60112000  0.02799500  1
  O  O35  1  0.39888000  0.19865300  0.02799500  1
