# generated using pymatgen
data_PuSn2
_symmetry_space_group_name_H-M   'P 1'
_cell_length_a   14.79778048
_cell_length_b   14.79778048
_cell_length_c   14.79778048
_cell_angle_alpha   162.00840383
_cell_angle_beta   162.00840383
_cell_angle_gamma   25.55074219
_symmetry_Int_Tables_number   1
_chemical_formula_structural   PuSn2
_chemical_formula_sum   'Pu4 Sn8'
_cell_volume   309.04793320
_cell_formula_units_Z   4
loop_
 _symmetry_equiv_pos_site_id
 _symmetry_equiv_pos_as_xyz
  1  'x, y, z'
loop_
 _atom_site_type_symbol
 _atom_site_label
 _atom_site_symmetry_multiplicity
 _atom_site_fract_x
 _atom_site_fract_y
 _atom_site_fract_z
 _atom_site_occupancy
  Pu  Pu0  1  0.82672300  0.32672300  0.50000000  1
  Pu  Pu1  1  0.92327700  0.92327700  0.00000000  1
  Pu  Pu2  1  0.67327700  0.17327700  0.50000000  1
  Pu  Pu3  1  0.07672300  0.07672300  0.00000000  1
  Sn  Sn4  1  0.00078700  0.50078700  0.50000000  1
  Sn  Sn5  1  0.74921300  0.74921300  0.00000000  1
  Sn  Sn6  1  0.49921300  0.99921300  0.50000000  1
  Sn  Sn7  1  0.25078700  0.25078700  0.00000000  1
  Sn  Sn8  1  0.16286500  0.66286500  0.50000000  1
  Sn  Sn9  1  0.58713500  0.58713500  0.00000000  1
  Sn  Sn10  1  0.33713500  0.83713500  0.50000000  1
  Sn  Sn11  1  0.41286500  0.41286500  0.00000000  1
