# generated using pymatgen
data_KEr(CO3)2
_symmetry_space_group_name_H-M   'P 1'
_cell_length_a   6.38206554
_cell_length_b   6.38206554
_cell_length_c   6.92534607
_cell_angle_alpha   76.21786764
_cell_angle_beta   76.21786764
_cell_angle_gamma   96.16591255
_symmetry_Int_Tables_number   1
_chemical_formula_structural   KEr(CO3)2
_chemical_formula_sum   'K2 Er2 C4 O12'
_cell_volume   262.00530361
_cell_formula_units_Z   2
loop_
 _symmetry_equiv_pos_site_id
 _symmetry_equiv_pos_as_xyz
  1  'x, y, z'
loop_
 _atom_site_type_symbol
 _atom_site_label
 _atom_site_symmetry_multiplicity
 _atom_site_fract_x
 _atom_site_fract_y
 _atom_site_fract_z
 _atom_site_occupancy
  K  K0  1  0.62026800  0.37973200  0.75000000  1
  K  K1  1  0.37973200  0.62026800  0.25000000  1
  Er  Er2  1  0.09590200  0.90409800  0.75000000  1
  Er  Er3  1  0.90409800  0.09590200  0.25000000  1
  C  C4  1  0.64529000  0.89001600  0.75713500  1
  C  C5  1  0.35471000  0.10998400  0.24286500  1
  C  C6  1  0.10998400  0.35471000  0.74286500  1
  C  C7  1  0.89001600  0.64529000  0.25713500  1
  O  O8  1  0.44196600  0.89537700  0.77940800  1
  O  O9  1  0.55803400  0.10462300  0.22059200  1
  O  O10  1  0.10462300  0.55803400  0.72059200  1
  O  O11  1  0.89537700  0.44196600  0.27940800  1
  O  O12  1  0.71655900  0.74954300  0.88345300  1
  O  O13  1  0.28344100  0.25045700  0.11654700  1
  O  O14  1  0.25045700  0.28344100  0.61654700  1
  O  O15  1  0.74954300  0.71655900  0.38345300  1
  O  O16  1  0.79776900  0.03373700  0.60658300  1
  O  O17  1  0.20223100  0.96626300  0.39341700  1
  O  O18  1  0.96626300  0.20223100  0.89341700  1
  O  O19  1  0.03373700  0.79776900  0.10658300  1
