# generated using pymatgen
data_Gd2Sc3Si4
_symmetry_space_group_name_H-M   'P 1'
_cell_length_a   6.94474100
_cell_length_b   7.27162900
_cell_length_c   13.81985100
_cell_angle_alpha   90.00000000
_cell_angle_beta   90.00000000
_cell_angle_gamma   90.00000000
_symmetry_Int_Tables_number   1
_chemical_formula_structural   Gd2Sc3Si4
_chemical_formula_sum   'Gd8 Sc12 Si16'
_cell_volume   697.89667190
_cell_formula_units_Z   4
loop_
 _symmetry_equiv_pos_site_id
 _symmetry_equiv_pos_as_xyz
  1  'x, y, z'
loop_
 _atom_site_type_symbol
 _atom_site_label
 _atom_site_symmetry_multiplicity
 _atom_site_fract_x
 _atom_site_fract_y
 _atom_site_fract_z
 _atom_site_occupancy
  Gd  Gd0  1  0.00959400  0.17375000  0.09674300  1
  Gd  Gd1  1  0.99040600  0.82625000  0.90325700  1
  Gd  Gd2  1  0.49040600  0.67375000  0.90325700  1
  Gd  Gd3  1  0.99040600  0.82625000  0.59674300  1
  Gd  Gd4  1  0.50959400  0.32625000  0.09674300  1
  Gd  Gd5  1  0.00959400  0.17375000  0.40325700  1
  Gd  Gd6  1  0.50959400  0.32625000  0.40325700  1
  Gd  Gd7  1  0.49040600  0.67375000  0.59674300  1
  Sc  Sc8  1  0.16162100  0.50496700  0.75000000  1
  Sc  Sc9  1  0.83837900  0.49503300  0.25000000  1
  Sc  Sc10  1  0.33837900  0.00496700  0.25000000  1
  Sc  Sc11  1  0.66162100  0.99503300  0.75000000  1
  Sc  Sc12  1  0.32773500  0.17533100  0.62371200  1
  Sc  Sc13  1  0.67226500  0.82466900  0.37628800  1
  Sc  Sc14  1  0.17226500  0.67533100  0.37628800  1
  Sc  Sc15  1  0.67226500  0.82466900  0.12371200  1
  Sc  Sc16  1  0.82773500  0.32466900  0.62371200  1
  Sc  Sc17  1  0.32773500  0.17533100  0.87628800  1
  Sc  Sc18  1  0.82773500  0.32466900  0.87628800  1
  Sc  Sc19  1  0.17226500  0.67533100  0.12371200  1
  Si  Si20  1  0.03347200  0.12012500  0.75000000  1
  Si  Si21  1  0.96652800  0.87987500  0.25000000  1
  Si  Si22  1  0.46652800  0.62012500  0.25000000  1
  Si  Si23  1  0.53347200  0.37987500  0.75000000  1
  Si  Si24  1  0.28556600  0.87759900  0.75000000  1
  Si  Si25  1  0.71443400  0.12240100  0.25000000  1
  Si  Si26  1  0.21443400  0.37759900  0.25000000  1
  Si  Si27  1  0.78556600  0.62240100  0.75000000  1
  Si  Si28  1  0.15475100  0.46385300  0.53872100  1
  Si  Si29  1  0.84524900  0.53614700  0.46127900  1
  Si  Si30  1  0.34524900  0.96385300  0.46127900  1
  Si  Si31  1  0.84524900  0.53614700  0.03872100  1
  Si  Si32  1  0.65475100  0.03614700  0.53872100  1
  Si  Si33  1  0.15475100  0.46385300  0.96127900  1
  Si  Si34  1  0.65475100  0.03614700  0.96127900  1
  Si  Si35  1  0.34524900  0.96385300  0.03872100  1
