# generated using pymatgen
data_Tb5Bi3
_symmetry_space_group_name_H-M   'P 1'
_cell_length_a   9.25037274
_cell_length_b   9.25037274
_cell_length_c   6.38320700
_cell_angle_alpha   90.00000000
_cell_angle_beta   90.00000000
_cell_angle_gamma   120.00000529
_symmetry_Int_Tables_number   1
_chemical_formula_structural   Tb5Bi3
_chemical_formula_sum   'Tb10 Bi6'
_cell_volume   473.02925658
_cell_formula_units_Z   2
loop_
 _symmetry_equiv_pos_site_id
 _symmetry_equiv_pos_as_xyz
  1  'x, y, z'
loop_
 _atom_site_type_symbol
 _atom_site_label
 _atom_site_symmetry_multiplicity
 _atom_site_fract_x
 _atom_site_fract_y
 _atom_site_fract_z
 _atom_site_occupancy
  Tb  Tb0  1  0.66666700  0.33333300  0.00000000  1
  Tb  Tb1  1  0.33333300  0.66666700  0.00000000  1
  Tb  Tb2  1  0.33333300  0.66666700  0.50000000  1
  Tb  Tb3  1  0.66666700  0.33333300  0.50000000  1
  Tb  Tb4  1  0.75548600  0.75548600  0.75000000  1
  Tb  Tb5  1  0.24451400  0.00000000  0.75000000  1
  Tb  Tb6  1  0.00000000  0.24451400  0.75000000  1
  Tb  Tb7  1  0.24451400  0.24451400  0.25000000  1
  Tb  Tb8  1  0.75548600  0.00000000  0.25000000  1
  Tb  Tb9  1  0.00000000  0.75548600  0.25000000  1
  Bi  Bi10  1  0.38736700  0.38736700  0.75000000  1
  Bi  Bi11  1  0.61263300  0.00000000  0.75000000  1
  Bi  Bi12  1  0.00000000  0.61263300  0.75000000  1
  Bi  Bi13  1  0.61263300  0.61263300  0.25000000  1
  Bi  Bi14  1  0.38736700  0.00000000  0.25000000  1
  Bi  Bi15  1  0.00000000  0.38736700  0.25000000  1
