# generated using pymatgen
data_Er2Mo4O15
_symmetry_space_group_name_H-M   'P 1'
_cell_length_a   9.68753700
_cell_length_b   6.88587100
_cell_length_c   10.67022742
_cell_angle_alpha   74.77118118
_cell_angle_beta   90.00000000
_cell_angle_gamma   90.00000000
_symmetry_Int_Tables_number   1
_chemical_formula_structural   Er2Mo4O15
_chemical_formula_sum   'Er4 Mo8 O30'
_cell_volume   686.78572600
_cell_formula_units_Z   2
loop_
 _symmetry_equiv_pos_site_id
 _symmetry_equiv_pos_as_xyz
  1  'x, y, z'
loop_
 _atom_site_type_symbol
 _atom_site_label
 _atom_site_symmetry_multiplicity
 _atom_site_fract_x
 _atom_site_fract_y
 _atom_site_fract_z
 _atom_site_occupancy
  Er  Er0  1  0.52308100  0.71063600  0.22400100  1
  Er  Er1  1  0.47691900  0.28936400  0.77599900  1
  Er  Er2  1  0.02308100  0.28936400  0.27599900  1
  Er  Er3  1  0.97691900  0.71063600  0.72400100  1
  Mo  Mo4  1  0.74306500  0.41847800  0.01087800  1
  Mo  Mo5  1  0.25693500  0.58152200  0.98912200  1
  Mo  Mo6  1  0.24306500  0.58152200  0.48912200  1
  Mo  Mo7  1  0.75693500  0.41847800  0.51087800  1
  Mo  Mo8  1  0.90433700  0.87876500  0.15642800  1
  Mo  Mo9  1  0.09566300  0.12123500  0.84357200  1
  Mo  Mo10  1  0.40433700  0.12123500  0.34357200  1
  Mo  Mo11  1  0.59566300  0.87876500  0.65642800  1
  O  O12  1  0.72143200  0.88602900  0.14778200  1
  O  O13  1  0.27856800  0.11397100  0.85221800  1
  O  O14  1  0.22143200  0.11397100  0.35221800  1
  O  O15  1  0.77856800  0.88602900  0.64778200  1
  O  O16  1  0.62579700  0.52419200  0.10381000  1
  O  O17  1  0.37420300  0.47580800  0.89619000  1
  O  O18  1  0.12579700  0.47580800  0.39619000  1
  O  O19  1  0.87420300  0.52419200  0.60381000  1
  O  O20  1  0.34957900  0.72147800  0.08182800  1
  O  O21  1  0.65042100  0.27852200  0.91817200  1
  O  O22  1  0.84957900  0.27852200  0.41817200  1
  O  O23  1  0.15042100  0.72147800  0.58182800  1
  O  O24  1  0.00000000  0.00000000  0.00000000  1
  O  O25  1  0.50000000  0.00000000  0.50000000  1
  O  O26  1  0.66623800  0.61668700  0.39832800  1
  O  O27  1  0.33376200  0.38331300  0.60167200  1
  O  O28  1  0.16623800  0.38331300  0.10167200  1
  O  O29  1  0.83376200  0.61668700  0.89832800  1
  O  O30  1  0.97237400  0.94859500  0.29313900  1
  O  O31  1  0.02762600  0.05140500  0.70686100  1
  O  O32  1  0.47237400  0.05140500  0.20686100  1
  O  O33  1  0.52762600  0.94859500  0.79313900  1
  O  O34  1  0.94420400  0.61929200  0.18396700  1
  O  O35  1  0.05579600  0.38070800  0.81603300  1
  O  O36  1  0.44420400  0.38070800  0.31603300  1
  O  O37  1  0.55579600  0.61929200  0.68396700  1
  O  O38  1  0.86535000  0.25567800  0.11870300  1
  O  O39  1  0.13465000  0.74432200  0.88129700  1
  O  O40  1  0.36535000  0.74432200  0.38129700  1
  O  O41  1  0.63465000  0.25567800  0.61870300  1
