# generated using pymatgen
data_Er3C4
_symmetry_space_group_name_H-M   'P 1'
_cell_length_a   8.02762100
_cell_length_b   8.02762100
_cell_length_c   15.85733600
_cell_angle_alpha   90.00000000
_cell_angle_beta   90.00000000
_cell_angle_gamma   90.00000000
_symmetry_Int_Tables_number   1
_chemical_formula_structural   Er3C4
_chemical_formula_sum   'Er30 C40'
_cell_volume   1021.88952952
_cell_formula_units_Z   10
loop_
 _symmetry_equiv_pos_site_id
 _symmetry_equiv_pos_as_xyz
  1  'x, y, z'
loop_
 _atom_site_type_symbol
 _atom_site_label
 _atom_site_symmetry_multiplicity
 _atom_site_fract_x
 _atom_site_fract_y
 _atom_site_fract_z
 _atom_site_occupancy
  Er  Er0  1  0.50000000  0.50000000  0.50000000  1
  Er  Er1  1  0.00000000  0.00000000  0.00000000  1
  Er  Er2  1  0.50000000  0.50000000  0.18753000  1
  Er  Er3  1  0.00000000  0.00000000  0.68753000  1
  Er  Er4  1  0.50000000  0.50000000  0.81247000  1
  Er  Er5  1  0.00000000  0.00000000  0.31247000  1
  Er  Er6  1  0.70251100  0.90461800  0.50000000  1
  Er  Er7  1  0.29748900  0.09538200  0.50000000  1
  Er  Er8  1  0.79748900  0.40461800  0.00000000  1
  Er  Er9  1  0.20251100  0.59538200  0.00000000  1
  Er  Er10  1  0.90461800  0.29748900  0.50000000  1
  Er  Er11  1  0.09538200  0.70251100  0.50000000  1
  Er  Er12  1  0.40461800  0.20251100  0.00000000  1
  Er  Er13  1  0.59538200  0.79748900  0.00000000  1
  Er  Er14  1  0.78810900  0.60057400  0.35373800  1
  Er  Er15  1  0.21189100  0.39942600  0.35373800  1
  Er  Er16  1  0.71189100  0.10057400  0.85373800  1
  Er  Er17  1  0.28810900  0.89942600  0.85373800  1
  Er  Er18  1  0.60057400  0.21189100  0.35373800  1
  Er  Er19  1  0.39942600  0.78810900  0.35373800  1
  Er  Er20  1  0.10057400  0.28810900  0.85373800  1
  Er  Er21  1  0.89942600  0.71189100  0.85373800  1
  Er  Er22  1  0.21189100  0.39942600  0.64626200  1
  Er  Er23  1  0.78810900  0.60057400  0.64626200  1
  Er  Er24  1  0.28810900  0.89942600  0.14626200  1
  Er  Er25  1  0.71189100  0.10057400  0.14626200  1
  Er  Er26  1  0.39942600  0.78810900  0.64626200  1
  Er  Er27  1  0.60057400  0.21189100  0.64626200  1
  Er  Er28  1  0.89942600  0.71189100  0.14626200  1
  Er  Er29  1  0.10057400  0.28810900  0.14626200  1
  C  C30  1  0.50000000  0.50000000  0.95860700  1
  C  C31  1  0.00000000  0.00000000  0.45860700  1
  C  C32  1  0.50000000  0.50000000  0.04139300  1
  C  C33  1  0.00000000  0.00000000  0.54139300  1
  C  C34  1  0.50000000  0.50000000  0.34353700  1
  C  C35  1  0.00000000  0.00000000  0.84353700  1
  C  C36  1  0.50000000  0.50000000  0.65646300  1
  C  C37  1  0.00000000  0.00000000  0.15646300  1
  C  C38  1  0.60656500  0.19635800  0.50000000  1
  C  C39  1  0.39343500  0.80364200  0.50000000  1
  C  C40  1  0.89343500  0.69635800  0.00000000  1
  C  C41  1  0.10656500  0.30364200  0.00000000  1
  C  C42  1  0.19635800  0.39343500  0.50000000  1
  C  C43  1  0.80364200  0.60656500  0.50000000  1
  C  C44  1  0.69635800  0.10656500  0.00000000  1
  C  C45  1  0.30364200  0.89343500  0.00000000  1
  C  C46  1  0.69226900  0.90140300  0.32821100  1
  C  C47  1  0.30773100  0.09859700  0.32821100  1
  C  C48  1  0.80773100  0.40140300  0.82821100  1
  C  C49  1  0.19226900  0.59859700  0.82821100  1
  C  C50  1  0.90140300  0.30773100  0.32821100  1
  C  C51  1  0.09859700  0.69226900  0.32821100  1
  C  C52  1  0.40140300  0.19226900  0.82821100  1
  C  C53  1  0.59859700  0.80773100  0.82821100  1
  C  C54  1  0.30773100  0.09859700  0.67178900  1
  C  C55  1  0.69226900  0.90140300  0.67178900  1
  C  C56  1  0.19226900  0.59859700  0.17178900  1
  C  C57  1  0.80773100  0.40140300  0.17178900  1
  C  C58  1  0.09859700  0.69226900  0.67178900  1
  C  C59  1  0.90140300  0.30773100  0.67178900  1
  C  C60  1  0.59859700  0.80773100  0.17178900  1
  C  C61  1  0.40140300  0.19226900  0.17178900  1
  C  C62  1  0.64958900  0.85041100  0.25000000  1
  C  C63  1  0.35041100  0.14958900  0.25000000  1
  C  C64  1  0.85041100  0.35041100  0.75000000  1
  C  C65  1  0.14958900  0.64958900  0.75000000  1
  C  C66  1  0.85041100  0.35041100  0.25000000  1
  C  C67  1  0.14958900  0.64958900  0.25000000  1
  C  C68  1  0.35041100  0.14958900  0.75000000  1
  C  C69  1  0.64958900  0.85041100  0.75000000  1
