# generated using pymatgen
data_Nd3Ti3(SeO4)2
_symmetry_space_group_name_H-M   'P 1'
_cell_length_a   3.94610800
_cell_length_b   9.93311800
_cell_length_c   13.61287806
_cell_angle_alpha   68.94562437
_cell_angle_beta   90.00000000
_cell_angle_gamma   90.00000000
_symmetry_Int_Tables_number   1
_chemical_formula_structural   Nd3Ti3(SeO4)2
_chemical_formula_sum   'Nd6 Ti6 Se4 O16'
_cell_volume   497.96384994
_cell_formula_units_Z   2
loop_
 _symmetry_equiv_pos_site_id
 _symmetry_equiv_pos_as_xyz
  1  'x, y, z'
loop_
 _atom_site_type_symbol
 _atom_site_label
 _atom_site_symmetry_multiplicity
 _atom_site_fract_x
 _atom_site_fract_y
 _atom_site_fract_z
 _atom_site_occupancy
  Nd  Nd0  1  0.25000000  0.83093100  0.58502400  1
  Nd  Nd1  1  0.75000000  0.16906900  0.41497600  1
  Nd  Nd2  1  0.25000000  0.67940500  0.91132800  1
  Nd  Nd3  1  0.75000000  0.32059500  0.08867200  1
  Nd  Nd4  1  0.75000000  0.38802700  0.66218900  1
  Nd  Nd5  1  0.25000000  0.61197300  0.33781100  1
  Ti  Ti6  1  0.25000000  0.95583300  0.08808900  1
  Ti  Ti7  1  0.25000000  0.04639600  0.26819100  1
  Ti  Ti8  1  0.75000000  0.71301800  0.10076200  1
  Ti  Ti9  1  0.25000000  0.28698200  0.89923800  1
  Ti  Ti10  1  0.75000000  0.04416700  0.91191100  1
  Ti  Ti11  1  0.75000000  0.95360400  0.73180900  1
  Se  Se12  1  0.75000000  0.67853000  0.48312100  1
  Se  Se13  1  0.75000000  0.63786800  0.75244200  1
  Se  Se14  1  0.25000000  0.36213200  0.24755800  1
  Se  Se15  1  0.25000000  0.32147000  0.51687900  1
  O  O16  1  0.75000000  0.12448600  0.75321500  1
  O  O17  1  0.25000000  0.87551400  0.24678500  1
  O  O18  1  0.25000000  0.36436400  0.75781200  1
  O  O19  1  0.75000000  0.63563600  0.24218800  1
  O  O20  1  0.25000000  0.41694000  0.96994700  1
  O  O21  1  0.75000000  0.58306000  0.03005300  1
  O  O22  1  0.75000000  0.97515900  0.58567300  1
  O  O23  1  0.25000000  0.02484100  0.41432700  1
  O  O24  1  0.75000000  0.24662100  0.92793100  1
  O  O25  1  0.25000000  0.75337900  0.07206900  1
  O  O26  1  0.75000000  0.09581100  0.26156700  1
  O  O27  1  0.75000000  0.92702500  0.07341800  1
  O  O28  1  0.75000000  0.85991200  0.89171600  1
  O  O29  1  0.25000000  0.14008800  0.10828400  1
  O  O30  1  0.25000000  0.90418900  0.73843300  1
  O  O31  1  0.25000000  0.07297500  0.92658200  1
