# generated using pymatgen
data_Dy2PdPt
_symmetry_space_group_name_H-M   'P 1'
_cell_length_a   4.57745500
_cell_length_b   5.55674300
_cell_length_c   6.96993500
_cell_angle_alpha   90.00000000
_cell_angle_beta   90.00000000
_cell_angle_gamma   90.00000000
_symmetry_Int_Tables_number   1
_chemical_formula_structural   Dy2PdPt
_chemical_formula_sum   'Dy4 Pd2 Pt2'
_cell_volume   177.28546165
_cell_formula_units_Z   2
loop_
 _symmetry_equiv_pos_site_id
 _symmetry_equiv_pos_as_xyz
  1  'x, y, z'
loop_
 _atom_site_type_symbol
 _atom_site_label
 _atom_site_symmetry_multiplicity
 _atom_site_fract_x
 _atom_site_fract_y
 _atom_site_fract_z
 _atom_site_occupancy
  Dy  Dy0  1  0.00000000  0.10698500  0.68198400  1
  Dy  Dy1  1  0.00000000  0.89301500  0.18198400  1
  Dy  Dy2  1  0.50000000  0.38582700  0.31843200  1
  Dy  Dy3  1  0.50000000  0.61417300  0.81843200  1
  Pd  Pd4  1  0.00000000  0.59493200  0.54412400  1
  Pd  Pd5  1  0.00000000  0.40506800  0.04412400  1
  Pt  Pt6  1  0.50000000  0.89890800  0.45546000  1
  Pt  Pt7  1  0.50000000  0.10109200  0.95546000  1
