# generated using pymatgen
data_Yb5Pt4
_symmetry_space_group_name_H-M   'P 1'
_cell_length_a   7.45971800
_cell_length_b   7.55356500
_cell_length_c   14.46114200
_cell_angle_alpha   90.00000000
_cell_angle_beta   90.00000000
_cell_angle_gamma   90.00000000
_symmetry_Int_Tables_number   1
_chemical_formula_structural   Yb5Pt4
_chemical_formula_sum   'Yb20 Pt16'
_cell_volume   814.84868974
_cell_formula_units_Z   4
loop_
 _symmetry_equiv_pos_site_id
 _symmetry_equiv_pos_as_xyz
  1  'x, y, z'
loop_
 _atom_site_type_symbol
 _atom_site_label
 _atom_site_symmetry_multiplicity
 _atom_site_fract_x
 _atom_site_fract_y
 _atom_site_fract_z
 _atom_site_occupancy
  Yb  Yb0  1  0.63240200  0.16746100  0.62144600  1
  Yb  Yb1  1  0.13240200  0.33253900  0.87855400  1
  Yb  Yb2  1  0.36759800  0.83253900  0.12144600  1
  Yb  Yb3  1  0.86759800  0.66746100  0.37855400  1
  Yb  Yb4  1  0.36759800  0.83253900  0.37855400  1
  Yb  Yb5  1  0.86759800  0.66746100  0.12144600  1
  Yb  Yb6  1  0.63240200  0.16746100  0.87855400  1
  Yb  Yb7  1  0.13240200  0.33253900  0.62144600  1
  Yb  Yb8  1  0.47407600  0.67444700  0.59706100  1
  Yb  Yb9  1  0.97407600  0.82555300  0.90293900  1
  Yb  Yb10  1  0.52592400  0.32555300  0.09706100  1
  Yb  Yb11  1  0.02592400  0.17444700  0.40293900  1
  Yb  Yb12  1  0.52592400  0.32555300  0.40293900  1
  Yb  Yb13  1  0.02592400  0.17444700  0.09706100  1
  Yb  Yb14  1  0.47407600  0.67444700  0.90293900  1
  Yb  Yb15  1  0.97407600  0.82555300  0.59706100  1
  Yb  Yb16  1  0.79424100  0.50368500  0.75000000  1
  Yb  Yb17  1  0.29424100  0.99631500  0.75000000  1
  Yb  Yb18  1  0.20575900  0.49631500  0.25000000  1
  Yb  Yb19  1  0.70575900  0.00368500  0.25000000  1
  Pt  Pt20  1  0.69316000  0.97083400  0.45870200  1
  Pt  Pt21  1  0.19316000  0.52916600  0.04129800  1
  Pt  Pt22  1  0.30684000  0.02916600  0.95870200  1
  Pt  Pt23  1  0.80684000  0.47083400  0.54129800  1
  Pt  Pt24  1  0.30684000  0.02916600  0.54129800  1
  Pt  Pt25  1  0.80684000  0.47083400  0.95870200  1
  Pt  Pt26  1  0.69316000  0.97083400  0.04129800  1
  Pt  Pt27  1  0.19316000  0.52916600  0.45870200  1
  Pt  Pt28  1  0.42659300  0.38871100  0.75000000  1
  Pt  Pt29  1  0.92659300  0.11128900  0.75000000  1
  Pt  Pt30  1  0.57340700  0.61128900  0.25000000  1
  Pt  Pt31  1  0.07340700  0.88871100  0.25000000  1
  Pt  Pt32  1  0.66180900  0.85875500  0.75000000  1
  Pt  Pt33  1  0.16180900  0.64124500  0.75000000  1
  Pt  Pt34  1  0.33819100  0.14124500  0.25000000  1
  Pt  Pt35  1  0.83819100  0.35875500  0.25000000  1
