# generated using pymatgen
data_YH18(BrO6)3
_symmetry_space_group_name_H-M   'P 1'
_cell_length_a   11.94991032
_cell_length_b   11.94991032
_cell_length_c   6.78959200
_cell_angle_alpha   90.00000000
_cell_angle_beta   90.00000000
_cell_angle_gamma   120.00000176
_symmetry_Int_Tables_number   1
_chemical_formula_structural   YH18(BrO6)3
_chemical_formula_sum   'Y2 H36 Br6 O36'
_cell_volume   839.66024903
_cell_formula_units_Z   2
loop_
 _symmetry_equiv_pos_site_id
 _symmetry_equiv_pos_as_xyz
  1  'x, y, z'
loop_
 _atom_site_type_symbol
 _atom_site_label
 _atom_site_symmetry_multiplicity
 _atom_site_fract_x
 _atom_site_fract_y
 _atom_site_fract_z
 _atom_site_occupancy
  Y  Y0  1  0.33333300  0.66666700  0.24921400  1
  Y  Y1  1  0.66666700  0.33333300  0.74921400  1
  H  H2  1  0.50065600  0.63155900  0.55942100  1
  H  H3  1  0.36844100  0.86909700  0.55942100  1
  H  H4  1  0.13090300  0.49934400  0.55942100  1
  H  H5  1  0.36844100  0.49934400  0.55942100  1
  H  H6  1  0.13090300  0.63155900  0.55942100  1
  H  H7  1  0.50065600  0.86909700  0.55942100  1
  H  H8  1  0.49923800  0.36847000  0.44081200  1
  H  H9  1  0.63153000  0.13076800  0.44081200  1
  H  H10  1  0.86923200  0.50076200  0.44081200  1
  H  H11  1  0.63153000  0.50076200  0.44081200  1
  H  H12  1  0.86923200  0.36847000  0.44081200  1
  H  H13  1  0.49923800  0.13076800  0.44081200  1
  H  H14  1  0.49934400  0.36844100  0.05942100  1
  H  H15  1  0.63155900  0.13090300  0.05942100  1
  H  H16  1  0.86909700  0.50065600  0.05942100  1
  H  H17  1  0.63155900  0.50065600  0.05942100  1
  H  H18  1  0.86909700  0.36844100  0.05942100  1
  H  H19  1  0.49934400  0.13090300  0.05942100  1
  H  H20  1  0.50076200  0.63153000  0.94081200  1
  H  H21  1  0.36847000  0.86923200  0.94081200  1
  H  H22  1  0.13076800  0.49923800  0.94081200  1
  H  H23  1  0.36847000  0.49923800  0.94081200  1
  H  H24  1  0.13076800  0.63153000  0.94081200  1
  H  H25  1  0.50076200  0.86923200  0.94081200  1
  H  H26  1  0.12024800  0.74413100  0.25445200  1
  H  H27  1  0.25586900  0.37611700  0.25445200  1
  H  H28  1  0.62388300  0.87975200  0.25445200  1
  H  H29  1  0.25586900  0.87975200  0.25445200  1
  H  H30  1  0.62388300  0.74413100  0.25445200  1
  H  H31  1  0.12024800  0.37611700  0.25445200  1
  H  H32  1  0.87975200  0.25586900  0.75445200  1
  H  H33  1  0.74413100  0.62388300  0.75445200  1
  H  H34  1  0.37611700  0.12024800  0.75445200  1
  H  H35  1  0.74413100  0.12024800  0.75445200  1
  H  H36  1  0.37611700  0.25586900  0.75445200  1
  H  H37  1  0.87975200  0.62388300  0.75445200  1
  Br  Br38  1  0.13167700  0.86832300  0.75602400  1
  Br  Br39  1  0.13167700  0.26335300  0.75602400  1
  Br  Br40  1  0.73664700  0.86832300  0.75602400  1
  Br  Br41  1  0.86832300  0.13167700  0.25602400  1
  Br  Br42  1  0.86832300  0.73664700  0.25602400  1
  Br  Br43  1  0.26335300  0.13167700  0.25602400  1
  O  O44  1  0.29509400  0.93041400  0.75008800  1
  O  O45  1  0.06958600  0.36468000  0.75008800  1
  O  O46  1  0.63532000  0.70490600  0.75008800  1
  O  O47  1  0.06958600  0.70490600  0.75008800  1
  O  O48  1  0.63532000  0.93041400  0.75008800  1
  O  O49  1  0.29509400  0.36468000  0.75008800  1
  O  O50  1  0.70490600  0.06958600  0.25008800  1
  O  O51  1  0.93041400  0.63532000  0.25008800  1
  O  O52  1  0.36468000  0.29509400  0.25008800  1
  O  O53  1  0.93041400  0.29509400  0.25008800  1
  O  O54  1  0.36468000  0.06958600  0.25008800  1
  O  O55  1  0.70490600  0.63532000  0.25008800  1
  O  O56  1  0.41977600  0.58022400  0.48561200  1
  O  O57  1  0.41977600  0.83955300  0.48561200  1
  O  O58  1  0.16044700  0.58022400  0.48561200  1
  O  O59  1  0.58024600  0.41975400  0.51394400  1
  O  O60  1  0.58024600  0.16049200  0.51394400  1
  O  O61  1  0.83950800  0.41975400  0.51394400  1
  O  O62  1  0.58022400  0.41977600  0.98561200  1
  O  O63  1  0.58022400  0.16044700  0.98561200  1
  O  O64  1  0.83955300  0.41977600  0.98561200  1
  O  O65  1  0.41975400  0.58024600  0.01394400  1
  O  O66  1  0.41975400  0.83950800  0.01394400  1
  O  O67  1  0.16049200  0.58024600  0.01394400  1
  O  O68  1  0.21487400  0.78512600  0.24284200  1
  O  O69  1  0.21487400  0.42974800  0.24284200  1
  O  O70  1  0.57025200  0.78512600  0.24284200  1
  O  O71  1  0.78512600  0.21487400  0.74284200  1
  O  O72  1  0.78512600  0.57025200  0.74284200  1
  O  O73  1  0.42974800  0.21487400  0.74284200  1
  O  O74  1  0.09477800  0.90522200  0.53829300  1
  O  O75  1  0.09477800  0.18955700  0.53829300  1
  O  O76  1  0.81044300  0.90522200  0.53829300  1
  O  O77  1  0.90522200  0.09477800  0.03829300  1
  O  O78  1  0.90522200  0.81044300  0.03829300  1
  O  O79  1  0.18955700  0.09477800  0.03829300  1
