# generated using pymatgen
data_GdBO3
_symmetry_space_group_name_H-M   'P 1'
_cell_length_a   6.67833050
_cell_length_b   6.67806524
_cell_length_c   9.75133507
_cell_angle_alpha   70.28849798
_cell_angle_beta   70.28601961
_cell_angle_gamma   60.20971002
_symmetry_Int_Tables_number   1
_chemical_formula_structural   GdBO3
_chemical_formula_sum   'Gd6 B6 O18'
_cell_volume   347.55196458
_cell_formula_units_Z   6
loop_
 _symmetry_equiv_pos_site_id
 _symmetry_equiv_pos_as_xyz
  1  'x, y, z'
loop_
 _atom_site_type_symbol
 _atom_site_label
 _atom_site_symmetry_multiplicity
 _atom_site_fract_x
 _atom_site_fract_y
 _atom_site_fract_z
 _atom_site_occupancy
  Gd  Gd0  1  0.99996700  0.50001900  0.49999200  1
  Gd  Gd1  1  0.50000300  0.99999100  0.00000300  1
  Gd  Gd2  1  0.82940300  0.34312800  0.00066700  1
  Gd  Gd3  1  0.65685400  0.17060000  0.49931500  1
  Gd  Gd4  1  0.17060900  0.65686900  0.99932500  1
  Gd  Gd5  1  0.34313500  0.82939400  0.50067400  1
  B  B6  1  0.08423700  0.15281300  0.25300500  1
  B  B7  1  0.84720600  0.91579600  0.24694700  1
  B  B8  1  0.91576900  0.84718400  0.74699600  1
  B  B9  1  0.15280000  0.08420900  0.75305200  1
  B  B10  1  0.32198500  0.67802500  0.24997300  1
  B  B11  1  0.67801600  0.32197400  0.75002700  1
  O  O12  1  0.03631100  0.21573600  0.39388700  1
  O  O13  1  0.78427500  0.96368700  0.10614300  1
  O  O14  1  0.96370800  0.78424800  0.60611700  1
  O  O15  1  0.21573000  0.03631700  0.89386000  1
  O  O16  1  0.13173100  0.30979000  0.11270100  1
  O  O17  1  0.69017400  0.86828400  0.38732000  1
  O  O18  1  0.86826500  0.69020600  0.88730100  1
  O  O19  1  0.30982500  0.13172000  0.61268100  1
  O  O20  1  0.47950600  0.61645600  0.11003800  1
  O  O21  1  0.38352500  0.52046800  0.38999200  1
  O  O22  1  0.52049900  0.38353200  0.88996700  1
  O  O23  1  0.61646200  0.47954500  0.61001300  1
  O  O24  1  0.08468800  0.70235000  0.24765900  1
  O  O25  1  0.29764100  0.91530400  0.25235800  1
  O  O26  1  0.91531300  0.29766000  0.75233800  1
  O  O27  1  0.70236700  0.08469500  0.74764200  1
  O  O28  1  0.87152300  0.12848200  0.25001400  1
  O  O29  1  0.12847400  0.87151900  0.74999600  1
