# generated using pymatgen
data_K2RbScV2O8
_symmetry_space_group_name_H-M   'P 1'
_cell_length_a   5.85509970
_cell_length_b   5.85509970
_cell_length_c   7.67128600
_cell_angle_alpha   90.00000000
_cell_angle_beta   90.00000000
_cell_angle_gamma   119.99999666
_symmetry_Int_Tables_number   1
_chemical_formula_structural   K2RbScV2O8
_chemical_formula_sum   'K2 Rb1 Sc1 V2 O8'
_cell_volume   227.75473280
_cell_formula_units_Z   1
loop_
 _symmetry_equiv_pos_site_id
 _symmetry_equiv_pos_as_xyz
  1  'x, y, z'
loop_
 _atom_site_type_symbol
 _atom_site_label
 _atom_site_symmetry_multiplicity
 _atom_site_fract_x
 _atom_site_fract_y
 _atom_site_fract_z
 _atom_site_occupancy
  K  K0  1  0.33333300  0.66666700  0.69762400  1
  K  K1  1  0.66666700  0.33333300  0.30237600  1
  Rb  Rb2  1  0.00000000  0.00000000  0.00000000  1
  Sc  Sc3  1  0.00000000  0.00000000  0.50000000  1
  V  V4  1  0.33333300  0.66666700  0.25817200  1
  V  V5  1  0.66666700  0.33333300  0.74182800  1
  O  O6  1  0.33333300  0.66666700  0.03837600  1
  O  O7  1  0.66666700  0.33333300  0.96162400  1
  O  O8  1  0.16955500  0.83044500  0.33656200  1
  O  O9  1  0.83044500  0.16955500  0.66343800  1
  O  O10  1  0.16955500  0.33911000  0.33656200  1
  O  O11  1  0.83044500  0.66089000  0.66343800  1
  O  O12  1  0.66089000  0.83044500  0.33656200  1
  O  O13  1  0.33911000  0.16955500  0.66343800  1
