# generated using pymatgen
data_CsCrP2S7
_symmetry_space_group_name_H-M   'P 1'
_cell_length_a   6.54149431
_cell_length_b   6.54149431
_cell_length_c   7.06287587
_cell_angle_alpha   85.20876082
_cell_angle_beta   85.20876082
_cell_angle_gamma   96.74389604
_symmetry_Int_Tables_number   1
_chemical_formula_structural   CsCrP2S7
_chemical_formula_sum   'Cs1 Cr1 P2 S7'
_cell_volume   297.75546637
_cell_formula_units_Z   1
loop_
 _symmetry_equiv_pos_site_id
 _symmetry_equiv_pos_as_xyz
  1  'x, y, z'
loop_
 _atom_site_type_symbol
 _atom_site_label
 _atom_site_symmetry_multiplicity
 _atom_site_fract_x
 _atom_site_fract_y
 _atom_site_fract_z
 _atom_site_occupancy
  Cs  Cs0  1  0.10349300  0.89650700  0.00000000  1
  Cr  Cr1  1  0.51279700  0.48720300  0.50000000  1
  P  P2  1  0.65873200  0.94012400  0.57322900  1
  P  P3  1  0.05987600  0.34126800  0.42677100  1
  S  S4  1  0.64196400  0.67815000  0.75552500  1
  S  S5  1  0.32185000  0.35803600  0.24447500  1
  S  S6  1  0.52467100  0.83501000  0.34376000  1
  S  S7  1  0.16499000  0.47532900  0.65624000  1
  S  S8  1  0.54739100  0.17387900  0.70513200  1
  S  S9  1  0.82612100  0.45260900  0.29486800  1
  S  S10  1  0.98846600  0.01153400  0.50000000  1
