# generated using pymatgen
data_SrTa2O6
_symmetry_space_group_name_H-M   'P 1'
_cell_length_a   5.67642000
_cell_length_b   7.71148000
_cell_length_c   11.17368800
_cell_angle_alpha   90.00000000
_cell_angle_beta   90.00000000
_cell_angle_gamma   90.00000000
_symmetry_Int_Tables_number   1
_chemical_formula_structural   SrTa2O6
_chemical_formula_sum   'Sr4 Ta8 O24'
_cell_volume   489.11254123
_cell_formula_units_Z   4
loop_
 _symmetry_equiv_pos_site_id
 _symmetry_equiv_pos_as_xyz
  1  'x, y, z'
loop_
 _atom_site_type_symbol
 _atom_site_label
 _atom_site_symmetry_multiplicity
 _atom_site_fract_x
 _atom_site_fract_y
 _atom_site_fract_z
 _atom_site_occupancy
  Sr  Sr0  1  0.96174600  0.75000000  0.46002700  1
  Sr  Sr1  1  0.46174600  0.25000000  0.03997300  1
  Sr  Sr2  1  0.03825400  0.25000000  0.53997300  1
  Sr  Sr3  1  0.53825400  0.75000000  0.96002700  1
  Ta  Ta4  1  0.46530400  0.49570600  0.35785200  1
  Ta  Ta5  1  0.96530400  0.50429400  0.14214800  1
  Ta  Ta6  1  0.53469600  0.99570600  0.64214800  1
  Ta  Ta7  1  0.03469600  0.00429400  0.85785200  1
  Ta  Ta8  1  0.53469600  0.50429400  0.64214800  1
  Ta  Ta9  1  0.03469600  0.49570600  0.85785200  1
  Ta  Ta10  1  0.46530400  0.00429400  0.35785200  1
  Ta  Ta11  1  0.96530400  0.99570600  0.14214800  1
  O  O12  1  0.13655900  0.25000000  0.87035200  1
  O  O13  1  0.63655900  0.75000000  0.62964800  1
  O  O14  1  0.86344100  0.75000000  0.12964800  1
  O  O15  1  0.36344100  0.25000000  0.37035200  1
  O  O16  1  0.97043900  0.75000000  0.85453500  1
  O  O17  1  0.47043900  0.25000000  0.64546500  1
  O  O18  1  0.02956100  0.25000000  0.14546500  1
  O  O19  1  0.52956100  0.75000000  0.35453500  1
  O  O20  1  0.28108500  0.96669400  0.52378100  1
  O  O21  1  0.78108500  0.03330600  0.97621900  1
  O  O22  1  0.71891500  0.46669400  0.47621900  1
  O  O23  1  0.21891500  0.53330600  0.02378100  1
  O  O24  1  0.64318300  0.45195000  0.21464100  1
  O  O25  1  0.14318300  0.54805000  0.28535900  1
  O  O26  1  0.35681700  0.95195000  0.78535900  1
  O  O27  1  0.85681700  0.04805000  0.71464100  1
  O  O28  1  0.35681700  0.54805000  0.78535900  1
  O  O29  1  0.85681700  0.45195000  0.71464100  1
  O  O30  1  0.64318300  0.04805000  0.21464100  1
  O  O31  1  0.14318300  0.95195000  0.28535900  1
  O  O32  1  0.78108500  0.46669400  0.97621900  1
  O  O33  1  0.28108500  0.53330600  0.52378100  1
  O  O34  1  0.21891500  0.96669400  0.02378100  1
  O  O35  1  0.71891500  0.03330600  0.47621900  1
