# generated using pymatgen
data_Hf3Sb
_symmetry_space_group_name_H-M   'P 1'
_cell_length_a   8.44360642
_cell_length_b   8.44360642
_cell_length_c   8.44360642
_cell_angle_alpha   96.53058800
_cell_angle_beta   96.53058800
_cell_angle_gamma   140.58187518
_symmetry_Int_Tables_number   1
_chemical_formula_structural   Hf3Sb
_chemical_formula_sum   'Hf12 Sb4'
_cell_volume   359.85095175
_cell_formula_units_Z   4
loop_
 _symmetry_equiv_pos_site_id
 _symmetry_equiv_pos_as_xyz
  1  'x, y, z'
loop_
 _atom_site_type_symbol
 _atom_site_label
 _atom_site_symmetry_multiplicity
 _atom_site_fract_x
 _atom_site_fract_y
 _atom_site_fract_z
 _atom_site_occupancy
  Hf  Hf0  1  0.09861900  0.12088800  0.81219100  1
  Hf  Hf1  1  0.30869700  0.28642800  0.18780900  1
  Hf  Hf2  1  0.71357200  0.90138100  0.02226800  1
  Hf  Hf3  1  0.87911200  0.69130300  0.97773200  1
  Hf  Hf4  1  0.95515600  0.62500500  0.62316000  1
  Hf  Hf5  1  0.00184500  0.33199600  0.37684000  1
  Hf  Hf6  1  0.66800400  0.04484400  0.66984900  1
  Hf  Hf7  1  0.37499500  0.99815500  0.33015100  1
  Hf  Hf8  1  0.54856400  0.57733900  0.59805800  1
  Hf  Hf9  1  0.97928200  0.95050700  0.40194200  1
  Hf  Hf10  1  0.04949300  0.45143600  0.02877500  1
  Hf  Hf11  1  0.42266100  0.02071800  0.97122500  1
  Sb  Sb12  1  0.44453500  0.18651000  0.67743200  1
  Sb  Sb13  1  0.50907800  0.76710300  0.32256800  1
  Sb  Sb14  1  0.23289700  0.55546500  0.74197600  1
  Sb  Sb15  1  0.81349000  0.49092200  0.25802400  1
