# generated using pymatgen
data_Na5FeP2(O4F)2
_symmetry_space_group_name_H-M   'P 1'
_cell_length_a   11.78699305
_cell_length_b   13.91590112
_cell_length_c   22.07374491
_cell_angle_alpha   90.00000000
_cell_angle_beta   90.00000000
_cell_angle_gamma   90.00000000
_symmetry_Int_Tables_number   1
_chemical_formula_structural   Na5FeP2(O4F)2
_chemical_formula_sum   'Na80 Fe16 P32 O128 F32'
_cell_volume   3620.68198434
_cell_formula_units_Z   16
loop_
 _symmetry_equiv_pos_site_id
 _symmetry_equiv_pos_as_xyz
  1  'x, y, z'
loop_
 _atom_site_type_symbol
 _atom_site_label
 _atom_site_symmetry_multiplicity
 _atom_site_fract_x
 _atom_site_fract_y
 _atom_site_fract_z
 _atom_site_occupancy
  Na  Na0  1  0.33112929  0.75246096  0.86780599  1
  Na  Na1  1  0.83112929  0.24753904  0.63219401  1
  Na  Na2  1  0.66887071  0.74753904  0.36780599  1
  Na  Na3  1  0.16887071  0.25246096  0.13219401  1
  Na  Na4  1  0.66887071  0.24753904  0.13219401  1
  Na  Na5  1  0.16887071  0.75246096  0.36780599  1
  Na  Na6  1  0.33112929  0.25246096  0.63219401  1
  Na  Na7  1  0.83112929  0.74753904  0.86780599  1
  Na  Na8  1  0.33872758  0.49778627  0.87410290  1
  Na  Na9  1  0.83872758  0.50221373  0.62589710  1
  Na  Na10  1  0.66127242  0.00221373  0.37410290  1
  Na  Na11  1  0.16127242  0.99778627  0.12589710  1
  Na  Na12  1  0.66127242  0.50221373  0.12589710  1
  Na  Na13  1  0.16127242  0.49778627  0.37410290  1
  Na  Na14  1  0.33872758  0.99778627  0.62589710  1
  Na  Na15  1  0.83872758  0.00221373  0.87410290  1
  Na  Na16  1  0.07770352  0.62342187  0.87414851  1
  Na  Na17  1  0.57770352  0.37657813  0.62585149  1
  Na  Na18  1  0.92229648  0.87657813  0.37414851  1
  Na  Na19  1  0.42229648  0.12342187  0.12585149  1
  Na  Na20  1  0.92229648  0.37657813  0.12585149  1
  Na  Na21  1  0.42229648  0.62342187  0.37414851  1
  Na  Na22  1  0.07770352  0.12342187  0.62585149  1
  Na  Na23  1  0.57770352  0.87657813  0.87414851  1
  Na  Na24  1  0.23441356  0.87185003  0.50113122  1
  Na  Na25  1  0.73441356  0.12814997  0.99886878  1
  Na  Na26  1  0.76558644  0.62814997  0.00113122  1
  Na  Na27  1  0.26558644  0.37185003  0.49886878  1
  Na  Na28  1  0.76558644  0.12814997  0.49886878  1
  Na  Na29  1  0.26558644  0.87185003  0.00113122  1
  Na  Na30  1  0.23441356  0.37185003  0.99886878  1
  Na  Na31  1  0.73441356  0.62814997  0.50113122  1
  Na  Na32  1  0.33102904  0.75243976  0.62135736  1
  Na  Na33  1  0.83102904  0.24756024  0.87864264  1
  Na  Na34  1  0.66897096  0.74756024  0.12135736  1
  Na  Na35  1  0.16897096  0.25243976  0.37864264  1
  Na  Na36  1  0.66897096  0.24756024  0.37864264  1
  Na  Na37  1  0.16897096  0.75243976  0.12135736  1
  Na  Na38  1  0.33102904  0.25243976  0.87864264  1
  Na  Na39  1  0.83102904  0.74756024  0.62135736  1
  Na  Na40  1  0.98272963  0.73672514  0.50218789  1
  Na  Na41  1  0.48272963  0.26327486  0.99781211  1
  Na  Na42  1  0.01727037  0.76327486  0.00218789  1
  Na  Na43  1  0.51727037  0.23672514  0.49781211  1
  Na  Na44  1  0.01727037  0.26327486  0.49781211  1
  Na  Na45  1  0.51727037  0.73672514  0.00218789  1
  Na  Na46  1  0.98272963  0.23672514  0.99781211  1
  Na  Na47  1  0.48272963  0.76327486  0.50218789  1
  Na  Na48  1  0.99808264  0.74929102  0.75429503  1
  Na  Na49  1  0.49808264  0.25070898  0.74570497  1
  Na  Na50  1  0.00191736  0.75070898  0.25429503  1
  Na  Na51  1  0.50191736  0.24929102  0.24570497  1
  Na  Na52  1  0.00191736  0.25070898  0.24570497  1
  Na  Na53  1  0.50191736  0.74929102  0.25429503  1
  Na  Na54  1  0.99808264  0.24929102  0.74570497  1
  Na  Na55  1  0.49808264  0.75070898  0.75429503  1
  Na  Na56  1  0.33508711  0.99876784  0.88282262  1
  Na  Na57  1  0.83508711  0.00123216  0.61717738  1
  Na  Na58  1  0.66491289  0.50123216  0.38282262  1
  Na  Na59  1  0.16491289  0.49876784  0.11717738  1
  Na  Na60  1  0.66491289  0.00123216  0.11717738  1
  Na  Na61  1  0.16491289  0.99876784  0.38282262  1
  Na  Na62  1  0.33508711  0.49876784  0.61717738  1
  Na  Na63  1  0.83508711  0.50123216  0.88282262  1
  Na  Na64  1  0.08297989  0.62210563  0.61743852  1
  Na  Na65  1  0.58297989  0.37789437  0.88256148  1
  Na  Na66  1  0.91702011  0.87789437  0.11743852  1
  Na  Na67  1  0.41702011  0.12210563  0.38256148  1
  Na  Na68  1  0.91702011  0.37789437  0.38256148  1
  Na  Na69  1  0.41702011  0.62210563  0.11743852  1
  Na  Na70  1  0.08297989  0.12210563  0.88256148  1
  Na  Na71  1  0.58297989  0.87789437  0.61743852  1
  Na  Na72  1  0.25022975  0.88587879  0.74445604  1
  Na  Na73  1  0.75022975  0.11412121  0.75554396  1
  Na  Na74  1  0.74977025  0.61412121  0.24445604  1
  Na  Na75  1  0.24977025  0.38587879  0.25554396  1
  Na  Na76  1  0.74977025  0.11412121  0.25554396  1
  Na  Na77  1  0.24977025  0.88587879  0.24445604  1
  Na  Na78  1  0.25022975  0.38587879  0.75554396  1
  Na  Na79  1  0.75022975  0.61412121  0.74445604  1
  Fe  Fe80  1  0.50000000  0.50000000  -0.00000000  1
  Fe  Fe81  1  0.00000000  0.50000000  0.50000000  1
  Fe  Fe82  1  0.50000000  0.00000000  0.50000000  1
  Fe  Fe83  1  0.00000000  0.00000000  -0.00000000  1
  Fe  Fe84  1  0.49740940  0.49296843  0.75035388  1
  Fe  Fe85  1  0.99740940  0.50703157  0.74964612  1
  Fe  Fe86  1  0.50259060  0.00703157  0.25035388  1
  Fe  Fe87  1  0.00259060  0.99296843  0.24964612  1
  Fe  Fe88  1  0.50259060  0.50703157  0.24964612  1
  Fe  Fe89  1  0.00259060  0.49296843  0.25035388  1
  Fe  Fe90  1  0.49740940  0.99296843  0.74964612  1
  Fe  Fe91  1  0.99740940  0.00703157  0.75035388  1
  Fe  Fe92  1  0.50000000  0.00000000  -0.00000000  1
  Fe  Fe93  1  0.00000000  0.00000000  0.50000000  1
  Fe  Fe94  1  0.50000000  0.50000000  0.50000000  1
  Fe  Fe95  1  0.00000000  0.50000000  -0.00000000  1
  P  P96  1  0.08531543  0.88044861  0.87358177  1
  P  P97  1  0.58531543  0.11955139  0.62641823  1
  P  P98  1  0.91468457  0.61955139  0.37358177  1
  P  P99  1  0.41468457  0.38044861  0.12641823  1
  P  P100  1  0.91468457  0.11955139  0.12641823  1
  P  P101  1  0.41468457  0.88044861  0.37358177  1
  P  P102  1  0.08531543  0.38044861  0.62641823  1
  P  P103  1  0.58531543  0.61955139  0.87358177  1
  P  P104  1  0.24808495  0.61945576  0.99034916  1
  P  P105  1  0.74808495  0.38054424  0.50965084  1
  P  P106  1  0.75191505  0.88054424  0.49034916  1
  P  P107  1  0.25191505  0.11945576  0.00965084  1
  P  P108  1  0.75191505  0.38054424  0.00965084  1
  P  P109  1  0.25191505  0.61945576  0.49034916  1
  P  P110  1  0.24808495  0.11945576  0.50965084  1
  P  P111  1  0.74808495  0.88054424  0.99034916  1
  P  P112  1  0.25305148  0.62265203  0.74181045  1
  P  P113  1  0.75305148  0.37734797  0.75818955  1
  P  P114  1  0.74694852  0.87734797  0.24181045  1
  P  P115  1  0.24694852  0.12265203  0.25818955  1
  P  P116  1  0.74694852  0.37734797  0.25818955  1
  P  P117  1  0.24694852  0.62265203  0.24181045  1
  P  P118  1  0.25305148  0.12265203  0.75818955  1
  P  P119  1  0.75305148  0.87734797  0.74181045  1
  P  P120  1  0.07470880  0.87768160  0.62737904  1
  P  P121  1  0.57470880  0.12231840  0.87262096  1
  P  P122  1  0.92529120  0.62231840  0.12737904  1
  P  P123  1  0.42529120  0.37768160  0.37262096  1
  P  P124  1  0.92529120  0.12231840  0.37262096  1
  P  P125  1  0.42529120  0.87768160  0.12737904  1
  P  P126  1  0.07470880  0.37768160  0.87262096  1
  P  P127  1  0.57470880  0.62231840  0.62737904  1
  O  O128  1  0.02425203  0.78096977  0.60731650  1
  O  O129  1  0.52425203  0.21903023  0.89268350  1
  O  O130  1  0.97574797  0.71903023  0.10731650  1
  O  O131  1  0.47574797  0.28096977  0.39268350  1
  O  O132  1  0.97574797  0.21903023  0.39268350  1
  O  O133  1  0.47574797  0.78096977  0.10731650  1
  O  O134  1  0.02425203  0.28096977  0.89268350  1
  O  O135  1  0.52425203  0.71903023  0.60731650  1
  O  O136  1  0.02873771  0.96180978  0.58671166  1
  O  O137  1  0.52873771  0.03819022  0.91328834  1
  O  O138  1  0.97126229  0.53819022  0.08671166  1
  O  O139  1  0.47126229  0.46180978  0.41328834  1
  O  O140  1  0.97126229  0.03819022  0.41328834  1
  O  O141  1  0.47126229  0.96180978  0.08671166  1
  O  O142  1  0.02873771  0.46180978  0.91328834  1
  O  O143  1  0.52873771  0.53819022  0.58671166  1
  O  O144  1  0.25022096  0.61927681  0.67205374  1
  O  O145  1  0.75022096  0.38072319  0.82794626  1
  O  O146  1  0.74977904  0.88072319  0.17205374  1
  O  O147  1  0.24977904  0.11927681  0.32794626  1
  O  O148  1  0.74977904  0.38072319  0.32794626  1
  O  O149  1  0.24977904  0.61927681  0.17205374  1
  O  O150  1  0.25022096  0.11927681  0.82794626  1
  O  O151  1  0.75022096  0.88072319  0.67205374  1
  O  O152  1  0.01649348  0.94948217  0.91588754  1
  O  O153  1  0.51649348  0.05051783  0.58411246  1
  O  O154  1  0.98350652  0.55051783  0.41588754  1
  O  O155  1  0.48350652  0.44948217  0.08411246  1
  O  O156  1  0.98350652  0.05051783  0.08411246  1
  O  O157  1  0.48350652  0.94948217  0.41588754  1
  O  O158  1  0.01649348  0.44948217  0.58411246  1
  O  O159  1  0.51649348  0.55051783  0.91588754  1
  O  O160  1  0.33853392  0.54576340  0.76813018  1
  O  O161  1  0.83853392  0.45423660  0.73186982  1
  O  O162  1  0.66146608  0.95423660  0.26813018  1
  O  O163  1  0.16146608  0.04576340  0.23186982  1
  O  O164  1  0.66146608  0.45423660  0.23186982  1
  O  O165  1  0.16146608  0.54576340  0.26813018  1
  O  O166  1  0.33853392  0.04576340  0.73186982  1
  O  O167  1  0.83853392  0.95423660  0.76813018  1
  O  O168  1  0.25117138  0.62558843  0.92095402  1
  O  O169  1  0.75117138  0.37441157  0.57904598  1
  O  O170  1  0.74882862  0.87441157  0.42095402  1
  O  O171  1  0.24882862  0.12558843  0.07904598  1
  O  O172  1  0.74882862  0.37441157  0.07904598  1
  O  O173  1  0.24882862  0.62558843  0.42095402  1
  O  O174  1  0.25117138  0.12558843  0.57904598  1
  O  O175  1  0.75117138  0.87441157  0.92095402  1
  O  O176  1  0.28602906  0.72341910  0.76490823  1
  O  O177  1  0.78602906  0.27658090  0.73509177  1
  O  O178  1  0.71397094  0.77658090  0.26490823  1
  O  O179  1  0.21397094  0.22341910  0.23509177  1
  O  O180  1  0.71397094  0.27658090  0.23509177  1
  O  O181  1  0.21397094  0.72341910  0.26490823  1
  O  O182  1  0.28602906  0.22341910  0.73509177  1
  O  O183  1  0.78602906  0.77658090  0.76490823  1
  O  O184  1  0.13319027  0.59476714  0.76875584  1
  O  O185  1  0.63319027  0.40523286  0.73124416  1
  O  O186  1  0.86680973  0.90523286  0.26875584  1
  O  O187  1  0.36680973  0.09476714  0.23124416  1
  O  O188  1  0.86680973  0.40523286  0.23124416  1
  O  O189  1  0.36680973  0.59476714  0.26875584  1
  O  O190  1  0.13319027  0.09476714  0.73124416  1
  O  O191  1  0.63319027  0.90523286  0.76875584  1
  O  O192  1  0.20491349  0.87765197  0.62798885  1
  O  O193  1  0.70491349  0.12234803  0.87201115  1
  O  O194  1  0.79508651  0.62234803  0.12798885  1
  O  O195  1  0.29508651  0.37765197  0.37201115  1
  O  O196  1  0.79508651  0.12234803  0.37201115  1
  O  O197  1  0.29508651  0.87765197  0.12798885  1
  O  O198  1  0.20491349  0.37765197  0.87201115  1
  O  O199  1  0.70491349  0.62234803  0.62798885  1
  O  O200  1  0.20838455  0.87242449  0.89573808  1
  O  O201  1  0.70838455  0.12757551  0.60426192  1
  O  O202  1  0.79161545  0.62757551  0.39573808  1
  O  O203  1  0.29161545  0.37242449  0.10426192  1
  O  O204  1  0.79161545  0.12757551  0.10426192  1
  O  O205  1  0.29161545  0.87242449  0.39573808  1
  O  O206  1  0.20838455  0.37242449  0.60426192  1
  O  O207  1  0.70838455  0.62757551  0.89573808  1
  O  O208  1  0.03139157  0.89990479  0.69353887  1
  O  O209  1  0.53139157  0.10009521  0.80646113  1
  O  O210  1  0.96860843  0.60009521  0.19353887  1
  O  O211  1  0.46860843  0.39990479  0.30646113  1
  O  O212  1  0.96860843  0.10009521  0.30646113  1
  O  O213  1  0.46860843  0.89990479  0.19353887  1
  O  O214  1  0.03139157  0.39990479  0.80646113  1
  O  O215  1  0.53139157  0.60009521  0.69353887  1
  O  O216  1  0.13119174  0.59195084  0.51574827  1
  O  O217  1  0.63119174  0.40804916  0.98425173  1
  O  O218  1  0.86880826  0.90804916  0.01574827  1
  O  O219  1  0.36880826  0.09195084  0.48425173  1
  O  O220  1  0.86880826  0.40804916  0.48425173  1
  O  O221  1  0.36880826  0.59195084  0.01574827  1
  O  O222  1  0.13119174  0.09195084  0.98425173  1
  O  O223  1  0.63119174  0.90804916  0.51574827  1
  O  O224  1  0.28880853  0.71406909  0.52014794  1
  O  O225  1  0.78880853  0.28593091  0.97985206  1
  O  O226  1  0.71119147  0.78593091  0.02014794  1
  O  O227  1  0.21119147  0.21406909  0.47985206  1
  O  O228  1  0.71119147  0.28593091  0.47985206  1
  O  O229  1  0.21119147  0.71406909  0.02014794  1
  O  O230  1  0.28880853  0.21406909  0.97985206  1
  O  O231  1  0.78880853  0.78593091  0.52014794  1
  O  O232  1  0.02456532  0.78299381  0.86891751  1
  O  O233  1  0.52456532  0.21700619  0.63108249  1
  O  O234  1  0.97543468  0.71700619  0.36891751  1
  O  O235  1  0.47543468  0.28299381  0.13108249  1
  O  O236  1  0.97543468  0.21700619  0.13108249  1
  O  O237  1  0.47543468  0.78299381  0.36891751  1
  O  O238  1  0.02456532  0.28299381  0.63108249  1
  O  O239  1  0.52456532  0.71700619  0.86891751  1
  O  O240  1  0.33407877  0.53566561  0.51070476  1
  O  O241  1  0.83407877  0.46433439  0.98929524  1
  O  O242  1  0.66592123  0.96433439  0.01070476  1
  O  O243  1  0.16592123  0.03566561  0.48929524  1
  O  O244  1  0.66592123  0.46433439  0.48929524  1
  O  O245  1  0.16592123  0.53566561  0.01070476  1
  O  O246  1  0.33407877  0.03566561  0.98929524  1
  O  O247  1  0.83407877  0.96433439  0.51070476  1
  O  O248  1  0.08544974  0.93014641  0.80939439  1
  O  O249  1  0.58544974  0.06985359  0.69060561  1
  O  O250  1  0.91455026  0.56985359  0.30939439  1
  O  O251  1  0.41455026  0.43014641  0.19060561  1
  O  O252  1  0.91455026  0.06985359  0.19060561  1
  O  O253  1  0.41455026  0.93014641  0.30939439  1
  O  O254  1  0.08544974  0.43014641  0.69060561  1
  O  O255  1  0.58544974  0.56985359  0.80939439  1
  F  F256  1  0.44505642  0.89018975  0.68941386  1
  F  F257  1  0.94505642  0.10981025  0.81058614  1
  F  F258  1  0.55494358  0.60981025  0.18941386  1
  F  F259  1  0.05494358  0.39018975  0.31058614  1
  F  F260  1  0.55494358  0.10981025  0.31058614  1
  F  F261  1  0.05494358  0.89018975  0.18941386  1
  F  F262  1  0.44505642  0.39018975  0.81058614  1
  F  F263  1  0.94505642  0.60981025  0.68941386  1
  F  F264  1  0.42046161  0.90488038  0.81101301  1
  F  F265  1  0.92046161  0.09511962  0.68898699  1
  F  F266  1  0.57953839  0.59511962  0.31101301  1
  F  F267  1  0.07953839  0.40488038  0.18898699  1
  F  F268  1  0.57953839  0.09511962  0.18898699  1
  F  F269  1  0.07953839  0.90488038  0.31101301  1
  F  F270  1  0.42046161  0.40488038  0.68898699  1
  F  F271  1  0.92046161  0.59511962  0.81101301  1
  F  F272  1  0.45194794  0.87350532  0.96430660  1
  F  F273  1  0.95194794  0.12649468  0.53569340  1
  F  F274  1  0.54805206  0.62649468  0.46430660  1
  F  F275  1  0.04805206  0.37350532  0.03569340  1
  F  F276  1  0.54805206  0.12649468  0.03569340  1
  F  F277  1  0.04805206  0.87350532  0.46430660  1
  F  F278  1  0.45194794  0.37350532  0.53569340  1
  F  F279  1  0.95194794  0.62649468  0.96430660  1
  F  F280  1  0.40561134  0.90049725  0.54086760  1
  F  F281  1  0.90561134  0.09950275  0.95913240  1
  F  F282  1  0.59438866  0.59950275  0.04086760  1
  F  F283  1  0.09438866  0.40049725  0.45913240  1
  F  F284  1  0.59438866  0.09950275  0.45913240  1
  F  F285  1  0.09438866  0.90049725  0.04086760  1
  F  F286  1  0.40561134  0.40049725  0.95913240  1
  F  F287  1  0.90561134  0.59950275  0.54086760  1
