# generated using pymatgen
data_Ba(YTe2)2
_symmetry_space_group_name_H-M   'P 1'
_cell_length_a   4.49326800
_cell_length_b   13.83038100
_cell_length_c   16.33211400
_cell_angle_alpha   90.00000000
_cell_angle_beta   90.00000000
_cell_angle_gamma   90.00000000
_symmetry_Int_Tables_number   1
_chemical_formula_structural   Ba(YTe2)2
_chemical_formula_sum   'Ba4 Y8 Te16'
_cell_volume   1014.93649635
_cell_formula_units_Z   4
loop_
 _symmetry_equiv_pos_site_id
 _symmetry_equiv_pos_as_xyz
  1  'x, y, z'
loop_
 _atom_site_type_symbol
 _atom_site_label
 _atom_site_symmetry_multiplicity
 _atom_site_fract_x
 _atom_site_fract_y
 _atom_site_fract_z
 _atom_site_occupancy
  Ba  Ba0  1  0.25000000  0.23852300  0.33035900  1
  Ba  Ba1  1  0.75000000  0.76147700  0.66964100  1
  Ba  Ba2  1  0.25000000  0.73852300  0.16964100  1
  Ba  Ba3  1  0.75000000  0.26147700  0.83035900  1
  Y  Y4  1  0.25000000  0.55900700  0.39033400  1
  Y  Y5  1  0.75000000  0.44099300  0.60966600  1
  Y  Y6  1  0.25000000  0.05900700  0.10966600  1
  Y  Y7  1  0.75000000  0.94099300  0.89033400  1
  Y  Y8  1  0.75000000  0.41906100  0.09640400  1
  Y  Y9  1  0.25000000  0.58093900  0.90359600  1
  Y  Y10  1  0.75000000  0.91906100  0.40359600  1
  Y  Y11  1  0.25000000  0.08093900  0.59640400  1
  Te  Te12  1  0.75000000  0.02762600  0.71590900  1
  Te  Te13  1  0.25000000  0.97237400  0.28409100  1
  Te  Te14  1  0.75000000  0.52762600  0.78409100  1
  Te  Te15  1  0.25000000  0.47237400  0.21590900  1
  Te  Te16  1  0.75000000  0.40951900  0.42382400  1
  Te  Te17  1  0.25000000  0.59048100  0.57617600  1
  Te  Te18  1  0.75000000  0.90951900  0.07617600  1
  Te  Te19  1  0.25000000  0.09048100  0.92382400  1
  Te  Te20  1  0.75000000  0.20461000  0.16096600  1
  Te  Te21  1  0.25000000  0.79539000  0.83903400  1
  Te  Te22  1  0.75000000  0.70461000  0.33903400  1
  Te  Te23  1  0.25000000  0.29539000  0.66096600  1
  Te  Te24  1  0.75000000  0.12727300  0.47130000  1
  Te  Te25  1  0.25000000  0.87272700  0.52870000  1
  Te  Te26  1  0.75000000  0.62727300  0.02870000  1
  Te  Te27  1  0.25000000  0.37272700  0.97130000  1
