# generated using pymatgen
data_Pr23Cd4Ir7
_symmetry_space_group_name_H-M   'P 1'
_cell_length_a   10.11930371
_cell_length_b   10.11930371
_cell_length_c   22.82519400
_cell_angle_alpha   90.00000000
_cell_angle_beta   90.00000000
_cell_angle_gamma   119.99999812
_symmetry_Int_Tables_number   1
_chemical_formula_structural   Pr23Cd4Ir7
_chemical_formula_sum   'Pr46 Cd8 Ir14'
_cell_volume   2024.16717896
_cell_formula_units_Z   2
loop_
 _symmetry_equiv_pos_site_id
 _symmetry_equiv_pos_as_xyz
  1  'x, y, z'
loop_
 _atom_site_type_symbol
 _atom_site_label
 _atom_site_symmetry_multiplicity
 _atom_site_fract_x
 _atom_site_fract_y
 _atom_site_fract_z
 _atom_site_occupancy
  Pr  Pr0  1  0.20617400  0.41234700  0.72002000  1
  Pr  Pr1  1  0.20617400  0.79382600  0.72002000  1
  Pr  Pr2  1  0.79382600  0.58765300  0.22002000  1
  Pr  Pr3  1  0.58765300  0.79382600  0.72002000  1
  Pr  Pr4  1  0.79382600  0.20617400  0.22002000  1
  Pr  Pr5  1  0.41234700  0.20617400  0.22002000  1
  Pr  Pr6  1  0.79377700  0.58755400  0.94666600  1
  Pr  Pr7  1  0.79377700  0.20622300  0.94666600  1
  Pr  Pr8  1  0.20622300  0.41244600  0.44666600  1
  Pr  Pr9  1  0.41244600  0.20622300  0.94666600  1
  Pr  Pr10  1  0.20622300  0.79377700  0.44666600  1
  Pr  Pr11  1  0.58755400  0.79377700  0.44666600  1
  Pr  Pr12  1  0.20844700  0.41689400  0.98977400  1
  Pr  Pr13  1  0.20844700  0.79155300  0.98977400  1
  Pr  Pr14  1  0.79155300  0.58310600  0.48977400  1
  Pr  Pr15  1  0.58310600  0.79155300  0.98977400  1
  Pr  Pr16  1  0.79155300  0.20844700  0.48977400  1
  Pr  Pr17  1  0.41689400  0.20844700  0.48977400  1
  Pr  Pr18  1  0.87270100  0.74540200  0.63582100  1
  Pr  Pr19  1  0.87270100  0.12729900  0.63582100  1
  Pr  Pr20  1  0.12729900  0.25459800  0.13582100  1
  Pr  Pr21  1  0.25459800  0.12729900  0.63582100  1
  Pr  Pr22  1  0.12729900  0.87270100  0.13582100  1
  Pr  Pr23  1  0.74540200  0.87270100  0.13582100  1
  Pr  Pr24  1  0.46047500  0.92095100  0.85581000  1
  Pr  Pr25  1  0.46047500  0.53952500  0.85581000  1
  Pr  Pr26  1  0.53952500  0.07904900  0.35581000  1
  Pr  Pr27  1  0.07904900  0.53952500  0.85581000  1
  Pr  Pr28  1  0.53952500  0.46047500  0.35581000  1
  Pr  Pr29  1  0.92095100  0.46047500  0.35581000  1
  Pr  Pr30  1  0.00000000  0.00000000  0.99829700  1
  Pr  Pr31  1  0.00000000  0.00000000  0.49829700  1
  Pr  Pr32  1  0.46107600  0.92215300  0.58582300  1
  Pr  Pr33  1  0.46107600  0.53892400  0.58582300  1
  Pr  Pr34  1  0.53892400  0.07784700  0.08582300  1
  Pr  Pr35  1  0.07784700  0.53892400  0.58582300  1
  Pr  Pr36  1  0.53892400  0.46107600  0.08582300  1
  Pr  Pr37  1  0.92215300  0.46107600  0.08582300  1
  Pr  Pr38  1  0.79767300  0.59534700  0.78226200  1
  Pr  Pr39  1  0.79767300  0.20232700  0.78226200  1
  Pr  Pr40  1  0.20232700  0.40465300  0.28226200  1
  Pr  Pr41  1  0.40465300  0.20232700  0.78226200  1
  Pr  Pr42  1  0.20232700  0.79767300  0.28226200  1
  Pr  Pr43  1  0.59534700  0.79767300  0.28226200  1
  Pr  Pr44  1  0.66666700  0.33333300  0.64579000  1
  Pr  Pr45  1  0.33333300  0.66666700  0.14579000  1
  Cd  Cd46  1  0.00000000  0.00000000  0.74959400  1
  Cd  Cd47  1  0.00000000  0.00000000  0.24959400  1
  Cd  Cd48  1  0.10656600  0.21313300  0.86325800  1
  Cd  Cd49  1  0.10656600  0.89343400  0.86325800  1
  Cd  Cd50  1  0.89343400  0.78686700  0.36325800  1
  Cd  Cd51  1  0.78686700  0.89343400  0.86325800  1
  Cd  Cd52  1  0.89343400  0.10656600  0.36325800  1
  Cd  Cd53  1  0.21313300  0.10656600  0.36325800  1
  Ir  Ir54  1  0.52052400  0.04104800  0.71041800  1
  Ir  Ir55  1  0.52052400  0.47947600  0.71041800  1
  Ir  Ir56  1  0.47947600  0.95895200  0.21041800  1
  Ir  Ir57  1  0.95895200  0.47947600  0.71041800  1
  Ir  Ir58  1  0.47947600  0.52052400  0.21041800  1
  Ir  Ir59  1  0.04104800  0.52052400  0.21041800  1
  Ir  Ir60  1  0.66666700  0.33333300  0.86424600  1
  Ir  Ir61  1  0.33333300  0.66666700  0.36424600  1
  Ir  Ir62  1  0.14414800  0.28829600  0.56307900  1
  Ir  Ir63  1  0.14414800  0.85585200  0.56307900  1
  Ir  Ir64  1  0.85585200  0.71170400  0.06307900  1
  Ir  Ir65  1  0.71170400  0.85585200  0.56307900  1
  Ir  Ir66  1  0.85585200  0.14414800  0.06307900  1
  Ir  Ir67  1  0.28829600  0.14414800  0.06307900  1
