# generated using pymatgen
data_NaCaMgFe(SiO3)4
_symmetry_space_group_name_H-M   'P 1'
_cell_length_a   8.97633100
_cell_length_b   10.67860688
_cell_length_c   9.73317124
_cell_angle_alpha   104.72861230
_cell_angle_beta   90.00291765
_cell_angle_gamma   89.99877502
_symmetry_Int_Tables_number   1
_chemical_formula_structural   NaCaMgFe(SiO3)4
_chemical_formula_sum   'Na4 Ca4 Mg4 Fe4 Si16 O48'
_cell_volume   902.31375061
_cell_formula_units_Z   4
loop_
 _symmetry_equiv_pos_site_id
 _symmetry_equiv_pos_as_xyz
  1  'x, y, z'
loop_
 _atom_site_type_symbol
 _atom_site_label
 _atom_site_symmetry_multiplicity
 _atom_site_fract_x
 _atom_site_fract_y
 _atom_site_fract_z
 _atom_site_occupancy
  Na  Na0  1  0.79888900  0.62500100  0.50000300  1
  Na  Na1  1  0.29890800  0.87498800  0.99997800  1
  Na  Na2  1  0.79892700  0.12502900  0.50001900  1
  Na  Na3  1  0.29890600  0.37500500  0.99998900  1
  Ca  Ca4  1  0.19865400  0.37502400  0.50001400  1
  Ca  Ca5  1  0.69869100  0.62498700  0.00000000  1
  Ca  Ca6  1  0.19868200  0.87500400  0.50000500  1
  Ca  Ca7  1  0.69868800  0.12498400  0.99998700  1
  Mg  Mg8  1  0.40668200  0.62501800  0.50003000  1
  Mg  Mg9  1  0.90669600  0.87501000  0.99999300  1
  Mg  Mg10  1  0.40665600  0.12500900  0.50001700  1
  Mg  Mg11  1  0.90669900  0.37500500  0.00000700  1
  Fe  Fe12  1  0.60099800  0.87501200  0.49998600  1
  Fe  Fe13  1  0.10102100  0.12506100  0.00000800  1
  Fe  Fe14  1  0.60085300  0.37495300  0.49998500  1
  Fe  Fe15  1  0.10102500  0.62503400  0.00002800  1
  Si  Si16  1  0.09132800  0.72071100  0.71245400  1
  Si  Si17  1  0.59133000  0.97073400  0.21246900  1
  Si  Si18  1  0.09132900  0.22074100  0.71247000  1
  Si  Si19  1  0.59135400  0.47072500  0.21246600  1
  Si  Si20  1  0.09137400  0.52926200  0.28754500  1
  Si  Si21  1  0.59135100  0.77926000  0.78751000  1
  Si  Si22  1  0.09136500  0.02927000  0.28753200  1
  Si  Si23  1  0.59133000  0.27928000  0.78752500  1
  Si  Si24  1  0.90863500  0.27694800  0.28869800  1
  Si  Si25  1  0.40858100  0.52695000  0.78864500  1
  Si  Si26  1  0.90862600  0.77693300  0.28869700  1
  Si  Si27  1  0.40860900  0.02694700  0.78866600  1
  Si  Si28  1  0.90855800  0.47303900  0.71134900  1
  Si  Si29  1  0.40862400  0.72303700  0.21132400  1
  Si  Si30  1  0.90860800  0.97304200  0.71131000  1
  Si  Si31  1  0.40859900  0.22304400  0.21132900  1
  O  O32  1  0.01551200  0.57407200  0.64713800  1
  O  O33  1  0.51554500  0.82409600  0.14710800  1
  O  O34  1  0.01558500  0.07408400  0.64713600  1
  O  O35  1  0.51554200  0.32408700  0.14711100  1
  O  O36  1  0.01559100  0.17589300  0.35289600  1
  O  O37  1  0.51554200  0.42591500  0.85288400  1
  O  O38  1  0.01555000  0.67589000  0.35291900  1
  O  O39  1  0.51558400  0.92591800  0.85286800  1
  O  O40  1  0.98859800  0.42142200  0.34756600  1
  O  O41  1  0.48847100  0.67144200  0.84752000  1
  O  O42  1  0.98848300  0.92143000  0.34751500  1
  O  O43  1  0.48845300  0.17144000  0.84751500  1
  O  O44  1  0.98855200  0.82855800  0.65241900  1
  O  O45  1  0.48846300  0.07855800  0.15247100  1
  O  O46  1  0.98844300  0.32855900  0.65249200  1
  O  O47  1  0.48856300  0.57856500  0.15240600  1
  O  O48  1  0.24946600  0.72674100  0.63763300  1
  O  O49  1  0.74949200  0.97679300  0.13764300  1
  O  O50  1  0.24941500  0.22682000  0.63756800  1
  O  O51  1  0.74953600  0.47677400  0.13766200  1
  O  O52  1  0.24953200  0.52322600  0.36236100  1
  O  O53  1  0.74950000  0.77321000  0.86234000  1
  O  O54  1  0.24949000  0.02321300  0.36236000  1
  O  O55  1  0.74944400  0.27320900  0.86241300  1
  O  O56  1  0.74701900  0.27630300  0.36118100  1
  O  O57  1  0.24701000  0.52630400  0.86120800  1
  O  O58  1  0.74700700  0.77630400  0.36118700  1
  O  O59  1  0.24705700  0.02630300  0.86121500  1
  O  O60  1  0.74696400  0.47369200  0.63882600  1
  O  O61  1  0.24701100  0.72370000  0.13881300  1
  O  O62  1  0.74702700  0.97371700  0.63880600  1
  O  O63  1  0.24699100  0.22370200  0.13880500  1
  O  O64  1  0.08147600  0.75822400  0.88575900  1
  O  O65  1  0.58148400  0.00823000  0.38575900  1
  O  O66  1  0.08149200  0.25822400  0.88576700  1
  O  O67  1  0.58147600  0.50821700  0.38575400  1
  O  O68  1  0.08148500  0.49179000  0.11424100  1
  O  O69  1  0.58147900  0.74178900  0.61423000  1
  O  O70  1  0.08148400  0.99178900  0.11423000  1
  O  O71  1  0.58147900  0.24178300  0.61423700  1
  O  O72  1  0.91540700  0.23332500  0.11523500  1
  O  O73  1  0.41536700  0.48334100  0.61522800  1
  O  O74  1  0.91541300  0.73331900  0.11523100  1
  O  O75  1  0.41539100  0.98334300  0.61522900  1
  O  O76  1  0.91533700  0.51663500  0.88479700  1
  O  O77  1  0.41541100  0.76667200  0.38475700  1
  O  O78  1  0.91539700  0.01665700  0.88476300  1
  O  O79  1  0.41540500  0.26667400  0.38476100  1
