# generated using pymatgen
data_Tm6InCo2
_symmetry_space_group_name_H-M   'P 1'
_cell_length_a   8.28135195
_cell_length_b   8.28135195
_cell_length_c   8.28135195
_cell_angle_alpha   111.68876899
_cell_angle_beta   110.24826851
_cell_angle_gamma   106.51980000
_symmetry_Int_Tables_number   1
_chemical_formula_structural   Tm6InCo2
_chemical_formula_sum   'Tm12 In2 Co4'
_cell_volume   436.26440475
_cell_formula_units_Z   2
loop_
 _symmetry_equiv_pos_site_id
 _symmetry_equiv_pos_as_xyz
  1  'x, y, z'
loop_
 _atom_site_type_symbol
 _atom_site_label
 _atom_site_symmetry_multiplicity
 _atom_site_fract_x
 _atom_site_fract_y
 _atom_site_fract_z
 _atom_site_occupancy
  Tm  Tm0  1  0.44349000  0.23556500  0.20792500  1
  Tm  Tm1  1  0.55651000  0.76443500  0.79207500  1
  Tm  Tm2  1  0.02764000  0.23556500  0.79207500  1
  Tm  Tm3  1  0.97236000  0.76443500  0.20792500  1
  Tm  Tm4  1  0.18505900  0.28634600  0.47140500  1
  Tm  Tm5  1  0.81494100  0.71365400  0.52859500  1
  Tm  Tm6  1  0.18505900  0.71365400  0.89871300  1
  Tm  Tm7  1  0.81494100  0.28634600  0.10128700  1
  Tm  Tm8  1  0.31824600  0.62480600  0.30656000  1
  Tm  Tm9  1  0.68175400  0.37519400  0.69344000  1
  Tm  Tm10  1  0.31824600  0.01168600  0.69344000  1
  Tm  Tm11  1  0.68175400  0.98831400  0.30656000  1
  In  In12  1  0.50000000  0.50000000  0.00000000  1
  In  In13  1  0.00000000  0.00000000  0.00000000  1
  Co  Co14  1  0.36874900  0.00000000  0.36874900  1
  Co  Co15  1  0.63125100  0.00000000  0.63125100  1
  Co  Co16  1  0.11373900  0.61373900  0.50000000  1
  Co  Co17  1  0.88626100  0.38626100  0.50000000  1
