# generated using pymatgen
data_Eu2TlCl5
_symmetry_space_group_name_H-M   'P 1'
_cell_length_a   7.94266300
_cell_length_b   8.99237700
_cell_length_c   12.75898740
_cell_angle_alpha   89.66552765
_cell_angle_beta   90.00000000
_cell_angle_gamma   90.00000000
_symmetry_Int_Tables_number   1
_chemical_formula_structural   Eu2TlCl5
_chemical_formula_sum   'Eu8 Tl4 Cl20'
_cell_volume   911.27498941
_cell_formula_units_Z   4
loop_
 _symmetry_equiv_pos_site_id
 _symmetry_equiv_pos_as_xyz
  1  'x, y, z'
loop_
 _atom_site_type_symbol
 _atom_site_label
 _atom_site_symmetry_multiplicity
 _atom_site_fract_x
 _atom_site_fract_y
 _atom_site_fract_z
 _atom_site_occupancy
  Eu  Eu0  1  0.47672100  0.00047200  0.82159600  1
  Eu  Eu1  1  0.52327900  0.99952800  0.17840400  1
  Eu  Eu2  1  0.97672100  0.99952800  0.67840400  1
  Eu  Eu3  1  0.02327900  0.00047200  0.32159600  1
  Eu  Eu4  1  0.42674200  0.75344600  0.50654400  1
  Eu  Eu5  1  0.57325800  0.24655400  0.49345600  1
  Eu  Eu6  1  0.92674200  0.24655400  0.99345600  1
  Eu  Eu7  1  0.07325800  0.75344600  0.00654400  1
  Tl  Tl8  1  0.47971000  0.50503800  0.82533700  1
  Tl  Tl9  1  0.52029000  0.49496200  0.17466300  1
  Tl  Tl10  1  0.97971000  0.49496200  0.67466300  1
  Tl  Tl11  1  0.02029000  0.50503800  0.32533700  1
  Cl  Cl12  1  0.33943600  0.46406000  0.58734800  1
  Cl  Cl13  1  0.66056400  0.53594000  0.41265200  1
  Cl  Cl14  1  0.83943600  0.53594000  0.91265200  1
  Cl  Cl15  1  0.16056400  0.46406000  0.08734800  1
  Cl  Cl16  1  0.66186200  0.78817000  0.68329800  1
  Cl  Cl17  1  0.33813800  0.21183000  0.31670200  1
  Cl  Cl18  1  0.16186200  0.21183000  0.81670200  1
  Cl  Cl19  1  0.83813800  0.78817000  0.18329800  1
  Cl  Cl20  1  0.19425900  0.77944200  0.78499400  1
  Cl  Cl21  1  0.80574100  0.22055800  0.21500600  1
  Cl  Cl22  1  0.69425900  0.22055800  0.71500600  1
  Cl  Cl23  1  0.30574100  0.77944200  0.28499400  1
  Cl  Cl24  1  0.04969200  0.78835600  0.50280100  1
  Cl  Cl25  1  0.95030800  0.21164400  0.49719900  1
  Cl  Cl26  1  0.54969200  0.21164400  0.99719900  1
  Cl  Cl27  1  0.45030800  0.78835600  0.00280100  1
  Cl  Cl28  1  0.84062200  0.95829700  0.89990400  1
  Cl  Cl29  1  0.15937800  0.04170300  0.10009600  1
  Cl  Cl30  1  0.34062200  0.04170300  0.60009600  1
  Cl  Cl31  1  0.65937800  0.95829700  0.39990400  1
