# generated using pymatgen
data_PrGaPd
_symmetry_space_group_name_H-M   'P 1'
_cell_length_a   4.57654500
_cell_length_b   7.10785800
_cell_length_c   7.93066100
_cell_angle_alpha   90.00000000
_cell_angle_beta   90.00000000
_cell_angle_gamma   90.00000000
_symmetry_Int_Tables_number   1
_chemical_formula_structural   PrGaPd
_chemical_formula_sum   'Pr4 Ga4 Pd4'
_cell_volume   257.97989764
_cell_formula_units_Z   4
loop_
 _symmetry_equiv_pos_site_id
 _symmetry_equiv_pos_as_xyz
  1  'x, y, z'
loop_
 _atom_site_type_symbol
 _atom_site_label
 _atom_site_symmetry_multiplicity
 _atom_site_fract_x
 _atom_site_fract_y
 _atom_site_fract_z
 _atom_site_occupancy
  Pr  Pr0  1  0.25000000  0.03106700  0.69017300  1
  Pr  Pr1  1  0.25000000  0.53106700  0.80982700  1
  Pr  Pr2  1  0.75000000  0.96893300  0.30982700  1
  Pr  Pr3  1  0.75000000  0.46893300  0.19017300  1
  Ga  Ga4  1  0.25000000  0.15897000  0.06866700  1
  Ga  Ga5  1  0.25000000  0.65897000  0.43133300  1
  Ga  Ga6  1  0.75000000  0.84103000  0.93133300  1
  Ga  Ga7  1  0.75000000  0.34103000  0.56866700  1
  Pd  Pd8  1  0.25000000  0.28201100  0.39064200  1
  Pd  Pd9  1  0.25000000  0.78201100  0.10935800  1
  Pd  Pd10  1  0.75000000  0.71798900  0.60935800  1
  Pd  Pd11  1  0.75000000  0.21798900  0.89064200  1
