# generated using pymatgen
data_NaTa4O8
_symmetry_space_group_name_H-M   'P 1'
_cell_length_a   7.10886124
_cell_length_b   7.10886124
_cell_length_c   9.69694504
_cell_angle_alpha   86.08836929
_cell_angle_beta   93.91163071
_cell_angle_gamma   86.20451309
_symmetry_Int_Tables_number   1
_chemical_formula_structural   NaTa4O8
_chemical_formula_sum   'Na3 Ta12 O24'
_cell_volume   486.52619408
_cell_formula_units_Z   3
loop_
 _symmetry_equiv_pos_site_id
 _symmetry_equiv_pos_as_xyz
  1  'x, y, z'
loop_
 _atom_site_type_symbol
 _atom_site_label
 _atom_site_symmetry_multiplicity
 _atom_site_fract_x
 _atom_site_fract_y
 _atom_site_fract_z
 _atom_site_occupancy
  Na  Na0  1  0.61723000  0.38277000  0.11557600  1
  Na  Na1  1  0.90570800  0.09429200  0.40508300  1
  Na  Na2  1  0.38132800  0.61867200  0.88321300  1
  Ta  Ta3  1  0.10103400  0.89896600  0.10035800  1
  Ta  Ta4  1  0.60174300  0.39825700  0.60316900  1
  Ta  Ta5  1  0.39617600  0.60382400  0.39723200  1
  Ta  Ta6  1  0.89913600  0.10086400  0.89710400  1
  Ta  Ta7  1  0.59663100  0.83720600  0.61929100  1
  Ta  Ta8  1  0.10469000  0.33122300  0.11286600  1
  Ta  Ta9  1  0.66877700  0.89531000  0.11286600  1
  Ta  Ta10  1  0.16279500  0.40336900  0.61929100  1
  Ta  Ta11  1  0.32991700  0.10428900  0.88518700  1
  Ta  Ta12  1  0.83733600  0.59949100  0.38183700  1
  Ta  Ta13  1  0.40050900  0.16266400  0.38183700  1
  Ta  Ta14  1  0.89571100  0.67008300  0.88518700  1
  O  O15  1  0.58647300  0.08368600  0.24957100  1
  O  O16  1  0.08210500  0.57942200  0.75345500  1
  O  O17  1  0.42057800  0.91789500  0.75345500  1
  O  O18  1  0.91631400  0.41352700  0.24957100  1
  O  O19  1  0.80898800  0.81005900  0.49965200  1
  O  O20  1  0.32613900  0.32585800  0.99980800  1
  O  O21  1  0.18994100  0.19101200  0.49965200  1
  O  O22  1  0.67414200  0.67386100  0.99980800  1
  O  O23  1  0.17929000  0.09157800  0.23564600  1
  O  O24  1  0.67908500  0.59260500  0.73401500  1
  O  O25  1  0.12934900  0.59527600  0.45298900  1
  O  O26  1  0.62939500  0.10028900  0.95759100  1
  O  O27  1  0.09167400  0.18336900  0.76541600  1
  O  O28  1  0.59299200  0.67852100  0.26542200  1
  O  O29  1  0.59878900  0.13027200  0.54483100  1
  O  O30  1  0.09950100  0.62906400  0.04280600  1
  O  O31  1  0.81663100  0.90832600  0.76541600  1
  O  O32  1  0.32147900  0.40700800  0.26542200  1
  O  O33  1  0.86972800  0.40121100  0.54483100  1
  O  O34  1  0.37093600  0.90049900  0.04280600  1
  O  O35  1  0.90842200  0.82071000  0.23564600  1
  O  O36  1  0.40739500  0.32091500  0.73401500  1
  O  O37  1  0.40472400  0.87065100  0.45298900  1
  O  O38  1  0.89971100  0.37060500  0.95759100  1
