# generated using pymatgen
data_MgH16(IO4)2
_symmetry_space_group_name_H-M   'P 1'
_cell_length_a   8.95912717
_cell_length_b   8.95912717
_cell_length_c   10.18149900
_cell_angle_alpha   90.00000000
_cell_angle_beta   90.00000000
_cell_angle_gamma   121.06989974
_symmetry_Int_Tables_number   1
_chemical_formula_structural   MgH16(IO4)2
_chemical_formula_sum   'Mg2 H32 I4 O16'
_cell_volume   699.98692222
_cell_formula_units_Z   2
loop_
 _symmetry_equiv_pos_site_id
 _symmetry_equiv_pos_as_xyz
  1  'x, y, z'
loop_
 _atom_site_type_symbol
 _atom_site_label
 _atom_site_symmetry_multiplicity
 _atom_site_fract_x
 _atom_site_fract_y
 _atom_site_fract_z
 _atom_site_occupancy
  Mg  Mg0  1  0.00000000  0.00000000  0.00000000  1
  Mg  Mg1  1  0.50000000  0.50000000  0.50000000  1
  H  H2  1  0.12883300  0.87116700  0.81227400  1
  H  H3  1  0.87116700  0.12883300  0.18772600  1
  H  H4  1  0.37116700  0.62883300  0.31227400  1
  H  H5  1  0.62883300  0.37116700  0.68772600  1
  H  H6  1  0.17695900  0.82304100  0.94940800  1
  H  H7  1  0.82304100  0.17695900  0.05059200  1
  H  H8  1  0.32304100  0.67695900  0.44940800  1
  H  H9  1  0.67695900  0.32304100  0.55059200  1
  H  H10  1  0.99986400  0.82040400  0.21260400  1
  H  H11  1  0.82040400  0.99986400  0.78739600  1
  H  H12  1  0.32040400  0.49986400  0.71260400  1
  H  H13  1  0.49986400  0.32040400  0.28739600  1
  H  H14  1  0.00013600  0.17959600  0.78739600  1
  H  H15  1  0.17959600  0.00013600  0.21260400  1
  H  H16  1  0.67959600  0.50013600  0.28739600  1
  H  H17  1  0.50013600  0.67959600  0.71260400  1
  H  H18  1  0.42268900  0.03867200  0.32474000  1
  H  H19  1  0.03867200  0.42268900  0.67526000  1
  H  H20  1  0.53867200  0.92268900  0.82474000  1
  H  H21  1  0.92268900  0.53867200  0.17526000  1
  H  H22  1  0.57731100  0.96132800  0.67526000  1
  H  H23  1  0.96132800  0.57731100  0.32474000  1
  H  H24  1  0.46132800  0.07731100  0.17526000  1
  H  H25  1  0.07731100  0.46132800  0.82474000  1
  H  H26  1  0.74201800  0.64718300  0.97264200  1
  H  H27  1  0.64718300  0.74201800  0.02735800  1
  H  H28  1  0.14718300  0.24201800  0.47264200  1
  H  H29  1  0.24201800  0.14718300  0.52735800  1
  H  H30  1  0.25798200  0.35281700  0.02735800  1
  H  H31  1  0.35281700  0.25798200  0.97264200  1
  H  H32  1  0.85281700  0.75798200  0.52735800  1
  H  H33  1  0.75798200  0.85281700  0.47264200  1
  I  I34  1  0.17423000  0.82577000  0.56321200  1
  I  I35  1  0.82577000  0.17423000  0.43678800  1
  I  I36  1  0.32577000  0.67423000  0.06321200  1
  I  I37  1  0.67423000  0.32577000  0.93678800  1
  O  O38  1  0.11994800  0.88005200  0.90809500  1
  O  O39  1  0.88005200  0.11994800  0.09190500  1
  O  O40  1  0.38005200  0.61994800  0.40809500  1
  O  O41  1  0.61994800  0.38005200  0.59190500  1
  O  O42  1  0.40406200  0.09593800  0.25000000  1
  O  O43  1  0.09593800  0.40406200  0.75000000  1
  O  O44  1  0.59593800  0.90406200  0.75000000  1
  O  O45  1  0.90406200  0.59593800  0.25000000  1
  O  O46  1  0.76123100  0.76123100  0.00000000  1
  O  O47  1  0.26123100  0.26123100  0.50000000  1
  O  O48  1  0.23876900  0.23876900  0.00000000  1
  O  O49  1  0.73876900  0.73876900  0.50000000  1
  O  O50  1  0.05688000  0.94312000  0.18316100  1
  O  O51  1  0.94312000  0.05688000  0.81683900  1
  O  O52  1  0.44312000  0.55688000  0.68316100  1
  O  O53  1  0.55688000  0.44312000  0.31683900  1
