# generated using pymatgen
data_Sr3(SnAs2)2
_symmetry_space_group_name_H-M   'P 1'
_cell_length_a   19.42400000
_cell_length_b   7.81247800
_cell_length_c   7.81314418
_cell_angle_alpha   68.22385372
_cell_angle_beta   90.00000000
_cell_angle_gamma   90.00000000
_symmetry_Int_Tables_number   1
_chemical_formula_structural   Sr3(SnAs2)2
_chemical_formula_sum   'Sr12 Sn8 As16'
_cell_volume   1101.03435123
_cell_formula_units_Z   4
loop_
 _symmetry_equiv_pos_site_id
 _symmetry_equiv_pos_as_xyz
  1  'x, y, z'
loop_
 _atom_site_type_symbol
 _atom_site_label
 _atom_site_symmetry_multiplicity
 _atom_site_fract_x
 _atom_site_fract_y
 _atom_site_fract_z
 _atom_site_occupancy
  Sr  Sr0  1  0.81748500  0.78840700  0.01038300  1
  Sr  Sr1  1  0.31748500  0.21159300  0.48961700  1
  Sr  Sr2  1  0.18251500  0.21159300  0.98961700  1
  Sr  Sr3  1  0.68251500  0.78840700  0.51038300  1
  Sr  Sr4  1  0.55973700  0.74138800  0.01111500  1
  Sr  Sr5  1  0.05973700  0.25861200  0.48888500  1
  Sr  Sr6  1  0.44026300  0.25861200  0.98888500  1
  Sr  Sr7  1  0.94026300  0.74138800  0.51111500  1
  Sr  Sr8  1  0.06137100  0.73685900  0.00474800  1
  Sr  Sr9  1  0.56137100  0.26314100  0.49525200  1
  Sr  Sr10  1  0.93862900  0.26314100  0.99525200  1
  Sr  Sr11  1  0.43862900  0.73685900  0.50474800  1
  Sn  Sn12  1  0.37757600  0.79239300  0.02886400  1
  Sn  Sn13  1  0.87757600  0.20760700  0.47113600  1
  Sn  Sn14  1  0.62242400  0.20760700  0.97113600  1
  Sn  Sn15  1  0.12242400  0.79239300  0.52886400  1
  Sn  Sn16  1  0.24397700  0.67823500  0.40980700  1
  Sn  Sn17  1  0.74397700  0.32176500  0.09019300  1
  Sn  Sn18  1  0.75602300  0.32176500  0.59019300  1
  Sn  Sn19  1  0.25602300  0.67823500  0.90980700  1
  As  As20  1  0.55465700  0.99580900  0.25945800  1
  As  As21  1  0.05465700  0.00419100  0.24054200  1
  As  As22  1  0.44534300  0.00419100  0.74054200  1
  As  As23  1  0.94534300  0.99580900  0.75945800  1
  As  As24  1  0.31738300  0.97689400  0.22194800  1
  As  As25  1  0.81738300  0.02310600  0.27805200  1
  As  As26  1  0.68261700  0.02310600  0.77805200  1
  As  As27  1  0.18261700  0.97689400  0.72194800  1
  As  As28  1  0.43663400  0.49071300  0.25342700  1
  As  As29  1  0.93663400  0.50928700  0.24657300  1
  As  As30  1  0.56336600  0.50928700  0.74657300  1
  As  As31  1  0.06336600  0.49071300  0.75342700  1
  As  As32  1  0.19447600  0.47360000  0.22713600  1
  As  As33  1  0.69447600  0.52640000  0.27286400  1
  As  As34  1  0.80552400  0.52640000  0.77286400  1
  As  As35  1  0.30552400  0.47360000  0.72713600  1
