# generated using pymatgen
data_Gd2InNi2
_symmetry_space_group_name_H-M   'P 1'
_cell_length_a   7.48839293
_cell_length_b   7.48839293
_cell_length_c   3.71568300
_cell_angle_alpha   90.00000000
_cell_angle_beta   90.00000000
_cell_angle_gamma   148.83992864
_symmetry_Int_Tables_number   1
_chemical_formula_structural   Gd2InNi2
_chemical_formula_sum   'Gd2 In1 Ni2'
_cell_volume   107.81226593
_cell_formula_units_Z   1
loop_
 _symmetry_equiv_pos_site_id
 _symmetry_equiv_pos_as_xyz
  1  'x, y, z'
loop_
 _atom_site_type_symbol
 _atom_site_label
 _atom_site_symmetry_multiplicity
 _atom_site_fract_x
 _atom_site_fract_y
 _atom_site_fract_z
 _atom_site_occupancy
  Gd  Gd0  1  0.36231600  0.63768400  0.50000000  1
  Gd  Gd1  1  0.63768400  0.36231600  0.50000000  1
  In  In2  1  0.00000000  0.00000000  0.00000000  1
  Ni  Ni3  1  0.19928200  0.80071800  0.00000000  1
  Ni  Ni4  1  0.80071800  0.19928200  0.00000000  1
