# generated using pymatgen
data_CsTlF4
_symmetry_space_group_name_H-M   'P 1'
_cell_length_a   6.68757800
_cell_length_b   8.61264400
_cell_length_c   8.68475100
_cell_angle_alpha   90.00000000
_cell_angle_beta   90.00000000
_cell_angle_gamma   90.00000000
_symmetry_Int_Tables_number   1
_chemical_formula_structural   CsTlF4
_chemical_formula_sum   'Cs4 Tl4 F16'
_cell_volume   500.22193050
_cell_formula_units_Z   4
loop_
 _symmetry_equiv_pos_site_id
 _symmetry_equiv_pos_as_xyz
  1  'x, y, z'
loop_
 _atom_site_type_symbol
 _atom_site_label
 _atom_site_symmetry_multiplicity
 _atom_site_fract_x
 _atom_site_fract_y
 _atom_site_fract_z
 _atom_site_occupancy
  Cs  Cs0  1  0.48821300  0.80300200  0.69670100  1
  Cs  Cs1  1  0.51178700  0.19699800  0.19670100  1
  Cs  Cs2  1  0.51178700  0.30300200  0.69670100  1
  Cs  Cs3  1  0.48821300  0.69699800  0.19670100  1
  Tl  Tl4  1  0.99996000  0.00003100  0.94667000  1
  Tl  Tl5  1  0.00004000  0.99996900  0.44667000  1
  Tl  Tl6  1  0.00004000  0.50003100  0.94667000  1
  Tl  Tl7  1  0.99996000  0.49996900  0.44667000  1
  F  F8  1  0.70706400  0.93428000  0.00332900  1
  F  F9  1  0.29293600  0.06572000  0.50332900  1
  F  F10  1  0.29293600  0.43428000  0.00332900  1
  F  F11  1  0.70706400  0.56572000  0.50332900  1
  F  F12  1  0.90216200  0.97977500  0.69665700  1
  F  F13  1  0.09783800  0.02022500  0.19665700  1
  F  F14  1  0.09783800  0.47977500  0.69665700  1
  F  F15  1  0.90216200  0.52022500  0.19665700  1
  F  F16  1  0.88286800  0.25004500  0.94672000  1
  F  F17  1  0.11713200  0.74995500  0.44672000  1
  F  F18  1  0.11713200  0.75004500  0.94672000  1
  F  F19  1  0.88286800  0.24995500  0.44672000  1
  F  F20  1  0.70719100  0.56582600  0.88992300  1
  F  F21  1  0.29280900  0.43417400  0.38992300  1
  F  F22  1  0.29280900  0.06582600  0.88992300  1
  F  F23  1  0.70719100  0.93417400  0.38992300  1
