# generated using pymatgen
data_Nb12TlTe16
_symmetry_space_group_name_H-M   'P 1'
_cell_length_a   11.46461679
_cell_length_b   11.46461679
_cell_length_c   10.86894264
_cell_angle_alpha   61.73350247
_cell_angle_beta   61.73350247
_cell_angle_gamma   37.31423052
_symmetry_Int_Tables_number   1
_chemical_formula_structural   Nb12TlTe16
_chemical_formula_sum   'Nb12 Tl1 Te16'
_cell_volume   750.04829630
_cell_formula_units_Z   1
loop_
 _symmetry_equiv_pos_site_id
 _symmetry_equiv_pos_as_xyz
  1  'x, y, z'
loop_
 _atom_site_type_symbol
 _atom_site_label
 _atom_site_symmetry_multiplicity
 _atom_site_fract_x
 _atom_site_fract_y
 _atom_site_fract_z
 _atom_site_occupancy
  Nb  Nb0  1  0.11904500  0.11904500  0.89765000  1
  Nb  Nb1  1  0.61985400  0.61985400  0.89866800  1
  Nb  Nb2  1  0.32439200  0.32439200  0.61266300  1
  Nb  Nb3  1  0.82423900  0.82423900  0.61234100  1
  Nb  Nb4  1  0.18064300  0.18064300  0.48982200  1
  Nb  Nb5  1  0.68200100  0.68200100  0.48814800  1
  Nb  Nb6  1  0.87894000  0.38128700  0.10166800  1
  Nb  Nb7  1  0.38128700  0.87894000  0.10166800  1
  Nb  Nb8  1  0.67556300  0.17567600  0.38852600  1
  Nb  Nb9  1  0.17567600  0.67556300  0.38852600  1
  Nb  Nb10  1  0.82028800  0.31810200  0.51014900  1
  Nb  Nb11  1  0.31810200  0.82028800  0.51014900  1
  Tl  Tl12  1  0.37501300  0.37501300  0.00003000  1
  Te  Te13  1  0.54165500  0.54165500  0.33345600  1
  Te  Te14  1  0.04167700  0.04167700  0.33323000  1
  Te  Te15  1  0.45823800  0.95843400  0.66666400  1
  Te  Te16  1  0.95843400  0.45823800  0.66666400  1
  Te  Te17  1  0.73870500  0.73870500  0.93551100  1
  Te  Te18  1  0.23765100  0.23765100  0.93483700  1
  Te  Te19  1  0.84275000  0.84275000  0.33770900  1
  Te  Te20  1  0.34255900  0.34255900  0.33912600  1
  Te  Te21  1  0.54497800  0.54497800  0.72536700  1
  Te  Te22  1  0.04354900  0.04354900  0.72762900  1
  Te  Te23  1  0.26090000  0.76138000  0.06432300  1
  Te  Te24  1  0.76138000  0.26090000  0.06432300  1
  Te  Te25  1  0.15660500  0.65761200  0.66340300  1
  Te  Te26  1  0.65761200  0.15660500  0.66340300  1
  Te  Te27  1  0.45686000  0.95640400  0.27217400  1
  Te  Te28  1  0.95640400  0.45686000  0.27217400  1
