# generated using pymatgen
data_CaMn2O4
_symmetry_space_group_name_H-M   'P 1'
_cell_length_a   3.20501000
_cell_length_b   9.80941100
_cell_length_c   10.19612000
_cell_angle_alpha   90.00008022
_cell_angle_beta   90.00004035
_cell_angle_gamma   89.99999416
_symmetry_Int_Tables_number   1
_chemical_formula_structural   CaMn2O4
_chemical_formula_sum   'Ca4 Mn8 O16'
_cell_volume   320.55847123
_cell_formula_units_Z   4
loop_
 _symmetry_equiv_pos_site_id
 _symmetry_equiv_pos_as_xyz
  1  'x, y, z'
loop_
 _atom_site_type_symbol
 _atom_site_label
 _atom_site_symmetry_multiplicity
 _atom_site_fract_x
 _atom_site_fract_y
 _atom_site_fract_z
 _atom_site_occupancy
  Ca  Ca0  1  0.67849800  0.74996800  0.14912700  1
  Ca  Ca1  1  0.67849800  0.25003200  0.35087300  1
  Ca  Ca2  1  0.32150500  0.75003200  0.64912700  1
  Ca  Ca3  1  0.32150400  0.24996900  0.85087300  1
  Mn  Mn4  1  0.20371700  0.06873700  0.11187300  1
  Mn  Mn5  1  0.79629300  0.43126200  0.61187500  1
  Mn  Mn6  1  0.20369500  0.93126400  0.38812500  1
  Mn  Mn7  1  0.79629300  0.56873800  0.88812700  1
  Mn  Mn8  1  0.20383300  0.56878200  0.38814900  1
  Mn  Mn9  1  0.79616300  0.06878100  0.61185000  1
  Mn  Mn10  1  0.20384100  0.43121700  0.11185000  1
  Mn  Mn11  1  0.79616900  0.93121900  0.88814900  1
  O  O12  1  0.58979900  0.00000000  0.25000000  1
  O  O13  1  0.58962400  0.49999900  0.25000000  1
  O  O14  1  0.41036700  0.00000000  0.75000000  1
  O  O15  1  0.41020400  0.50000000  0.75000000  1
  O  O16  1  0.18570200  0.24996300  0.18663000  1
  O  O17  1  0.81430000  0.25003600  0.68663000  1
  O  O18  1  0.81430000  0.74996500  0.81336900  1
  O  O19  1  0.18570100  0.75003600  0.31337100  1
  O  O20  1  0.79922100  0.89161700  0.52744700  1
  O  O21  1  0.20089600  0.10843200  0.47250100  1
  O  O22  1  0.20089900  0.89156900  0.02750000  1
  O  O23  1  0.20078000  0.60838300  0.02744500  1
  O  O24  1  0.79922400  0.10838400  0.97255400  1
  O  O25  1  0.79909700  0.60843300  0.52750300  1
  O  O26  1  0.79909900  0.39156600  0.97249800  1
  O  O27  1  0.20077800  0.39161600  0.47255500  1
