# generated using pymatgen
data_Pr12Co6Pb
_symmetry_space_group_name_H-M   'P 1'
_cell_length_a   8.83300186
_cell_length_b   8.83300186
_cell_length_c   8.83300186
_cell_angle_alpha   109.47122063
_cell_angle_beta   109.47122063
_cell_angle_gamma   109.47122063
_symmetry_Int_Tables_number   1
_chemical_formula_structural   Pr12Co6Pb
_chemical_formula_sum   'Pr12 Co6 Pb1'
_cell_volume   530.52160459
_cell_formula_units_Z   1
loop_
 _symmetry_equiv_pos_site_id
 _symmetry_equiv_pos_as_xyz
  1  'x, y, z'
loop_
 _atom_site_type_symbol
 _atom_site_label
 _atom_site_symmetry_multiplicity
 _atom_site_fract_x
 _atom_site_fract_y
 _atom_site_fract_z
 _atom_site_occupancy
  Pr  Pr0  1  0.81116500  0.69083900  0.50200400  1
  Pr  Pr1  1  0.18883500  0.30916100  0.49799600  1
  Pr  Pr2  1  0.18883500  0.69083900  0.87967400  1
  Pr  Pr3  1  0.81116500  0.30916100  0.12032600  1
  Pr  Pr4  1  0.69083900  0.50200400  0.81116500  1
  Pr  Pr5  1  0.30916100  0.49799600  0.18883500  1
  Pr  Pr6  1  0.69083900  0.87967400  0.18883500  1
  Pr  Pr7  1  0.30916100  0.12032600  0.81116500  1
  Pr  Pr8  1  0.50200400  0.81116500  0.69083900  1
  Pr  Pr9  1  0.49799600  0.18883500  0.30916100  1
  Pr  Pr10  1  0.12032600  0.81116500  0.30916100  1
  Pr  Pr11  1  0.87967400  0.18883500  0.69083900  1
  Co  Co12  1  0.88889300  0.38889300  0.50000000  1
  Co  Co13  1  0.11110700  0.61110700  0.50000000  1
  Co  Co14  1  0.38889300  0.50000000  0.88889300  1
  Co  Co15  1  0.61110700  0.50000000  0.11110700  1
  Co  Co16  1  0.50000000  0.88889300  0.38889300  1
  Co  Co17  1  0.50000000  0.11110700  0.61110700  1
  Pb  Pb18  1  0.00000000  0.00000000  0.00000000  1
