# generated using pymatgen
data_VZn2N3
_symmetry_space_group_name_H-M   'P 1'
_cell_length_a   5.55534113
_cell_length_b   5.55534113
_cell_length_c   5.29171700
_cell_angle_alpha   90.00000000
_cell_angle_beta   90.00000000
_cell_angle_gamma   119.30310000
_symmetry_Int_Tables_number   1
_chemical_formula_structural   VZn2N3
_chemical_formula_sum   'V2 Zn4 N6'
_cell_volume   142.41504528
_cell_formula_units_Z   2
loop_
 _symmetry_equiv_pos_site_id
 _symmetry_equiv_pos_as_xyz
  1  'x, y, z'
loop_
 _atom_site_type_symbol
 _atom_site_label
 _atom_site_symmetry_multiplicity
 _atom_site_fract_x
 _atom_site_fract_y
 _atom_site_fract_z
 _atom_site_occupancy
  V  V0  1  0.83798800  0.83798800  0.46152300  1
  V  V1  1  0.16201200  0.16201200  0.96152300  1
  Zn  Zn2  1  0.49784000  0.83085900  0.97327900  1
  Zn  Zn3  1  0.83085900  0.49784000  0.97327900  1
  Zn  Zn4  1  0.50216000  0.16914100  0.47327900  1
  Zn  Zn5  1  0.16914100  0.50216000  0.47327900  1
  N  N6  1  0.52855100  0.83285600  0.35970000  1
  N  N7  1  0.83285600  0.52855100  0.35970000  1
  N  N8  1  0.47144900  0.16714400  0.85970000  1
  N  N9  1  0.16714400  0.47144900  0.85970000  1
  N  N10  1  0.85517500  0.85517500  0.81689900  1
  N  N11  1  0.14482500  0.14482500  0.31689900  1
