# generated using pymatgen
data_Na3U6TiF30
_symmetry_space_group_name_H-M   'P 1'
_cell_length_a   9.96431172
_cell_length_b   9.96431172
_cell_length_c   13.10444600
_cell_angle_alpha   90.00000000
_cell_angle_beta   90.00000000
_cell_angle_gamma   119.99999814
_symmetry_Int_Tables_number   1
_chemical_formula_structural   Na3U6TiF30
_chemical_formula_sum   'Na6 U12 Ti2 F60'
_cell_volume   1126.79241838
_cell_formula_units_Z   2
loop_
 _symmetry_equiv_pos_site_id
 _symmetry_equiv_pos_as_xyz
  1  'x, y, z'
loop_
 _atom_site_type_symbol
 _atom_site_label
 _atom_site_symmetry_multiplicity
 _atom_site_fract_x
 _atom_site_fract_y
 _atom_site_fract_z
 _atom_site_occupancy
  Na  Na0  1  0.66666700  0.33333300  0.66202000  1
  Na  Na1  1  0.66666700  0.33333300  0.16202000  1
  Na  Na2  1  0.33333300  0.66666700  0.33798000  1
  Na  Na3  1  0.33333300  0.66666700  0.83798000  1
  Na  Na4  1  0.00000000  0.00000000  0.50000000  1
  Na  Na5  1  0.00000000  0.00000000  0.00000000  1
  U  U6  1  0.07529500  0.67234900  0.60103800  1
  U  U7  1  0.59705400  0.92470500  0.60103800  1
  U  U8  1  0.32765100  0.40294600  0.60103800  1
  U  U9  1  0.07529500  0.40294600  0.10103800  1
  U  U10  1  0.32765100  0.92470500  0.10103800  1
  U  U11  1  0.59705400  0.67234900  0.10103800  1
  U  U12  1  0.92470500  0.32765100  0.39896200  1
  U  U13  1  0.40294600  0.07529500  0.39896200  1
  U  U14  1  0.67234900  0.59705400  0.39896200  1
  U  U15  1  0.92470500  0.59705400  0.89896200  1
  U  U16  1  0.67234900  0.07529500  0.89896200  1
  U  U17  1  0.40294600  0.32765100  0.89896200  1
  Ti  Ti18  1  0.00000000  0.00000000  0.75000000  1
  Ti  Ti19  1  0.00000000  0.00000000  0.25000000  1
  F  F20  1  0.86888000  0.56474000  0.71622800  1
  F  F21  1  0.69586000  0.13112000  0.71622800  1
  F  F22  1  0.43526000  0.30414000  0.71622800  1
  F  F23  1  0.86888000  0.30414000  0.21622800  1
  F  F24  1  0.43526000  0.13112000  0.21622800  1
  F  F25  1  0.69586000  0.56474000  0.21622800  1
  F  F26  1  0.13112000  0.43526000  0.28377200  1
  F  F27  1  0.30414000  0.86888000  0.28377200  1
  F  F28  1  0.56474000  0.69586000  0.28377200  1
  F  F29  1  0.13112000  0.69586000  0.78377200  1
  F  F30  1  0.56474000  0.86888000  0.78377200  1
  F  F31  1  0.30414000  0.43526000  0.78377200  1
  F  F32  1  0.88379600  0.69283800  0.51859400  1
  F  F33  1  0.80904300  0.11620400  0.51859400  1
  F  F34  1  0.30716200  0.19095700  0.51859400  1
  F  F35  1  0.88379600  0.19095700  0.01859400  1
  F  F36  1  0.30716200  0.11620400  0.01859400  1
  F  F37  1  0.80904300  0.69283800  0.01859400  1
  F  F38  1  0.11620400  0.30716200  0.48140600  1
  F  F39  1  0.19095700  0.88379600  0.48140600  1
  F  F40  1  0.69283800  0.80904300  0.48140600  1
  F  F41  1  0.11620400  0.80904300  0.98140600  1
  F  F42  1  0.69283800  0.88379600  0.98140600  1
  F  F43  1  0.19095700  0.30716200  0.98140600  1
  F  F44  1  0.11989700  0.58676400  0.44836900  1
  F  F45  1  0.46686800  0.88010300  0.44836900  1
  F  F46  1  0.41323600  0.53313200  0.44836900  1
  F  F47  1  0.11989700  0.53313200  0.94836900  1
  F  F48  1  0.41323600  0.88010300  0.94836900  1
  F  F49  1  0.46686800  0.58676400  0.94836900  1
  F  F50  1  0.88010300  0.41323600  0.55163100  1
  F  F51  1  0.53313200  0.11989700  0.55163100  1
  F  F52  1  0.58676400  0.46686800  0.55163100  1
  F  F53  1  0.88010300  0.46686800  0.05163100  1
  F  F54  1  0.58676400  0.11989700  0.05163100  1
  F  F55  1  0.53313200  0.41323600  0.05163100  1
  F  F56  1  0.08023000  0.90043300  0.66344900  1
  F  F57  1  0.82020300  0.91977000  0.66344900  1
  F  F58  1  0.09956700  0.17979700  0.66344900  1
  F  F59  1  0.08023000  0.17979700  0.16344900  1
  F  F60  1  0.09956700  0.91977000  0.16344900  1
  F  F61  1  0.82020300  0.90043300  0.16344900  1
  F  F62  1  0.91977000  0.09956700  0.33655100  1
  F  F63  1  0.17979700  0.08023000  0.33655100  1
  F  F64  1  0.90043300  0.82020300  0.33655100  1
  F  F65  1  0.91977000  0.82020300  0.83655100  1
  F  F66  1  0.90043300  0.08023000  0.83655100  1
  F  F67  1  0.17979700  0.09956700  0.83655100  1
  F  F68  1  0.34014600  0.82885600  0.63690100  1
  F  F69  1  0.48871000  0.65985400  0.63690100  1
  F  F70  1  0.17114400  0.51129000  0.63690100  1
  F  F71  1  0.34014600  0.51129000  0.13690100  1
  F  F72  1  0.17114400  0.65985400  0.13690100  1
  F  F73  1  0.48871000  0.82885600  0.13690100  1
  F  F74  1  0.65985400  0.17114400  0.36309900  1
  F  F75  1  0.51129000  0.34014600  0.36309900  1
  F  F76  1  0.82885600  0.48871000  0.36309900  1
  F  F77  1  0.65985400  0.48871000  0.86309900  1
  F  F78  1  0.82885600  0.34014600  0.86309900  1
  F  F79  1  0.51129000  0.17114400  0.86309900  1
