# generated using pymatgen
data_Ba2B2AsH3F18
_symmetry_space_group_name_H-M   'P 1'
_cell_length_a   7.01552040
_cell_length_b   7.01552040
_cell_length_c   17.89323300
_cell_angle_alpha   90.00000000
_cell_angle_beta   90.00000000
_cell_angle_gamma   120.00000375
_symmetry_Int_Tables_number   1
_chemical_formula_structural   Ba2B2AsH3F18
_chemical_formula_sum   'Ba4 B4 As2 H6 F36'
_cell_volume   762.67448218
_cell_formula_units_Z   2
loop_
 _symmetry_equiv_pos_site_id
 _symmetry_equiv_pos_as_xyz
  1  'x, y, z'
loop_
 _atom_site_type_symbol
 _atom_site_label
 _atom_site_symmetry_multiplicity
 _atom_site_fract_x
 _atom_site_fract_y
 _atom_site_fract_z
 _atom_site_occupancy
  Ba  Ba0  1  0.66666700  0.33333300  0.37673200  1
  Ba  Ba1  1  0.33333300  0.66666700  0.62326800  1
  Ba  Ba2  1  0.33333300  0.66666700  0.87673200  1
  Ba  Ba3  1  0.66666700  0.33333300  0.12326800  1
  B  B4  1  0.66666700  0.33333300  0.60896000  1
  B  B5  1  0.33333300  0.66666700  0.39104000  1
  B  B6  1  0.33333300  0.66666700  0.10896000  1
  B  B7  1  0.66666700  0.33333300  0.89104000  1
  As  As8  1  0.00000000  0.00000000  0.50000000  1
  As  As9  1  0.00000000  0.00000000  0.00000000  1
  H  H10  1  0.88877900  0.11122100  0.25000000  1
  H  H11  1  0.88877900  0.77755800  0.25000000  1
  H  H12  1  0.22244200  0.11122100  0.25000000  1
  H  H13  1  0.11122100  0.88877900  0.75000000  1
  H  H14  1  0.11122100  0.22244200  0.75000000  1
  H  H15  1  0.77755800  0.88877900  0.75000000  1
  F  F16  1  0.80518400  0.19481600  0.25000000  1
  F  F17  1  0.80518400  0.61036700  0.25000000  1
  F  F18  1  0.38963300  0.19481600  0.25000000  1
  F  F19  1  0.19481600  0.80518400  0.75000000  1
  F  F20  1  0.19481600  0.38963300  0.75000000  1
  F  F21  1  0.61036700  0.80518400  0.75000000  1
  F  F22  1  0.44329800  0.88659600  0.36503800  1
  F  F23  1  0.11340400  0.55670200  0.36503800  1
  F  F24  1  0.44329800  0.55670200  0.36503800  1
  F  F25  1  0.55670200  0.11340400  0.63496200  1
  F  F26  1  0.88659600  0.44329800  0.63496200  1
  F  F27  1  0.55670200  0.44329800  0.63496200  1
  F  F28  1  0.55670200  0.11340400  0.86503800  1
  F  F29  1  0.88659600  0.44329800  0.86503800  1
  F  F30  1  0.55670200  0.44329800  0.86503800  1
  F  F31  1  0.44329800  0.88659600  0.13496200  1
  F  F32  1  0.11340400  0.55670200  0.13496200  1
  F  F33  1  0.44329800  0.55670200  0.13496200  1
  F  F34  1  0.76243100  0.88121500  0.55730400  1
  F  F35  1  0.11878500  0.88121500  0.55730400  1
  F  F36  1  0.11878500  0.23756900  0.55730400  1
  F  F37  1  0.23756900  0.11878500  0.44269600  1
  F  F38  1  0.88121500  0.11878500  0.44269600  1
  F  F39  1  0.88121500  0.76243100  0.44269600  1
  F  F40  1  0.23756900  0.11878500  0.05730400  1
  F  F41  1  0.88121500  0.11878500  0.05730400  1
  F  F42  1  0.88121500  0.76243100  0.05730400  1
  F  F43  1  0.76243100  0.88121500  0.94269600  1
  F  F44  1  0.11878500  0.88121500  0.94269600  1
  F  F45  1  0.11878500  0.23756900  0.94269600  1
  F  F46  1  0.00000000  0.00000000  0.75000000  1
  F  F47  1  0.00000000  0.00000000  0.25000000  1
  F  F48  1  0.66666700  0.33333300  0.52931000  1
  F  F49  1  0.33333300  0.66666700  0.47069000  1
  F  F50  1  0.33333300  0.66666700  0.02931000  1
  F  F51  1  0.66666700  0.33333300  0.97069000  1
