# generated using pymatgen
data_Ni4Mo
_symmetry_space_group_name_H-M   'P 1'
_cell_length_a   4.41871378
_cell_length_b   4.41871378
_cell_length_c   4.41871443
_cell_angle_alpha   99.31593881
_cell_angle_beta   99.31595582
_cell_angle_gamma   132.55074878
_symmetry_Int_Tables_number   1
_chemical_formula_structural   Ni4Mo
_chemical_formula_sum   'Ni4 Mo1'
_cell_volume   58.18610195
_cell_formula_units_Z   1
loop_
 _symmetry_equiv_pos_site_id
 _symmetry_equiv_pos_as_xyz
  1  'x, y, z'
loop_
 _atom_site_type_symbol
 _atom_site_label
 _atom_site_symmetry_multiplicity
 _atom_site_fract_x
 _atom_site_fract_y
 _atom_site_fract_z
 _atom_site_occupancy
  Ni  Ni0  1  0.59933800  0.80159000  0.40092700  1
  Ni  Ni1  1  0.40066200  0.19841000  0.59907300  1
  Ni  Ni2  1  0.19841000  0.59933800  0.79774800  1
  Ni  Ni3  1  0.80159000  0.40066200  0.20225200  1
  Mo  Mo4  1  0.00000000  0.00000000  0.00000000  1
