# generated using pymatgen
data_La2TeO6
_symmetry_space_group_name_H-M   'P 1'
_cell_length_a   5.55507300
_cell_length_b   9.54755000
_cell_length_c   10.48410000
_cell_angle_alpha   90.00000000
_cell_angle_beta   90.00000000
_cell_angle_gamma   90.00000000
_symmetry_Int_Tables_number   1
_chemical_formula_structural   La2TeO6
_chemical_formula_sum   'La8 Te4 O24'
_cell_volume   556.04874716
_cell_formula_units_Z   4
loop_
 _symmetry_equiv_pos_site_id
 _symmetry_equiv_pos_as_xyz
  1  'x, y, z'
loop_
 _atom_site_type_symbol
 _atom_site_label
 _atom_site_symmetry_multiplicity
 _atom_site_fract_x
 _atom_site_fract_y
 _atom_site_fract_z
 _atom_site_occupancy
  La  La0  1  0.52436300  0.10433400  0.95571400  1
  La  La1  1  0.02436300  0.39566600  0.04428600  1
  La  La2  1  0.47563700  0.60433400  0.54428600  1
  La  La3  1  0.97563700  0.89566600  0.45571400  1
  La  La4  1  0.52957500  0.21737200  0.35900200  1
  La  La5  1  0.02957500  0.28262800  0.64099800  1
  La  La6  1  0.47042500  0.71737200  0.14099800  1
  La  La7  1  0.97042500  0.78262800  0.85900200  1
  Te  Te8  1  0.46058400  0.99597800  0.64079600  1
  Te  Te9  1  0.96058400  0.50402200  0.35920400  1
  Te  Te10  1  0.53941600  0.49597800  0.85920400  1
  Te  Te11  1  0.03941600  0.00402200  0.14079600  1
  O  O12  1  0.30066700  0.13744800  0.17517400  1
  O  O13  1  0.80066700  0.36255200  0.82482600  1
  O  O14  1  0.69933300  0.63744800  0.32482600  1
  O  O15  1  0.19933300  0.86255200  0.67517400  1
  O  O16  1  0.71914400  0.11221000  0.56421700  1
  O  O17  1  0.21914400  0.38779000  0.43578300  1
  O  O18  1  0.28085600  0.61221000  0.93578300  1
  O  O19  1  0.78085600  0.88779000  0.06421700  1
  O  O20  1  0.67788200  0.63530900  0.74673700  1
  O  O21  1  0.17788200  0.86469100  0.25326300  1
  O  O22  1  0.32211800  0.13530900  0.75326300  1
  O  O23  1  0.82211800  0.36469100  0.24673700  1
  O  O24  1  0.66856400  0.94768200  0.78226900  1
  O  O25  1  0.16856400  0.55231800  0.21773100  1
  O  O26  1  0.33143600  0.44768200  0.71773100  1
  O  O27  1  0.83143600  0.05231800  0.28226900  1
  O  O28  1  0.25505400  0.08411600  0.50806800  1
  O  O29  1  0.75505400  0.41588400  0.49193200  1
  O  O30  1  0.74494600  0.58411600  0.99193200  1
  O  O31  1  0.24494600  0.91588400  0.00806800  1
  O  O32  1  0.07374500  0.64855600  0.47679600  1
  O  O33  1  0.57374500  0.85144400  0.52320400  1
  O  O34  1  0.92625500  0.14855600  0.02320400  1
  O  O35  1  0.42625500  0.35144400  0.97679600  1
