# generated using pymatgen
data_Li2BeH4
_symmetry_space_group_name_H-M   'P 1'
_cell_length_a   6.99734581
_cell_length_b   8.23705000
_cell_length_c   8.29081105
_cell_angle_alpha   90.00000000
_cell_angle_beta   93.64408268
_cell_angle_gamma   90.00000000
_symmetry_Int_Tables_number   1
_chemical_formula_structural   Li2BeH4
_chemical_formula_sum   'Li16 Be8 H32'
_cell_volume   476.89533923
_cell_formula_units_Z   8
loop_
 _symmetry_equiv_pos_site_id
 _symmetry_equiv_pos_as_xyz
  1  'x, y, z'
loop_
 _atom_site_type_symbol
 _atom_site_label
 _atom_site_symmetry_multiplicity
 _atom_site_fract_x
 _atom_site_fract_y
 _atom_site_fract_z
 _atom_site_occupancy
  Li  Li0  1  0.68607400  0.42355500  0.94200000  1
  Li  Li1  1  0.31392600  0.92355500  0.55800000  1
  Li  Li2  1  0.31392600  0.57644500  0.05800000  1
  Li  Li3  1  0.68607400  0.07644500  0.44200000  1
  Li  Li4  1  0.12020300  0.28552200  0.91913400  1
  Li  Li5  1  0.87979700  0.78552200  0.58086600  1
  Li  Li6  1  0.87979700  0.71447800  0.08086600  1
  Li  Li7  1  0.12020300  0.21447800  0.41913400  1
  Li  Li8  1  0.83769800  0.41518300  0.59148100  1
  Li  Li9  1  0.16230200  0.91518300  0.90851900  1
  Li  Li10  1  0.16230200  0.58481700  0.40851900  1
  Li  Li11  1  0.83769800  0.08481700  0.09148100  1
  Li  Li12  1  0.41561900  0.57070100  0.70830400  1
  Li  Li13  1  0.58438100  0.07070100  0.79169600  1
  Li  Li14  1  0.58438100  0.42929900  0.29169600  1
  Li  Li15  1  0.41561900  0.92929900  0.20830400  1
  Be  Be16  1  0.96434500  0.43127700  0.19778600  1
  Be  Be17  1  0.03565500  0.93127700  0.30221400  1
  Be  Be18  1  0.03565500  0.56872300  0.80221400  1
  Be  Be19  1  0.96434500  0.06872300  0.69778600  1
  Be  Be20  1  0.48342000  0.29408800  0.56446300  1
  Be  Be21  1  0.51658000  0.79408800  0.93553700  1
  Be  Be22  1  0.51658000  0.70591200  0.43553700  1
  Be  Be23  1  0.48342000  0.20591200  0.06446300  1
  H  H24  1  0.21827800  0.49940400  0.85064100  1
  H  H25  1  0.78172200  0.99940400  0.64935900  1
  H  H26  1  0.78172200  0.50059600  0.14935900  1
  H  H27  1  0.21827800  0.00059700  0.35064100  1
  H  H28  1  0.97270600  0.40689400  0.37073200  1
  H  H29  1  0.02729400  0.90689400  0.12926800  1
  H  H30  1  0.02729400  0.59310600  0.62926800  1
  H  H31  1  0.97270600  0.09310600  0.87073200  1
  H  H32  1  0.64686300  0.29777500  0.46816200  1
  H  H33  1  0.35313700  0.79777500  0.03183800  1
  H  H34  1  0.35313700  0.70222500  0.53183800  1
  H  H35  1  0.64686300  0.20222500  0.96816200  1
  H  H36  1  0.44602000  0.37516800  0.09132100  1
  H  H37  1  0.55398000  0.87516800  0.40867900  1
  H  H38  1  0.55398000  0.62483200  0.90867900  1
  H  H39  1  0.44602000  0.12483200  0.59132100  1
  H  H40  1  0.00177000  0.28373000  0.11676100  1
  H  H41  1  0.99823000  0.78373000  0.38323900  1
  H  H42  1  0.99823000  0.71627000  0.88323900  1
  H  H43  1  0.00177000  0.21627000  0.61676100  1
  H  H44  1  0.54477500  0.37115700  0.71355800  1
  H  H45  1  0.45522500  0.87115700  0.78644200  1
  H  H46  1  0.45522500  0.62884300  0.28644200  1
  H  H47  1  0.54477500  0.12884300  0.21355800  1
  H  H48  1  0.90095900  0.44266400  0.82624800  1
  H  H49  1  0.09904100  0.94266400  0.67375200  1
  H  H50  1  0.09904100  0.55733600  0.17375200  1
  H  H51  1  0.90095900  0.05733600  0.32624800  1
  H  H52  1  0.32698400  0.37330000  0.47842200  1
  H  H53  1  0.67301600  0.87330000  0.02157800  1
  H  H54  1  0.67301600  0.62670000  0.52157800  1
  H  H55  1  0.32698400  0.12670000  0.97842200  1
