# generated using pymatgen
data_Pr5P12Ru19
_symmetry_space_group_name_H-M   'P 1'
_cell_length_a   12.66519199
_cell_length_b   12.66519199
_cell_length_c   4.02631300
_cell_angle_alpha   90.00000000
_cell_angle_beta   90.00000000
_cell_angle_gamma   119.99999993
_symmetry_Int_Tables_number   1
_chemical_formula_structural   Pr5P12Ru19
_chemical_formula_sum   'Pr5 P12 Ru19'
_cell_volume   559.32176604
_cell_formula_units_Z   1
loop_
 _symmetry_equiv_pos_site_id
 _symmetry_equiv_pos_as_xyz
  1  'x, y, z'
loop_
 _atom_site_type_symbol
 _atom_site_label
 _atom_site_symmetry_multiplicity
 _atom_site_fract_x
 _atom_site_fract_y
 _atom_site_fract_z
 _atom_site_occupancy
  Pr  Pr0  1  0.81588600  0.00000000  0.50000000  1
  Pr  Pr1  1  0.00000000  0.81588600  0.50000000  1
  Pr  Pr2  1  0.18411400  0.18411400  0.50000000  1
  Pr  Pr3  1  0.33333300  0.66666700  0.00000000  1
  Pr  Pr4  1  0.66666700  0.33333300  0.00000000  1
  P  P5  1  0.18777800  0.00000000  0.00000000  1
  P  P6  1  0.00000000  0.18777800  0.00000000  1
  P  P7  1  0.81222200  0.81222200  0.00000000  1
  P  P8  1  0.52382200  0.69424800  0.50000000  1
  P  P9  1  0.30575200  0.82957400  0.50000000  1
  P  P10  1  0.17042600  0.47617800  0.50000000  1
  P  P11  1  0.47617800  0.17042600  0.50000000  1
  P  P12  1  0.69424800  0.52382200  0.50000000  1
  P  P13  1  0.82957400  0.30575200  0.50000000  1
  P  P14  1  0.62486500  0.00000000  0.00000000  1
  P  P15  1  0.00000000  0.62486500  0.00000000  1
  P  P16  1  0.37513500  0.37513500  0.00000000  1
  Ru  Ru17  1  0.44530400  0.00000000  0.00000000  1
  Ru  Ru18  1  0.00000000  0.44530400  0.00000000  1
  Ru  Ru19  1  0.55469600  0.55469600  0.00000000  1
  Ru  Ru20  1  0.28522100  0.00000000  0.50000000  1
  Ru  Ru21  1  0.00000000  0.28522100  0.50000000  1
  Ru  Ru22  1  0.71477900  0.71477900  0.50000000  1
  Ru  Ru23  1  0.62154000  0.80599000  0.00000000  1
  Ru  Ru24  1  0.19401000  0.81555000  0.00000000  1
  Ru  Ru25  1  0.18445000  0.37846000  0.00000000  1
  Ru  Ru26  1  0.37846000  0.18445000  0.00000000  1
  Ru  Ru27  1  0.80599000  0.62154000  0.00000000  1
  Ru  Ru28  1  0.81555000  0.19401000  0.00000000  1
  Ru  Ru29  1  0.50920000  0.87555900  0.50000000  1
  Ru  Ru30  1  0.12444100  0.63364100  0.50000000  1
  Ru  Ru31  1  0.36635900  0.49080000  0.50000000  1
  Ru  Ru32  1  0.49080000  0.36635900  0.50000000  1
  Ru  Ru33  1  0.87555900  0.50920000  0.50000000  1
  Ru  Ru34  1  0.63364100  0.12444100  0.50000000  1
  Ru  Ru35  1  0.00000000  0.00000000  0.00000000  1
