# generated using pymatgen
data_Pu2TcB6
_symmetry_space_group_name_H-M   'P 1'
_cell_length_a   3.61635100
_cell_length_b   9.25577200
_cell_length_c   11.33936700
_cell_angle_alpha   90.00000000
_cell_angle_beta   90.00000000
_cell_angle_gamma   90.00000000
_symmetry_Int_Tables_number   1
_chemical_formula_structural   Pu2TcB6
_chemical_formula_sum   'Pu8 Tc4 B24'
_cell_volume   379.55265667
_cell_formula_units_Z   4
loop_
 _symmetry_equiv_pos_site_id
 _symmetry_equiv_pos_as_xyz
  1  'x, y, z'
loop_
 _atom_site_type_symbol
 _atom_site_label
 _atom_site_symmetry_multiplicity
 _atom_site_fract_x
 _atom_site_fract_y
 _atom_site_fract_z
 _atom_site_occupancy
  Pu  Pu0  1  0.00000000  0.33571100  0.40831600  1
  Pu  Pu1  1  0.00000000  0.66428900  0.59168400  1
  Pu  Pu2  1  0.00000000  0.83571100  0.09168400  1
  Pu  Pu3  1  0.00000000  0.16428900  0.90831600  1
  Pu  Pu4  1  0.00000000  0.95401400  0.39025000  1
  Pu  Pu5  1  0.00000000  0.04598600  0.60975000  1
  Pu  Pu6  1  0.00000000  0.45401400  0.10975000  1
  Pu  Pu7  1  0.00000000  0.54598600  0.89025000  1
  Tc  Tc8  1  0.00000000  0.64387300  0.32085800  1
  Tc  Tc9  1  0.00000000  0.35612700  0.67914200  1
  Tc  Tc10  1  0.00000000  0.14387300  0.17914200  1
  Tc  Tc11  1  0.00000000  0.85612700  0.82085800  1
  B  B12  1  0.50000000  0.55078400  0.43348700  1
  B  B13  1  0.50000000  0.44921600  0.56651300  1
  B  B14  1  0.50000000  0.05078400  0.06651300  1
  B  B15  1  0.50000000  0.94921600  0.93348700  1
  B  B16  1  0.50000000  0.74368800  0.42389600  1
  B  B17  1  0.50000000  0.25631200  0.57610400  1
  B  B18  1  0.50000000  0.24368800  0.07610400  1
  B  B19  1  0.50000000  0.75631200  0.92389600  1
  B  B20  1  0.50000000  0.80270200  0.27115300  1
  B  B21  1  0.50000000  0.19729800  0.72884700  1
  B  B22  1  0.50000000  0.30270200  0.22884700  1
  B  B23  1  0.50000000  0.69729800  0.77115300  1
  B  B24  1  0.50000000  0.64355500  0.18764800  1
  B  B25  1  0.50000000  0.35644500  0.81235200  1
  B  B26  1  0.50000000  0.14355500  0.31235200  1
  B  B27  1  0.50000000  0.85644500  0.68764800  1
  B  B28  1  0.50000000  0.98552800  0.21708400  1
  B  B29  1  0.50000000  0.01447200  0.78291600  1
  B  B30  1  0.50000000  0.48552800  0.28291600  1
  B  B31  1  0.50000000  0.51447200  0.71708400  1
  B  B32  1  0.50000000  0.64218400  0.03950600  1
  B  B33  1  0.50000000  0.35781600  0.96049400  1
  B  B34  1  0.50000000  0.14218400  0.46049400  1
  B  B35  1  0.50000000  0.85781600  0.53950600  1
