# generated using pymatgen
data_ScAlFe
_symmetry_space_group_name_H-M   'P 1'
_cell_length_a   5.12293962
_cell_length_b   5.20775335
_cell_length_c   8.36926200
_cell_angle_alpha   90.00000000
_cell_angle_beta   90.00000000
_cell_angle_gamma   120.55063236
_symmetry_Int_Tables_number   1
_chemical_formula_structural   ScAlFe
_chemical_formula_sum   'Sc4 Al4 Fe4'
_cell_volume   192.28743245
_cell_formula_units_Z   4
loop_
 _symmetry_equiv_pos_site_id
 _symmetry_equiv_pos_as_xyz
  1  'x, y, z'
loop_
 _atom_site_type_symbol
 _atom_site_label
 _atom_site_symmetry_multiplicity
 _atom_site_fract_x
 _atom_site_fract_y
 _atom_site_fract_z
 _atom_site_occupancy
  Sc  Sc0  1  0.66597300  0.33297200  0.55177300  1
  Sc  Sc1  1  0.34009600  0.67005800  0.42432300  1
  Sc  Sc2  1  0.34009600  0.67005800  0.07567700  1
  Sc  Sc3  1  0.66597300  0.33297200  0.94822700  1
  Al  Al4  1  0.98519600  0.99258900  0.48574100  1
  Al  Al5  1  0.98519600  0.99258900  0.01425900  1
  Al  Al6  1  0.17704400  0.34225900  0.75000000  1
  Al  Al7  1  0.17702500  0.83477400  0.75000000  1
  Fe  Fe8  1  0.66686900  0.83343600  0.75000000  1
  Fe  Fe9  1  0.82456200  0.64308700  0.25000000  1
  Fe  Fe10  1  0.82457500  0.18149800  0.25000000  1
  Fe  Fe11  1  0.34739300  0.17370800  0.25000000  1
