# generated using pymatgen
data_TmHfF7
_symmetry_space_group_name_H-M   'P 1'
_cell_length_a   5.62748700
_cell_length_b   6.00640254
_cell_length_c   8.18004769
_cell_angle_alpha   102.22151792
_cell_angle_beta   90.00000000
_cell_angle_gamma   90.00000000
_symmetry_Int_Tables_number   1
_chemical_formula_structural   TmHfF7
_chemical_formula_sum   'Tm2 Hf2 F14'
_cell_volume   270.22708215
_cell_formula_units_Z   2
loop_
 _symmetry_equiv_pos_site_id
 _symmetry_equiv_pos_as_xyz
  1  'x, y, z'
loop_
 _atom_site_type_symbol
 _atom_site_label
 _atom_site_symmetry_multiplicity
 _atom_site_fract_x
 _atom_site_fract_y
 _atom_site_fract_z
 _atom_site_occupancy
  Tm  Tm0  1  0.69787400  0.65476600  0.68389100  1
  Tm  Tm1  1  0.19787400  0.34523400  0.31610900  1
  Hf  Hf2  1  0.70812500  0.81173600  0.22382100  1
  Hf  Hf3  1  0.20812500  0.18826400  0.77617900  1
  F  F4  1  0.88895700  0.45312900  0.47749900  1
  F  F5  1  0.38895700  0.54687100  0.52250100  1
  F  F6  1  0.42764200  0.92269800  0.76662900  1
  F  F7  1  0.92764200  0.07730200  0.23337100  1
  F  F8  1  0.94334100  0.95886400  0.76032700  1
  F  F9  1  0.44334100  0.04113600  0.23967300  1
  F  F10  1  0.99370400  0.45697000  0.78691000  1
  F  F11  1  0.49370400  0.54303000  0.21309000  1
  F  F12  1  0.70285800  0.75518800  0.97482700  1
  F  F13  1  0.20285800  0.24481200  0.02517300  1
  F  F14  1  0.71015900  0.86084900  0.47453800  1
  F  F15  1  0.21015900  0.13915100  0.52546200  1
  F  F16  1  0.50370000  0.38024800  0.78124000  1
  F  F17  1  0.00370000  0.61975200  0.21876000  1
