# generated using pymatgen
data_PrGa6
_symmetry_space_group_name_H-M   'P 1'
_cell_length_a   6.09878500
_cell_length_b   6.09878500
_cell_length_c   7.68721900
_cell_angle_alpha   90.00000000
_cell_angle_beta   90.00000000
_cell_angle_gamma   90.00000000
_symmetry_Int_Tables_number   1
_chemical_formula_structural   PrGa6
_chemical_formula_sum   'Pr2 Ga12'
_cell_volume   285.92748269
_cell_formula_units_Z   2
loop_
 _symmetry_equiv_pos_site_id
 _symmetry_equiv_pos_as_xyz
  1  'x, y, z'
loop_
 _atom_site_type_symbol
 _atom_site_label
 _atom_site_symmetry_multiplicity
 _atom_site_fract_x
 _atom_site_fract_y
 _atom_site_fract_z
 _atom_site_occupancy
  Pr  Pr0  1  0.50000000  0.00000000  0.00000000  1
  Pr  Pr1  1  0.00000000  0.50000000  0.00000000  1
  Ga  Ga2  1  0.50000000  0.50000000  0.16273500  1
  Ga  Ga3  1  0.00000000  0.00000000  0.16273500  1
  Ga  Ga4  1  0.00000000  0.00000000  0.83726500  1
  Ga  Ga5  1  0.50000000  0.50000000  0.83726500  1
  Ga  Ga6  1  0.80275400  0.69724600  0.34877000  1
  Ga  Ga7  1  0.30275400  0.80275400  0.34877000  1
  Ga  Ga8  1  0.69724600  0.19724600  0.34877000  1
  Ga  Ga9  1  0.19724600  0.30275400  0.34877000  1
  Ga  Ga10  1  0.69724600  0.80275400  0.65123000  1
  Ga  Ga11  1  0.19724600  0.69724600  0.65123000  1
  Ga  Ga12  1  0.80275400  0.30275400  0.65123000  1
  Ga  Ga13  1  0.30275400  0.19724600  0.65123000  1
