# generated using pymatgen
data_K(V3S4)2
_symmetry_space_group_name_H-M   'P 1'
_cell_length_a   3.26194700
_cell_length_b   9.20392519
_cell_length_c   9.19626018
_cell_angle_alpha   60.03069834
_cell_angle_beta   90.00351066
_cell_angle_gamma   90.00262913
_symmetry_Int_Tables_number   1
_chemical_formula_structural   K(V3S4)2
_chemical_formula_sum   'K1 V6 S8'
_cell_volume   239.18069396
_cell_formula_units_Z   1
loop_
 _symmetry_equiv_pos_site_id
 _symmetry_equiv_pos_as_xyz
  1  'x, y, z'
loop_
 _atom_site_type_symbol
 _atom_site_label
 _atom_site_symmetry_multiplicity
 _atom_site_fract_x
 _atom_site_fract_y
 _atom_site_fract_z
 _atom_site_occupancy
  K  K0  1  0.50000000  0.00000000  0.00000000  1
  V  V1  1  0.74871000  0.37527900  0.50922300  1
  V  V2  1  0.74875200  0.11560700  0.37503200  1
  V  V3  1  0.74867600  0.50928900  0.11550900  1
  V  V4  1  0.25129000  0.62472100  0.49077700  1
  V  V5  1  0.25124800  0.88439300  0.62496800  1
  V  V6  1  0.25132400  0.49071100  0.88449100  1
  S  S7  1  0.75079400  0.66665800  0.66667600  1
  S  S8  1  0.24920600  0.33334200  0.33332400  1
  S  S9  1  0.75327000  0.05048600  0.65305100  1
  S  S10  1  0.75331200  0.29663600  0.05035700  1
  S  S11  1  0.75329000  0.65284600  0.29656100  1
  S  S12  1  0.24673000  0.94951400  0.34694900  1
  S  S13  1  0.24668800  0.70336400  0.94964300  1
  S  S14  1  0.24671000  0.34715400  0.70343900  1
