# generated using pymatgen
data_Sr5Cr3O12F
_symmetry_space_group_name_H-M   'P 1'
_cell_length_a   10.09373531
_cell_length_b   10.09373531
_cell_length_c   7.50367900
_cell_angle_alpha   90.00000000
_cell_angle_beta   90.00000000
_cell_angle_gamma   119.99999549
_symmetry_Int_Tables_number   1
_chemical_formula_structural   Sr5Cr3O12F
_chemical_formula_sum   'Sr10 Cr6 O24 F2'
_cell_volume   662.07733759
_cell_formula_units_Z   2
loop_
 _symmetry_equiv_pos_site_id
 _symmetry_equiv_pos_as_xyz
  1  'x, y, z'
loop_
 _atom_site_type_symbol
 _atom_site_label
 _atom_site_symmetry_multiplicity
 _atom_site_fract_x
 _atom_site_fract_y
 _atom_site_fract_z
 _atom_site_occupancy
  Sr  Sr0  1  0.99374700  0.24236900  0.25000000  1
  Sr  Sr1  1  0.75763100  0.75137800  0.25000000  1
  Sr  Sr2  1  0.75137800  0.99374700  0.75000000  1
  Sr  Sr3  1  0.00625300  0.75763100  0.75000000  1
  Sr  Sr4  1  0.24236900  0.24862200  0.75000000  1
  Sr  Sr5  1  0.24862200  0.00625300  0.25000000  1
  Sr  Sr6  1  0.33333300  0.66666700  0.50003100  1
  Sr  Sr7  1  0.66666700  0.33333300  0.00003100  1
  Sr  Sr8  1  0.66666700  0.33333300  0.49996900  1
  Sr  Sr9  1  0.33333300  0.66666700  0.99996900  1
  Cr  Cr10  1  0.63049300  0.60106500  0.75000000  1
  Cr  Cr11  1  0.02942700  0.63049300  0.25000000  1
  Cr  Cr12  1  0.60106500  0.97057300  0.25000000  1
  Cr  Cr13  1  0.39893500  0.02942700  0.75000000  1
  Cr  Cr14  1  0.97057300  0.36950700  0.75000000  1
  Cr  Cr15  1  0.36950700  0.39893500  0.25000000  1
  O  O16  1  0.52146400  0.68924100  0.75000000  1
  O  O17  1  0.59702400  0.12909700  0.75000000  1
  O  O18  1  0.25255800  0.34298800  0.43433800  1
  O  O19  1  0.90957000  0.25255800  0.93433800  1
  O  O20  1  0.34298800  0.09043000  0.93433800  1
  O  O21  1  0.65701200  0.90957000  0.43433800  1
  O  O22  1  0.09043000  0.74744200  0.43433800  1
  O  O23  1  0.74744200  0.65701200  0.93433800  1
  O  O24  1  0.74744200  0.65701200  0.56566200  1
  O  O25  1  0.09043000  0.74744200  0.06566200  1
  O  O26  1  0.65701200  0.90957000  0.06566200  1
  O  O27  1  0.34298800  0.09043000  0.56566200  1
  O  O28  1  0.87090300  0.46792700  0.75000000  1
  O  O29  1  0.25255800  0.34298800  0.06566200  1
  O  O30  1  0.53207300  0.40297600  0.75000000  1
  O  O31  1  0.12909700  0.53207300  0.25000000  1
  O  O32  1  0.47853600  0.31075900  0.25000000  1
  O  O33  1  0.16777600  0.47853600  0.75000000  1
  O  O34  1  0.31075900  0.83222400  0.75000000  1
  O  O35  1  0.68924100  0.16777600  0.25000000  1
  O  O36  1  0.83222400  0.52146400  0.25000000  1
  O  O37  1  0.40297600  0.87090300  0.25000000  1
  O  O38  1  0.46792700  0.59702400  0.25000000  1
  O  O39  1  0.90957000  0.25255800  0.56566200  1
  F  F40  1  0.00000000  0.00000000  0.25000000  1
  F  F41  1  0.00000000  0.00000000  0.75000000  1
