# generated using pymatgen
data_La(Ni2B)6
_symmetry_space_group_name_H-M   'P 1'
_cell_length_a   6.06220565
_cell_length_b   6.06220565
_cell_length_c   11.06203300
_cell_angle_alpha   90.00000000
_cell_angle_beta   90.00000000
_cell_angle_gamma   104.73658232
_symmetry_Int_Tables_number   1
_chemical_formula_structural   La(Ni2B)6
_chemical_formula_sum   'La2 Ni24 B12'
_cell_volume   393.16074467
_cell_formula_units_Z   2
loop_
 _symmetry_equiv_pos_site_id
 _symmetry_equiv_pos_as_xyz
  1  'x, y, z'
loop_
 _atom_site_type_symbol
 _atom_site_label
 _atom_site_symmetry_multiplicity
 _atom_site_fract_x
 _atom_site_fract_y
 _atom_site_fract_z
 _atom_site_occupancy
  La  La0  1  0.33272900  0.33272900  0.49962700  1
  La  La1  1  0.66727100  0.66727100  0.99962700  1
  Ni  Ni2  1  0.35305900  0.61932000  0.74333600  1
  Ni  Ni3  1  0.38068000  0.64694100  0.24333600  1
  Ni  Ni4  1  0.84412900  0.22579500  0.93243900  1
  Ni  Ni5  1  0.15587100  0.77420500  0.43243900  1
  Ni  Ni6  1  0.77420500  0.15587100  0.43243900  1
  Ni  Ni7  1  0.61932000  0.35305900  0.74333600  1
  Ni  Ni8  1  0.87003500  0.50557400  0.56247800  1
  Ni  Ni9  1  0.12996500  0.49442600  0.06247800  1
  Ni  Ni10  1  0.49442600  0.12996500  0.06247800  1
  Ni  Ni11  1  0.50557400  0.87003500  0.56247800  1
  Ni  Ni12  1  0.02486400  0.28964500  0.72486900  1
  Ni  Ni13  1  0.97513600  0.71035500  0.22486900  1
  Ni  Ni14  1  0.71035500  0.97513600  0.22486900  1
  Ni  Ni15  1  0.28964500  0.02486400  0.72486900  1
  Ni  Ni16  1  0.30546800  0.04005700  0.26483700  1
  Ni  Ni17  1  0.69453200  0.95994300  0.76483700  1
  Ni  Ni18  1  0.95994300  0.69453200  0.76483700  1
  Ni  Ni19  1  0.04005700  0.30546800  0.26483700  1
  Ni  Ni20  1  0.27712100  0.27712100  0.89956100  1
  Ni  Ni21  1  0.72287900  0.72287900  0.39956100  1
  Ni  Ni22  1  0.92964800  0.92964800  0.58407700  1
  Ni  Ni23  1  0.07035200  0.07035200  0.08407700  1
  Ni  Ni24  1  0.22579500  0.84412900  0.93243900  1
  Ni  Ni25  1  0.64694100  0.38068000  0.24333600  1
  B  B26  1  0.48609000  0.89699300  0.37789800  1
  B  B27  1  0.51391000  0.10300700  0.87789800  1
  B  B28  1  0.25078700  0.82422800  0.11371300  1
  B  B29  1  0.74921300  0.17577200  0.61371300  1
  B  B30  1  0.17577200  0.74921300  0.61371300  1
  B  B31  1  0.82422800  0.25078700  0.11371300  1
  B  B32  1  0.01384800  0.01384800  0.83816600  1
  B  B33  1  0.98615200  0.98615200  0.33816600  1
  B  B34  1  0.33570200  0.33570200  0.16742700  1
  B  B35  1  0.66429800  0.66429800  0.66742700  1
  B  B36  1  0.10300700  0.51391000  0.87789800  1
  B  B37  1  0.89699300  0.48609000  0.37789800  1
