# generated using pymatgen
data_Y3Te3N
_symmetry_space_group_name_H-M   'P 1'
_cell_length_a   12.01104100
_cell_length_b   8.13842500
_cell_length_c   8.69583537
_cell_angle_alpha   71.17294650
_cell_angle_beta   90.00000000
_cell_angle_gamma   90.00000000
_symmetry_Int_Tables_number   1
_chemical_formula_structural   Y3Te3N
_chemical_formula_sum   'Y12 Te12 N4'
_cell_volume   804.54726182
_cell_formula_units_Z   4
loop_
 _symmetry_equiv_pos_site_id
 _symmetry_equiv_pos_as_xyz
  1  'x, y, z'
loop_
 _atom_site_type_symbol
 _atom_site_label
 _atom_site_symmetry_multiplicity
 _atom_site_fract_x
 _atom_site_fract_y
 _atom_site_fract_z
 _atom_site_occupancy
  Y  Y0  1  0.02357100  0.60288600  0.13726600  1
  Y  Y1  1  0.52357100  0.39711400  0.36273400  1
  Y  Y2  1  0.97642900  0.39711400  0.86273400  1
  Y  Y3  1  0.47642900  0.60288600  0.63726600  1
  Y  Y4  1  0.41214800  0.83924000  0.20427300  1
  Y  Y5  1  0.91214800  0.16076000  0.29572700  1
  Y  Y6  1  0.58785200  0.16076000  0.79572700  1
  Y  Y7  1  0.08785200  0.83924000  0.70427300  1
  Y  Y8  1  0.70976700  0.76597800  0.34644400  1
  Y  Y9  1  0.20976700  0.23402200  0.15355600  1
  Y  Y10  1  0.29023300  0.23402200  0.65355600  1
  Y  Y11  1  0.79023300  0.76597800  0.84644400  1
  Te  Te12  1  0.97926400  0.77682500  0.41262800  1
  Te  Te13  1  0.47926400  0.22317500  0.08737200  1
  Te  Te14  1  0.02073600  0.22317500  0.58737200  1
  Te  Te15  1  0.52073600  0.77682500  0.91262800  1
  Te  Te16  1  0.26608800  0.50862800  0.31269500  1
  Te  Te17  1  0.76608800  0.49137200  0.18730500  1
  Te  Te18  1  0.73391200  0.49137200  0.68730500  1
  Te  Te19  1  0.23391200  0.50862800  0.81269500  1
  Te  Te20  1  0.30731300  0.95446100  0.48183300  1
  Te  Te21  1  0.80731300  0.04553900  0.01816700  1
  Te  Te22  1  0.69268700  0.04553900  0.51816700  1
  Te  Te23  1  0.19268700  0.95446100  0.98183300  1
  N  N24  1  0.53501200  0.67276200  0.37627800  1
  N  N25  1  0.03501200  0.32723800  0.12372200  1
  N  N26  1  0.46498800  0.32723800  0.62372200  1
  N  N27  1  0.96498800  0.67276200  0.87627800  1
