# generated using pymatgen
data_BH(PbO2)2
_symmetry_space_group_name_H-M   'P 1'
_cell_length_a   7.21102563
_cell_length_b   7.21102563
_cell_length_c   7.63110394
_cell_angle_alpha   65.84757341
_cell_angle_beta   65.84757341
_cell_angle_gamma   47.87034636
_symmetry_Int_Tables_number   1
_chemical_formula_structural   BH(PbO2)2
_chemical_formula_sum   'B2 H2 Pb4 O8'
_cell_volume   263.15038137
_cell_formula_units_Z   2
loop_
 _symmetry_equiv_pos_site_id
 _symmetry_equiv_pos_as_xyz
  1  'x, y, z'
loop_
 _atom_site_type_symbol
 _atom_site_label
 _atom_site_symmetry_multiplicity
 _atom_site_fract_x
 _atom_site_fract_y
 _atom_site_fract_z
 _atom_site_occupancy
  B  B0  1  0.32956700  0.32956700  0.66165600  1
  B  B1  1  0.67043300  0.67043300  0.33834400  1
  H  H2  1  0.45426500  0.45426500  0.39083900  1
  H  H3  1  0.54573500  0.54573500  0.60916100  1
  Pb  Pb4  1  0.05939900  0.05939900  0.73916000  1
  Pb  Pb5  1  0.94060100  0.94060100  0.26084000  1
  Pb  Pb6  1  0.65186900  0.65186900  0.93727100  1
  Pb  Pb7  1  0.34813100  0.34813100  0.06272900  1
  O  O8  1  0.40960000  0.40960000  0.73180300  1
  O  O9  1  0.59040000  0.59040000  0.26819700  1
  O  O10  1  0.36804200  0.36804200  0.45655300  1
  O  O11  1  0.63195800  0.63195800  0.54344700  1
  O  O12  1  0.21559800  0.21559800  0.78722600  1
  O  O13  1  0.78440200  0.78440200  0.21277400  1
  O  O14  1  0.74713400  0.25286600  0.00000000  1
  O  O15  1  0.25286600  0.74713400  0.00000000  1
