# generated using pymatgen
data_YbSm3S4
_symmetry_space_group_name_H-M   'P 1'
_cell_length_a   13.35272283
_cell_length_b   13.35272283
_cell_length_c   13.35272258
_cell_angle_alpha   17.18903267
_cell_angle_beta   17.18903267
_cell_angle_gamma   17.18902927
_symmetry_Int_Tables_number   1
_chemical_formula_structural   YbSm3S4
_chemical_formula_sum   'Yb1 Sm3 S4'
_cell_volume   181.41523700
_cell_formula_units_Z   1
loop_
 _symmetry_equiv_pos_site_id
 _symmetry_equiv_pos_as_xyz
  1  'x, y, z'
loop_
 _atom_site_type_symbol
 _atom_site_label
 _atom_site_symmetry_multiplicity
 _atom_site_fract_x
 _atom_site_fract_y
 _atom_site_fract_z
 _atom_site_occupancy
  Yb  Yb0  1  0.00000000  0.00000000  0.00000000  1
  Sm  Sm1  1  0.24920600  0.24920600  0.24920600  1
  Sm  Sm2  1  0.50000000  0.50000000  0.50000000  1
  Sm  Sm3  1  0.75079400  0.75079400  0.75079400  1
  S  S4  1  0.37398100  0.37398100  0.37398100  1
  S  S5  1  0.12475200  0.12475200  0.12475200  1
  S  S6  1  0.62601900  0.62601900  0.62601900  1
  S  S7  1  0.87524800  0.87524800  0.87524800  1
