# generated using pymatgen
data_ErAlGeO5
_symmetry_space_group_name_H-M   'P 1'
_cell_length_a   5.65234000
_cell_length_b   7.28069300
_cell_length_c   8.38339400
_cell_angle_alpha   90.00000000
_cell_angle_beta   90.00000000
_cell_angle_gamma   90.00000000
_symmetry_Int_Tables_number   1
_chemical_formula_structural   ErAlGeO5
_chemical_formula_sum   'Er4 Al4 Ge4 O20'
_cell_volume   345.00141316
_cell_formula_units_Z   4
loop_
 _symmetry_equiv_pos_site_id
 _symmetry_equiv_pos_as_xyz
  1  'x, y, z'
loop_
 _atom_site_type_symbol
 _atom_site_label
 _atom_site_symmetry_multiplicity
 _atom_site_fract_x
 _atom_site_fract_y
 _atom_site_fract_z
 _atom_site_occupancy
  Er  Er0  1  0.50000000  0.35721700  0.32629700  1
  Er  Er1  1  0.50000000  0.64278300  0.67370300  1
  Er  Er2  1  0.50000000  0.14278300  0.82629700  1
  Er  Er3  1  0.50000000  0.85721700  0.17370300  1
  Al  Al4  1  0.25174800  0.00000000  0.50000000  1
  Al  Al5  1  0.74825200  0.00000000  0.50000000  1
  Al  Al6  1  0.74825200  0.50000000  0.00000000  1
  Al  Al7  1  0.25174800  0.50000000  0.00000000  1
  Ge  Ge8  1  0.00000000  0.12054800  0.14458700  1
  Ge  Ge9  1  0.00000000  0.87945200  0.85541300  1
  Ge  Ge10  1  0.00000000  0.37945200  0.64458700  1
  Ge  Ge11  1  0.00000000  0.62054800  0.35541300  1
  O  O12  1  0.24906000  0.10702300  0.28739200  1
  O  O13  1  0.75094000  0.89297700  0.71260800  1
  O  O14  1  0.24906000  0.89297700  0.71260800  1
  O  O15  1  0.75094000  0.39297700  0.78739200  1
  O  O16  1  0.75094000  0.10702300  0.28739200  1
  O  O17  1  0.24906000  0.60702300  0.21260800  1
  O  O18  1  0.75094000  0.60702300  0.21260800  1
  O  O19  1  0.24906000  0.39297700  0.78739200  1
  O  O20  1  0.50000000  0.33777500  0.05491400  1
  O  O21  1  0.50000000  0.66222500  0.94508600  1
  O  O22  1  0.50000000  0.16222500  0.55491400  1
  O  O23  1  0.50000000  0.83777500  0.44508600  1
  O  O24  1  0.21671800  0.00000000  0.00000000  1
  O  O25  1  0.78328200  0.00000000  0.00000000  1
  O  O26  1  0.78328200  0.50000000  0.50000000  1
  O  O27  1  0.21671800  0.50000000  0.50000000  1
  O  O28  1  0.00000000  0.34693000  0.06805600  1
  O  O29  1  0.00000000  0.65307000  0.93194400  1
  O  O30  1  0.00000000  0.15307000  0.56805600  1
  O  O31  1  0.00000000  0.84693000  0.43194400  1
