# generated using pymatgen
data_La2Cu(SeO3)4
_symmetry_space_group_name_H-M   'P 1'
_cell_length_a   7.21315000
_cell_length_b   8.46058100
_cell_length_c   10.89703203
_cell_angle_alpha   69.63773090
_cell_angle_beta   90.00000000
_cell_angle_gamma   90.00000000
_symmetry_Int_Tables_number   1
_chemical_formula_structural   La2Cu(SeO3)4
_chemical_formula_sum   'La4 Cu2 Se8 O24'
_cell_volume   623.46187890
_cell_formula_units_Z   2
loop_
 _symmetry_equiv_pos_site_id
 _symmetry_equiv_pos_as_xyz
  1  'x, y, z'
loop_
 _atom_site_type_symbol
 _atom_site_label
 _atom_site_symmetry_multiplicity
 _atom_site_fract_x
 _atom_site_fract_y
 _atom_site_fract_z
 _atom_site_occupancy
  La  La0  1  0.66624500  0.23991400  0.41378500  1
  La  La1  1  0.16624500  0.26008600  0.58621500  1
  La  La2  1  0.33375500  0.76008600  0.58621500  1
  La  La3  1  0.83375500  0.73991400  0.41378500  1
  Cu  Cu4  1  0.50000000  0.50000000  0.00000000  1
  Cu  Cu5  1  0.00000000  0.00000000  0.00000000  1
  Se  Se6  1  0.82128000  0.86767700  0.68382800  1
  Se  Se7  1  0.32128000  0.63232300  0.31617200  1
  Se  Se8  1  0.67524900  0.13031800  0.12779200  1
  Se  Se9  1  0.17524900  0.36968200  0.87220800  1
  Se  Se10  1  0.32475100  0.86968200  0.87220800  1
  Se  Se11  1  0.82475100  0.63031800  0.12779200  1
  Se  Se12  1  0.17872000  0.13232300  0.31617200  1
  Se  Se13  1  0.67872000  0.36767700  0.68382800  1
  O  O14  1  0.34321000  0.09053500  0.44282500  1
  O  O15  1  0.84321000  0.40946500  0.55717500  1
  O  O16  1  0.65679000  0.90946500  0.55717500  1
  O  O17  1  0.15679000  0.59053500  0.44282500  1
  O  O18  1  0.11438700  0.92803200  0.34595300  1
  O  O19  1  0.61438700  0.57196800  0.65404700  1
  O  O20  1  0.88561300  0.07196800  0.65404700  1
  O  O21  1  0.38561300  0.42803200  0.34595300  1
  O  O22  1  0.01058200  0.21904900  0.38767000  1
  O  O23  1  0.51058200  0.28095100  0.61233000  1
  O  O24  1  0.98941800  0.78095100  0.61233000  1
  O  O25  1  0.48941800  0.71904900  0.38767000  1
  O  O26  1  0.71875200  0.03368800  0.29277300  1
  O  O27  1  0.21875200  0.46631200  0.70722700  1
  O  O28  1  0.60755200  0.67415400  0.05572300  1
  O  O29  1  0.10755200  0.82584600  0.94427700  1
  O  O30  1  0.39244800  0.32584600  0.94427700  1
  O  O31  1  0.89244800  0.17415400  0.05572300  1
  O  O32  1  0.87084600  0.82688400  0.14342700  1
  O  O33  1  0.37084600  0.67311600  0.85657300  1
  O  O34  1  0.12915400  0.17311600  0.85657300  1
  O  O35  1  0.62915400  0.32688400  0.14342700  1
  O  O36  1  0.78124800  0.53368800  0.29277300  1
  O  O37  1  0.28124800  0.96631200  0.70722700  1
