# generated using pymatgen
data_Ho2Pt
_symmetry_space_group_name_H-M   'P 1'
_cell_length_a   4.75389300
_cell_length_b   7.16272300
_cell_length_c   8.74232900
_cell_angle_alpha   90.00000000
_cell_angle_beta   90.00000000
_cell_angle_gamma   90.00000000
_symmetry_Int_Tables_number   1
_chemical_formula_structural   Ho2Pt
_chemical_formula_sum   'Ho8 Pt4'
_cell_volume   297.68346006
_cell_formula_units_Z   4
loop_
 _symmetry_equiv_pos_site_id
 _symmetry_equiv_pos_as_xyz
  1  'x, y, z'
loop_
 _atom_site_type_symbol
 _atom_site_label
 _atom_site_symmetry_multiplicity
 _atom_site_fract_x
 _atom_site_fract_y
 _atom_site_fract_z
 _atom_site_occupancy
  Ho  Ho0  1  0.25000000  0.85593100  0.92004600  1
  Ho  Ho1  1  0.25000000  0.35593100  0.57995400  1
  Ho  Ho2  1  0.75000000  0.14406900  0.07995400  1
  Ho  Ho3  1  0.75000000  0.64406900  0.42004600  1
  Ho  Ho4  1  0.25000000  0.98925200  0.33217600  1
  Ho  Ho5  1  0.25000000  0.48925200  0.16782400  1
  Ho  Ho6  1  0.75000000  0.01074800  0.66782400  1
  Ho  Ho7  1  0.75000000  0.51074800  0.83217600  1
  Pt  Pt8  1  0.25000000  0.25717900  0.90763100  1
  Pt  Pt9  1  0.25000000  0.75717900  0.59236900  1
  Pt  Pt10  1  0.75000000  0.74282100  0.09236900  1
  Pt  Pt11  1  0.75000000  0.24282100  0.40763100  1
