# generated using pymatgen
data_Fe2Pb(SeO3)4
_symmetry_space_group_name_H-M   'P 1'
_cell_length_a   6.98344994
_cell_length_b   9.42603443
_cell_length_c   9.36252741
_cell_angle_alpha   68.70663282
_cell_angle_beta   95.72885490
_cell_angle_gamma   90.00711531
_symmetry_Int_Tables_number   1
_chemical_formula_structural   Fe2Pb(SeO3)4
_chemical_formula_sum   'Fe4 Pb2 Se8 O24'
_cell_volume   570.92523097
_cell_formula_units_Z   2
loop_
 _symmetry_equiv_pos_site_id
 _symmetry_equiv_pos_as_xyz
  1  'x, y, z'
loop_
 _atom_site_type_symbol
 _atom_site_label
 _atom_site_symmetry_multiplicity
 _atom_site_fract_x
 _atom_site_fract_y
 _atom_site_fract_z
 _atom_site_occupancy
  Fe  Fe0  1  0.00023400  0.75042100  0.75195600  1
  Fe  Fe1  1  0.50017100  0.75017500  0.24830000  1
  Fe  Fe2  1  0.00023800  0.25042200  0.25198700  1
  Fe  Fe3  1  0.50019100  0.25016200  0.74829100  1
  Pb  Pb4  1  0.00734000  0.53222400  0.48163000  1
  Pb  Pb5  1  0.00734600  0.03225800  0.98161300  1
  Se  Se6  1  0.55429800  0.12741500  0.13260100  1
  Se  Se7  1  0.55430300  0.62740800  0.63261800  1
  Se  Se8  1  0.44646900  0.87266400  0.86771700  1
  Se  Se9  1  0.44646700  0.37266000  0.36771900  1
  Se  Se10  1  0.80024700  0.09810100  0.57857700  1
  Se  Se11  1  0.80025600  0.59809900  0.07859300  1
  Se  Se12  1  0.19864400  0.90316300  0.41979700  1
  Se  Se13  1  0.19863200  0.40316400  0.91978800  1
  O  O14  1  0.71633300  0.72218900  0.71172200  1
  O  O15  1  0.71632700  0.22219300  0.21172300  1
  O  O16  1  0.28442500  0.27732100  0.28843600  1
  O  O17  1  0.28440500  0.77729100  0.78857900  1
  O  O18  1  0.98829300  0.18429100  0.47884300  1
  O  O19  1  0.98828700  0.68428900  0.97884900  1
  O  O20  1  0.01244500  0.81148000  0.52059000  1
  O  O21  1  0.01244200  0.31148100  0.02059200  1
  O  O22  1  0.65497600  0.62426600  0.46802600  1
  O  O23  1  0.65497300  0.12427300  0.96801600  1
  O  O24  1  0.34774400  0.37600700  0.53208800  1
  O  O25  1  0.34774800  0.87601000  0.03208200  1
  O  O26  1  0.92847200  0.96385200  0.74167500  1
  O  O27  1  0.92857300  0.46388500  0.24168900  1
  O  O28  1  0.07130200  0.03529900  0.25679500  1
  O  O29  1  0.07125500  0.53534800  0.75672700  1
  O  O30  1  0.59188100  0.94396200  0.26587900  1
  O  O31  1  0.59188100  0.44395000  0.76588000  1
  O  O32  1  0.40221300  0.05638200  0.73597700  1
  O  O33  1  0.40221000  0.55637600  0.23597200  1
  O  O34  1  0.74983900  0.23320000  0.65771200  1
  O  O35  1  0.74984500  0.73320300  0.15771800  1
  O  O36  1  0.25054800  0.76215600  0.34752500  1
  O  O37  1  0.25054700  0.26215700  0.84751600  1
