# generated using pymatgen
data_Na2Nb2(P2O7)3
_symmetry_space_group_name_H-M   'P 1'
_cell_length_a   9.22194900
_cell_length_b   9.22194916
_cell_length_c   12.82054900
_cell_angle_alpha   90.00000000
_cell_angle_beta   90.00000000
_cell_angle_gamma   120.00000302
_symmetry_Int_Tables_number   1
_chemical_formula_structural   Na2Nb2(P2O7)3
_chemical_formula_sum   'Na4 Nb4 P12 O42'
_cell_volume   944.24062381
_cell_formula_units_Z   2
loop_
 _symmetry_equiv_pos_site_id
 _symmetry_equiv_pos_as_xyz
  1  'x, y, z'
loop_
 _atom_site_type_symbol
 _atom_site_label
 _atom_site_symmetry_multiplicity
 _atom_site_fract_x
 _atom_site_fract_y
 _atom_site_fract_z
 _atom_site_occupancy
  Na  Na0  1  0.00000000  0.00000000  0.50000000  1
  Na  Na1  1  0.00000000  0.00000000  0.00000000  1
  Na  Na2  1  0.00000000  0.00000000  0.75000000  1
  Na  Na3  1  0.00000000  0.00000000  0.25000000  1
  Nb  Nb4  1  0.66666700  0.33333300  0.52559200  1
  Nb  Nb5  1  0.33333300  0.66666700  0.02559200  1
  Nb  Nb6  1  0.33333300  0.66666700  0.47440800  1
  Nb  Nb7  1  0.66666700  0.33333300  0.97440800  1
  P  P8  1  0.33912300  0.97790600  0.63466900  1
  P  P9  1  0.02209400  0.36121800  0.63466900  1
  P  P10  1  0.63878200  0.66087700  0.63466900  1
  P  P11  1  0.66087700  0.02209400  0.13466900  1
  P  P12  1  0.97790600  0.63878200  0.13466900  1
  P  P13  1  0.36121800  0.33912300  0.13466900  1
  P  P14  1  0.66087700  0.02209400  0.36533100  1
  P  P15  1  0.97790600  0.63878200  0.36533100  1
  P  P16  1  0.36121800  0.33912300  0.36533100  1
  P  P17  1  0.33912300  0.97790600  0.86533100  1
  P  P18  1  0.02209400  0.36121800  0.86533100  1
  P  P19  1  0.63878200  0.66087700  0.86533100  1
  O  O20  1  0.38052100  0.93772800  0.75000000  1
  O  O21  1  0.06227200  0.44279400  0.75000000  1
  O  O22  1  0.55720600  0.61947900  0.75000000  1
  O  O23  1  0.61947900  0.06227200  0.25000000  1
  O  O24  1  0.93772800  0.55720600  0.25000000  1
  O  O25  1  0.44279400  0.38052100  0.25000000  1
  O  O26  1  0.48434200  0.16031900  0.61265000  1
  O  O27  1  0.83968100  0.32402300  0.61265000  1
  O  O28  1  0.67597700  0.51565800  0.61265000  1
  O  O29  1  0.51565800  0.83968100  0.11265000  1
  O  O30  1  0.16031900  0.67597700  0.11265000  1
  O  O31  1  0.32402300  0.48434200  0.11265000  1
  O  O32  1  0.51565800  0.83968100  0.38735000  1
  O  O33  1  0.16031900  0.67597700  0.38735000  1
  O  O34  1  0.32402300  0.48434200  0.38735000  1
  O  O35  1  0.48434200  0.16031900  0.88735000  1
  O  O36  1  0.83968100  0.32402300  0.88735000  1
  O  O37  1  0.67597700  0.51565800  0.88735000  1
  O  O38  1  0.36852000  0.85695300  0.56602800  1
  O  O39  1  0.14304700  0.51156700  0.56602800  1
  O  O40  1  0.48843300  0.63148000  0.56602800  1
  O  O41  1  0.63148000  0.14304700  0.06602800  1
  O  O42  1  0.85695300  0.48843300  0.06602800  1
  O  O43  1  0.51156700  0.36852000  0.06602800  1
  O  O44  1  0.63148000  0.14304700  0.43397200  1
  O  O45  1  0.85695300  0.48843300  0.43397200  1
  O  O46  1  0.51156700  0.36852000  0.43397200  1
  O  O47  1  0.36852000  0.85695300  0.93397200  1
  O  O48  1  0.14304700  0.51156700  0.93397200  1
  O  O49  1  0.48843300  0.63148000  0.93397200  1
  O  O50  1  0.16982900  0.95759500  0.62639200  1
  O  O51  1  0.04240500  0.21223300  0.62639200  1
  O  O52  1  0.78776700  0.83017100  0.62639200  1
  O  O53  1  0.83017100  0.04240500  0.12639200  1
  O  O54  1  0.95759500  0.78776700  0.12639200  1
  O  O55  1  0.21223300  0.16982900  0.12639200  1
  O  O56  1  0.83017100  0.04240500  0.37360800  1
  O  O57  1  0.95759500  0.78776700  0.37360800  1
  O  O58  1  0.21223300  0.16982900  0.37360800  1
  O  O59  1  0.16982900  0.95759500  0.87360800  1
  O  O60  1  0.04240500  0.21223300  0.87360800  1
  O  O61  1  0.78776700  0.83017100  0.87360800  1
