# generated using pymatgen
data_Ba2As2O7
_symmetry_space_group_name_H-M   'P 1'
_cell_length_a   7.56537900
_cell_length_b   7.57054652
_cell_length_c   13.60371030
_cell_angle_alpha   93.12404390
_cell_angle_beta   96.67965376
_cell_angle_gamma   89.65971440
_symmetry_Int_Tables_number   1
_chemical_formula_structural   Ba2As2O7
_chemical_formula_sum   'Ba8 As8 O28'
_cell_volume   772.70075590
_cell_formula_units_Z   4
loop_
 _symmetry_equiv_pos_site_id
 _symmetry_equiv_pos_as_xyz
  1  'x, y, z'
loop_
 _atom_site_type_symbol
 _atom_site_label
 _atom_site_symmetry_multiplicity
 _atom_site_fract_x
 _atom_site_fract_y
 _atom_site_fract_z
 _atom_site_occupancy
  Ba  Ba0  1  0.12045500  0.65394700  0.63789200  1
  Ba  Ba1  1  0.87954500  0.34605300  0.36210800  1
  Ba  Ba2  1  0.73175000  0.23544800  0.65135700  1
  Ba  Ba3  1  0.26825000  0.76455200  0.34864300  1
  Ba  Ba4  1  0.28858200  0.33324700  0.13807300  1
  Ba  Ba5  1  0.71141800  0.66675300  0.86192700  1
  Ba  Ba6  1  0.33252800  0.08708200  0.84366100  1
  Ba  Ba7  1  0.66747200  0.91291800  0.15633900  1
  As  As8  1  0.40223100  0.23415800  0.39509800  1
  As  As9  1  0.59776900  0.76584200  0.60490200  1
  As  As10  1  0.20132000  0.18616700  0.58972600  1
  As  As11  1  0.79868000  0.81383300  0.41027400  1
  As  As12  1  0.19918400  0.57655000  0.89192900  1
  As  As13  1  0.80081600  0.42345000  0.10807100  1
  As  As14  1  0.80693400  0.15650700  0.91350400  1
  As  As15  1  0.19306600  0.84349300  0.08649600  1
  O  O16  1  0.02217000  0.51807300  0.80709400  1
  O  O17  1  0.97783000  0.48192700  0.19290600  1
  O  O18  1  0.12875500  0.01048000  0.64658800  1
  O  O19  1  0.87124500  0.98952000  0.35341200  1
  O  O20  1  0.25901800  0.39647000  0.35336300  1
  O  O21  1  0.74098200  0.60353000  0.64663700  1
  O  O22  1  0.28486400  0.10053300  0.47611100  1
  O  O23  1  0.71513600  0.89946700  0.52388900  1
  O  O24  1  0.31966300  0.00259500  0.04292500  1
  O  O25  1  0.68033700  0.99740500  0.95707500  1
  O  O26  1  0.30251800  0.40489300  0.94909500  1
  O  O27  1  0.69748200  0.59510700  0.05090500  1
  O  O28  1  0.66696700  0.29522600  0.84557400  1
  O  O29  1  0.33303300  0.70477400  0.15442600  1
  O  O30  1  0.36352000  0.30216700  0.66270400  1
  O  O31  1  0.63648000  0.69783300  0.33729600  1
  O  O32  1  0.59607800  0.29996800  0.46072300  1
  O  O33  1  0.40392200  0.70003200  0.53927700  1
  O  O34  1  0.42173500  0.08316600  0.29896400  1
  O  O35  1  0.57826500  0.91683400  0.70103600  1
  O  O36  1  0.02526700  0.32038000  0.55333700  1
  O  O37  1  0.97473300  0.67962000  0.44666300  1
  O  O38  1  0.97031200  0.07167200  0.85025700  1
  O  O39  1  0.02968800  0.92832800  0.14974300  1
  O  O40  1  0.08525600  0.70873500  0.98126000  1
  O  O41  1  0.91474400  0.29126500  0.01874000  1
  O  O42  1  0.33722900  0.71222000  0.83832800  1
  O  O43  1  0.66277100  0.28778000  0.16167200  1
