# generated using pymatgen
data_HoVO4
_symmetry_space_group_name_H-M   'P 1'
_cell_length_a   5.98177269
_cell_length_b   5.98177269
_cell_length_c   5.98177269
_cell_angle_alpha   106.30846301
_cell_angle_beta   106.30846301
_cell_angle_gamma   116.00075865
_symmetry_Int_Tables_number   1
_chemical_formula_structural   HoVO4
_chemical_formula_sum   'Ho2 V2 O8'
_cell_volume   163.14335156
_cell_formula_units_Z   2
loop_
 _symmetry_equiv_pos_site_id
 _symmetry_equiv_pos_as_xyz
  1  'x, y, z'
loop_
 _atom_site_type_symbol
 _atom_site_label
 _atom_site_symmetry_multiplicity
 _atom_site_fract_x
 _atom_site_fract_y
 _atom_site_fract_z
 _atom_site_occupancy
  Ho  Ho0  1  0.25000000  0.75000000  0.50000000  1
  Ho  Ho1  1  0.00000000  0.00000000  0.00000000  1
  V  V2  1  0.50000000  0.50000000  0.00000000  1
  V  V3  1  0.75000000  0.25000000  0.50000000  1
  O  O4  1  0.86207300  0.67680300  0.18527000  1
  O  O5  1  0.92680300  0.61207300  0.68527000  1
  O  O6  1  0.92680300  0.24153200  0.31473000  1
  O  O7  1  0.49153200  0.67680300  0.81473000  1
  O  O8  1  0.38792700  0.07319700  0.31473000  1
  O  O9  1  0.32319700  0.13792700  0.81473000  1
  O  O10  1  0.32319700  0.50846800  0.18527000  1
  O  O11  1  0.75846800  0.07319700  0.68527000  1
