# generated using pymatgen
data_TaCu3Se3S
_symmetry_space_group_name_H-M   'P 1'
_cell_length_a   5.66651925
_cell_length_b   5.66651925
_cell_length_c   5.66651890
_cell_angle_alpha   89.39856536
_cell_angle_beta   89.39856536
_cell_angle_gamma   89.39855970
_symmetry_Int_Tables_number   1
_chemical_formula_structural   TaCu3Se3S
_chemical_formula_sum   'Ta1 Cu3 Se3 S1'
_cell_volume   181.91888742
_cell_formula_units_Z   1
loop_
 _symmetry_equiv_pos_site_id
 _symmetry_equiv_pos_as_xyz
  1  'x, y, z'
loop_
 _atom_site_type_symbol
 _atom_site_label
 _atom_site_symmetry_multiplicity
 _atom_site_fract_x
 _atom_site_fract_y
 _atom_site_fract_z
 _atom_site_occupancy
  Ta  Ta0  1  0.99953000  0.99953000  0.99953000  1
  Cu  Cu1  1  0.00630000  0.49764800  0.00630000  1
  Cu  Cu2  1  0.00630000  0.00630000  0.49764800  1
  Cu  Cu3  1  0.49764800  0.00630000  0.00630000  1
  Se  Se4  1  0.25581000  0.75034400  0.75034400  1
  Se  Se5  1  0.75034400  0.75034400  0.25581000  1
  Se  Se6  1  0.75034400  0.25581000  0.75034400  1
  S  S7  1  0.23372300  0.23372300  0.23372300  1
