# generated using pymatgen
data_CsSrBr3
_symmetry_space_group_name_H-M   'P 1'
_cell_length_a   8.25432300
_cell_length_b   8.61899600
_cell_length_c   11.87550000
_cell_angle_alpha   90.00000000
_cell_angle_beta   90.00000000
_cell_angle_gamma   90.00000000
_symmetry_Int_Tables_number   1
_chemical_formula_structural   CsSrBr3
_chemical_formula_sum   'Cs4 Sr4 Br12'
_cell_volume   844.87029791
_cell_formula_units_Z   4
loop_
 _symmetry_equiv_pos_site_id
 _symmetry_equiv_pos_as_xyz
  1  'x, y, z'
loop_
 _atom_site_type_symbol
 _atom_site_label
 _atom_site_symmetry_multiplicity
 _atom_site_fract_x
 _atom_site_fract_y
 _atom_site_fract_z
 _atom_site_occupancy
  Cs  Cs0  1  0.02000900  0.43697100  0.25000000  1
  Cs  Cs1  1  0.97999100  0.56302900  0.75000000  1
  Cs  Cs2  1  0.52000900  0.06302900  0.75000000  1
  Cs  Cs3  1  0.47999100  0.93697100  0.25000000  1
  Sr  Sr4  1  0.00000000  0.00000000  0.00000000  1
  Sr  Sr5  1  0.50000000  0.50000000  0.00000000  1
  Sr  Sr6  1  0.00000000  0.00000000  0.50000000  1
  Sr  Sr7  1  0.50000000  0.50000000  0.50000000  1
  Br  Br8  1  0.29715800  0.20737600  0.04314900  1
  Br  Br9  1  0.70284200  0.79262400  0.95685100  1
  Br  Br10  1  0.79715800  0.29262400  0.95685100  1
  Br  Br11  1  0.70284200  0.79262400  0.54314900  1
  Br  Br12  1  0.20284200  0.70737600  0.04314900  1
  Br  Br13  1  0.29715800  0.20737600  0.45685100  1
  Br  Br14  1  0.20284200  0.70737600  0.45685100  1
  Br  Br15  1  0.79715800  0.29262400  0.54314900  1
  Br  Br16  1  0.58429000  0.52306800  0.25000000  1
  Br  Br17  1  0.41571000  0.47693200  0.75000000  1
  Br  Br18  1  0.08429000  0.97693200  0.75000000  1
  Br  Br19  1  0.91571000  0.02306800  0.25000000  1
