# generated using pymatgen
data_CaNpH7O8
_symmetry_space_group_name_H-M   'P 1'
_cell_length_a   7.90837194
_cell_length_b   8.70319600
_cell_length_c   11.19540442
_cell_angle_alpha   90.00000000
_cell_angle_beta   105.35153150
_cell_angle_gamma   90.00000000
_symmetry_Int_Tables_number   1
_chemical_formula_structural   CaNpH7O8
_chemical_formula_sum   'Ca4 Np4 H28 O32'
_cell_volume   743.06478007
_cell_formula_units_Z   4
loop_
 _symmetry_equiv_pos_site_id
 _symmetry_equiv_pos_as_xyz
  1  'x, y, z'
loop_
 _atom_site_type_symbol
 _atom_site_label
 _atom_site_symmetry_multiplicity
 _atom_site_fract_x
 _atom_site_fract_y
 _atom_site_fract_z
 _atom_site_occupancy
  Ca  Ca0  1  0.10787200  0.39245800  0.37514900  1
  Ca  Ca1  1  0.60787200  0.10754200  0.87514900  1
  Ca  Ca2  1  0.89212800  0.60754200  0.62485100  1
  Ca  Ca3  1  0.39212800  0.89245800  0.12485100  1
  Np  Np4  1  0.75560400  0.13318500  0.26195800  1
  Np  Np5  1  0.25560400  0.36681500  0.76195800  1
  Np  Np6  1  0.24439600  0.86681500  0.73804200  1
  Np  Np7  1  0.74439600  0.63318500  0.23804200  1
  H  H8  1  0.94033600  0.86647400  0.39034600  1
  H  H9  1  0.44033600  0.63352600  0.89034600  1
  H  H10  1  0.05966400  0.13352600  0.60965400  1
  H  H11  1  0.55966400  0.36647400  0.10965400  1
  H  H12  1  0.35506500  0.14694300  0.53911800  1
  H  H13  1  0.85506500  0.35305700  0.03911800  1
  H  H14  1  0.64493500  0.85305700  0.46088200  1
  H  H15  1  0.14493500  0.64694300  0.96088200  1
  H  H16  1  0.39387000  0.13906000  0.40742900  1
  H  H17  1  0.89387000  0.36094000  0.90742900  1
  H  H18  1  0.60613000  0.86094000  0.59257100  1
  H  H19  1  0.10613000  0.63906000  0.09257100  1
  H  H20  1  0.29973700  0.65951600  0.51220700  1
  H  H21  1  0.79973700  0.84048400  0.01220700  1
  H  H22  1  0.70026300  0.34048400  0.48779300  1
  H  H23  1  0.20026300  0.15951600  0.98779300  1
  H  H24  1  0.41781900  0.62938600  0.41826700  1
  H  H25  1  0.91781900  0.87061400  0.91826700  1
  H  H26  1  0.58218100  0.37061400  0.58173300  1
  H  H27  1  0.08218100  0.12938600  0.08173300  1
  H  H28  1  0.22018000  0.36003000  0.14670300  1
  H  H29  1  0.72018000  0.13997000  0.64670300  1
  H  H30  1  0.77982000  0.63997000  0.85329700  1
  H  H31  1  0.27982000  0.86003000  0.35329700  1
  H  H32  1  0.40563500  0.39080700  0.23275600  1
  H  H33  1  0.90563500  0.10919300  0.73275600  1
  H  H34  1  0.59436500  0.60919300  0.76724400  1
  H  H35  1  0.09436500  0.89080700  0.26724400  1
  O  O36  1  0.86951900  0.21134900  0.42180200  1
  O  O37  1  0.36951900  0.28865100  0.92180200  1
  O  O38  1  0.13048100  0.78865100  0.57819800  1
  O  O39  1  0.63048100  0.71134900  0.07819800  1
  O  O40  1  0.95006700  0.20808600  0.21030200  1
  O  O41  1  0.45006700  0.29191400  0.71030200  1
  O  O42  1  0.04993300  0.79191400  0.78969800  1
  O  O43  1  0.54993300  0.70808600  0.28969800  1
  O  O44  1  0.63719500  0.06259800  0.09950500  1
  O  O45  1  0.13719500  0.43740200  0.59950500  1
  O  O46  1  0.36280500  0.93740200  0.90049500  1
  O  O47  1  0.86280500  0.56259800  0.40049500  1
  O  O48  1  0.56209800  0.05815900  0.31556000  1
  O  O49  1  0.06209800  0.44184100  0.81556000  1
  O  O50  1  0.43790200  0.94184100  0.68444000  1
  O  O51  1  0.93790200  0.55815900  0.18444000  1
  O  O52  1  0.88483500  0.87954000  0.30166900  1
  O  O53  1  0.38483500  0.62046000  0.80166900  1
  O  O54  1  0.11516500  0.12046000  0.69833100  1
  O  O55  1  0.61516500  0.37954000  0.19833100  1
  O  O56  1  0.32122800  0.18896000  0.45504200  1
  O  O57  1  0.82122800  0.31104000  0.95504200  1
  O  O58  1  0.67877200  0.81104000  0.54495800  1
  O  O59  1  0.17877200  0.68896000  0.04495800  1
  O  O60  1  0.31230200  0.59800300  0.44212000  1
  O  O61  1  0.81230200  0.90199700  0.94212000  1
  O  O62  1  0.68769800  0.40199700  0.55788000  1
  O  O63  1  0.18769800  0.09800300  0.05788000  1
  O  O64  1  0.27919400  0.39266900  0.23024100  1
  O  O65  1  0.77919400  0.10733100  0.73024100  1
  O  O66  1  0.72080600  0.60733100  0.76975900  1
  O  O67  1  0.22080600  0.89266900  0.26975900  1
