# generated using pymatgen
data_K2Hg3(GeSe4)2
_symmetry_space_group_name_H-M   'P 1'
_cell_length_a   6.84304868
_cell_length_b   6.84304868
_cell_length_c   20.46749200
_cell_angle_alpha   90.00000000
_cell_angle_beta   90.00000000
_cell_angle_gamma   97.00362762
_symmetry_Int_Tables_number   1
_chemical_formula_structural   K2Hg3(GeSe4)2
_chemical_formula_sum   'K4 Hg6 Ge4 Se16'
_cell_volume   951.28625445
_cell_formula_units_Z   2
loop_
 _symmetry_equiv_pos_site_id
 _symmetry_equiv_pos_as_xyz
  1  'x, y, z'
loop_
 _atom_site_type_symbol
 _atom_site_label
 _atom_site_symmetry_multiplicity
 _atom_site_fract_x
 _atom_site_fract_y
 _atom_site_fract_z
 _atom_site_occupancy
  K  K0  1  0.88238700  0.47244300  0.38211900  1
  K  K1  1  0.47244300  0.88238700  0.61788100  1
  K  K2  1  0.38238700  0.97244300  0.11788100  1
  K  K3  1  0.97244300  0.38238700  0.88211900  1
  Hg  Hg4  1  0.83252000  0.92494000  0.24467600  1
  Hg  Hg5  1  0.92494000  0.83252000  0.75532400  1
  Hg  Hg6  1  0.33252000  0.42494000  0.25532400  1
  Hg  Hg7  1  0.42494000  0.33252000  0.74467600  1
  Hg  Hg8  1  0.54002600  0.54002600  0.00000000  1
  Hg  Hg9  1  0.04002600  0.04002600  0.50000000  1
  Ge  Ge10  1  0.89614800  0.47411600  0.13556600  1
  Ge  Ge11  1  0.47411600  0.89614800  0.86443400  1
  Ge  Ge12  1  0.97411600  0.39614800  0.63556600  1
  Ge  Ge13  1  0.39614800  0.97411600  0.36443400  1
  Se  Se14  1  0.30415100  0.77164200  0.96310200  1
  Se  Se15  1  0.77164200  0.30415100  0.03689800  1
  Se  Se16  1  0.82980200  0.24407600  0.72965900  1
  Se  Se17  1  0.24407600  0.82980200  0.27034100  1
  Se  Se18  1  0.32980200  0.74407600  0.77034100  1
  Se  Se19  1  0.74407600  0.32980100  0.22965900  1
  Se  Se20  1  0.42830500  0.23891800  0.86825000  1
  Se  Se21  1  0.23891800  0.42830500  0.13175000  1
  Se  Se22  1  0.92830500  0.73891800  0.63175000  1
  Se  Se23  1  0.73891800  0.92830500  0.36825000  1
  Se  Se24  1  0.31472400  0.35033300  0.62341200  1
  Se  Se25  1  0.35033300  0.31472400  0.37658800  1
  Se  Se26  1  0.81472400  0.85033300  0.87658800  1
  Se  Se27  1  0.85033300  0.81472400  0.12341200  1
  Se  Se28  1  0.80415100  0.27164200  0.53689800  1
  Se  Se29  1  0.27164200  0.80415100  0.46310200  1
