# generated using pymatgen
data_Tm2(Ga3Rh)3
_symmetry_space_group_name_H-M   'P 1'
_cell_length_a   7.55676171
_cell_length_b   7.55676171
_cell_length_c   9.51082700
_cell_angle_alpha   90.00000000
_cell_angle_beta   90.00000000
_cell_angle_gamma   119.92793066
_symmetry_Int_Tables_number   1
_chemical_formula_structural   Tm2(Ga3Rh)3
_chemical_formula_sum   'Tm4 Ga18 Rh6'
_cell_volume   470.69035948
_cell_formula_units_Z   2
loop_
 _symmetry_equiv_pos_site_id
 _symmetry_equiv_pos_as_xyz
  1  'x, y, z'
loop_
 _atom_site_type_symbol
 _atom_site_label
 _atom_site_symmetry_multiplicity
 _atom_site_fract_x
 _atom_site_fract_y
 _atom_site_fract_z
 _atom_site_occupancy
  Tm  Tm0  1  0.99679700  0.66762700  0.25000000  1
  Tm  Tm1  1  0.00320300  0.33237300  0.75000000  1
  Tm  Tm2  1  0.66762700  0.99679700  0.25000000  1
  Tm  Tm3  1  0.33237300  0.00320300  0.75000000  1
  Ga  Ga4  1  0.12426600  0.12426600  0.25000000  1
  Ga  Ga5  1  0.87573400  0.87573400  0.75000000  1
  Ga  Ga6  1  0.99967200  0.33398900  0.07878300  1
  Ga  Ga7  1  0.00032800  0.66601100  0.92121700  1
  Ga  Ga8  1  0.00032800  0.66601100  0.57878300  1
  Ga  Ga9  1  0.33398900  0.99967200  0.42121700  1
  Ga  Ga10  1  0.99967200  0.33398900  0.42121700  1
  Ga  Ga11  1  0.66601100  0.00032800  0.57878300  1
  Ga  Ga12  1  0.66601100  0.00032800  0.92121700  1
  Ga  Ga13  1  0.33398900  0.99967200  0.07878300  1
  Ga  Ga14  1  0.33303500  0.33303500  0.56357400  1
  Ga  Ga15  1  0.66696500  0.66696500  0.43642600  1
  Ga  Ga16  1  0.66696500  0.66696500  0.06357400  1
  Ga  Ga17  1  0.33303500  0.33303500  0.93642600  1
  Ga  Ga18  1  0.33781300  0.54780400  0.25000000  1
  Ga  Ga19  1  0.66218700  0.45219600  0.75000000  1
  Ga  Ga20  1  0.54780400  0.33781300  0.25000000  1
  Ga  Ga21  1  0.45219600  0.66218700  0.75000000  1
  Rh  Rh22  1  0.67171100  0.32828900  0.00000000  1
  Rh  Rh23  1  0.32828900  0.67171100  0.00000000  1
  Rh  Rh24  1  0.32828900  0.67171100  0.50000000  1
  Rh  Rh25  1  0.67171100  0.32828900  0.50000000  1
  Rh  Rh26  1  0.00000000  0.00000000  0.00000000  1
  Rh  Rh27  1  0.00000000  0.00000000  0.50000000  1
