# generated using pymatgen
data_Pr2WO6
_symmetry_space_group_name_H-M   'P 1'
_cell_length_a   10.27050843
_cell_length_b   10.27050843
_cell_length_c   5.63896086
_cell_angle_alpha   75.61459322
_cell_angle_beta   75.61459322
_cell_angle_gamma   68.79779088
_symmetry_Int_Tables_number   1
_chemical_formula_structural   Pr2WO6
_chemical_formula_sum   'Pr8 W4 O24'
_cell_volume   528.81822035
_cell_formula_units_Z   4
loop_
 _symmetry_equiv_pos_site_id
 _symmetry_equiv_pos_as_xyz
  1  'x, y, z'
loop_
 _atom_site_type_symbol
 _atom_site_label
 _atom_site_symmetry_multiplicity
 _atom_site_fract_x
 _atom_site_fract_y
 _atom_site_fract_z
 _atom_site_occupancy
  Pr  Pr0  1  0.62937200  0.37062800  0.75000000  1
  Pr  Pr1  1  0.37062800  0.62937200  0.25000000  1
  Pr  Pr2  1  0.10875900  0.89124100  0.75000000  1
  Pr  Pr3  1  0.89124100  0.10875900  0.25000000  1
  Pr  Pr4  1  0.71083000  0.93982000  0.88628700  1
  Pr  Pr5  1  0.28917000  0.06018000  0.11371300  1
  Pr  Pr6  1  0.06018000  0.28917000  0.61371300  1
  Pr  Pr7  1  0.93982000  0.71083000  0.38628700  1
  W  W8  1  0.50387000  0.79983400  0.56027200  1
  W  W9  1  0.49613000  0.20016600  0.43972800  1
  W  W10  1  0.20016600  0.49613000  0.93972800  1
  W  W11  1  0.79983400  0.50387000  0.06027200  1
  O  O12  1  0.68008900  0.16367400  0.57793600  1
  O  O13  1  0.31991100  0.83632600  0.42206400  1
  O  O14  1  0.83632600  0.31991100  0.92206400  1
  O  O15  1  0.16367400  0.68008900  0.07793600  1
  O  O16  1  0.38506100  0.82544300  0.86785400  1
  O  O17  1  0.61493900  0.17455700  0.13214600  1
  O  O18  1  0.17455700  0.61493900  0.63214600  1
  O  O19  1  0.82544300  0.38506100  0.36785400  1
  O  O20  1  0.67553000  0.78690200  0.63632600  1
  O  O21  1  0.32447000  0.21309800  0.36367400  1
  O  O22  1  0.21309800  0.32447000  0.86367400  1
  O  O23  1  0.78690200  0.67553000  0.13632600  1
  O  O24  1  0.47274000  0.06806900  0.73246400  1
  O  O25  1  0.52726000  0.93193100  0.26753600  1
  O  O26  1  0.93193100  0.52726000  0.76753600  1
  O  O27  1  0.06806900  0.47274000  0.23246400  1
  O  O28  1  0.54615300  0.61498300  0.51874800  1
  O  O29  1  0.45384700  0.38501700  0.48125200  1
  O  O30  1  0.38501700  0.45384700  0.98125200  1
  O  O31  1  0.61498300  0.54615300  0.01874800  1
  O  O32  1  0.89366100  0.92191700  0.07853300  1
  O  O33  1  0.10633900  0.07808300  0.92146700  1
  O  O34  1  0.07808300  0.10633900  0.42146700  1
  O  O35  1  0.92191700  0.89366100  0.57853300  1
