# generated using pymatgen
data_RbYP2O7
_symmetry_space_group_name_H-M   'P 1'
_cell_length_a   11.10000800
_cell_length_b   7.87832100
_cell_length_c   8.82235364
_cell_angle_alpha   74.05365137
_cell_angle_beta   90.00000000
_cell_angle_gamma   90.00000000
_symmetry_Int_Tables_number   1
_chemical_formula_structural   RbYP2O7
_chemical_formula_sum   'Rb4 Y4 P8 O28'
_cell_volume   741.82158871
_cell_formula_units_Z   4
loop_
 _symmetry_equiv_pos_site_id
 _symmetry_equiv_pos_as_xyz
  1  'x, y, z'
loop_
 _atom_site_type_symbol
 _atom_site_label
 _atom_site_symmetry_multiplicity
 _atom_site_fract_x
 _atom_site_fract_y
 _atom_site_fract_z
 _atom_site_occupancy
  Rb  Rb0  1  0.67787300  0.18782100  0.93388100  1
  Rb  Rb1  1  0.17787300  0.81217900  0.56611900  1
  Rb  Rb2  1  0.32212700  0.81217900  0.06611900  1
  Rb  Rb3  1  0.82212700  0.18782100  0.43388100  1
  Y  Y4  1  0.40153700  0.23520800  0.24901400  1
  Y  Y5  1  0.90153700  0.76479200  0.25098600  1
  Y  Y6  1  0.59846300  0.76479200  0.75098600  1
  Y  Y7  1  0.09846300  0.23520800  0.74901400  1
  P  P8  1  0.39963500  0.12822900  0.68514200  1
  P  P9  1  0.89963500  0.87177100  0.81485800  1
  P  P10  1  0.60036500  0.87177100  0.31485800  1
  P  P11  1  0.10036500  0.12822900  0.18514200  1
  P  P12  1  0.13549400  0.43368600  0.31282600  1
  P  P13  1  0.63549400  0.56631400  0.18717400  1
  P  P14  1  0.86450600  0.56631400  0.68717400  1
  P  P15  1  0.36450600  0.43368600  0.81282600  1
  O  O16  1  0.26924900  0.44778900  0.26808300  1
  O  O17  1  0.76924900  0.55221100  0.23191700  1
  O  O18  1  0.73075100  0.55221100  0.73191700  1
  O  O19  1  0.23075100  0.44778900  0.76808300  1
  O  O20  1  0.00355600  0.00510300  0.28130700  1
  O  O21  1  0.50355600  0.99489700  0.21869300  1
  O  O22  1  0.99644400  0.99489700  0.71869300  1
  O  O23  1  0.49644400  0.00510300  0.78130700  1
  O  O24  1  0.11000900  0.33153100  0.48347700  1
  O  O25  1  0.61000900  0.66846900  0.01652300  1
  O  O26  1  0.88999100  0.66846900  0.51652300  1
  O  O27  1  0.38999100  0.33153100  0.98347700  1
  O  O28  1  0.09295000  0.14308900  0.01027500  1
  O  O29  1  0.59295000  0.85691100  0.48972500  1
  O  O30  1  0.90705000  0.85691100  0.98972500  1
  O  O31  1  0.40705000  0.14308900  0.51027500  1
  O  O32  1  0.06867200  0.32385500  0.20345800  1
  O  O33  1  0.56867200  0.67614500  0.29654200  1
  O  O34  1  0.93132800  0.67614500  0.79654200  1
  O  O35  1  0.43132800  0.32385500  0.70345800  1
  O  O36  1  0.27318300  0.07565600  0.75333700  1
  O  O37  1  0.77318300  0.92434400  0.74666300  1
  O  O38  1  0.72681700  0.92434400  0.24666300  1
  O  O39  1  0.22681700  0.07565600  0.25333700  1
  O  O40  1  0.42421600  0.61550700  0.76465300  1
  O  O41  1  0.92421600  0.38449300  0.73534700  1
  O  O42  1  0.57578400  0.38449300  0.23534700  1
  O  O43  1  0.07578400  0.61550700  0.26465300  1
