# generated using pymatgen
data_Co3O4
_symmetry_space_group_name_H-M   'P 1'
_cell_length_a   5.87882555
_cell_length_b   5.93953598
_cell_length_c   5.87694845
_cell_angle_alpha   60.13080010
_cell_angle_beta   59.43785377
_cell_angle_gamma   60.12127288
_symmetry_Int_Tables_number   1
_chemical_formula_structural   Co3O4
_chemical_formula_sum   'Co6 O8'
_cell_volume   144.75003821
_cell_formula_units_Z   2
loop_
 _symmetry_equiv_pos_site_id
 _symmetry_equiv_pos_as_xyz
  1  'x, y, z'
loop_
 _atom_site_type_symbol
 _atom_site_label
 _atom_site_symmetry_multiplicity
 _atom_site_fract_x
 _atom_site_fract_y
 _atom_site_fract_z
 _atom_site_occupancy
  Co  Co0  1  0.62500000  0.62500000  0.62500000  1
  Co  Co1  1  0.62500000  0.62500000  0.12500000  1
  Co  Co2  1  0.12500000  0.62500000  0.62500000  1
  Co  Co3  1  0.25408300  0.24150000  0.25416800  1
  Co  Co4  1  0.99591700  0.00850100  0.99583100  1
  Co  Co5  1  0.62500000  0.12500000  0.62500000  1
  O  O6  1  0.38942300  0.84475800  0.38997000  1
  O  O7  1  0.40349800  0.87856100  0.85712500  1
  O  O8  1  0.39242900  0.37148100  0.84658900  1
  O  O9  1  0.84650200  0.37143800  0.39287400  1
  O  O10  1  0.39154600  0.37292800  0.39149000  1
  O  O11  1  0.85757100  0.87852000  0.40341100  1
  O  O12  1  0.86057700  0.40524300  0.86003000  1
  O  O13  1  0.85845400  0.87707200  0.85851000  1
