# generated using pymatgen
data_La7Pd3
_symmetry_space_group_name_H-M   'P 1'
_cell_length_a   10.38851980
_cell_length_b   10.38851980
_cell_length_c   6.63058600
_cell_angle_alpha   90.00000000
_cell_angle_beta   90.00000000
_cell_angle_gamma   119.99999874
_symmetry_Int_Tables_number   1
_chemical_formula_structural   La7Pd3
_chemical_formula_sum   'La14 Pd6'
_cell_volume   619.71198234
_cell_formula_units_Z   2
loop_
 _symmetry_equiv_pos_site_id
 _symmetry_equiv_pos_as_xyz
  1  'x, y, z'
loop_
 _atom_site_type_symbol
 _atom_site_label
 _atom_site_symmetry_multiplicity
 _atom_site_fract_x
 _atom_site_fract_y
 _atom_site_fract_z
 _atom_site_occupancy
  La  La0  1  0.33333300  0.66666700  0.45802700  1
  La  La1  1  0.66666700  0.33333300  0.95802700  1
  La  La2  1  0.12566900  0.87433100  0.24907300  1
  La  La3  1  0.74866200  0.87433100  0.24907300  1
  La  La4  1  0.12566900  0.25133800  0.24907300  1
  La  La5  1  0.87433100  0.12566900  0.74907300  1
  La  La6  1  0.25133800  0.12566900  0.74907300  1
  La  La7  1  0.87433100  0.74866200  0.74907300  1
  La  La8  1  0.53838700  0.46161300  0.43898600  1
  La  La9  1  0.92322600  0.46161300  0.43898600  1
  La  La10  1  0.53838700  0.07677400  0.43898600  1
  La  La11  1  0.46161300  0.53838700  0.93898600  1
  La  La12  1  0.07677400  0.53838700  0.93898600  1
  La  La13  1  0.46161300  0.92322600  0.93898600  1
  Pd  Pd14  1  0.81214700  0.18785300  0.19023000  1
  Pd  Pd15  1  0.37570500  0.18785300  0.19023000  1
  Pd  Pd16  1  0.81214700  0.62429500  0.19023000  1
  Pd  Pd17  1  0.18785300  0.81214700  0.69023000  1
  Pd  Pd18  1  0.62429500  0.81214700  0.69023000  1
  Pd  Pd19  1  0.18785300  0.37570500  0.69023000  1
