# generated using pymatgen
data_Rb4WO5
_symmetry_space_group_name_H-M   'P 1'
_cell_length_a   6.65043200
_cell_length_b   10.84924264
_cell_length_c   17.94813171
_cell_angle_alpha   94.28468295
_cell_angle_beta   92.38099648
_cell_angle_gamma   96.46215611
_symmetry_Int_Tables_number   1
_chemical_formula_structural   Rb4WO5
_chemical_formula_sum   'Rb24 W6 O30'
_cell_volume   1281.54046612
_cell_formula_units_Z   6
loop_
 _symmetry_equiv_pos_site_id
 _symmetry_equiv_pos_as_xyz
  1  'x, y, z'
loop_
 _atom_site_type_symbol
 _atom_site_label
 _atom_site_symmetry_multiplicity
 _atom_site_fract_x
 _atom_site_fract_y
 _atom_site_fract_z
 _atom_site_occupancy
  Rb  Rb0  1  0.00886000  0.51170000  0.18019600  1
  Rb  Rb1  1  0.99114000  0.48830000  0.81980400  1
  Rb  Rb2  1  0.54139400  0.20251700  0.50451600  1
  Rb  Rb3  1  0.45860600  0.79748300  0.49548400  1
  Rb  Rb4  1  0.07530100  0.69204900  0.00399200  1
  Rb  Rb5  1  0.92469900  0.30795100  0.99600800  1
  Rb  Rb6  1  0.07538100  0.85125500  0.21870000  1
  Rb  Rb7  1  0.92461900  0.14874500  0.78130000  1
  Rb  Rb8  1  0.55339800  0.00078900  0.31975400  1
  Rb  Rb9  1  0.44660200  0.99921100  0.68024600  1
  Rb  Rb10  1  0.23149300  0.03792200  0.05831100  1
  Rb  Rb11  1  0.76850700  0.96207800  0.94168900  1
  Rb  Rb12  1  0.43486100  0.41032400  0.09443500  1
  Rb  Rb13  1  0.56513900  0.58967600  0.90556500  1
  Rb  Rb14  1  0.72213700  0.38562400  0.34585700  1
  Rb  Rb15  1  0.27786300  0.61437600  0.65414300  1
  Rb  Rb16  1  0.24408400  0.45439300  0.42854400  1
  Rb  Rb17  1  0.75591600  0.54560700  0.57145600  1
  Rb  Rb18  1  0.73269400  0.09584000  0.14732300  1
  Rb  Rb19  1  0.26730600  0.90416000  0.85267700  1
  Rb  Rb20  1  0.05704700  0.07986300  0.41633100  1
  Rb  Rb21  1  0.94295300  0.92013700  0.58366900  1
  Rb  Rb22  1  0.45035800  0.66212100  0.28948400  1
  Rb  Rb23  1  0.54964200  0.33787900  0.71051600  1
  W  W24  1  0.06366200  0.27435400  0.59273000  1
  W  W25  1  0.93633800  0.72564600  0.40727000  1
  W  W26  1  0.59973000  0.75726300  0.09689400  1
  W  W27  1  0.40027000  0.24273700  0.90310600  1
  W  W28  1  0.21830800  0.23450100  0.24909000  1
  W  W29  1  0.78169200  0.76549900  0.75091000  1
  O  O30  1  0.06512900  0.68473200  0.49556000  1
  O  O31  1  0.93487100  0.31526800  0.50444000  1
  O  O32  1  0.15010800  0.13975300  0.92391800  1
  O  O33  1  0.84989200  0.86024700  0.07608200  1
  O  O34  1  0.35417300  0.21820900  0.34596300  1
  O  O35  1  0.64582700  0.78179100  0.65403700  1
  O  O36  1  0.20972200  0.13461200  0.58378600  1
  O  O37  1  0.79027800  0.86538800  0.41621400  1
  O  O38  1  0.09238100  0.25853900  0.15102600  1
  O  O39  1  0.90761900  0.74146100  0.84897400  1
  O  O40  1  0.33978600  0.09994200  0.20694900  1
  O  O41  1  0.66021400  0.90005800  0.79305100  1
  O  O42  1  0.35020800  0.66165200  0.12277700  1
  O  O43  1  0.64979200  0.33834800  0.87722300  1
  O  O44  1  0.37516500  0.16252000  0.80556800  1
  O  O45  1  0.62483500  0.83748000  0.19443200  1
  O  O46  1  0.46391700  0.81818500  0.01535400  1
  O  O47  1  0.53608300  0.18181500  0.98464600  1
  O  O48  1  0.17443900  0.83418400  0.38224800  1
  O  O49  1  0.82556100  0.16581600  0.61775200  1
  O  O50  1  0.31334500  0.37893100  0.57343100  1
  O  O51  1  0.68665500  0.62106900  0.42656900  1
  O  O52  1  0.72211800  0.61115500  0.07462800  1
  O  O53  1  0.27788200  0.38884500  0.92537200  1
  O  O54  1  0.96129800  0.19491000  0.28685200  1
  O  O55  1  0.03870200  0.80509000  0.71314800  1
  O  O56  1  0.03909200  0.37674300  0.68089500  1
  O  O57  1  0.96090800  0.62325700  0.31910500  1
  O  O58  1  0.34697800  0.39965000  0.25257800  1
  O  O59  1  0.65302200  0.60035000  0.74742200  1
