# generated using pymatgen
data_Sr2YBiO6
_symmetry_space_group_name_H-M   'P 1'
_cell_length_a   8.54766600
_cell_length_b   8.54766600
_cell_length_c   8.54766600
_cell_angle_alpha   90.00000000
_cell_angle_beta   90.00000000
_cell_angle_gamma   90.00000000
_symmetry_Int_Tables_number   1
_chemical_formula_structural   Sr2YBiO6
_chemical_formula_sum   'Sr8 Y4 Bi4 O24'
_cell_volume   624.51465101
_cell_formula_units_Z   4
loop_
 _symmetry_equiv_pos_site_id
 _symmetry_equiv_pos_as_xyz
  1  'x, y, z'
loop_
 _atom_site_type_symbol
 _atom_site_label
 _atom_site_symmetry_multiplicity
 _atom_site_fract_x
 _atom_site_fract_y
 _atom_site_fract_z
 _atom_site_occupancy
  Sr  Sr0  1  0.50000000  0.50000000  0.50000000  1
  Sr  Sr1  1  0.00000000  -0.00000000  0.00000000  1
  Sr  Sr2  1  0.00000000  -0.00000000  0.50000000  1
  Sr  Sr3  1  0.00000000  0.50000000  0.00000000  1
  Sr  Sr4  1  0.50000000  -0.00000000  0.00000000  1
  Sr  Sr5  1  0.50000000  0.50000000  0.00000000  1
  Sr  Sr6  1  0.50000000  -0.00000000  0.50000000  1
  Sr  Sr7  1  0.00000000  0.50000000  0.50000000  1
  Y  Y8  1  0.25000000  0.25000000  0.25000000  1
  Y  Y9  1  0.25000000  0.75000000  0.75000000  1
  Y  Y10  1  0.75000000  0.25000000  0.75000000  1
  Y  Y11  1  0.75000000  0.75000000  0.25000000  1
  Bi  Bi12  1  0.75000000  0.75000000  0.75000000  1
  Bi  Bi13  1  0.75000000  0.25000000  0.25000000  1
  Bi  Bi14  1  0.25000000  0.75000000  0.25000000  1
  Bi  Bi15  1  0.25000000  0.25000000  0.75000000  1
  O  O16  1  0.21472390  0.29399780  0.50665671  1
  O  O17  1  0.21472390  0.70600220  0.49334329  1
  O  O18  1  0.78527610  0.29399780  0.49334329  1
  O  O19  1  0.78527610  0.70600220  0.50665671  1
  O  O20  1  0.29399780  0.50665671  0.21472390  1
  O  O21  1  0.70600220  0.49334329  0.21472390  1
  O  O22  1  0.29399780  0.49334329  0.78527610  1
  O  O23  1  0.70600220  0.50665671  0.78527610  1
  O  O24  1  0.50665671  0.21472390  0.29399780  1
  O  O25  1  0.49334329  0.21472390  0.70600220  1
  O  O26  1  0.49334329  0.78527610  0.29399780  1
  O  O27  1  0.50665671  0.78527610  0.70600220  1
  O  O28  1  0.28527610  0.20600220  0.99334329  1
  O  O29  1  0.28527610  0.79399780  0.00665671  1
  O  O30  1  0.71472390  0.20600220  0.00665671  1
  O  O31  1  0.71472390  0.79399780  0.99334329  1
  O  O32  1  0.20600220  0.99334329  0.28527610  1
  O  O33  1  0.79399780  0.00665671  0.28527610  1
  O  O34  1  0.20600220  0.00665671  0.71472390  1
  O  O35  1  0.79399780  0.99334329  0.71472390  1
  O  O36  1  0.99334329  0.28527610  0.20600220  1
  O  O37  1  0.00665671  0.28527610  0.79399780  1
  O  O38  1  0.00665671  0.71472390  0.20600220  1
  O  O39  1  0.99334329  0.71472390  0.79399780  1
