# generated using pymatgen
data_NaLaSiO4
_symmetry_space_group_name_H-M   'P 1'
_cell_length_a   5.57388200
_cell_length_b   9.48616500
_cell_length_c   21.61560000
_cell_angle_alpha   90.00000000
_cell_angle_beta   90.00000000
_cell_angle_gamma   90.00000000
_symmetry_Int_Tables_number   1
_chemical_formula_structural   NaLaSiO4
_chemical_formula_sum   'Na12 La12 Si12 O48'
_cell_volume   1142.91975612
_cell_formula_units_Z   12
loop_
 _symmetry_equiv_pos_site_id
 _symmetry_equiv_pos_as_xyz
  1  'x, y, z'
loop_
 _atom_site_type_symbol
 _atom_site_label
 _atom_site_symmetry_multiplicity
 _atom_site_fract_x
 _atom_site_fract_y
 _atom_site_fract_z
 _atom_site_occupancy
  Na  Na0  1  0.01441900  0.07033100  0.55827600  1
  Na  Na1  1  0.51441900  0.92966900  0.44172400  1
  Na  Na2  1  0.51441900  0.57033100  0.94172400  1
  Na  Na3  1  0.01441900  0.42966900  0.05827600  1
  Na  Na4  1  0.05750500  0.42381400  0.72474600  1
  Na  Na5  1  0.55750500  0.57618600  0.27525400  1
  Na  Na6  1  0.55750500  0.92381400  0.77525400  1
  Na  Na7  1  0.05750500  0.07618600  0.22474600  1
  Na  Na8  1  0.04667100  0.07249000  0.89220500  1
  Na  Na9  1  0.54667100  0.92751000  0.10779500  1
  Na  Na10  1  0.54667100  0.57249000  0.60779500  1
  Na  Na11  1  0.04667100  0.42751000  0.39220500  1
  La  La12  1  0.51084900  0.30266200  0.49996600  1
  La  La13  1  0.01084900  0.69733800  0.50003400  1
  La  La14  1  0.01084900  0.80266200  0.00003400  1
  La  La15  1  0.51084900  0.19733800  0.99996600  1
  La  La16  1  0.56588600  0.19688500  0.66659800  1
  La  La17  1  0.06588600  0.80311500  0.33340200  1
  La  La18  1  0.06588600  0.69688500  0.83340200  1
  La  La19  1  0.56588600  0.30311500  0.16659800  1
  La  La20  1  0.55356900  0.30076900  0.83303600  1
  La  La21  1  0.05356900  0.69923100  0.16696400  1
  La  La22  1  0.05356900  0.80076900  0.66696400  1
  La  La23  1  0.55356900  0.19923100  0.33303600  1
  Si  Si24  1  0.04906600  0.41569600  0.57730900  1
  Si  Si25  1  0.54906600  0.58430400  0.42269100  1
  Si  Si26  1  0.54906600  0.91569600  0.92269100  1
  Si  Si27  1  0.04906600  0.08430400  0.07730900  1
  Si  Si28  1  0.04974700  0.08242400  0.74391900  1
  Si  Si29  1  0.54974700  0.91757600  0.25608100  1
  Si  Si30  1  0.54974700  0.58242400  0.75608100  1
  Si  Si31  1  0.04974700  0.41757600  0.24391900  1
  Si  Si32  1  0.02153300  0.41491900  0.90948000  1
  Si  Si33  1  0.52153300  0.58508100  0.09052000  1
  Si  Si34  1  0.52153300  0.91491900  0.59052000  1
  Si  Si35  1  0.02153300  0.08508100  0.40948000  1
  O  O36  1  0.11201000  0.43792300  0.50301100  1
  O  O37  1  0.61201000  0.56207700  0.49698900  1
  O  O38  1  0.61201000  0.93792300  0.99698900  1
  O  O39  1  0.11201000  0.06207700  0.00301100  1
  O  O40  1  0.99706400  0.57300400  0.94106200  1
  O  O41  1  0.49706400  0.42699600  0.05893800  1
  O  O42  1  0.49706400  0.07300400  0.55893800  1
  O  O43  1  0.99706400  0.92699600  0.44106200  1
  O  O44  1  0.80042400  0.31128700  0.93129100  1
  O  O45  1  0.30042400  0.68871300  0.06870900  1
  O  O46  1  0.30042400  0.81128700  0.56870900  1
  O  O47  1  0.80042400  0.18871300  0.43129100  1
  O  O48  1  0.81912500  0.30891700  0.58584200  1
  O  O49  1  0.31912500  0.69108300  0.41415800  1
  O  O50  1  0.31912500  0.80891700  0.91415800  1
  O  O51  1  0.81912500  0.19108300  0.08584200  1
  O  O52  1  0.29678600  0.34937600  0.60743300  1
  O  O53  1  0.79678600  0.65062400  0.39256700  1
  O  O54  1  0.79678600  0.84937600  0.89256700  1
  O  O55  1  0.29678600  0.15062400  0.10743300  1
  O  O56  1  0.99177400  0.06380000  0.66932100  1
  O  O57  1  0.49177400  0.93620000  0.33067900  1
  O  O58  1  0.49177400  0.56380000  0.83067900  1
  O  O59  1  0.99177400  0.43620000  0.16932100  1
  O  O60  1  0.27294900  0.19358100  0.75473500  1
  O  O61  1  0.77294900  0.80641900  0.24526500  1
  O  O62  1  0.77294900  0.69358100  0.74526500  1
  O  O63  1  0.27294900  0.30641900  0.25473500  1
  O  O64  1  0.11510400  0.92528300  0.77274900  1
  O  O65  1  0.61510400  0.07471700  0.22725100  1
  O  O66  1  0.61510400  0.42528300  0.72725100  1
  O  O67  1  0.11510400  0.57471700  0.27274900  1
  O  O68  1  0.79728100  0.14188200  0.77382900  1
  O  O69  1  0.29728100  0.85811800  0.22617100  1
  O  O70  1  0.29728100  0.64188200  0.72617100  1
  O  O71  1  0.79728100  0.35811800  0.27382900  1
  O  O72  1  0.99248100  0.43583900  0.83409800  1
  O  O73  1  0.49248100  0.56416100  0.16590200  1
  O  O74  1  0.49248100  0.93583900  0.66590200  1
  O  O75  1  0.99248100  0.06416100  0.33409800  1
  O  O76  1  0.98841600  0.57189900  0.60686400  1
  O  O77  1  0.48841600  0.42810100  0.39313600  1
  O  O78  1  0.48841600  0.07189900  0.89313600  1
  O  O79  1  0.98841600  0.92810100  0.10686400  1
  O  O80  1  0.28280900  0.34545100  0.92672500  1
  O  O81  1  0.78280900  0.65454900  0.07327500  1
  O  O82  1  0.78280900  0.84545100  0.57327500  1
  O  O83  1  0.28280900  0.15454900  0.42672500  1
