# generated using pymatgen
data_Tb2Be2SiO7
_symmetry_space_group_name_H-M   'P 1'
_cell_length_a   7.35644000
_cell_length_b   7.35644000
_cell_length_c   4.80198700
_cell_angle_alpha   90.00000000
_cell_angle_beta   90.00000000
_cell_angle_gamma   90.00000000
_symmetry_Int_Tables_number   1
_chemical_formula_structural   Tb2Be2SiO7
_chemical_formula_sum   'Tb4 Be4 Si2 O14'
_cell_volume   259.87013637
_cell_formula_units_Z   2
loop_
 _symmetry_equiv_pos_site_id
 _symmetry_equiv_pos_as_xyz
  1  'x, y, z'
loop_
 _atom_site_type_symbol
 _atom_site_label
 _atom_site_symmetry_multiplicity
 _atom_site_fract_x
 _atom_site_fract_y
 _atom_site_fract_z
 _atom_site_occupancy
  Tb  Tb0  1  0.15923500  0.34076500  0.50871300  1
  Tb  Tb1  1  0.84076500  0.65923500  0.50871300  1
  Tb  Tb2  1  0.65923500  0.15923500  0.49128700  1
  Tb  Tb3  1  0.34076500  0.84076500  0.49128700  1
  Be  Be4  1  0.63590400  0.86409600  0.95957900  1
  Be  Be5  1  0.36409600  0.13590400  0.95957900  1
  Be  Be6  1  0.13590400  0.63590400  0.04042100  1
  Be  Be7  1  0.86409600  0.36409600  0.04042100  1
  Si  Si8  1  0.00000000  0.00000000  0.00000000  1
  Si  Si9  1  0.50000000  0.50000000  0.00000000  1
  O  O10  1  0.00000000  0.50000000  0.18319200  1
  O  O11  1  0.50000000  0.00000000  0.81680800  1
  O  O12  1  0.64062900  0.85937100  0.28940400  1
  O  O13  1  0.35937100  0.14062900  0.28940400  1
  O  O14  1  0.14062900  0.64062900  0.71059600  1
  O  O15  1  0.85937100  0.35937100  0.71059600  1
  O  O16  1  0.08000200  0.83668300  0.19855400  1
  O  O17  1  0.91999800  0.16331700  0.19855400  1
  O  O18  1  0.16331700  0.08000200  0.80144600  1
  O  O19  1  0.41999800  0.33668300  0.80144600  1
  O  O20  1  0.83668300  0.91999800  0.80144600  1
  O  O21  1  0.58000200  0.66331700  0.80144600  1
  O  O22  1  0.33668300  0.58000200  0.19855400  1
  O  O23  1  0.66331700  0.41999800  0.19855400  1
