# generated using pymatgen
data_TmNi
_symmetry_space_group_name_H-M   'P 1'
_cell_length_a   4.10291400
_cell_length_b   5.36575800
_cell_length_c   6.94964800
_cell_angle_alpha   90.00000000
_cell_angle_beta   90.00000000
_cell_angle_gamma   90.00000000
_symmetry_Int_Tables_number   1
_chemical_formula_structural   TmNi
_chemical_formula_sum   'Tm4 Ni4'
_cell_volume   152.99819378
_cell_formula_units_Z   4
loop_
 _symmetry_equiv_pos_site_id
 _symmetry_equiv_pos_as_xyz
  1  'x, y, z'
loop_
 _atom_site_type_symbol
 _atom_site_label
 _atom_site_symmetry_multiplicity
 _atom_site_fract_x
 _atom_site_fract_y
 _atom_site_fract_z
 _atom_site_occupancy
  Tm  Tm0  1  0.25000000  0.13351200  0.18001800  1
  Tm  Tm1  1  0.75000000  0.86648800  0.81998200  1
  Tm  Tm2  1  0.75000000  0.63351200  0.31998200  1
  Tm  Tm3  1  0.25000000  0.36648800  0.68001800  1
  Ni  Ni4  1  0.25000000  0.62818900  0.03720700  1
  Ni  Ni5  1  0.75000000  0.37181100  0.96279300  1
  Ni  Ni6  1  0.75000000  0.12818900  0.46279300  1
  Ni  Ni7  1  0.25000000  0.87181100  0.53720700  1
