# generated using pymatgen
data_Cd2Hg13(As2Cl3)4
_symmetry_space_group_name_H-M   'P 1'
_cell_length_a   12.51251800
_cell_length_b   12.51232700
_cell_length_c   12.51261935
_cell_angle_alpha   89.94702050
_cell_angle_beta   90.00000000
_cell_angle_gamma   90.00000000
_symmetry_Int_Tables_number   1
_chemical_formula_structural   Cd2Hg13(As2Cl3)4
_chemical_formula_sum   'Cd4 Hg26 As16 Cl24'
_cell_volume   1958.98381700
_cell_formula_units_Z   2
loop_
 _symmetry_equiv_pos_site_id
 _symmetry_equiv_pos_as_xyz
  1  'x, y, z'
loop_
 _atom_site_type_symbol
 _atom_site_label
 _atom_site_symmetry_multiplicity
 _atom_site_fract_x
 _atom_site_fract_y
 _atom_site_fract_z
 _atom_site_occupancy
  Cd  Cd0  1  0.50000000  0.50000000  0.50000000  1
  Cd  Cd1  1  0.00000000  0.50000000  0.00000000  1
  Cd  Cd2  1  0.50000000  0.00000000  0.00000000  1
  Cd  Cd3  1  0.00000000  0.00000000  0.50000000  1
  Hg  Hg4  1  0.00000000  0.50000000  0.50000000  1
  Hg  Hg5  1  0.50000000  0.50000000  0.00000000  1
  Hg  Hg6  1  0.78155500  0.29206100  0.47167700  1
  Hg  Hg7  1  0.28155500  0.70793900  0.02832300  1
  Hg  Hg8  1  0.21882100  0.20767900  0.97184600  1
  Hg  Hg9  1  0.71882100  0.79232100  0.52815400  1
  Hg  Hg10  1  0.29249600  0.47154200  0.78154000  1
  Hg  Hg11  1  0.70811600  0.02804900  0.28120100  1
  Hg  Hg12  1  0.20811600  0.97195100  0.21879900  1
  Hg  Hg13  1  0.79249600  0.52845800  0.71846000  1
  Hg  Hg14  1  0.47183800  0.78145500  0.29205700  1
  Hg  Hg15  1  0.02834300  0.28127500  0.70767900  1
  Hg  Hg16  1  0.97183800  0.21854500  0.20794300  1
  Hg  Hg17  1  0.52834300  0.71872500  0.79232100  1
  Hg  Hg18  1  0.21844500  0.70793900  0.52832300  1
  Hg  Hg19  1  0.71844500  0.29206100  0.97167700  1
  Hg  Hg20  1  0.78117900  0.79232100  0.02815400  1
  Hg  Hg21  1  0.28117900  0.20767900  0.47184600  1
  Hg  Hg22  1  0.70750400  0.52845800  0.21846000  1
  Hg  Hg23  1  0.29188400  0.97195100  0.71879900  1
  Hg  Hg24  1  0.79188400  0.02804900  0.78120100  1
  Hg  Hg25  1  0.20750400  0.47154200  0.28154000  1
  Hg  Hg26  1  0.52816200  0.21854500  0.70794300  1
  Hg  Hg27  1  0.97165700  0.71872500  0.29232100  1
  Hg  Hg28  1  0.02816200  0.78145500  0.79205700  1
  Hg  Hg29  1  0.47165700  0.28127500  0.20767900  1
  As  As30  1  0.83380200  0.33380900  0.66615400  1
  As  As31  1  0.33380200  0.66619100  0.83384600  1
  As  As32  1  0.16591600  0.16593500  0.16595600  1
  As  As33  1  0.66591600  0.83406500  0.33404400  1
  As  As34  1  0.16619800  0.66619100  0.33384600  1
  As  As35  1  0.66619800  0.33380900  0.16615400  1
  As  As36  1  0.83408400  0.83406500  0.83404400  1
  As  As37  1  0.33408400  0.16593500  0.66595600  1
  As  As38  1  0.77946000  0.22044300  0.27939600  1
  As  As39  1  0.27946000  0.77955700  0.22060400  1
  As  As40  1  0.22095600  0.27893900  0.77911200  1
  As  As41  1  0.72095600  0.72106100  0.72088800  1
  As  As42  1  0.22054000  0.77955700  0.72060400  1
  As  As43  1  0.72054000  0.22044300  0.77939600  1
  As  As44  1  0.77904400  0.72106100  0.22088800  1
  As  As45  1  0.27904400  0.27893900  0.27911200  1
  Cl  Cl46  1  0.54037000  0.29048000  0.46463600  1
  Cl  Cl47  1  0.04037000  0.70952000  0.03536400  1
  Cl  Cl48  1  0.45926600  0.20812100  0.96450200  1
  Cl  Cl49  1  0.95926600  0.79187900  0.53549800  1
  Cl  Cl50  1  0.29184600  0.46437500  0.54068100  1
  Cl  Cl51  1  0.70948900  0.03523200  0.04042500  1
  Cl  Cl52  1  0.20948900  0.96476800  0.45957500  1
  Cl  Cl53  1  0.79184600  0.53562500  0.95931900  1
  Cl  Cl54  1  0.46429300  0.54056500  0.29182400  1
  Cl  Cl55  1  0.03514800  0.04054400  0.70946500  1
  Cl  Cl56  1  0.96429300  0.45943500  0.20817600  1
  Cl  Cl57  1  0.53514800  0.95945600  0.79053500  1
  Cl  Cl58  1  0.45963000  0.70952000  0.53536400  1
  Cl  Cl59  1  0.95963000  0.29048000  0.96463600  1
  Cl  Cl60  1  0.54073400  0.79187900  0.03549800  1
  Cl  Cl61  1  0.04073400  0.20812100  0.46450200  1
  Cl  Cl62  1  0.70815400  0.53562500  0.45931900  1
  Cl  Cl63  1  0.29051100  0.96476800  0.95957500  1
  Cl  Cl64  1  0.79051100  0.03523200  0.54042500  1
  Cl  Cl65  1  0.20815400  0.46437500  0.04068100  1
  Cl  Cl66  1  0.53570700  0.45943500  0.70817600  1
  Cl  Cl67  1  0.96485200  0.95945600  0.29053500  1
  Cl  Cl68  1  0.03570700  0.54056500  0.79182400  1
  Cl  Cl69  1  0.46485200  0.04054400  0.20946500  1
