# generated using pymatgen
data_Sc7NiBr12
_symmetry_space_group_name_H-M   'P 1'
_cell_length_a   8.74673642
_cell_length_b   8.74673642
_cell_length_c   8.74673558
_cell_angle_alpha   107.39689586
_cell_angle_beta   107.39689586
_cell_angle_gamma   107.39689612
_symmetry_Int_Tables_number   1
_chemical_formula_structural   Sc7NiBr12
_chemical_formula_sum   'Sc7 Ni1 Br12'
_cell_volume   551.14819493
_cell_formula_units_Z   1
loop_
 _symmetry_equiv_pos_site_id
 _symmetry_equiv_pos_as_xyz
  1  'x, y, z'
loop_
 _atom_site_type_symbol
 _atom_site_label
 _atom_site_symmetry_multiplicity
 _atom_site_fract_x
 _atom_site_fract_y
 _atom_site_fract_z
 _atom_site_occupancy
  Sc  Sc0  1  0.50000000  0.50000000  0.50000000  1
  Sc  Sc1  1  0.10064500  0.02942700  0.30564000  1
  Sc  Sc2  1  0.02942700  0.30564000  0.10064500  1
  Sc  Sc3  1  0.30564000  0.10064500  0.02942700  1
  Sc  Sc4  1  0.89935400  0.97057300  0.69436000  1
  Sc  Sc5  1  0.97057300  0.69436000  0.89935400  1
  Sc  Sc6  1  0.69436000  0.89935400  0.97057300  1
  Ni  Ni7  1  0.00000000  0.00000000  0.00000000  1
  Br  Br8  1  0.07394200  0.68337700  0.22050900  1
  Br  Br9  1  0.68337700  0.22050900  0.07394200  1
  Br  Br10  1  0.22050900  0.07394200  0.68337700  1
  Br  Br11  1  0.92605800  0.31662300  0.77949100  1
  Br  Br12  1  0.31662300  0.77949100  0.92605800  1
  Br  Br13  1  0.77949100  0.92605800  0.31662300  1
  Br  Br14  1  0.45975100  0.15800300  0.38474700  1
  Br  Br15  1  0.15800300  0.38474700  0.45975100  1
  Br  Br16  1  0.38474700  0.45975100  0.15800300  1
  Br  Br17  1  0.54024900  0.84199700  0.61525300  1
  Br  Br18  1  0.84199700  0.61525300  0.54024900  1
  Br  Br19  1  0.61525300  0.54024900  0.84199700  1
