# generated using pymatgen
data_Tb4GaSbS9
_symmetry_space_group_name_H-M   'P 1'
_cell_length_a   9.92205812
_cell_length_b   9.92205812
_cell_length_c   13.58302100
_cell_angle_alpha   90.00000000
_cell_angle_beta   90.00000000
_cell_angle_gamma   90.92601746
_symmetry_Int_Tables_number   1
_chemical_formula_structural   Tb4GaSbS9
_chemical_formula_sum   'Tb16 Ga4 Sb4 S36'
_cell_volume   1337.03624826
_cell_formula_units_Z   4
loop_
 _symmetry_equiv_pos_site_id
 _symmetry_equiv_pos_as_xyz
  1  'x, y, z'
loop_
 _atom_site_type_symbol
 _atom_site_label
 _atom_site_symmetry_multiplicity
 _atom_site_fract_x
 _atom_site_fract_y
 _atom_site_fract_z
 _atom_site_occupancy
  Tb  Tb0  1  0.09120800  0.12753900  0.18669100  1
  Tb  Tb1  1  0.87246100  0.90879100  0.81330900  1
  Tb  Tb2  1  0.59120900  0.62753900  0.31330900  1
  Tb  Tb3  1  0.37246100  0.40879100  0.68669100  1
  Tb  Tb4  1  0.32055900  0.33683500  0.39906700  1
  Tb  Tb5  1  0.66316500  0.67944100  0.60093300  1
  Tb  Tb6  1  0.82055900  0.83683500  0.10093300  1
  Tb  Tb7  1  0.16316500  0.17944100  0.89906700  1
  Tb  Tb8  1  0.04283500  0.62519600  0.31764500  1
  Tb  Tb9  1  0.37480400  0.95716500  0.68235500  1
  Tb  Tb10  1  0.54283500  0.12519600  0.18235500  1
  Tb  Tb11  1  0.87480400  0.45716500  0.81764500  1
  Tb  Tb12  1  0.32797300  0.44983900  0.10373500  1
  Tb  Tb13  1  0.55016100  0.67202700  0.89626500  1
  Tb  Tb14  1  0.82797300  0.94983900  0.39626500  1
  Tb  Tb15  1  0.05016100  0.17202700  0.60373500  1
  Ga  Ga16  1  0.82389900  0.38597500  0.09160600  1
  Ga  Ga17  1  0.61402500  0.17610100  0.90839400  1
  Ga  Ga18  1  0.32389900  0.88597500  0.40839400  1
  Ga  Ga19  1  0.11402500  0.67610100  0.59160600  1
  Sb  Sb20  1  0.83151900  0.32908500  0.38698100  1
  Sb  Sb21  1  0.67091500  0.16848100  0.61301900  1
  Sb  Sb22  1  0.33151900  0.82908500  0.11301900  1
  Sb  Sb23  1  0.17091500  0.66848100  0.88698100  1
  S  S24  1  0.01487700  0.16363000  0.40060600  1
  S  S25  1  0.83637000  0.98512300  0.59939400  1
  S  S26  1  0.51487700  0.66363000  0.09939400  1
  S  S27  1  0.33637000  0.48512300  0.90060600  1
  S  S28  1  0.14727800  0.66322600  0.08108000  1
  S  S29  1  0.33677400  0.85272200  0.91892000  1
  S  S30  1  0.64727800  0.16322600  0.41892000  1
  S  S31  1  0.83677400  0.35272200  0.58108000  1
  S  S32  1  0.81834500  0.20420400  0.19767100  1
  S  S33  1  0.79579600  0.18165500  0.80232900  1
  S  S34  1  0.31834500  0.70420400  0.30232900  1
  S  S35  1  0.29579600  0.68165500  0.69767100  1
  S  S36  1  0.82170100  0.57638100  0.19082300  1
  S  S37  1  0.42361900  0.17829900  0.80917700  1
  S  S38  1  0.32170100  0.07638100  0.30917700  1
  S  S39  1  0.92361900  0.67829900  0.69082300  1
  S  S40  1  0.12591100  0.87408900  0.50000000  1
  S  S41  1  0.62591100  0.37408900  0.00000000  1
  S  S42  1  0.11732700  0.49136900  0.49014500  1
  S  S43  1  0.50863100  0.88267300  0.50985500  1
  S  S44  1  0.61732700  0.99136900  0.00985500  1
  S  S45  1  0.00863100  0.38267300  0.99014500  1
  S  S46  1  0.81240600  0.68099300  0.43166300  1
  S  S47  1  0.31900700  0.18759400  0.56833700  1
  S  S48  1  0.31240600  0.18099300  0.06833700  1
  S  S49  1  0.81900700  0.68759400  0.93166300  1
  S  S50  1  0.00303400  0.88127600  0.24880500  1
  S  S51  1  0.11872400  0.99696600  0.75119500  1
  S  S52  1  0.50303400  0.38127600  0.25119500  1
  S  S53  1  0.61872400  0.49696600  0.74880500  1
  S  S54  1  0.49946000  0.50054000  0.50000000  1
  S  S55  1  0.99946000  0.00054000  0.00000000  1
  S  S56  1  0.14208600  0.39007400  0.24578600  1
  S  S57  1  0.60992600  0.85791400  0.75421400  1
  S  S58  1  0.64208600  0.89007400  0.25421400  1
  S  S59  1  0.10992600  0.35791400  0.74578600  1
