# generated using pymatgen
data_K15Re7N19
_symmetry_space_group_name_H-M   'P 1'
_cell_length_a   6.82991800
_cell_length_b   12.54611842
_cell_length_c   19.32573331
_cell_angle_alpha   90.88102368
_cell_angle_beta   94.39610033
_cell_angle_gamma   99.46143253
_symmetry_Int_Tables_number   1
_chemical_formula_structural   K15Re7N19
_chemical_formula_sum   'K30 Re14 N38'
_cell_volume   1628.00973181
_cell_formula_units_Z   2
loop_
 _symmetry_equiv_pos_site_id
 _symmetry_equiv_pos_as_xyz
  1  'x, y, z'
loop_
 _atom_site_type_symbol
 _atom_site_label
 _atom_site_symmetry_multiplicity
 _atom_site_fract_x
 _atom_site_fract_y
 _atom_site_fract_z
 _atom_site_occupancy
  K  K0  1  0.52083700  0.62264600  0.43750400  1
  K  K1  1  0.47916300  0.37735400  0.56249600  1
  K  K2  1  0.61891500  0.13562200  0.65165200  1
  K  K3  1  0.38108500  0.86437800  0.34834800  1
  K  K4  1  0.72140700  0.02269600  0.19500400  1
  K  K5  1  0.27859300  0.97730400  0.80499600  1
  K  K6  1  0.93270600  0.03838300  0.38522800  1
  K  K7  1  0.06729400  0.96161700  0.61477200  1
  K  K8  1  0.77282300  0.74957000  0.27948800  1
  K  K9  1  0.22717700  0.25043000  0.72051200  1
  K  K10  1  0.86657500  0.17333000  0.83565200  1
  K  K11  1  0.13342500  0.82667000  0.16434800  1
  K  K12  1  0.86542800  0.90168600  0.90019800  1
  K  K13  1  0.13457200  0.09831400  0.09980200  1
  K  K14  1  0.71546700  0.08281300  0.00683300  1
  K  K15  1  0.28453300  0.91718700  0.99316700  1
  K  K16  1  0.60833300  0.89415100  0.53290500  1
  K  K17  1  0.39166700  0.10584900  0.46709500  1
  K  K18  1  0.60070700  0.44978100  0.27845900  1
  K  K19  1  0.39929300  0.55021900  0.72154100  1
  K  K20  1  0.97576300  0.34120200  0.01529000  1
  K  K21  1  0.02423700  0.65879800  0.98471000  1
  K  K22  1  0.91616000  0.66134100  0.78602500  1
  K  K23  1  0.08384000  0.33865900  0.21397500  1
  K  K24  1  0.74577900  0.26531400  0.38390700  1
  K  K25  1  0.25422100  0.73468600  0.61609300  1
  K  K26  1  0.60534300  0.38063000  0.84286400  1
  K  K27  1  0.39465700  0.61937000  0.15713600  1
  K  K28  1  0.00000000  0.50000000  0.50000000  1
  K  K29  1  0.50000000  0.50000000  0.00000000  1
  Re  Re30  1  0.57590800  0.27053700  0.12555800  1
  Re  Re31  1  0.42409200  0.72946300  0.87444200  1
  Re  Re32  1  0.86989000  0.40744600  0.68505900  1
  Re  Re33  1  0.13011000  0.59255400  0.31494100  1
  Re  Re34  1  0.74950000  0.65562100  0.60679600  1
  Re  Re35  1  0.25050000  0.34437900  0.39320400  1
  Re  Re36  1  0.98607300  0.78206100  0.45027100  1
  Re  Re37  1  0.01392700  0.21793900  0.54972900  1
  Re  Re38  1  0.86289300  0.54728500  0.13814400  1
  Re  Re39  1  0.13710700  0.45271500  0.86185700  1
  Re  Re40  1  0.66413100  0.87974400  0.72589800  1
  Re  Re41  1  0.33586900  0.12025600  0.27410200  1
  Re  Re42  1  0.68292800  0.79413900  0.05736900  1
  Re  Re43  1  0.31707200  0.20586100  0.94263100  1
  N  N44  1  0.79692100  0.21220000  0.12336800  1
  N  N45  1  0.20307900  0.78780000  0.87663200  1
  N  N46  1  0.94453900  0.32553500  0.61007900  1
  N  N47  1  0.05546100  0.67446500  0.38992100  1
  N  N48  1  0.54755000  0.07418000  0.31752200  1
  N  N49  1  0.45245000  0.92582000  0.68247800  1
  N  N50  1  0.58192700  0.78572000  0.80430500  1
  N  N51  1  0.41807300  0.21428000  0.19569500  1
  N  N52  1  0.65538800  0.42499300  0.13603900  1
  N  N53  1  0.34461200  0.57500700  0.86396100  1
  N  N54  1  0.50174700  0.39971500  0.42097900  1
  N  N55  1  0.49825300  0.60028500  0.57902100  1
  N  N56  1  0.80350600  0.11168800  0.52844300  1
  N  N57  1  0.19649400  0.88831200  0.47155700  1
  N  N58  1  0.89674100  0.70737800  0.53094400  1
  N  N59  1  0.10325900  0.29262200  0.46905600  1
  N  N60  1  0.91108200  0.89078200  0.05126200  1
  N  N61  1  0.08891800  0.10921800  0.94873800  1
  N  N62  1  0.77411000  0.83259300  0.41019400  1
  N  N63  1  0.22589000  0.16740700  0.58980600  1
  N  N64  1  0.75168100  0.77015500  0.67126200  1
  N  N65  1  0.24831900  0.22984500  0.32873800  1
  N  N66  1  0.93509900  0.47866200  0.90782000  1
  N  N67  1  0.06490100  0.52133800  0.09218000  1
  N  N68  1  0.57085700  0.75670800  0.96368500  1
  N  N69  1  0.42914300  0.24329200  0.03631500  1
  N  N70  1  0.75405300  0.67106200  0.10186300  1
  N  N71  1  0.24594700  0.32893800  0.89813700  1
  N  N72  1  0.86635300  0.98866200  0.75019300  1
  N  N73  1  0.13364700  0.01133800  0.24980700  1
  N  N74  1  0.94981600  0.58023600  0.23494400  1
  N  N75  1  0.05018400  0.41976400  0.76505600  1
  N  N76  1  0.89119700  0.55304400  0.64892900  1
  N  N77  1  0.10880300  0.44695600  0.35107100  1
  N  N78  1  0.62099500  0.35863400  0.70575500  1
  N  N79  1  0.37900500  0.64136600  0.29424500  1
  N  N80  1  0.50181400  0.84746200  0.10543100  1
  N  N81  1  0.49818600  0.15253800  0.89456900  1
