# generated using pymatgen
data_KEuF4
_symmetry_space_group_name_H-M   'P 1'
_cell_length_a   3.71616700
_cell_length_b   6.30290200
_cell_length_c   15.72274700
_cell_angle_alpha   90.00000000
_cell_angle_beta   90.00000000
_cell_angle_gamma   90.00000000
_symmetry_Int_Tables_number   1
_chemical_formula_structural   KEuF4
_chemical_formula_sum   'K4 Eu4 F16'
_cell_volume   368.26818645
_cell_formula_units_Z   4
loop_
 _symmetry_equiv_pos_site_id
 _symmetry_equiv_pos_as_xyz
  1  'x, y, z'
loop_
 _atom_site_type_symbol
 _atom_site_label
 _atom_site_symmetry_multiplicity
 _atom_site_fract_x
 _atom_site_fract_y
 _atom_site_fract_z
 _atom_site_occupancy
  K  K0  1  0.25000000  0.72424400  0.70078900  1
  K  K1  1  0.75000000  0.27575600  0.29921100  1
  K  K2  1  0.75000000  0.77575600  0.20078900  1
  K  K3  1  0.25000000  0.22424400  0.79921100  1
  Eu  Eu4  1  0.25000000  0.25117300  0.06097700  1
  Eu  Eu5  1  0.75000000  0.74882700  0.93902300  1
  Eu  Eu6  1  0.75000000  0.24882700  0.56097700  1
  Eu  Eu7  1  0.25000000  0.75117300  0.43902300  1
  F  F8  1  0.25000000  0.60700700  0.86498900  1
  F  F9  1  0.75000000  0.39299300  0.13501100  1
  F  F10  1  0.75000000  0.89299300  0.36498900  1
  F  F11  1  0.25000000  0.10700700  0.63501100  1
  F  F12  1  0.25000000  0.63416700  0.03639600  1
  F  F13  1  0.75000000  0.36583300  0.96360400  1
  F  F14  1  0.75000000  0.86583300  0.53639600  1
  F  F15  1  0.25000000  0.13416700  0.46360400  1
  F  F16  1  0.25000000  0.50279300  0.55799200  1
  F  F17  1  0.75000000  0.49720700  0.44200800  1
  F  F18  1  0.75000000  0.99720700  0.05799200  1
  F  F19  1  0.25000000  0.00279300  0.94200800  1
  F  F20  1  0.25000000  0.58942400  0.30707400  1
  F  F21  1  0.75000000  0.41057600  0.69292600  1
  F  F22  1  0.75000000  0.91057600  0.80707400  1
  F  F23  1  0.25000000  0.08942400  0.19292600  1
