# generated using pymatgen
data_Mg2B2O5
_symmetry_space_group_name_H-M   'P 1'
_cell_length_a   3.16215200
_cell_length_b   9.29320000
_cell_length_c   12.43499359
_cell_angle_alpha   75.50394414
_cell_angle_beta   90.00000000
_cell_angle_gamma   90.00000000
_symmetry_Int_Tables_number   1
_chemical_formula_structural   Mg2B2O5
_chemical_formula_sum   'Mg8 B8 O20'
_cell_volume   353.78784945
_cell_formula_units_Z   4
loop_
 _symmetry_equiv_pos_site_id
 _symmetry_equiv_pos_as_xyz
  1  'x, y, z'
loop_
 _atom_site_type_symbol
 _atom_site_label
 _atom_site_symmetry_multiplicity
 _atom_site_fract_x
 _atom_site_fract_y
 _atom_site_fract_z
 _atom_site_occupancy
  Mg  Mg0  1  0.79079100  0.64369900  0.60506600  1
  Mg  Mg1  1  0.29079100  0.35630100  0.89493400  1
  Mg  Mg2  1  0.20920900  0.35630100  0.39493400  1
  Mg  Mg3  1  0.70920900  0.64369900  0.10506600  1
  Mg  Mg4  1  0.71384300  0.10245000  0.31414900  1
  Mg  Mg5  1  0.21384300  0.89755000  0.18585100  1
  Mg  Mg6  1  0.28615700  0.89755000  0.68585100  1
  Mg  Mg7  1  0.78615700  0.10245000  0.81414900  1
  B  B8  1  0.84971100  0.16927500  0.56045300  1
  B  B9  1  0.34971100  0.83072500  0.93954700  1
  B  B10  1  0.15028900  0.83072500  0.43954700  1
  B  B11  1  0.65028900  0.16927500  0.06045300  1
  B  B12  1  0.27558900  0.35618500  0.15934400  1
  B  B13  1  0.77558900  0.64381500  0.34065600  1
  B  B14  1  0.72441100  0.64381500  0.84065600  1
  B  B15  1  0.22441100  0.35618500  0.65934400  1
  O  O16  1  0.79941200  0.49626200  0.86299300  1
  O  O17  1  0.29941200  0.50373800  0.63700700  1
  O  O18  1  0.20058800  0.50373800  0.13700700  1
  O  O19  1  0.70058800  0.49626200  0.36299300  1
  O  O20  1  0.27202600  0.25864600  0.76204900  1
  O  O21  1  0.77202600  0.74135400  0.73795100  1
  O  O22  1  0.72797400  0.74135400  0.23795100  1
  O  O23  1  0.22797400  0.25864600  0.26204900  1
  O  O24  1  0.77196400  0.18087100  0.95351900  1
  O  O25  1  0.27196400  0.81912900  0.54648100  1
  O  O26  1  0.22803600  0.81912900  0.04648100  1
  O  O27  1  0.72803600  0.18087100  0.45351900  1
  O  O28  1  0.28784600  0.94625500  0.84794300  1
  O  O29  1  0.78784600  0.05374500  0.65205700  1
  O  O30  1  0.71215400  0.05374500  0.15205700  1
  O  O31  1  0.21215400  0.94625500  0.34794300  1
  O  O32  1  0.42250400  0.29944200  0.06954700  1
  O  O33  1  0.92250400  0.70055800  0.43045300  1
  O  O34  1  0.57749600  0.70055800  0.93045300  1
  O  O35  1  0.07749600  0.29944200  0.56954700  1
