# generated using pymatgen
data_MgSnN2
_symmetry_space_group_name_H-M   'P 1'
_cell_length_a   5.53473300
_cell_length_b   5.96613300
_cell_length_c   6.93989000
_cell_angle_alpha   90.00000000
_cell_angle_beta   90.00000000
_cell_angle_gamma   90.00000000
_symmetry_Int_Tables_number   1
_chemical_formula_structural   MgSnN2
_chemical_formula_sum   'Mg4 Sn4 N8'
_cell_volume   229.16178289
_cell_formula_units_Z   4
loop_
 _symmetry_equiv_pos_site_id
 _symmetry_equiv_pos_as_xyz
  1  'x, y, z'
loop_
 _atom_site_type_symbol
 _atom_site_label
 _atom_site_symmetry_multiplicity
 _atom_site_fract_x
 _atom_site_fract_y
 _atom_site_fract_z
 _atom_site_occupancy
  Mg  Mg0  1  0.99327900  0.58332500  0.87539000  1
  Mg  Mg1  1  0.49327900  0.41667500  0.12461000  1
  Mg  Mg2  1  0.49327900  0.91667500  0.37539000  1
  Mg  Mg3  1  0.99327900  0.08332500  0.62461000  1
  Sn  Sn4  1  0.99588000  0.58342000  0.37437100  1
  Sn  Sn5  1  0.49588000  0.41658000  0.62562900  1
  Sn  Sn6  1  0.49588000  0.91658000  0.87437100  1
  Sn  Sn7  1  0.99588000  0.08342000  0.12562900  1
  N  N8  1  0.37531200  0.57916300  0.37726200  1
  N  N9  1  0.87531200  0.42083700  0.62273800  1
  N  N10  1  0.87531200  0.92083700  0.87726200  1
  N  N11  1  0.37531200  0.07916300  0.12273800  1
  N  N12  1  0.37653000  0.58467100  0.87313000  1
  N  N13  1  0.87653000  0.41532900  0.12687000  1
  N  N14  1  0.87653000  0.91532900  0.37313000  1
  N  N15  1  0.37653000  0.08467100  0.62687000  1
