# generated using pymatgen
data_K2AgF4
_symmetry_space_group_name_H-M   'P 1'
_cell_length_a   10.44253200
_cell_length_b   3.83410500
_cell_length_c   6.50822997
_cell_angle_alpha   87.19639093
_cell_angle_beta   90.00000000
_cell_angle_gamma   90.00000000
_symmetry_Int_Tables_number   1
_chemical_formula_structural   K2AgF4
_chemical_formula_sum   'K4 Ag2 F8'
_cell_volume   260.26308362
_cell_formula_units_Z   2
loop_
 _symmetry_equiv_pos_site_id
 _symmetry_equiv_pos_as_xyz
  1  'x, y, z'
loop_
 _atom_site_type_symbol
 _atom_site_label
 _atom_site_symmetry_multiplicity
 _atom_site_fract_x
 _atom_site_fract_y
 _atom_site_fract_z
 _atom_site_occupancy
  K  K0  1  0.18280000  0.47854300  0.41579100  1
  K  K1  1  0.68280000  0.52145700  0.08420900  1
  K  K2  1  0.81720000  0.52145700  0.58420900  1
  K  K3  1  0.31720000  0.47854300  0.91579100  1
  Ag  Ag4  1  0.00000000  0.00000000  0.00000000  1
  Ag  Ag5  1  0.50000000  0.00000000  0.50000000  1
  F  F6  1  0.94747000  0.59723200  0.22487500  1
  F  F7  1  0.44747000  0.40276800  0.27512500  1
  F  F8  1  0.05253000  0.40276800  0.77512500  1
  F  F9  1  0.55253000  0.59723200  0.72487500  1
  F  F10  1  0.18938000  0.98281400  0.12375700  1
  F  F11  1  0.68938000  0.01718600  0.37624300  1
  F  F12  1  0.81062000  0.01718600  0.87624300  1
  F  F13  1  0.31062000  0.98281400  0.62375700  1
