# generated using pymatgen
data_Tm5(ReO6)2
_symmetry_space_group_name_H-M   'P 1'
_cell_length_a   6.75568361
_cell_length_b   6.75568361
_cell_length_c   7.44928657
_cell_angle_alpha   73.76627813
_cell_angle_beta   73.76627813
_cell_angle_gamma   49.20303478
_symmetry_Int_Tables_number   1
_chemical_formula_structural   Tm5(ReO6)2
_chemical_formula_sum   'Tm5 Re2 O12'
_cell_volume   244.90737485
_cell_formula_units_Z   1
loop_
 _symmetry_equiv_pos_site_id
 _symmetry_equiv_pos_as_xyz
  1  'x, y, z'
loop_
 _atom_site_type_symbol
 _atom_site_label
 _atom_site_symmetry_multiplicity
 _atom_site_fract_x
 _atom_site_fract_y
 _atom_site_fract_z
 _atom_site_occupancy
  Tm  Tm0  1  0.80226500  0.80226500  0.35949200  1
  Tm  Tm1  1  0.19773500  0.19773500  0.64050800  1
  Tm  Tm2  1  0.18564700  0.18564700  0.17753800  1
  Tm  Tm3  1  0.81435300  0.81435300  0.82246200  1
  Tm  Tm4  1  0.50000000  0.50000000  0.50000000  1
  Re  Re5  1  0.28498400  0.71501600  0.00000000  1
  Re  Re6  1  0.71501600  0.28498400  0.00000000  1
  O  O7  1  0.41282100  0.92180100  0.91283800  1
  O  O8  1  0.07819900  0.58717900  0.08716200  1
  O  O9  1  0.58717900  0.07819900  0.08716200  1
  O  O10  1  0.92180100  0.41282100  0.91283800  1
  O  O11  1  0.59856200  0.09421500  0.57255700  1
  O  O12  1  0.90578500  0.40143800  0.42744300  1
  O  O13  1  0.40143800  0.90578500  0.42744300  1
  O  O14  1  0.00071300  0.00071300  0.81907700  1
  O  O15  1  0.99928700  0.99928700  0.18092300  1
  O  O16  1  0.49793700  0.49793700  0.79161900  1
  O  O17  1  0.50206300  0.50206300  0.20838100  1
  O  O18  1  0.09421500  0.59856200  0.57255700  1
