# generated using pymatgen
data_Na2Zn2S3
_symmetry_space_group_name_H-M   'P 1'
_cell_length_a   9.90879815
_cell_length_b   9.90879815
_cell_length_c   6.73488755
_cell_angle_alpha   70.40071947
_cell_angle_beta   70.40071947
_cell_angle_gamma   82.86646844
_symmetry_Int_Tables_number   1
_chemical_formula_structural   Na2Zn2S3
_chemical_formula_sum   'Na8 Zn8 S12'
_cell_volume   586.80455190
_cell_formula_units_Z   4
loop_
 _symmetry_equiv_pos_site_id
 _symmetry_equiv_pos_as_xyz
  1  'x, y, z'
loop_
 _atom_site_type_symbol
 _atom_site_label
 _atom_site_symmetry_multiplicity
 _atom_site_fract_x
 _atom_site_fract_y
 _atom_site_fract_z
 _atom_site_occupancy
  Na  Na0  1  0.81519800  0.98771900  0.62003400  1
  Na  Na1  1  0.01228100  0.18480200  0.87996600  1
  Na  Na2  1  0.18480200  0.01228100  0.37996600  1
  Na  Na3  1  0.98771900  0.81519800  0.12003400  1
  Na  Na4  1  0.71895600  0.28104400  0.75000000  1
  Na  Na5  1  0.28104400  0.71895600  0.25000000  1
  Na  Na6  1  0.42897200  0.57102800  0.75000000  1
  Na  Na7  1  0.57102800  0.42897200  0.25000000  1
  Zn  Zn8  1  0.36390700  0.21438800  0.79700900  1
  Zn  Zn9  1  0.78561200  0.63609300  0.70299100  1
  Zn  Zn10  1  0.63609300  0.78561200  0.20299100  1
  Zn  Zn11  1  0.21438800  0.36390700  0.29700900  1
  Zn  Zn12  1  0.08133000  0.55096700  0.75814200  1
  Zn  Zn13  1  0.44903300  0.91867000  0.74185800  1
  Zn  Zn14  1  0.91867000  0.44903300  0.24185800  1
  Zn  Zn15  1  0.55096600  0.08133000  0.25814200  1
  S  S16  1  0.27620300  0.42704600  0.56839800  1
  S  S17  1  0.57295400  0.72379700  0.93160200  1
  S  S18  1  0.72379700  0.57295400  0.43160200  1
  S  S19  1  0.42704600  0.27620300  0.06839800  1
  S  S20  1  0.57867500  0.14458700  0.55375700  1
  S  S21  1  0.85541300  0.42132500  0.94624300  1
  S  S22  1  0.42132500  0.85541300  0.44624300  1
  S  S23  1  0.14458700  0.57867500  0.05375700  1
  S  S24  1  0.00001100  0.76778100  0.55262500  1
  S  S25  1  0.23221900  0.99998900  0.94737500  1
  S  S26  1  0.99998900  0.23221900  0.44737500  1
  S  S27  1  0.76778100  0.00001100  0.05262500  1
