# generated using pymatgen
data_La(Co2B)6
_symmetry_space_group_name_H-M   'P 1'
_cell_length_a   6.00002250
_cell_length_b   6.00002250
_cell_length_c   6.00002293
_cell_angle_alpha   104.03351932
_cell_angle_beta   104.03351932
_cell_angle_gamma   104.03353221
_symmetry_Int_Tables_number   1
_chemical_formula_structural   La(Co2B)6
_chemical_formula_sum   'La1 Co12 B6'
_cell_volume   192.60334678
_cell_formula_units_Z   1
loop_
 _symmetry_equiv_pos_site_id
 _symmetry_equiv_pos_as_xyz
  1  'x, y, z'
loop_
 _atom_site_type_symbol
 _atom_site_label
 _atom_site_symmetry_multiplicity
 _atom_site_fract_x
 _atom_site_fract_y
 _atom_site_fract_z
 _atom_site_occupancy
  La  La0  1  0.00000000  0.00000000  0.00000000  1
  Co  Co1  1  0.13403100  0.86596900  0.50000000  1
  Co  Co2  1  0.50000000  0.13403100  0.86596900  1
  Co  Co3  1  0.86596900  0.50000000  0.13403100  1
  Co  Co4  1  0.50000000  0.86596900  0.13403100  1
  Co  Co5  1  0.13403100  0.50000000  0.86596900  1
  Co  Co6  1  0.86596900  0.13403100  0.50000000  1
  Co  Co7  1  0.54041800  0.81275300  0.54041800  1
  Co  Co8  1  0.54041800  0.54041800  0.81275300  1
  Co  Co9  1  0.81275300  0.54041800  0.54041800  1
  Co  Co10  1  0.45958200  0.18724700  0.45958200  1
  Co  Co11  1  0.45958200  0.45958200  0.18724700  1
  Co  Co12  1  0.18724700  0.45958200  0.45958200  1
  B  B13  1  0.76967600  0.33108700  0.76967600  1
  B  B14  1  0.76967600  0.76967600  0.33108700  1
  B  B15  1  0.33108700  0.76967600  0.76967600  1
  B  B16  1  0.23032400  0.66891300  0.23032400  1
  B  B17  1  0.23032400  0.23032400  0.66891300  1
  B  B18  1  0.66891300  0.23032400  0.23032400  1
