# generated using pymatgen
data_CaGa2Ni
_symmetry_space_group_name_H-M   'P 1'
_cell_length_a   5.57604335
_cell_length_b   5.57604335
_cell_length_c   6.98170400
_cell_angle_alpha   90.00000000
_cell_angle_beta   90.00000000
_cell_angle_gamma   137.09729575
_symmetry_Int_Tables_number   1
_chemical_formula_structural   CaGa2Ni
_chemical_formula_sum   'Ca2 Ga4 Ni2'
_cell_volume   147.77631691
_cell_formula_units_Z   2
loop_
 _symmetry_equiv_pos_site_id
 _symmetry_equiv_pos_as_xyz
  1  'x, y, z'
loop_
 _atom_site_type_symbol
 _atom_site_label
 _atom_site_symmetry_multiplicity
 _atom_site_fract_x
 _atom_site_fract_y
 _atom_site_fract_z
 _atom_site_occupancy
  Ca  Ca0  1  0.55678500  0.44321500  0.75000000  1
  Ca  Ca1  1  0.44321500  0.55678500  0.25000000  1
  Ga  Ga2  1  0.83746900  0.16253100  0.94367500  1
  Ga  Ga3  1  0.16253100  0.83746900  0.05632500  1
  Ga  Ga4  1  0.83746900  0.16253100  0.55632500  1
  Ga  Ga5  1  0.16253100  0.83746900  0.44367500  1
  Ni  Ni6  1  0.71751800  0.28248200  0.25000000  1
  Ni  Ni7  1  0.28248200  0.71751800  0.75000000  1
