# generated using pymatgen
data_Zr2Te4Cl2O11
_symmetry_space_group_name_H-M   'P 1'
_cell_length_a   7.93298500
_cell_length_b   9.70673545
_cell_length_c   10.54791055
_cell_angle_alpha   111.64982299
_cell_angle_beta   108.31461663
_cell_angle_gamma   97.78381201
_symmetry_Int_Tables_number   1
_chemical_formula_structural   Zr2Te4Cl2O11
_chemical_formula_sum   'Zr4 Te8 Cl4 O22'
_cell_volume   686.99038080
_cell_formula_units_Z   2
loop_
 _symmetry_equiv_pos_site_id
 _symmetry_equiv_pos_as_xyz
  1  'x, y, z'
loop_
 _atom_site_type_symbol
 _atom_site_label
 _atom_site_symmetry_multiplicity
 _atom_site_fract_x
 _atom_site_fract_y
 _atom_site_fract_z
 _atom_site_occupancy
  Zr  Zr0  1  0.62452600  0.88976100  0.89134500  1
  Zr  Zr1  1  0.37547400  0.11023900  0.10865500  1
  Zr  Zr2  1  0.88675000  0.61119700  0.61919900  1
  Zr  Zr3  1  0.11325000  0.38880300  0.38080100  1
  Te  Te4  1  0.26185900  0.51007200  0.79424000  1
  Te  Te5  1  0.73814100  0.48992800  0.20576000  1
  Te  Te6  1  0.99272500  0.73850200  0.99989500  1
  Te  Te7  1  0.00727500  0.26149800  0.00010500  1
  Te  Te8  1  0.78950900  0.97998200  0.26450900  1
  Te  Te9  1  0.21049100  0.02001800  0.73549100  1
  Te  Te10  1  0.47588400  0.76058200  0.46917200  1
  Te  Te11  1  0.52411600  0.23941800  0.53082800  1
  Cl  Cl12  1  0.10260800  0.88046100  0.37040400  1
  Cl  Cl13  1  0.89739200  0.11953900  0.62959600  1
  Cl  Cl14  1  0.63370800  0.39113600  0.89292400  1
  Cl  Cl15  1  0.36629200  0.60886400  0.10707600  1
  O  O16  1  0.50530000  0.85785400  0.66984400  1
  O  O17  1  0.49470000  0.14214600  0.33015600  1
  O  O18  1  0.67250500  0.66900300  0.48837900  1
  O  O19  1  0.32749500  0.33099700  0.51162100  1
  O  O20  1  0.59055200  0.99439200  0.10807600  1
  O  O21  1  0.40944800  0.00560800  0.89192400  1
  O  O22  1  0.82640800  0.86654700  0.08154500  1
  O  O23  1  0.17359200  0.13345300  0.91845500  1
  O  O24  1  0.07255900  0.61278500  0.83120100  1
  O  O25  1  0.92744100  0.38721500  0.16879900  1
  O  O26  1  0.81932700  0.74381400  0.82373000  1
  O  O27  1  0.18067300  0.25618600  0.17627000  1
  O  O28  1  0.11146900  0.49534500  0.60082700  1
  O  O29  1  0.88853100  0.50465500  0.39917300  1
  O  O30  1  0.28778400  0.58364900  0.41154700  1
  O  O31  1  0.71221600  0.41635100  0.58845300  1
  O  O32  1  0.44720100  0.67963500  0.84003200  1
  O  O33  1  0.55279900  0.32036500  0.15996800  1
  O  O34  1  0.17914200  0.91643900  0.06034400  1
  O  O35  1  0.82085800  0.08356100  0.93965600  1
  O  O36  1  0.93800800  0.17545200  0.32609600  1
  O  O37  1  0.06199200  0.82454800  0.67390400  1
