# generated using pymatgen
data_EuGe7Rh3
_symmetry_space_group_name_H-M   'P 1'
_cell_length_a   8.36990866
_cell_length_b   8.36990866
_cell_length_c   8.36990898
_cell_angle_alpha   57.03505669
_cell_angle_beta   57.03505669
_cell_angle_gamma   57.03505140
_symmetry_Int_Tables_number   1
_chemical_formula_structural   EuGe7Rh3
_chemical_formula_sum   'Eu2 Ge14 Rh6'
_cell_volume   386.27676684
_cell_formula_units_Z   2
loop_
 _symmetry_equiv_pos_site_id
 _symmetry_equiv_pos_as_xyz
  1  'x, y, z'
loop_
 _atom_site_type_symbol
 _atom_site_label
 _atom_site_symmetry_multiplicity
 _atom_site_fract_x
 _atom_site_fract_y
 _atom_site_fract_z
 _atom_site_occupancy
  Eu  Eu0  1  0.50000000  0.50000000  0.50000000  1
  Eu  Eu1  1  0.00000000  0.00000000  0.00000000  1
  Ge  Ge2  1  0.35063900  0.16711500  0.57459700  1
  Ge  Ge3  1  0.57459700  0.35063900  0.16711500  1
  Ge  Ge4  1  0.16711500  0.57459700  0.35063900  1
  Ge  Ge5  1  0.07459700  0.66711500  0.85063900  1
  Ge  Ge6  1  0.85063900  0.07459700  0.66711500  1
  Ge  Ge7  1  0.66711500  0.85063900  0.07459700  1
  Ge  Ge8  1  0.64936100  0.83288500  0.42540300  1
  Ge  Ge9  1  0.42540300  0.64936100  0.83288500  1
  Ge  Ge10  1  0.83288500  0.42540300  0.64936100  1
  Ge  Ge11  1  0.92540300  0.33288500  0.14936100  1
  Ge  Ge12  1  0.14936100  0.92540300  0.33288500  1
  Ge  Ge13  1  0.33288500  0.14936100  0.92540300  1
  Ge  Ge14  1  0.25000000  0.25000000  0.25000000  1
  Ge  Ge15  1  0.75000000  0.75000000  0.75000000  1
  Rh  Rh16  1  0.93351100  0.56648900  0.25000000  1
  Rh  Rh17  1  0.25000000  0.93351100  0.56648900  1
  Rh  Rh18  1  0.56648900  0.25000000  0.93351100  1
  Rh  Rh19  1  0.75000000  0.06648900  0.43351100  1
  Rh  Rh20  1  0.43351100  0.75000000  0.06648900  1
  Rh  Rh21  1  0.06648900  0.43351100  0.75000000  1
