# generated using pymatgen
data_Y2FeSbO7
_symmetry_space_group_name_H-M   'P 1'
_cell_length_a   7.30951673
_cell_length_b   7.30951673
_cell_length_c   7.30951673
_cell_angle_alpha   120.17101765
_cell_angle_beta   119.55045113
_cell_angle_gamma   90.24222147
_symmetry_Int_Tables_number   1
_chemical_formula_structural   Y2FeSbO7
_chemical_formula_sum   'Y4 Fe2 Sb2 O14'
_cell_volume   276.72231482
_cell_formula_units_Z   2
loop_
 _symmetry_equiv_pos_site_id
 _symmetry_equiv_pos_as_xyz
  1  'x, y, z'
loop_
 _atom_site_type_symbol
 _atom_site_label
 _atom_site_symmetry_multiplicity
 _atom_site_fract_x
 _atom_site_fract_y
 _atom_site_fract_z
 _atom_site_occupancy
  Y  Y0  1  0.50000000  0.00000000  0.00000000  1
  Y  Y1  1  0.50000000  0.50000000  0.50000000  1
  Y  Y2  1  0.50000000  0.00000000  0.50000000  1
  Y  Y3  1  0.00000000  0.00000000  0.00000000  1
  Fe  Fe4  1  0.00000000  0.50000000  0.00000000  1
  Fe  Fe5  1  0.00000000  0.00000000  0.50000000  1
  Sb  Sb6  1  0.00000000  0.50000000  0.50000000  1
  Sb  Sb7  1  0.50000000  0.50000000  0.00000000  1
  O  O8  1  0.32984400  0.57984400  0.75000000  1
  O  O9  1  0.91230000  0.16230000  0.75000000  1
  O  O10  1  0.33839600  0.16955700  0.75976500  1
  O  O11  1  0.90979200  0.57863100  0.74023500  1
  O  O12  1  0.33839600  0.57863100  0.16883900  1
  O  O13  1  0.90979200  0.16955700  0.33116100  1
  O  O14  1  0.67015600  0.42015600  0.25000000  1
  O  O15  1  0.08770000  0.83770000  0.25000000  1
  O  O16  1  0.66160400  0.83044300  0.24023500  1
  O  O17  1  0.09020800  0.42136900  0.25976500  1
  O  O18  1  0.66160400  0.42136900  0.83116100  1
  O  O19  1  0.09020800  0.83044300  0.66883900  1
  O  O20  1  0.62277600  0.87277600  0.75000000  1
  O  O21  1  0.37722400  0.12722400  0.25000000  1
