# generated using pymatgen
data_Rb2Mn3S4
_symmetry_space_group_name_H-M   'P 1'
_cell_length_a   6.08300500
_cell_length_b   9.44307457
_cell_length_c   9.44307457
_cell_angle_alpha   74.47569751
_cell_angle_beta   71.21074823
_cell_angle_gamma   71.21074823
_symmetry_Int_Tables_number   1
_chemical_formula_structural   Rb2Mn3S4
_chemical_formula_sum   'Rb4 Mn6 S8'
_cell_volume   477.96057092
_cell_formula_units_Z   2
loop_
 _symmetry_equiv_pos_site_id
 _symmetry_equiv_pos_as_xyz
  1  'x, y, z'
loop_
 _atom_site_type_symbol
 _atom_site_label
 _atom_site_symmetry_multiplicity
 _atom_site_fract_x
 _atom_site_fract_y
 _atom_site_fract_z
 _atom_site_occupancy
  Rb  Rb0  1  0.73686300  0.37853300  0.62146700  1
  Rb  Rb1  1  0.26313700  0.62146700  0.37853300  1
  Rb  Rb2  1  0.76313700  0.87853300  0.12146700  1
  Rb  Rb3  1  0.23686300  0.12146700  0.87853300  1
  Mn  Mn4  1  0.75000000  0.75000000  0.75000000  1
  Mn  Mn5  1  0.25000000  0.25000000  0.25000000  1
  Mn  Mn6  1  0.25000000  0.52559600  0.97440400  1
  Mn  Mn7  1  0.25000000  0.97440400  0.52559600  1
  Mn  Mn8  1  0.75000000  0.47440400  0.02559600  1
  Mn  Mn9  1  0.75000000  0.02559600  0.47440400  1
  S  S10  1  0.56663500  0.28574400  0.01694100  1
  S  S11  1  0.13068000  0.01694100  0.28574400  1
  S  S12  1  0.93336500  0.48305900  0.21425600  1
  S  S13  1  0.36932000  0.21425600  0.48305900  1
  S  S14  1  0.43336500  0.71425600  0.98305900  1
  S  S15  1  0.86932000  0.98305900  0.71425600  1
  S  S16  1  0.06663500  0.51694100  0.78574400  1
  S  S17  1  0.63068000  0.78574400  0.51694100  1
