# generated using pymatgen
data_Cs2V3O8
_symmetry_space_group_name_H-M   'P 1'
_cell_length_a   9.08916700
_cell_length_b   9.08916700
_cell_length_c   6.16873300
_cell_angle_alpha   90.00000000
_cell_angle_beta   90.00000000
_cell_angle_gamma   90.00000000
_symmetry_Int_Tables_number   1
_chemical_formula_structural   Cs2V3O8
_chemical_formula_sum   'Cs4 V6 O16'
_cell_volume   509.61727256
_cell_formula_units_Z   2
loop_
 _symmetry_equiv_pos_site_id
 _symmetry_equiv_pos_as_xyz
  1  'x, y, z'
loop_
 _atom_site_type_symbol
 _atom_site_label
 _atom_site_symmetry_multiplicity
 _atom_site_fract_x
 _atom_site_fract_y
 _atom_site_fract_z
 _atom_site_occupancy
  Cs  Cs0  1  0.32524800  0.17475200  0.46715100  1
  Cs  Cs1  1  0.67475200  0.82524800  0.46715100  1
  Cs  Cs2  1  0.82524800  0.32524800  0.46715100  1
  Cs  Cs3  1  0.17475200  0.67475200  0.46715100  1
  V  V4  1  0.36801200  0.86801200  0.98513400  1
  V  V5  1  0.63198800  0.13198800  0.98513400  1
  V  V6  1  0.86801200  0.63198800  0.98513400  1
  V  V7  1  0.13198800  0.36801200  0.98513400  1
  V  V8  1  0.50000000  0.50000000  0.98268300  1
  V  V9  1  0.00000000  0.00000000  0.98268300  1
  O  O10  1  0.50000000  0.50000000  0.71585100  1
  O  O11  1  0.00000000  0.00000000  0.71585100  1
  O  O12  1  0.37547000  0.87547000  0.71546700  1
  O  O13  1  0.62453000  0.12453000  0.71546700  1
  O  O14  1  0.87547000  0.62453000  0.71546700  1
  O  O15  1  0.12453000  0.37547000  0.71546700  1
  O  O16  1  0.41602400  0.69300900  0.07900200  1
  O  O17  1  0.58397600  0.30699100  0.07900200  1
  O  O18  1  0.91602400  0.80699100  0.07900200  1
  O  O19  1  0.08397600  0.19300900  0.07900200  1
  O  O20  1  0.30699100  0.41602400  0.07900200  1
  O  O21  1  0.69300900  0.58397600  0.07900200  1
  O  O22  1  0.19300900  0.91602400  0.07900200  1
  O  O23  1  0.80699100  0.08397600  0.07900200  1
  O  O24  1  0.50000000  0.00000000  0.10035500  1
  O  O25  1  0.00000000  0.50000000  0.10035500  1
