# generated using pymatgen
data_Ba6Nd2Fe4O15
_symmetry_space_group_name_H-M   'P 1'
_cell_length_a   11.94448049
_cell_length_b   11.94448049
_cell_length_c   7.17301712
_cell_angle_alpha   89.83867884
_cell_angle_beta   89.83867884
_cell_angle_gamma   119.52526922
_symmetry_Int_Tables_number   1
_chemical_formula_structural   Ba6Nd2Fe4O15
_chemical_formula_sum   'Ba12 Nd4 Fe8 O30'
_cell_volume   890.46727425
_cell_formula_units_Z   2
loop_
 _symmetry_equiv_pos_site_id
 _symmetry_equiv_pos_as_xyz
  1  'x, y, z'
loop_
 _atom_site_type_symbol
 _atom_site_label
 _atom_site_symmetry_multiplicity
 _atom_site_fract_x
 _atom_site_fract_y
 _atom_site_fract_z
 _atom_site_occupancy
  Ba  Ba0  1  0.33284700  0.66542000  0.98064500  1
  Ba  Ba1  1  0.66542000  0.33284700  0.48064500  1
  Ba  Ba2  1  0.34785000  0.17396300  0.16373000  1
  Ba  Ba3  1  0.82798400  0.65247300  0.16501600  1
  Ba  Ba4  1  0.82814700  0.17739500  0.16539900  1
  Ba  Ba5  1  0.65247300  0.82798400  0.66501600  1
  Ba  Ba6  1  0.17396300  0.34785000  0.66373000  1
  Ba  Ba7  1  0.17739500  0.82814700  0.66539900  1
  Ba  Ba8  1  0.95462800  0.47858200  0.83134000  1
  Ba  Ba9  1  0.47858200  0.95462800  0.33134000  1
  Ba  Ba10  1  0.99883900  0.00007500  0.50601600  1
  Ba  Ba11  1  0.00007500  0.99883900  0.00601600  1
  Nd  Nd12  1  0.52207000  0.04335300  0.83335900  1
  Nd  Nd13  1  0.52113700  0.48001200  0.83970100  1
  Nd  Nd14  1  0.04335300  0.52207000  0.33335900  1
  Nd  Nd15  1  0.48001200  0.52113700  0.33970100  1
  Fe  Fe16  1  0.66624300  0.33699700  0.02750000  1
  Fe  Fe17  1  0.33699700  0.66624300  0.52750000  1
  Fe  Fe18  1  0.18158000  0.82384800  0.16736800  1
  Fe  Fe19  1  0.64141000  0.81798500  0.15894400  1
  Fe  Fe20  1  0.18367700  0.35676000  0.17265400  1
  Fe  Fe21  1  0.82384800  0.18158000  0.66736800  1
  Fe  Fe22  1  0.35676000  0.18367700  0.67265400  1
  Fe  Fe23  1  0.81798500  0.64141000  0.65894400  1
  O  O24  1  0.80392000  0.90173600  0.26847000  1
  O  O25  1  0.10336100  0.19116200  0.27205900  1
  O  O26  1  0.10450900  0.91115400  0.27492300  1
  O  O27  1  0.19116200  0.10336100  0.77205900  1
  O  O28  1  0.90173600  0.80392000  0.76847000  1
  O  O29  1  0.91115400  0.10450900  0.77492300  1
  O  O30  1  0.73980200  0.24141800  0.84261800  1
  O  O31  1  0.49750800  0.25574900  0.84762900  1
  O  O32  1  0.73778700  0.50274900  0.84102200  1
  O  O33  1  0.24141800  0.73980200  0.34261800  1
  O  O34  1  0.50274900  0.73778700  0.34102200  1
  O  O35  1  0.25574900  0.49750800  0.34762900  1
  O  O36  1  0.41910800  0.58170700  0.67326100  1
  O  O37  1  0.17466000  0.58381000  0.66168600  1
  O  O38  1  0.41601300  0.82644600  0.68004200  1
  O  O39  1  0.58170700  0.41910800  0.17326100  1
  O  O40  1  0.82644600  0.41601300  0.18004200  1
  O  O41  1  0.58381000  0.17466000  0.16168600  1
  O  O42  1  0.67158800  0.06280200  0.55059700  1
  O  O43  1  0.39807000  0.33647500  0.53451300  1
  O  O44  1  0.92997100  0.60825300  0.50789900  1
  O  O45  1  0.39560500  0.06678000  0.55655700  1
  O  O46  1  0.93400200  0.32358700  0.50878400  1
  O  O47  1  0.66463700  0.60245800  0.52855600  1
  O  O48  1  0.32358700  0.93400200  0.00878400  1
  O  O49  1  0.60245800  0.66463700  0.02855600  1
  O  O50  1  0.06678000  0.39560500  0.05655700  1
  O  O51  1  0.60825300  0.92997100  0.00789900  1
  O  O52  1  0.06280200  0.67158800  0.05059700  1
  O  O53  1  0.33647500  0.39807000  0.03451300  1
