# generated using pymatgen
data_MgU8Se17
_symmetry_space_group_name_H-M   'P 1'
_cell_length_a   8.25237086
_cell_length_b   8.25237086
_cell_length_c   10.98814778
_cell_angle_alpha   79.84680495
_cell_angle_beta   79.84680495
_cell_angle_gamma   64.05274324
_symmetry_Int_Tables_number   1
_chemical_formula_structural   MgU8Se17
_chemical_formula_sum   'Mg1 U8 Se17'
_cell_volume   658.17281096
_cell_formula_units_Z   1
loop_
 _symmetry_equiv_pos_site_id
 _symmetry_equiv_pos_as_xyz
  1  'x, y, z'
loop_
 _atom_site_type_symbol
 _atom_site_label
 _atom_site_symmetry_multiplicity
 _atom_site_fract_x
 _atom_site_fract_y
 _atom_site_fract_z
 _atom_site_occupancy
  Mg  Mg0  1  0.00000000  0.00000000  0.00000000  1
  U  U1  1  0.18205500  0.69707600  0.69953700  1
  U  U2  1  0.69707600  0.18205500  0.69953700  1
  U  U3  1  0.81794500  0.30292400  0.30046300  1
  U  U4  1  0.30292400  0.81794500  0.30046300  1
  U  U5  1  0.79874100  0.79874100  0.46014000  1
  U  U6  1  0.20125900  0.20125900  0.53986000  1
  U  U7  1  0.32017500  0.32017500  0.01122800  1
  U  U8  1  0.67982500  0.67982500  0.98877200  1
  Se  Se9  1  0.18102700  0.56525600  0.46466600  1
  Se  Se10  1  0.56525600  0.18102700  0.46466600  1
  Se  Se11  1  0.81897300  0.43474400  0.53533400  1
  Se  Se12  1  0.43474400  0.81897300  0.53533400  1
  Se  Se13  1  0.05609200  0.67131500  0.96390400  1
  Se  Se14  1  0.67131500  0.05609200  0.96390400  1
  Se  Se15  1  0.94390800  0.32868500  0.03609600  1
  Se  Se16  1  0.32868500  0.94390800  0.03609600  1
  Se  Se17  1  0.78636800  0.78636800  0.72333100  1
  Se  Se18  1  0.21363200  0.21363200  0.27666900  1
  Se  Se19  1  0.94062000  0.94062000  0.23428600  1
  Se  Se20  1  0.05938000  0.05938000  0.76571400  1
  Se  Se21  1  0.69983400  0.69983400  0.24789900  1
  Se  Se22  1  0.30016600  0.30016600  0.75210100  1
  Se  Se23  1  0.47934400  0.47934400  0.17121800  1
  Se  Se24  1  0.52065600  0.52065600  0.82878200  1
  Se  Se25  1  0.00000000  0.00000000  0.50000000  1
