# generated using pymatgen
data_Gd2(Al3Rh)3
_symmetry_space_group_name_H-M   'P 1'
_cell_length_a   7.55889023
_cell_length_b   7.55889023
_cell_length_c   9.51206200
_cell_angle_alpha   90.00000000
_cell_angle_beta   90.00000000
_cell_angle_gamma   119.48159314
_symmetry_Int_Tables_number   1
_chemical_formula_structural   Gd2(Al3Rh)3
_chemical_formula_sum   'Gd4 Al18 Rh6'
_cell_volume   473.11469024
_cell_formula_units_Z   2
loop_
 _symmetry_equiv_pos_site_id
 _symmetry_equiv_pos_as_xyz
  1  'x, y, z'
loop_
 _atom_site_type_symbol
 _atom_site_label
 _atom_site_symmetry_multiplicity
 _atom_site_fract_x
 _atom_site_fract_y
 _atom_site_fract_z
 _atom_site_occupancy
  Gd  Gd0  1  0.99551400  0.66874700  0.25000000  1
  Gd  Gd1  1  0.00448600  0.33125300  0.75000000  1
  Gd  Gd2  1  0.66874700  0.99551400  0.25000000  1
  Gd  Gd3  1  0.33125300  0.00448600  0.75000000  1
  Al  Al4  1  0.12594000  0.12594000  0.25000000  1
  Al  Al5  1  0.87406000  0.87406000  0.75000000  1
  Al  Al6  1  0.00192700  0.33448000  0.07307800  1
  Al  Al7  1  0.99807300  0.66552000  0.92692200  1
  Al  Al8  1  0.99807300  0.66552000  0.57307800  1
  Al  Al9  1  0.33448000  0.00192700  0.42692200  1
  Al  Al10  1  0.00192700  0.33448000  0.42692200  1
  Al  Al11  1  0.66552000  0.99807300  0.57307800  1
  Al  Al12  1  0.66552000  0.99807300  0.92692200  1
  Al  Al13  1  0.33448000  0.00192700  0.07307800  1
  Al  Al14  1  0.33409500  0.33409500  0.55342300  1
  Al  Al15  1  0.66590500  0.66590500  0.44657700  1
  Al  Al16  1  0.66590500  0.66590500  0.05342300  1
  Al  Al17  1  0.33409500  0.33409500  0.94657700  1
  Al  Al18  1  0.33703800  0.54674200  0.25000000  1
  Al  Al19  1  0.66296200  0.45325800  0.75000000  1
  Al  Al20  1  0.54674200  0.33703800  0.25000000  1
  Al  Al21  1  0.45325800  0.66296200  0.75000000  1
  Rh  Rh22  1  0.67160200  0.32839800  0.00000000  1
  Rh  Rh23  1  0.32839800  0.67160200  0.00000000  1
  Rh  Rh24  1  0.32839800  0.67160200  0.50000000  1
  Rh  Rh25  1  0.67160200  0.32839800  0.50000000  1
  Rh  Rh26  1  0.00000000  0.00000000  0.00000000  1
  Rh  Rh27  1  0.00000000  0.00000000  0.50000000  1
