# generated using pymatgen
data_Sr(BiS2)2
_symmetry_space_group_name_H-M   'P 1'
_cell_length_a   25.28914164
_cell_length_b   25.28914164
_cell_length_c   4.09433100
_cell_angle_alpha   90.00000000
_cell_angle_beta   90.00000000
_cell_angle_gamma   119.99999907
_symmetry_Int_Tables_number   1
_chemical_formula_structural   Sr(BiS2)2
_chemical_formula_sum   'Sr12 Bi24 S48'
_cell_volume   2267.67996564
_cell_formula_units_Z   12
loop_
 _symmetry_equiv_pos_site_id
 _symmetry_equiv_pos_as_xyz
  1  'x, y, z'
loop_
 _atom_site_type_symbol
 _atom_site_label
 _atom_site_symmetry_multiplicity
 _atom_site_fract_x
 _atom_site_fract_y
 _atom_site_fract_z
 _atom_site_occupancy
  Sr  Sr0  1  0.23454200  0.67924600  0.25000000  1
  Sr  Sr1  1  0.44470400  0.76545800  0.25000000  1
  Sr  Sr2  1  0.32075400  0.55529600  0.25000000  1
  Sr  Sr3  1  0.76545800  0.32075400  0.75000000  1
  Sr  Sr4  1  0.55529600  0.23454200  0.75000000  1
  Sr  Sr5  1  0.67924600  0.44470400  0.75000000  1
  Sr  Sr6  1  0.12081100  0.76834100  0.25000000  1
  Sr  Sr7  1  0.64752900  0.87918900  0.25000000  1
  Sr  Sr8  1  0.23165900  0.35247100  0.25000000  1
  Sr  Sr9  1  0.87918900  0.23165900  0.75000000  1
  Sr  Sr10  1  0.35247100  0.12081100  0.75000000  1
  Sr  Sr11  1  0.76834100  0.64752900  0.75000000  1
  Bi  Bi12  1  0.66854400  0.72773200  0.25000000  1
  Bi  Bi13  1  0.05918800  0.33145600  0.25000000  1
  Bi  Bi14  1  0.27226800  0.94081200  0.25000000  1
  Bi  Bi15  1  0.33145600  0.27226800  0.75000000  1
  Bi  Bi16  1  0.94081200  0.66854400  0.75000000  1
  Bi  Bi17  1  0.72773200  0.05918800  0.75000000  1
  Bi  Bi18  1  0.49736000  0.35068000  0.25000000  1
  Bi  Bi19  1  0.85332000  0.50264000  0.25000000  1
  Bi  Bi20  1  0.64932000  0.14668000  0.25000000  1
  Bi  Bi21  1  0.50264000  0.64932000  0.75000000  1
  Bi  Bi22  1  0.14668000  0.49736000  0.75000000  1
  Bi  Bi23  1  0.35068000  0.85332000  0.75000000  1
  Bi  Bi24  1  0.59289200  0.54054700  0.25000000  1
  Bi  Bi25  1  0.94765500  0.40710800  0.25000000  1
  Bi  Bi26  1  0.45945300  0.05234500  0.25000000  1
  Bi  Bi27  1  0.40710800  0.45945300  0.75000000  1
  Bi  Bi28  1  0.05234500  0.59289200  0.75000000  1
  Bi  Bi29  1  0.54054700  0.94765500  0.75000000  1
  Bi  Bi30  1  0.17680900  0.15423200  0.25000000  1
  Bi  Bi31  1  0.97742400  0.82319100  0.25000000  1
  Bi  Bi32  1  0.84576800  0.02257600  0.25000000  1
  Bi  Bi33  1  0.82319100  0.84576800  0.75000000  1
  Bi  Bi34  1  0.02257600  0.17680900  0.75000000  1
  Bi  Bi35  1  0.15423200  0.97742400  0.75000000  1
  S  S36  1  0.26951000  0.81925000  0.25000000  1
  S  S37  1  0.54974000  0.73049000  0.25000000  1
  S  S38  1  0.18075000  0.45026000  0.25000000  1
  S  S39  1  0.73049000  0.18075000  0.75000000  1
  S  S40  1  0.45026000  0.26951000  0.75000000  1
  S  S41  1  0.81925000  0.54974000  0.75000000  1
  S  S42  1  0.69781400  0.54586700  0.25000000  1
  S  S43  1  0.84805300  0.30218600  0.25000000  1
  S  S44  1  0.45413300  0.15194700  0.25000000  1
  S  S45  1  0.30218600  0.45413300  0.75000000  1
  S  S46  1  0.15194700  0.69781400  0.75000000  1
  S  S47  1  0.54586700  0.84805300  0.75000000  1
  S  S48  1  0.45298200  0.90620300  0.25000000  1
  S  S49  1  0.45322100  0.54701800  0.25000000  1
  S  S50  1  0.09379700  0.54677900  0.25000000  1
  S  S51  1  0.54701800  0.09379700  0.75000000  1
  S  S52  1  0.54677900  0.45298200  0.75000000  1
  S  S53  1  0.90620300  0.45322100  0.75000000  1
  S  S54  1  0.77973300  0.74361300  0.25000000  1
  S  S55  1  0.96387900  0.22026700  0.25000000  1
  S  S56  1  0.25638700  0.03612100  0.25000000  1
  S  S57  1  0.22026700  0.25638700  0.75000000  1
  S  S58  1  0.03612100  0.77973300  0.75000000  1
  S  S59  1  0.74361300  0.96387900  0.75000000  1
  S  S60  1  0.36689800  0.36684700  0.25000000  1
  S  S61  1  0.99994900  0.63310200  0.25000000  1
  S  S62  1  0.63315300  0.00005100  0.25000000  1
  S  S63  1  0.63310200  0.63315300  0.75000000  1
  S  S64  1  0.00005100  0.36689800  0.75000000  1
  S  S65  1  0.36684700  0.99994900  0.75000000  1
  S  S66  1  0.59542500  0.34475300  0.25000000  1
  S  S67  1  0.74932800  0.40457500  0.25000000  1
  S  S68  1  0.65524700  0.25067200  0.25000000  1
  S  S69  1  0.40457500  0.65524700  0.75000000  1
  S  S70  1  0.25067200  0.59542500  0.75000000  1
  S  S71  1  0.34475300  0.74932800  0.75000000  1
  S  S72  1  0.88127500  0.69262800  0.25000000  1
  S  S73  1  0.81135400  0.11872500  0.25000000  1
  S  S74  1  0.30737200  0.18864600  0.25000000  1
  S  S75  1  0.11872500  0.30737200  0.75000000  1
  S  S76  1  0.18864600  0.88127500  0.75000000  1
  S  S77  1  0.69262800  0.81135400  0.75000000  1
  S  S78  1  0.07439300  0.93907100  0.25000000  1
  S  S79  1  0.86467800  0.92560700  0.25000000  1
  S  S80  1  0.06092900  0.13532200  0.25000000  1
  S  S81  1  0.92560700  0.06092900  0.75000000  1
  S  S82  1  0.13532200  0.07439300  0.75000000  1
  S  S83  1  0.93907100  0.86467800  0.75000000  1
