# generated using pymatgen
data_Lu(Al5Os)2
_symmetry_space_group_name_H-M   'P 1'
_cell_length_a   6.85446322
_cell_length_b   6.85446322
_cell_length_c   9.12904900
_cell_angle_alpha   90.00000000
_cell_angle_beta   90.00000000
_cell_angle_gamma   96.51650015
_symmetry_Int_Tables_number   1
_chemical_formula_structural   Lu(Al5Os)2
_chemical_formula_sum   'Lu2 Al20 Os4'
_cell_volume   426.14505428
_cell_formula_units_Z   2
loop_
 _symmetry_equiv_pos_site_id
 _symmetry_equiv_pos_as_xyz
  1  'x, y, z'
loop_
 _atom_site_type_symbol
 _atom_site_label
 _atom_site_symmetry_multiplicity
 _atom_site_fract_x
 _atom_site_fract_y
 _atom_site_fract_z
 _atom_site_occupancy
  Lu  Lu0  1  0.86884500  0.13115500  0.75000000  1
  Lu  Lu1  1  0.13115500  0.86884500  0.25000000  1
  Al  Al2  1  0.51891200  0.78313300  0.75000000  1
  Al  Al3  1  0.78313300  0.51891200  0.25000000  1
  Al  Al4  1  0.48108800  0.21686700  0.25000000  1
  Al  Al5  1  0.21686700  0.48108800  0.75000000  1
  Al  Al6  1  0.62403500  0.37596500  0.95357100  1
  Al  Al7  1  0.37596500  0.62403500  0.04642900  1
  Al  Al8  1  0.62403500  0.37596500  0.54642900  1
  Al  Al9  1  0.37596500  0.62403500  0.45357100  1
  Al  Al10  1  0.41825900  0.14818800  0.75000000  1
  Al  Al11  1  0.14818800  0.41825900  0.25000000  1
  Al  Al12  1  0.58174100  0.85181200  0.25000000  1
  Al  Al13  1  0.85181200  0.58174100  0.75000000  1
  Al  Al14  1  0.84539900  0.15460100  0.39923200  1
  Al  Al15  1  0.15460100  0.84539900  0.60076800  1
  Al  Al16  1  0.84539900  0.15460100  0.10076800  1
  Al  Al17  1  0.15460100  0.84539900  0.89923200  1
  Al  Al18  1  0.77580700  0.77580700  0.00000000  1
  Al  Al19  1  0.77580700  0.77580700  0.50000000  1
  Al  Al20  1  0.22419300  0.22419300  0.00000000  1
  Al  Al21  1  0.22419300  0.22419300  0.50000000  1
  Os  Os22  1  0.50000000  0.00000000  0.00000000  1
  Os  Os23  1  0.00000000  0.50000000  0.00000000  1
  Os  Os24  1  0.50000000  0.00000000  0.50000000  1
  Os  Os25  1  0.00000000  0.50000000  0.50000000  1
