# generated using pymatgen
data_Sm11Sn10
_symmetry_space_group_name_H-M   'P 1'
_cell_length_a   12.13467500
_cell_length_b   12.13467500
_cell_length_c   12.13467500
_cell_angle_alpha   121.46311035
_cell_angle_beta   121.46311035
_cell_angle_gamma   87.48396543
_symmetry_Int_Tables_number   1
_chemical_formula_structural   Sm11Sn10
_chemical_formula_sum   'Sm22 Sn20'
_cell_volume   1234.24810451
_cell_formula_units_Z   2
loop_
 _symmetry_equiv_pos_site_id
 _symmetry_equiv_pos_as_xyz
  1  'x, y, z'
loop_
 _atom_site_type_symbol
 _atom_site_label
 _atom_site_symmetry_multiplicity
 _atom_site_fract_x
 _atom_site_fract_y
 _atom_site_fract_z
 _atom_site_occupancy
  Sm  Sm0  1  0.81045900  0.06192500  0.25146600  1
  Sm  Sm1  1  0.81045900  0.55899300  0.74853400  1
  Sm  Sm2  1  0.06192500  0.81045900  0.25146600  1
  Sm  Sm3  1  0.55899300  0.81045900  0.74853400  1
  Sm  Sm4  1  0.18954100  0.93807500  0.74853400  1
  Sm  Sm5  1  0.18954100  0.44100700  0.25146600  1
  Sm  Sm6  1  0.93807500  0.18954100  0.74853400  1
  Sm  Sm7  1  0.44100700  0.18954100  0.25146600  1
  Sm  Sm8  1  0.17486900  0.17486900  0.34973900  1
  Sm  Sm9  1  0.82513100  0.82513100  0.65026100  1
  Sm  Sm10  1  0.17486900  0.82513100  0.00000000  1
  Sm  Sm11  1  0.82513100  0.17486900  0.00000000  1
  Sm  Sm12  1  0.66199600  0.66199600  0.00000000  1
  Sm  Sm13  1  0.33800400  0.33800400  0.00000000  1
  Sm  Sm14  1  0.60231500  0.92986700  0.32755200  1
  Sm  Sm15  1  0.60231500  0.27476200  0.67244800  1
  Sm  Sm16  1  0.92986700  0.60231500  0.32755200  1
  Sm  Sm17  1  0.27476200  0.60231500  0.67244800  1
  Sm  Sm18  1  0.39768500  0.07013300  0.67244800  1
  Sm  Sm19  1  0.39768500  0.72523800  0.32755200  1
  Sm  Sm20  1  0.07013300  0.39768500  0.67244800  1
  Sm  Sm21  1  0.72523800  0.39768500  0.32755200  1
  Sn  Sn22  1  0.35866700  0.00000000  0.35866700  1
  Sn  Sn23  1  0.64133300  0.00000000  0.64133300  1
  Sn  Sn24  1  0.00000000  0.64133300  0.64133300  1
  Sn  Sn25  1  0.00000000  0.35866700  0.35866700  1
  Sn  Sn26  1  0.88937300  0.88937300  0.00000000  1
  Sn  Sn27  1  0.11062700  0.11062700  0.00000000  1
  Sn  Sn28  1  0.37260700  0.37260700  0.74521300  1
  Sn  Sn29  1  0.62739300  0.62739300  0.25478700  1
  Sn  Sn30  1  0.37260700  0.62739300  0.00000000  1
  Sn  Sn31  1  0.62739300  0.37260700  0.00000000  1
  Sn  Sn32  1  0.75000000  0.25000000  0.50000000  1
  Sn  Sn33  1  0.25000000  0.75000000  0.50000000  1
  Sn  Sn34  1  0.88499700  0.88499700  0.41548900  1
  Sn  Sn35  1  0.46950800  0.46950800  0.58451100  1
  Sn  Sn36  1  0.88499700  0.46950800  0.00000000  1
  Sn  Sn37  1  0.46950800  0.88499700  0.00000000  1
  Sn  Sn38  1  0.11500300  0.11500300  0.58451100  1
  Sn  Sn39  1  0.53049200  0.53049200  0.41548900  1
  Sn  Sn40  1  0.11500300  0.53049200  0.00000000  1
  Sn  Sn41  1  0.53049200  0.11500300  0.00000000  1
