# generated using pymatgen
data_Tc3P
_symmetry_space_group_name_H-M   'P 1'
_cell_length_a   7.18585571
_cell_length_b   7.18585571
_cell_length_c   7.18585571
_cell_angle_alpha   96.56429144
_cell_angle_beta   96.56429144
_cell_angle_gamma   140.47652858
_symmetry_Int_Tables_number   1
_chemical_formula_structural   Tc3P
_chemical_formula_sum   'Tc12 P4'
_cell_volume   222.22895131
_cell_formula_units_Z   4
loop_
 _symmetry_equiv_pos_site_id
 _symmetry_equiv_pos_as_xyz
  1  'x, y, z'
loop_
 _atom_site_type_symbol
 _atom_site_label
 _atom_site_symmetry_multiplicity
 _atom_site_fract_x
 _atom_site_fract_y
 _atom_site_fract_z
 _atom_site_occupancy
  Tc  Tc0  1  0.35310900  0.00195600  0.34614600  1
  Tc  Tc1  1  0.99804400  0.34419000  0.35115300  1
  Tc  Tc2  1  0.99303800  0.64689100  0.64884700  1
  Tc  Tc3  1  0.65581000  0.00696200  0.65385400  1
  Tc  Tc4  1  0.49600800  0.08758600  0.99465000  1
  Tc  Tc5  1  0.91241400  0.90706400  0.40842200  1
  Tc  Tc6  1  0.49864200  0.50399200  0.59157800  1
  Tc  Tc7  1  0.09293600  0.50135800  0.00535000  1
  Tc  Tc8  1  0.70750300  0.90462200  0.99935100  1
  Tc  Tc9  1  0.09537800  0.09472900  0.80288100  1
  Tc  Tc10  1  0.29184800  0.29249700  0.19711900  1
  Tc  Tc11  1  0.90527100  0.70815200  0.00064900  1
  P  P12  1  0.20886700  0.50290500  0.71191200  1
  P  P13  1  0.49709500  0.20900800  0.70596200  1
  P  P14  1  0.50304500  0.79113300  0.29403800  1
  P  P15  1  0.79099200  0.49695500  0.28808800  1
