# generated using pymatgen
data_La3Pt4
_symmetry_space_group_name_H-M   'P 1'
_cell_length_a   8.27198080
_cell_length_b   8.27198080
_cell_length_c   8.27198134
_cell_angle_alpha   114.59046088
_cell_angle_beta   114.59046088
_cell_angle_gamma   114.59046094
_symmetry_Int_Tables_number   1
_chemical_formula_structural   La3Pt4
_chemical_formula_sum   'La6 Pt8'
_cell_volume   328.28525220
_cell_formula_units_Z   2
loop_
 _symmetry_equiv_pos_site_id
 _symmetry_equiv_pos_as_xyz
  1  'x, y, z'
loop_
 _atom_site_type_symbol
 _atom_site_label
 _atom_site_symmetry_multiplicity
 _atom_site_fract_x
 _atom_site_fract_y
 _atom_site_fract_z
 _atom_site_occupancy
  La  La0  1  0.40535100  0.02947400  0.28160100  1
  La  La1  1  0.02947400  0.28160100  0.40535100  1
  La  La2  1  0.28160100  0.40535100  0.02947400  1
  La  La3  1  0.59464900  0.97052600  0.71839900  1
  La  La4  1  0.97052600  0.71839900  0.59464900  1
  La  La5  1  0.71839900  0.59464900  0.97052600  1
  Pt  Pt6  1  0.00000000  0.00000000  0.00000000  1
  Pt  Pt7  1  0.50000000  0.50000000  0.50000000  1
  Pt  Pt8  1  0.22223700  0.05875100  0.55257100  1
  Pt  Pt9  1  0.05875100  0.55257100  0.22223700  1
  Pt  Pt10  1  0.55257100  0.22223700  0.05875100  1
  Pt  Pt11  1  0.77776300  0.94124900  0.44742900  1
  Pt  Pt12  1  0.94124900  0.44742900  0.77776300  1
  Pt  Pt13  1  0.44742900  0.77776300  0.94124900  1
