# generated using pymatgen
data_Rb3B(SO4)3
_symmetry_space_group_name_H-M   'P 1'
_cell_length_a   14.25686564
_cell_length_b   14.25686564
_cell_length_c   14.25686564
_cell_angle_alpha   149.91240523
_cell_angle_beta   116.24476957
_cell_angle_gamma   72.09336590
_symmetry_Int_Tables_number   1
_chemical_formula_structural   Rb3B(SO4)3
_chemical_formula_sum   'Rb12 B4 S12 O48'
_cell_volume   1284.65763706
_cell_formula_units_Z   4
loop_
 _symmetry_equiv_pos_site_id
 _symmetry_equiv_pos_as_xyz
  1  'x, y, z'
loop_
 _atom_site_type_symbol
 _atom_site_label
 _atom_site_symmetry_multiplicity
 _atom_site_fract_x
 _atom_site_fract_y
 _atom_site_fract_z
 _atom_site_occupancy
  Rb  Rb0  1  0.29354600  0.30506600  0.24434400  1
  Rb  Rb1  1  0.20645400  0.45079900  0.01152000  1
  Rb  Rb2  1  0.93927800  0.19493400  0.48848000  1
  Rb  Rb3  1  0.56072200  0.04920100  0.25565600  1
  Rb  Rb4  1  0.70645400  0.69493400  0.75565600  1
  Rb  Rb5  1  0.79354600  0.54920100  0.98848000  1
  Rb  Rb6  1  0.06072200  0.80506600  0.51152000  1
  Rb  Rb7  1  0.43927800  0.95079900  0.74434400  1
  Rb  Rb8  1  0.55671900  0.75000000  0.30671900  1
  Rb  Rb9  1  0.94328100  0.25000000  0.19328100  1
  Rb  Rb10  1  0.44328100  0.25000000  0.69328100  1
  Rb  Rb11  1  0.05671900  0.75000000  0.80671900  1
  B  B12  1  0.66916600  0.41916600  0.25000000  1
  B  B13  1  0.83083400  0.08083400  0.75000000  1
  B  B14  1  0.33083400  0.58083400  0.75000000  1
  B  B15  1  0.16916600  0.91916600  0.25000000  1
  S  S16  1  0.46879700  0.47869700  0.26113700  1
  S  S17  1  0.03120300  0.29234000  0.00990000  1
  S  S18  1  0.78244100  0.02130300  0.49010000  1
  S  S19  1  0.71755900  0.20766000  0.23886300  1
  S  S20  1  0.53120300  0.52130300  0.73886300  1
  S  S21  1  0.96879700  0.70766000  0.99010000  1
  S  S22  1  0.21755900  0.97869700  0.50990000  1
  S  S23  1  0.28244100  0.79234000  0.76113700  1
  S  S24  1  0.81138400  0.75000000  0.56138400  1
  S  S25  1  0.68861600  0.25000000  0.93861600  1
  S  S26  1  0.18861600  0.25000000  0.43861600  1
  S  S27  1  0.31138400  0.75000000  0.06138400  1
  O  O28  1  0.71964600  0.40067700  0.34608100  1
  O  O29  1  0.78035400  0.12643500  0.68103100  1
  O  O30  1  0.94540300  0.09932300  0.81896900  1
  O  O31  1  0.55459700  0.37356500  0.15391900  1
  O  O32  1  0.28035400  0.59932300  0.65391900  1
  O  O33  1  0.21964600  0.87356500  0.31896900  1
  O  O34  1  0.05459700  0.90067700  0.18103100  1
  O  O35  1  0.44540300  0.62643500  0.84608100  1
  O  O36  1  0.38194400  0.32242100  0.10680100  1
  O  O37  1  0.11805600  0.22485600  0.94047700  1
  O  O38  1  0.78437900  0.17757900  0.55952300  1
  O  O39  1  0.71562100  0.27514400  0.39319900  1
  O  O40  1  0.61805600  0.67757900  0.89319900  1
  O  O41  1  0.88194400  0.77514400  0.05952300  1
  O  O42  1  0.21562100  0.82242100  0.44047700  1
  O  O43  1  0.28437900  0.72485600  0.60680100  1
  O  O44  1  0.16492900  0.13749300  0.24633100  1
  O  O45  1  0.33507100  0.58140200  0.97256400  1
  O  O46  1  0.10883800  0.36250700  0.52743600  1
  O  O47  1  0.39116200  0.91859800  0.25366900  1
  O  O48  1  0.83507100  0.86250700  0.75366900  1
  O  O49  1  0.66492900  0.41859800  0.02743600  1
  O  O50  1  0.89116200  0.63749300  0.47256400  1
  O  O51  1  0.60883800  0.08140200  0.74633100  1
  O  O52  1  0.70033000  0.62507200  0.41172100  1
  O  O53  1  0.79967000  0.21139100  0.92474100  1
  O  O54  1  0.78664900  0.87492800  0.57525900  1
  O  O55  1  0.71335100  0.28860900  0.08827900  1
  O  O56  1  0.29967000  0.37492800  0.58827900  1
  O  O57  1  0.20033000  0.78860900  0.07525900  1
  O  O58  1  0.21335100  0.12507200  0.42474100  1
  O  O59  1  0.28664900  0.71139100  0.91172100  1
  O  O60  1  0.43877600  0.61488700  0.29766100  1
  O  O61  1  0.06122400  0.35888500  0.17611100  1
  O  O62  1  0.68277400  0.88511300  0.32388900  1
  O  O63  1  0.81722600  0.14111500  0.20233900  1
  O  O64  1  0.56122400  0.38511300  0.70233900  1
  O  O65  1  0.93877600  0.64111500  0.82388900  1
  O  O66  1  0.31722600  0.11488700  0.67611100  1
  O  O67  1  0.18277400  0.85888500  0.79766100  1
  O  O68  1  0.51991400  0.56981200  0.44628300  1
  O  O69  1  0.98008600  0.42636900  0.04989800  1
  O  O70  1  0.87647100  0.93018800  0.45010200  1
  O  O71  1  0.62352900  0.07363100  0.05371700  1
  O  O72  1  0.48008600  0.43018800  0.55371700  1
  O  O73  1  0.01991400  0.57363100  0.95010200  1
  O  O74  1  0.12352900  0.06981200  0.54989800  1
  O  O75  1  0.37647100  0.92636900  0.94628300  1
