# generated using pymatgen
data_Ca2TaN3
_symmetry_space_group_name_H-M   'P 1'
_cell_length_a   6.30257780
_cell_length_b   6.30257780
_cell_length_c   11.73075100
_cell_angle_alpha   90.00000000
_cell_angle_beta   90.00000000
_cell_angle_gamma   124.57648918
_symmetry_Int_Tables_number   1
_chemical_formula_structural   Ca2TaN3
_chemical_formula_sum   'Ca8 Ta4 N12'
_cell_volume   383.66918652
_cell_formula_units_Z   4
loop_
 _symmetry_equiv_pos_site_id
 _symmetry_equiv_pos_as_xyz
  1  'x, y, z'
loop_
 _atom_site_type_symbol
 _atom_site_label
 _atom_site_symmetry_multiplicity
 _atom_site_fract_x
 _atom_site_fract_y
 _atom_site_fract_z
 _atom_site_occupancy
  Ca  Ca0  1  0.53786200  0.46213800  0.64587100  1
  Ca  Ca1  1  0.46213800  0.53786200  0.35412900  1
  Ca  Ca2  1  0.96213800  0.03786200  0.14587100  1
  Ca  Ca3  1  0.03786200  0.96213800  0.85412900  1
  Ca  Ca4  1  0.87274800  0.12725200  0.57991700  1
  Ca  Ca5  1  0.12725200  0.87274800  0.42008300  1
  Ca  Ca6  1  0.62725200  0.37274800  0.07991700  1
  Ca  Ca7  1  0.37274800  0.62725200  0.92008300  1
  Ta  Ta8  1  0.75210400  0.24789600  0.84140800  1
  Ta  Ta9  1  0.24789600  0.75210400  0.15859200  1
  Ta  Ta10  1  0.74789600  0.25210400  0.34140800  1
  Ta  Ta11  1  0.25210400  0.74789600  0.65859200  1
  N  N12  1  0.84266300  0.15733700  0.97959200  1
  N  N13  1  0.15733700  0.84266300  0.02040800  1
  N  N14  1  0.65733700  0.34266300  0.47959200  1
  N  N15  1  0.34266300  0.65733700  0.52040800  1
  N  N16  1  0.57905200  0.42094800  0.86366700  1
  N  N17  1  0.42094800  0.57905200  0.13633300  1
  N  N18  1  0.92094800  0.07905200  0.36366700  1
  N  N19  1  0.07905200  0.92094800  0.63633300  1
  N  N20  1  0.56958300  0.93041700  0.75000000  1
  N  N21  1  0.93041700  0.56958300  0.25000000  1
  N  N22  1  0.43041700  0.06958300  0.25000000  1
  N  N23  1  0.06958300  0.43041700  0.75000000  1
