# generated using pymatgen
data_CsTi2P3(O5F2)2
_symmetry_space_group_name_H-M   'P 1'
_cell_length_a   8.64497100
_cell_length_b   8.43406800
_cell_length_c   8.99019325
_cell_angle_alpha   82.97933642
_cell_angle_beta   90.00000000
_cell_angle_gamma   90.00000000
_symmetry_Int_Tables_number   1
_chemical_formula_structural   CsTi2P3(O5F2)2
_chemical_formula_sum   'Cs2 Ti4 P6 O20 F8'
_cell_volume   650.58061118
_cell_formula_units_Z   2
loop_
 _symmetry_equiv_pos_site_id
 _symmetry_equiv_pos_as_xyz
  1  'x, y, z'
loop_
 _atom_site_type_symbol
 _atom_site_label
 _atom_site_symmetry_multiplicity
 _atom_site_fract_x
 _atom_site_fract_y
 _atom_site_fract_z
 _atom_site_occupancy
  Cs  Cs0  1  0.60160700  0.50000000  0.75000000  1
  Cs  Cs1  1  0.39839300  0.50000000  0.25000000  1
  Ti  Ti2  1  0.25353900  0.83947400  0.54613300  1
  Ti  Ti3  1  0.25353900  0.16052600  0.95386700  1
  Ti  Ti4  1  0.74646100  0.16052600  0.45386700  1
  Ti  Ti5  1  0.74646100  0.83947400  0.04613300  1
  P  P6  1  0.89967700  0.79957700  0.39731900  1
  P  P7  1  0.89967700  0.20042300  0.10268100  1
  P  P8  1  0.10032300  0.20042300  0.60268100  1
  P  P9  1  0.10032300  0.79957700  0.89731900  1
  P  P10  1  0.53097300  0.00000000  0.75000000  1
  P  P11  1  0.46902700  0.00000000  0.25000000  1
  O  O12  1  0.36687700  0.89241600  0.36134300  1
  O  O13  1  0.36687700  0.10758400  0.13865700  1
  O  O14  1  0.63312300  0.10758400  0.63865700  1
  O  O15  1  0.63312300  0.89241600  0.86134300  1
  O  O16  1  0.18291500  0.06484100  0.53920900  1
  O  O17  1  0.18291500  0.93515900  0.96079100  1
  O  O18  1  0.81708500  0.93515900  0.46079100  1
  O  O19  1  0.81708500  0.06484100  0.03920900  1
  O  O20  1  0.13090900  0.78872100  0.73259500  1
  O  O21  1  0.13090900  0.21127900  0.76740500  1
  O  O22  1  0.86909100  0.21127900  0.26740500  1
  O  O23  1  0.86909100  0.78872100  0.23259500  1
  O  O24  1  0.07131400  0.78790400  0.43203500  1
  O  O25  1  0.07131400  0.21209600  0.06796500  1
  O  O26  1  0.92868600  0.21209600  0.56796500  1
  O  O27  1  0.92868600  0.78790400  0.93203500  1
  O  O28  1  0.43127100  0.88767900  0.66669900  1
  O  O29  1  0.43127100  0.11232100  0.83330100  1
  O  O30  1  0.56872900  0.11232100  0.33330100  1
  O  O31  1  0.56872900  0.88767900  0.16669900  1
  F  F32  1  0.82680700  0.64398000  0.48510200  1
  F  F33  1  0.82680700  0.35602000  0.01489800  1
  F  F34  1  0.17319300  0.35602000  0.51489800  1
  F  F35  1  0.17319300  0.64398000  0.98510200  1
  F  F36  1  0.31751900  0.63017700  0.55860600  1
  F  F37  1  0.31751900  0.36982300  0.94139400  1
  F  F38  1  0.68248100  0.36982300  0.44139400  1
  F  F39  1  0.68248100  0.63017700  0.05860600  1
