# generated using pymatgen
data_PrGaPd2
_symmetry_space_group_name_H-M   'P 1'
_cell_length_a   5.81536400
_cell_length_b   7.16092800
_cell_length_c   7.63265600
_cell_angle_alpha   90.00000000
_cell_angle_beta   90.00000000
_cell_angle_gamma   90.00000000
_symmetry_Int_Tables_number   1
_chemical_formula_structural   PrGaPd2
_chemical_formula_sum   'Pr4 Ga4 Pd8'
_cell_volume   317.84976899
_cell_formula_units_Z   4
loop_
 _symmetry_equiv_pos_site_id
 _symmetry_equiv_pos_as_xyz
  1  'x, y, z'
loop_
 _atom_site_type_symbol
 _atom_site_label
 _atom_site_symmetry_multiplicity
 _atom_site_fract_x
 _atom_site_fract_y
 _atom_site_fract_z
 _atom_site_occupancy
  Pr  Pr0  1  0.35000000  0.75000000  0.03326000  1
  Pr  Pr1  1  0.15000000  0.75000000  0.53326000  1
  Pr  Pr2  1  0.65000000  0.25000000  0.96674000  1
  Pr  Pr3  1  0.85000000  0.25000000  0.46674000  1
  Ga  Ga4  1  0.65154500  0.75000000  0.38011400  1
  Ga  Ga5  1  0.84845500  0.75000000  0.88011400  1
  Ga  Ga6  1  0.34845500  0.25000000  0.61988600  1
  Ga  Ga7  1  0.15154500  0.25000000  0.11988600  1
  Pd  Pd8  1  0.91210100  0.55315300  0.17703000  1
  Pd  Pd9  1  0.58789900  0.94684700  0.67703000  1
  Pd  Pd10  1  0.08789900  0.05315300  0.82297000  1
  Pd  Pd11  1  0.41210100  0.44684700  0.32297000  1
  Pd  Pd12  1  0.08789900  0.44684700  0.82297000  1
  Pd  Pd13  1  0.41210100  0.05315300  0.32297000  1
  Pd  Pd14  1  0.91210100  0.94684700  0.17703000  1
  Pd  Pd15  1  0.58789900  0.55315300  0.67703000  1
