# generated using pymatgen
data_U2Mn3Si
_symmetry_space_group_name_H-M   'P 1'
_cell_length_a   5.15593242
_cell_length_b   5.15593242
_cell_length_c   7.75775600
_cell_angle_alpha   90.00000000
_cell_angle_beta   90.00000000
_cell_angle_gamma   119.99997973
_symmetry_Int_Tables_number   1
_chemical_formula_structural   U2Mn3Si
_chemical_formula_sum   'U4 Mn6 Si2'
_cell_volume   178.59992368
_cell_formula_units_Z   2
loop_
 _symmetry_equiv_pos_site_id
 _symmetry_equiv_pos_as_xyz
  1  'x, y, z'
loop_
 _atom_site_type_symbol
 _atom_site_label
 _atom_site_symmetry_multiplicity
 _atom_site_fract_x
 _atom_site_fract_y
 _atom_site_fract_z
 _atom_site_occupancy
  U  U0  1  0.66666700  0.33333300  0.42517200  1
  U  U1  1  0.33333300  0.66666700  0.57482800  1
  U  U2  1  0.33333300  0.66666700  0.92517200  1
  U  U3  1  0.66666700  0.33333300  0.07482800  1
  Mn  Mn4  1  0.83102000  0.16898000  0.75000000  1
  Mn  Mn5  1  0.16898000  0.83102000  0.25000000  1
  Mn  Mn6  1  0.33796100  0.16898000  0.75000000  1
  Mn  Mn7  1  0.66203900  0.83102000  0.25000000  1
  Mn  Mn8  1  0.83102000  0.66203900  0.75000000  1
  Mn  Mn9  1  0.16898000  0.33796100  0.25000000  1
  Si  Si10  1  0.00000000  0.00000000  0.00000000  1
  Si  Si11  1  0.00000000  0.00000000  0.50000000  1
