# generated using pymatgen
data_MgSe2O5
_symmetry_space_group_name_H-M   'P 1'
_cell_length_a   6.15247200
_cell_length_b   6.93791800
_cell_length_c   10.54198100
_cell_angle_alpha   90.00000000
_cell_angle_beta   90.00000000
_cell_angle_gamma   90.00000000
_symmetry_Int_Tables_number   1
_chemical_formula_structural   MgSe2O5
_chemical_formula_sum   'Mg4 Se8 O20'
_cell_volume   449.98810897
_cell_formula_units_Z   4
loop_
 _symmetry_equiv_pos_site_id
 _symmetry_equiv_pos_as_xyz
  1  'x, y, z'
loop_
 _atom_site_type_symbol
 _atom_site_label
 _atom_site_symmetry_multiplicity
 _atom_site_fract_x
 _atom_site_fract_y
 _atom_site_fract_z
 _atom_site_occupancy
  Mg  Mg0  1  0.75000000  0.00000000  0.56127300  1
  Mg  Mg1  1  0.25000000  0.50000000  0.93872700  1
  Mg  Mg2  1  0.25000000  0.00000000  0.43872700  1
  Mg  Mg3  1  0.75000000  0.50000000  0.06127300  1
  Se  Se4  1  0.53417800  0.13642500  0.84557900  1
  Se  Se5  1  0.03417800  0.36357500  0.65442100  1
  Se  Se6  1  0.46582200  0.63642500  0.65442100  1
  Se  Se7  1  0.96582200  0.86357500  0.84557900  1
  Se  Se8  1  0.46582200  0.86357500  0.15442100  1
  Se  Se9  1  0.96582200  0.63642500  0.34557900  1
  Se  Se10  1  0.53417800  0.36357500  0.34557900  1
  Se  Se11  1  0.03417800  0.13642500  0.15442100  1
  O  O12  1  0.25000000  0.50000000  0.56667200  1
  O  O13  1  0.75000000  0.00000000  0.93332800  1
  O  O14  1  0.75000000  0.50000000  0.43332800  1
  O  O15  1  0.25000000  0.00000000  0.06667200  1
  O  O16  1  0.66371900  0.19409300  0.70885800  1
  O  O17  1  0.16371900  0.30590700  0.79114200  1
  O  O18  1  0.33628100  0.69409300  0.79114200  1
  O  O19  1  0.83628100  0.80590700  0.70885800  1
  O  O20  1  0.33628100  0.80590700  0.29114200  1
  O  O21  1  0.83628100  0.69409300  0.20885800  1
  O  O22  1  0.66371900  0.30590700  0.20885800  1
  O  O23  1  0.16371900  0.19409300  0.29114200  1
  O  O24  1  0.04949500  0.34559600  0.06740600  1
  O  O25  1  0.54949500  0.15440400  0.43259400  1
  O  O26  1  0.95050500  0.84559600  0.43259400  1
  O  O27  1  0.45050500  0.65440400  0.06740600  1
  O  O28  1  0.95050500  0.65440400  0.93259400  1
  O  O29  1  0.45050500  0.84559600  0.56740600  1
  O  O30  1  0.04949500  0.15440400  0.56740600  1
  O  O31  1  0.54949500  0.34559600  0.93259400  1
