# generated using pymatgen
data_TiTeS
_symmetry_space_group_name_H-M   'P 1'
_cell_length_a   3.61230413
_cell_length_b   3.61253381
_cell_length_c   6.51613000
_cell_angle_alpha   89.99999790
_cell_angle_beta   90.00160444
_cell_angle_gamma   120.00208740
_symmetry_Int_Tables_number   1
_chemical_formula_structural   TiTeS
_chemical_formula_sum   'Ti1 Te1 S1'
_cell_volume   73.63892928
_cell_formula_units_Z   1
loop_
 _symmetry_equiv_pos_site_id
 _symmetry_equiv_pos_as_xyz
  1  'x, y, z'
loop_
 _atom_site_type_symbol
 _atom_site_label
 _atom_site_symmetry_multiplicity
 _atom_site_fract_x
 _atom_site_fract_y
 _atom_site_fract_z
 _atom_site_occupancy
  Ti  Ti0  1  0.00008700  0.00004300  0.03508700  1
  Te  Te1  1  0.66654200  0.33327100  0.74410000  1
  S  S2  1  0.33337200  0.66668600  0.22081200  1
