# generated using pymatgen
data_Tm6ReO12
_symmetry_space_group_name_H-M   'P 1'
_cell_length_a   6.38700862
_cell_length_b   6.38700862
_cell_length_c   6.38700861
_cell_angle_alpha   98.81782821
_cell_angle_beta   98.81782821
_cell_angle_gamma   98.81782828
_symmetry_Int_Tables_number   1
_chemical_formula_structural   Tm6ReO12
_chemical_formula_sum   'Tm6 Re1 O12'
_cell_volume   250.22366669
_cell_formula_units_Z   1
loop_
 _symmetry_equiv_pos_site_id
 _symmetry_equiv_pos_as_xyz
  1  'x, y, z'
loop_
 _atom_site_type_symbol
 _atom_site_label
 _atom_site_symmetry_multiplicity
 _atom_site_fract_x
 _atom_site_fract_y
 _atom_site_fract_z
 _atom_site_occupancy
  Tm  Tm0  1  0.68252300  0.85611000  0.38997500  1
  Tm  Tm1  1  0.38997500  0.68252300  0.85611000  1
  Tm  Tm2  1  0.85611000  0.38997500  0.68252300  1
  Tm  Tm3  1  0.31747700  0.14389000  0.61002500  1
  Tm  Tm4  1  0.61002500  0.31747700  0.14389000  1
  Tm  Tm5  1  0.14389000  0.61002500  0.31747700  1
  Re  Re6  1  0.00000000  0.00000000  0.00000000  1
  O  O7  1  0.43019200  0.58993700  0.17734200  1
  O  O8  1  0.17734200  0.43019200  0.58993700  1
  O  O9  1  0.58993700  0.17734200  0.43019200  1
  O  O10  1  0.56980800  0.41006300  0.82265800  1
  O  O11  1  0.82265800  0.56980800  0.41006300  1
  O  O12  1  0.41006300  0.82265800  0.56980800  1
  O  O13  1  0.92230700  0.03843700  0.70153600  1
  O  O14  1  0.96156300  0.29846400  0.07769300  1
  O  O15  1  0.29846400  0.07769300  0.96156300  1
  O  O16  1  0.07769300  0.96156300  0.29846400  1
  O  O17  1  0.03843700  0.70153600  0.92230700  1
  O  O18  1  0.70153600  0.92230700  0.03843700  1
