# generated using pymatgen
data_HfCuSn
_symmetry_space_group_name_H-M   'P 1'
_cell_length_a   4.49211191
_cell_length_b   4.49211191
_cell_length_c   6.40090700
_cell_angle_alpha   90.00000000
_cell_angle_beta   90.00000000
_cell_angle_gamma   119.99999861
_symmetry_Int_Tables_number   1
_chemical_formula_structural   HfCuSn
_chemical_formula_sum   'Hf2 Cu2 Sn2'
_cell_volume   111.85960682
_cell_formula_units_Z   2
loop_
 _symmetry_equiv_pos_site_id
 _symmetry_equiv_pos_as_xyz
  1  'x, y, z'
loop_
 _atom_site_type_symbol
 _atom_site_label
 _atom_site_symmetry_multiplicity
 _atom_site_fract_x
 _atom_site_fract_y
 _atom_site_fract_z
 _atom_site_occupancy
  Hf  Hf0  1  0.00000000  0.00000000  0.49918900  1
  Hf  Hf1  1  0.00000000  0.00000000  0.99918900  1
  Cu  Cu2  1  0.66666700  0.33333300  0.19694800  1
  Cu  Cu3  1  0.33333300  0.66666700  0.69694800  1
  Sn  Sn4  1  0.66666700  0.33333300  0.75566400  1
  Sn  Sn5  1  0.33333300  0.66666700  0.25566400  1
