# generated using pymatgen
data_Dy3(CuSi)4
_symmetry_space_group_name_H-M   'P 1'
_cell_length_a   7.87347206
_cell_length_b   7.87347206
_cell_length_c   7.87347206
_cell_angle_alpha   149.49536754
_cell_angle_beta   130.90583485
_cell_angle_gamma   58.90852587
_symmetry_Int_Tables_number   1
_chemical_formula_structural   Dy3(CuSi)4
_chemical_formula_sum   'Dy3 Cu4 Si4'
_cell_volume   185.79434431
_cell_formula_units_Z   1
loop_
 _symmetry_equiv_pos_site_id
 _symmetry_equiv_pos_as_xyz
  1  'x, y, z'
loop_
 _atom_site_type_symbol
 _atom_site_label
 _atom_site_symmetry_multiplicity
 _atom_site_fract_x
 _atom_site_fract_y
 _atom_site_fract_z
 _atom_site_occupancy
  Dy  Dy0  1  0.87024400  0.37024400  0.50000000  1
  Dy  Dy1  1  0.12975600  0.62975600  0.50000000  1
  Dy  Dy2  1  0.50000000  0.50000000  0.00000000  1
  Cu  Cu3  1  0.52168800  0.83150300  0.69018600  1
  Cu  Cu4  1  0.85868300  0.16849700  0.69018600  1
  Cu  Cu5  1  0.14131700  0.83150300  0.30981400  1
  Cu  Cu6  1  0.47831200  0.16849700  0.30981400  1
  Si  Si7  1  0.81566800  0.00000000  0.81566800  1
  Si  Si8  1  0.18433200  0.00000000  0.18433200  1
  Si  Si9  1  0.28380400  0.28380400  0.00000000  1
  Si  Si10  1  0.71619600  0.71619600  0.00000000  1
