# generated using pymatgen
data_Pr3ReO8
_symmetry_space_group_name_H-M   'P 1'
_cell_length_a   6.24078500
_cell_length_b   7.56949700
_cell_length_c   15.14657799
_cell_angle_alpha   69.26136981
_cell_angle_beta   90.00000000
_cell_angle_gamma   90.00000000
_symmetry_Int_Tables_number   1
_chemical_formula_structural   Pr3ReO8
_chemical_formula_sum   'Pr12 Re4 O32'
_cell_volume   669.15668130
_cell_formula_units_Z   4
loop_
 _symmetry_equiv_pos_site_id
 _symmetry_equiv_pos_as_xyz
  1  'x, y, z'
loop_
 _atom_site_type_symbol
 _atom_site_label
 _atom_site_symmetry_multiplicity
 _atom_site_fract_x
 _atom_site_fract_y
 _atom_site_fract_z
 _atom_site_occupancy
  Pr  Pr0  1  0.23729200  0.40290300  0.70076200  1
  Pr  Pr1  1  0.73729200  0.59709700  0.79923800  1
  Pr  Pr2  1  0.76270800  0.59709700  0.29923800  1
  Pr  Pr3  1  0.26270800  0.40290300  0.20076200  1
  Pr  Pr4  1  0.29820400  0.33919400  0.44640700  1
  Pr  Pr5  1  0.79820400  0.66080600  0.05359300  1
  Pr  Pr6  1  0.70179600  0.66080600  0.55359300  1
  Pr  Pr7  1  0.20179600  0.33919400  0.94640700  1
  Pr  Pr8  1  0.31170800  0.89607500  0.16673700  1
  Pr  Pr9  1  0.81170800  0.10392500  0.33326300  1
  Pr  Pr10  1  0.68829200  0.10392500  0.83326300  1
  Pr  Pr11  1  0.18829200  0.89607500  0.66673700  1
  Re  Re12  1  0.24527000  0.82051200  0.90905900  1
  Re  Re13  1  0.74527000  0.17948800  0.59094100  1
  Re  Re14  1  0.75473000  0.17948800  0.09094100  1
  Re  Re15  1  0.25473000  0.82051200  0.40905900  1
  O  O16  1  0.19920800  0.97076400  0.47818100  1
  O  O17  1  0.69920800  0.02923600  0.02181900  1
  O  O18  1  0.80079200  0.02923600  0.52181900  1
  O  O19  1  0.30079200  0.97076400  0.97818100  1
  O  O20  1  0.96030400  0.75307700  0.40379600  1
  O  O21  1  0.46030400  0.24692300  0.09620400  1
  O  O22  1  0.03969600  0.24692300  0.59620400  1
  O  O23  1  0.53969600  0.75307700  0.90379600  1
  O  O24  1  0.34567200  0.67145500  0.33202900  1
  O  O25  1  0.84567200  0.32854500  0.16797100  1
  O  O26  1  0.65432800  0.32854500  0.66797100  1
  O  O27  1  0.15432800  0.67145500  0.83202900  1
  O  O28  1  0.04746500  0.12474600  0.08956800  1
  O  O29  1  0.54746500  0.87525400  0.41043200  1
  O  O30  1  0.95253500  0.87525400  0.91043200  1
  O  O31  1  0.45253500  0.12474600  0.58956800  1
  O  O32  1  0.46990100  0.68259000  0.67298700  1
  O  O33  1  0.96990100  0.31741000  0.82701300  1
  O  O34  1  0.53009900  0.31741000  0.32701300  1
  O  O35  1  0.03009900  0.68259000  0.17298700  1
  O  O36  1  0.96980900  0.64665600  0.66069000  1
  O  O37  1  0.46980900  0.35334400  0.83931000  1
  O  O38  1  0.03019100  0.35334400  0.33931000  1
  O  O39  1  0.53019100  0.64665600  0.16069000  1
  O  O40  1  0.29995200  0.59484600  0.51573900  1
  O  O41  1  0.79995200  0.40515400  0.98426100  1
  O  O42  1  0.70004800  0.40515400  0.48426100  1
  O  O43  1  0.20004800  0.59484600  0.01573900  1
  O  O44  1  0.29360000  0.02552700  0.79155400  1
  O  O45  1  0.79360000  0.97447300  0.70844600  1
  O  O46  1  0.70640000  0.97447300  0.20844600  1
  O  O47  1  0.20640000  0.02552700  0.29155400  1
