# generated using pymatgen
data_Ba4SiAs4
_symmetry_space_group_name_H-M   'P 1'
_cell_length_a   13.48884400
_cell_length_b   13.48884400
_cell_length_c   13.48884400
_cell_angle_alpha   90.00000000
_cell_angle_beta   90.00000000
_cell_angle_gamma   90.00000000
_symmetry_Int_Tables_number   1
_chemical_formula_structural   Ba4SiAs4
_chemical_formula_sum   'Ba32 Si8 As32'
_cell_volume   2454.28049609
_cell_formula_units_Z   8
loop_
 _symmetry_equiv_pos_site_id
 _symmetry_equiv_pos_as_xyz
  1  'x, y, z'
loop_
 _atom_site_type_symbol
 _atom_site_label
 _atom_site_symmetry_multiplicity
 _atom_site_fract_x
 _atom_site_fract_y
 _atom_site_fract_z
 _atom_site_occupancy
  Ba  Ba0  1  0.14441400  0.14441400  0.14441400  1
  Ba  Ba1  1  0.35558600  0.64441400  0.35558600  1
  Ba  Ba2  1  0.64441400  0.35558600  0.35558600  1
  Ba  Ba3  1  0.35558600  0.35558600  0.64441400  1
  Ba  Ba4  1  0.14441400  0.85558600  0.85558600  1
  Ba  Ba5  1  0.85558600  0.85558600  0.14441400  1
  Ba  Ba6  1  0.85558600  0.14441400  0.85558600  1
  Ba  Ba7  1  0.64441400  0.64441400  0.64441400  1
  Ba  Ba8  1  0.90450100  0.86835400  0.64434600  1
  Ba  Ba9  1  0.90450100  0.13164600  0.35565400  1
  Ba  Ba10  1  0.86835400  0.64434600  0.90450100  1
  Ba  Ba11  1  0.13164600  0.64434600  0.09549900  1
  Ba  Ba12  1  0.64434600  0.90450100  0.86835400  1
  Ba  Ba13  1  0.35565400  0.09549900  0.86835400  1
  Ba  Ba14  1  0.59549900  0.85565400  0.36835400  1
  Ba  Ba15  1  0.59549900  0.14434600  0.63164600  1
  Ba  Ba16  1  0.40450100  0.85565400  0.63164600  1
  Ba  Ba17  1  0.14434600  0.63164600  0.59549900  1
  Ba  Ba18  1  0.63164600  0.40450100  0.85565400  1
  Ba  Ba19  1  0.63164600  0.59549900  0.14434600  1
  Ba  Ba20  1  0.85565400  0.36835400  0.59549900  1
  Ba  Ba21  1  0.36835400  0.59549900  0.85565400  1
  Ba  Ba22  1  0.85565400  0.63164600  0.40450100  1
  Ba  Ba23  1  0.14434600  0.36835400  0.40450100  1
  Ba  Ba24  1  0.36835400  0.40450100  0.14434600  1
  Ba  Ba25  1  0.35565400  0.90450100  0.13164600  1
  Ba  Ba26  1  0.64434600  0.09549900  0.13164600  1
  Ba  Ba27  1  0.86835400  0.35565400  0.09549900  1
  Ba  Ba28  1  0.13164600  0.35565400  0.90450100  1
  Ba  Ba29  1  0.09549900  0.13164600  0.64434600  1
  Ba  Ba30  1  0.09549900  0.86835400  0.35565400  1
  Ba  Ba31  1  0.40450100  0.14434600  0.36835400  1
  Si  Si32  1  0.00000000  0.00000000  0.00000000  1
  Si  Si33  1  0.75000000  0.00000000  0.50000000  1
  Si  Si34  1  0.50000000  0.75000000  0.00000000  1
  Si  Si35  1  0.50000000  0.25000000  0.00000000  1
  Si  Si36  1  0.00000000  0.50000000  0.25000000  1
  Si  Si37  1  0.00000000  0.50000000  0.75000000  1
  Si  Si38  1  0.25000000  0.00000000  0.50000000  1
  Si  Si39  1  0.50000000  0.50000000  0.50000000  1
  As  As40  1  0.60280700  0.84799900  0.11190300  1
  As  As41  1  0.65200100  0.10280700  0.38809700  1
  As  As42  1  0.89719300  0.61190300  0.65200100  1
  As  As43  1  0.10280700  0.61190300  0.34799900  1
  As  As44  1  0.61190300  0.65200100  0.89719300  1
  As  As45  1  0.38809700  0.34799900  0.89719300  1
  As  As46  1  0.84799900  0.88809700  0.39719300  1
  As  As47  1  0.84799900  0.11190300  0.60280700  1
  As  As48  1  0.15200100  0.88809700  0.60280700  1
  As  As49  1  0.39608700  0.39608700  0.39608700  1
  As  As50  1  0.60280700  0.15200100  0.88809700  1
  As  As51  1  0.65200100  0.89719300  0.61190300  1
  As  As52  1  0.88809700  0.39719300  0.84799900  1
  As  As53  1  0.39719300  0.84799900  0.88809700  1
  As  As54  1  0.88809700  0.60280700  0.15200100  1
  As  As55  1  0.11190300  0.39719300  0.15200100  1
  As  As56  1  0.39719300  0.15200100  0.11190300  1
  As  As57  1  0.38809700  0.65200100  0.10280700  1
  As  As58  1  0.61190300  0.34799900  0.10280700  1
  As  As59  1  0.89719300  0.38809700  0.34799900  1
  As  As60  1  0.10280700  0.38809700  0.65200100  1
  As  As61  1  0.34799900  0.10280700  0.61190300  1
  As  As62  1  0.34799900  0.89719300  0.38809700  1
  As  As63  1  0.15200100  0.11190300  0.39719300  1
  As  As64  1  0.10391300  0.89608700  0.10391300  1
  As  As65  1  0.10391300  0.10391300  0.89608700  1
  As  As66  1  0.89608700  0.10391300  0.10391300  1
  As  As67  1  0.60391300  0.60391300  0.39608700  1
  As  As68  1  0.39608700  0.60391300  0.60391300  1
  As  As69  1  0.60391300  0.39608700  0.60391300  1
  As  As70  1  0.89608700  0.89608700  0.89608700  1
  As  As71  1  0.11190300  0.60280700  0.84799900  1
