# generated using pymatgen
data_Tb4C2Br3
_symmetry_space_group_name_H-M   'P 1'
_cell_length_a   3.71203000
_cell_length_b   10.80596600
_cell_length_c   20.48773600
_cell_angle_alpha   90.00000000
_cell_angle_beta   90.00000000
_cell_angle_gamma   90.00000000
_symmetry_Int_Tables_number   1
_chemical_formula_structural   Tb4C2Br3
_chemical_formula_sum   'Tb16 C8 Br12'
_cell_volume   821.80549998
_cell_formula_units_Z   4
loop_
 _symmetry_equiv_pos_site_id
 _symmetry_equiv_pos_as_xyz
  1  'x, y, z'
loop_
 _atom_site_type_symbol
 _atom_site_label
 _atom_site_symmetry_multiplicity
 _atom_site_fract_x
 _atom_site_fract_y
 _atom_site_fract_z
 _atom_site_occupancy
  Tb  Tb0  1  0.25000000  0.86328600  0.57881900  1
  Tb  Tb1  1  0.75000000  0.13671400  0.42118100  1
  Tb  Tb2  1  0.75000000  0.63671400  0.07881900  1
  Tb  Tb3  1  0.25000000  0.36328600  0.92118100  1
  Tb  Tb4  1  0.25000000  0.86207500  0.74360300  1
  Tb  Tb5  1  0.75000000  0.13792500  0.25639700  1
  Tb  Tb6  1  0.75000000  0.63792500  0.24360300  1
  Tb  Tb7  1  0.25000000  0.36207500  0.75639700  1
  Tb  Tb8  1  0.25000000  0.87177100  0.16743500  1
  Tb  Tb9  1  0.75000000  0.12822900  0.83256500  1
  Tb  Tb10  1  0.75000000  0.62822900  0.66743500  1
  Tb  Tb11  1  0.25000000  0.37177100  0.33256500  1
  Tb  Tb12  1  0.25000000  0.90249600  0.32839300  1
  Tb  Tb13  1  0.75000000  0.09750400  0.67160700  1
  Tb  Tb14  1  0.75000000  0.59750400  0.82839300  1
  Tb  Tb15  1  0.25000000  0.40249600  0.17160700  1
  C  C16  1  0.25000000  0.61181800  0.74978000  1
  C  C17  1  0.75000000  0.38818200  0.25022000  1
  C  C18  1  0.75000000  0.88818200  0.24978000  1
  C  C19  1  0.25000000  0.11181800  0.75022000  1
  C  C20  1  0.25000000  0.63709400  0.15504600  1
  C  C21  1  0.75000000  0.36290600  0.84495400  1
  C  C22  1  0.75000000  0.86290600  0.65504600  1
  C  C23  1  0.25000000  0.13709400  0.34495400  1
  Br  Br24  1  0.25000000  0.61037700  0.55282300  1
  Br  Br25  1  0.75000000  0.38962300  0.44717700  1
  Br  Br26  1  0.75000000  0.88962300  0.05282300  1
  Br  Br27  1  0.25000000  0.11037700  0.94717700  1
  Br  Br28  1  0.25000000  0.62658600  0.95205000  1
  Br  Br29  1  0.75000000  0.37341400  0.04795000  1
  Br  Br30  1  0.75000000  0.87341400  0.45205000  1
  Br  Br31  1  0.25000000  0.12658600  0.54795000  1
  Br  Br32  1  0.25000000  0.63877200  0.35640800  1
  Br  Br33  1  0.75000000  0.36122800  0.64359200  1
  Br  Br34  1  0.75000000  0.86122800  0.85640800  1
  Br  Br35  1  0.25000000  0.13877200  0.14359200  1
