# generated using pymatgen
data_K(B7H6)3
_symmetry_space_group_name_H-M   'P 1'
_cell_length_a   7.60442200
_cell_length_b   7.69537930
_cell_length_c   17.54745260
_cell_angle_alpha   94.06406411
_cell_angle_beta   90.00000000
_cell_angle_gamma   119.60977070
_symmetry_Int_Tables_number   1
_chemical_formula_structural   K(B7H6)3
_chemical_formula_sum   'K2 B42 H36'
_cell_volume   889.79000782
_cell_formula_units_Z   2
loop_
 _symmetry_equiv_pos_site_id
 _symmetry_equiv_pos_as_xyz
  1  'x, y, z'
loop_
 _atom_site_type_symbol
 _atom_site_label
 _atom_site_symmetry_multiplicity
 _atom_site_fract_x
 _atom_site_fract_y
 _atom_site_fract_z
 _atom_site_occupancy
  K  K0  1  0.92621900  0.00000000  0.00000000  1
  K  K1  1  0.13022000  0.00000000  0.50000000  1
  B  B2  1  0.46591700  0.30258500  0.26442700  1
  B  B3  1  0.16333300  0.69741500  0.73557300  1
  B  B4  1  0.71306200  0.49470100  0.23569400  1
  B  B5  1  0.21836100  0.50529900  0.76430600  1
  B  B6  1  0.67029200  0.24418300  0.25084900  1
  B  B7  1  0.42610900  0.75581700  0.74915100  1
  B  B8  1  0.91216000  0.46681800  0.28980000  1
  B  B9  1  0.44534100  0.53318200  0.71020000  1
  B  B10  1  0.50694100  0.15495800  0.33683600  1
  B  B11  1  0.35198300  0.84504200  0.66316400  1
  B  B12  1  0.58012200  0.56535100  0.31196500  1
  B  B13  1  0.01477100  0.43464900  0.68803500  1
  B  B14  1  0.81251300  0.37259100  0.16470800  1
  B  B15  1  0.43992200  0.62740900  0.83529200  1
  B  B16  1  0.40980400  0.05645100  0.21201500  1
  B  B17  1  0.35335300  0.94354900  0.78798500  1
  B  B18  1  0.47676000  0.46448500  0.18689200  1
  B  B19  1  0.01227500  0.53551500  0.81310800  1
  B  B20  1  0.45299500  0.35027200  0.36520500  1
  B  B21  1  0.10272300  0.64972800  0.63479500  1
  B  B22  1  0.84567200  0.65340800  0.31967000  1
  B  B23  1  0.19226400  0.34659200  0.68033000  1
  B  B24  1  0.77494600  0.25473400  0.34397100  1
  B  B25  1  0.52021300  0.74526600  0.65602900  1
  B  B26  1  0.30214500  0.20135000  0.18030400  1
  B  B27  1  0.10079500  0.79865000  0.81969600  1
  B  B28  1  0.69397100  0.50771000  0.13437400  1
  B  B29  1  0.18626100  0.49229000  0.86562600  1
  B  B30  1  0.62842700  0.11164400  0.15851600  1
  B  B31  1  0.51678400  0.88835600  0.84148400  1
  B  B32  1  0.88239300  0.50750700  0.38679600  1
  B  B33  1  0.37488600  0.49249300  0.61320400  1
  B  B34  1  0.64416400  0.32334800  0.41449100  1
  B  B35  1  0.32081600  0.67665200  0.58550900  1
  B  B36  1  0.68782000  0.56504200  0.39990100  1
  B  B37  1  0.12277800  0.43495800  0.60009900  1
  B  B38  1  0.63919500  0.27064900  0.08682300  1
  B  B39  1  0.36854600  0.72935100  0.91317700  1
  B  B40  1  0.40218100  0.08593500  0.11484300  1
  B  B41  1  0.31624500  0.91406500  0.88515700  1
  B  B42  1  0.44249700  0.32489400  0.09997900  1
  B  B43  1  0.11760300  0.67510600  0.90002100  1
  H  H44  1  0.07629600  0.51020300  0.26967100  1
  H  H45  1  0.56609400  0.48979700  0.73032900  1
  H  H46  1  0.39175500  0.98695600  0.34907100  1
  H  H47  1  0.40479900  0.01304400  0.65092900  1
  H  H48  1  0.51541900  0.67571900  0.30655500  1
  H  H49  1  0.83969900  0.32428100  0.69344500  1
  H  H50  1  0.98566300  0.42914600  0.15418900  1
  H  H51  1  0.55651700  0.57085400  0.84581100  1
  H  H52  1  0.30926700  0.89422000  0.23338700  1
  H  H53  1  0.41504800  0.10578000  0.76661300  1
  H  H54  1  0.42027800  0.58339500  0.19096400  1
  H  H55  1  0.83688300  0.41660500  0.80903600  1
  H  H56  1  0.29407100  0.31221900  0.39235000  1
  H  H57  1  0.98185300  0.68778100  0.60765000  1
  H  H58  1  0.96498400  0.82817400  0.31710700  1
  H  H59  1  0.13681000  0.17182600  0.68289300  1
  H  H60  1  0.84417500  0.15022000  0.35724300  1
  H  H61  1  0.69395500  0.84978000  0.64275700  1
  H  H62  1  0.12401200  0.14041700  0.18229400  1
  H  H63  1  0.98359500  0.85958300  0.81770600  1
  H  H64  1  0.79117900  0.66218100  0.10544800  1
  H  H65  1  0.12899800  0.33781900  0.89455200  1
  H  H66  1  0.67878400  0.98738000  0.14692700  1
  H  H67  1  0.69140400  0.01262000  0.85307300  1
  H  H68  1  0.03300600  0.58085200  0.42636600  1
  H  H69  1  0.45215400  0.41914800  0.57363400  1
  H  H70  1  0.61506700  0.25405900  0.47504800  1
  H  H71  1  0.36100800  0.74594100  0.52495200  1
  H  H72  1  0.69326600  0.68175000  0.44959700  1
  H  H73  1  0.01151600  0.31825000  0.55040300  1
  H  H74  1  0.70557100  0.26294300  0.02567300  1
  H  H75  1  0.44262900  0.73705700  0.97432700  1
  H  H76  1  0.28869900  0.93861100  0.07552900  1
  H  H77  1  0.35008800  0.06138900  0.92447100  1
  H  H78  1  0.36232500  0.35796100  0.04848000  1
  H  H79  1  0.00436500  0.64203900  0.95152000  1
