# generated using pymatgen
data_Ho3GaS6
_symmetry_space_group_name_H-M   'P 1'
_cell_length_a   8.51617740
_cell_length_b   8.51617740
_cell_length_c   6.46153600
_cell_angle_alpha   90.00000000
_cell_angle_beta   90.00000000
_cell_angle_gamma   102.50357707
_symmetry_Int_Tables_number   1
_chemical_formula_structural   Ho3GaS6
_chemical_formula_sum   'Ho6 Ga2 S12'
_cell_volume   457.51008170
_cell_formula_units_Z   2
loop_
 _symmetry_equiv_pos_site_id
 _symmetry_equiv_pos_as_xyz
  1  'x, y, z'
loop_
 _atom_site_type_symbol
 _atom_site_label
 _atom_site_symmetry_multiplicity
 _atom_site_fract_x
 _atom_site_fract_y
 _atom_site_fract_z
 _atom_site_occupancy
  Ho  Ho0  1  0.28475000  0.08494500  0.22287600  1
  Ho  Ho1  1  0.91505500  0.71525000  0.22287600  1
  Ho  Ho2  1  0.71525000  0.91505500  0.72287600  1
  Ho  Ho3  1  0.08494500  0.28475000  0.72287600  1
  Ho  Ho4  1  0.40163200  0.59836800  0.14332600  1
  Ho  Ho5  1  0.59836800  0.40163200  0.64332600  1
  Ga  Ga6  1  0.20173100  0.79826900  0.76040700  1
  Ga  Ga7  1  0.79826900  0.20173100  0.26040700  1
  S  S8  1  0.56651800  0.10168100  0.44292200  1
  S  S9  1  0.89831900  0.43348200  0.44292200  1
  S  S10  1  0.43348200  0.89831900  0.94292200  1
  S  S11  1  0.10168100  0.56651800  0.94292200  1
  S  S12  1  0.63569600  0.68925200  0.43299500  1
  S  S13  1  0.31074800  0.36430400  0.43299500  1
  S  S14  1  0.36430400  0.31074800  0.93299500  1
  S  S15  1  0.68925300  0.63569600  0.93299500  1
  S  S16  1  0.21764300  0.78235700  0.40841500  1
  S  S17  1  0.78235700  0.21764300  0.90841500  1
  S  S18  1  0.95950600  0.04049400  0.40526500  1
  S  S19  1  0.04049400  0.95950600  0.90526500  1
