# generated using pymatgen
data_Ho5(In2Ni)2
_symmetry_space_group_name_H-M   'P 1'
_cell_length_a   8.00904300
_cell_length_b   17.98461200
_cell_length_c   3.54717000
_cell_angle_alpha   90.00000000
_cell_angle_beta   90.00000000
_cell_angle_gamma   90.00000000
_symmetry_Int_Tables_number   1
_chemical_formula_structural   Ho5(In2Ni)2
_chemical_formula_sum   'Ho10 In8 Ni4'
_cell_volume   510.93270263
_cell_formula_units_Z   2
loop_
 _symmetry_equiv_pos_site_id
 _symmetry_equiv_pos_as_xyz
  1  'x, y, z'
loop_
 _atom_site_type_symbol
 _atom_site_label
 _atom_site_symmetry_multiplicity
 _atom_site_fract_x
 _atom_site_fract_y
 _atom_site_fract_z
 _atom_site_occupancy
  Ho  Ho0  1  0.50000000  0.50000000  0.00000000  1
  Ho  Ho1  1  0.00000000  0.00000000  0.00000000  1
  Ho  Ho2  1  0.75966800  0.27799500  0.00000000  1
  Ho  Ho3  1  0.24033200  0.72200500  0.00000000  1
  Ho  Ho4  1  0.74033200  0.77799500  0.00000000  1
  Ho  Ho5  1  0.25966800  0.22200500  0.00000000  1
  Ho  Ho6  1  0.62496000  0.08754600  0.00000000  1
  Ho  Ho7  1  0.37504000  0.91245400  0.00000000  1
  Ho  Ho8  1  0.87504000  0.58754600  0.00000000  1
  Ho  Ho9  1  0.12496000  0.41245400  0.00000000  1
  In  In10  1  0.70021400  0.93062700  0.50000000  1
  In  In11  1  0.29978600  0.06937300  0.50000000  1
  In  In12  1  0.79978600  0.43062700  0.50000000  1
  In  In13  1  0.20021400  0.56937300  0.50000000  1
  In  In14  1  0.56227600  0.65207000  0.50000000  1
  In  In15  1  0.43772400  0.34793000  0.50000000  1
  In  In16  1  0.93772400  0.15207000  0.50000000  1
  In  In17  1  0.06227600  0.84793000  0.50000000  1
  Ni  Ni18  1  0.54070000  0.19562100  0.50000000  1
  Ni  Ni19  1  0.45930000  0.80437900  0.50000000  1
  Ni  Ni20  1  0.95930000  0.69562100  0.50000000  1
  Ni  Ni21  1  0.04070000  0.30437900  0.50000000  1
