# generated using pymatgen
data_EuCu
_symmetry_space_group_name_H-M   'P 1'
_cell_length_a   4.40918500
_cell_length_b   5.93129200
_cell_length_c   7.76431800
_cell_angle_alpha   90.00000000
_cell_angle_beta   90.00000000
_cell_angle_gamma   90.00000000
_symmetry_Int_Tables_number   1
_chemical_formula_structural   EuCu
_chemical_formula_sum   'Eu4 Cu4'
_cell_volume   203.05371549
_cell_formula_units_Z   4
loop_
 _symmetry_equiv_pos_site_id
 _symmetry_equiv_pos_as_xyz
  1  'x, y, z'
loop_
 _atom_site_type_symbol
 _atom_site_label
 _atom_site_symmetry_multiplicity
 _atom_site_fract_x
 _atom_site_fract_y
 _atom_site_fract_z
 _atom_site_occupancy
  Eu  Eu0  1  0.25000000  0.36953900  0.68125600  1
  Eu  Eu1  1  0.25000000  0.13046100  0.18125600  1
  Eu  Eu2  1  0.75000000  0.63046100  0.31874400  1
  Eu  Eu3  1  0.75000000  0.86953900  0.81874400  1
  Cu  Cu4  1  0.25000000  0.89573400  0.52969800  1
  Cu  Cu5  1  0.25000000  0.60426600  0.02969800  1
  Cu  Cu6  1  0.75000000  0.10426600  0.47030200  1
  Cu  Cu7  1  0.75000000  0.39573400  0.97030200  1
