# generated using pymatgen
data_YbCo3P2
_symmetry_space_group_name_H-M   'P 1'
_cell_length_a   3.70045200
_cell_length_b   10.54116200
_cell_length_c   12.12426200
_cell_angle_alpha   90.00000000
_cell_angle_beta   90.00000000
_cell_angle_gamma   90.00000000
_symmetry_Int_Tables_number   1
_chemical_formula_structural   YbCo3P2
_chemical_formula_sum   'Yb6 Co18 P12'
_cell_volume   472.93186385
_cell_formula_units_Z   6
loop_
 _symmetry_equiv_pos_site_id
 _symmetry_equiv_pos_as_xyz
  1  'x, y, z'
loop_
 _atom_site_type_symbol
 _atom_site_label
 _atom_site_symmetry_multiplicity
 _atom_site_fract_x
 _atom_site_fract_y
 _atom_site_fract_z
 _atom_site_occupancy
  Yb  Yb0  1  0.00000000  0.50000000  0.52565800  1
  Yb  Yb1  1  0.50000000  0.00000000  0.47434200  1
  Yb  Yb2  1  0.50000000  0.81975200  0.20569800  1
  Yb  Yb3  1  0.50000000  0.18024800  0.20569800  1
  Yb  Yb4  1  0.00000000  0.68024800  0.79430200  1
  Yb  Yb5  1  0.00000000  0.31975200  0.79430200  1
  Co  Co6  1  0.50000000  0.50000000  0.15659800  1
  Co  Co7  1  0.00000000  0.00000000  0.84340200  1
  Co  Co8  1  0.50000000  0.50000000  0.70011700  1
  Co  Co9  1  0.00000000  0.00000000  0.29988300  1
  Co  Co10  1  0.00000000  0.50000000  0.98658300  1
  Co  Co11  1  0.50000000  0.00000000  0.01341700  1
  Co  Co12  1  0.50000000  0.33262300  0.99462000  1
  Co  Co13  1  0.50000000  0.66737700  0.99462000  1
  Co  Co14  1  0.00000000  0.16737700  0.00538000  1
  Co  Co15  1  0.00000000  0.83262300  0.00538000  1
  Co  Co16  1  0.50000000  0.29819500  0.43088300  1
  Co  Co17  1  0.50000000  0.70180500  0.43088300  1
  Co  Co18  1  0.00000000  0.20180500  0.56911700  1
  Co  Co19  1  0.00000000  0.79819500  0.56911700  1
  Co  Co20  1  0.50000000  0.88032500  0.70941500  1
  Co  Co21  1  0.50000000  0.11967500  0.70941500  1
  Co  Co22  1  0.00000000  0.61967500  0.29058500  1
  Co  Co23  1  0.00000000  0.38032500  0.29058500  1
  P  P24  1  0.50000000  0.50000000  0.88167600  1
  P  P25  1  0.00000000  0.00000000  0.11832400  1
  P  P26  1  0.50000000  0.50000000  0.34201900  1
  P  P27  1  0.00000000  0.00000000  0.65798100  1
  P  P28  1  0.50000000  0.30769600  0.61714400  1
  P  P29  1  0.50000000  0.69230400  0.61714400  1
  P  P30  1  0.00000000  0.19230400  0.38285600  1
  P  P31  1  0.00000000  0.80769600  0.38285600  1
  P  P32  1  0.50000000  0.84680900  0.89302500  1
  P  P33  1  0.50000000  0.15319100  0.89302500  1
  P  P34  1  0.00000000  0.65319100  0.10697500  1
  P  P35  1  0.00000000  0.34680900  0.10697500  1
