# generated using pymatgen
data_HoMnO3
_symmetry_space_group_name_H-M   'P 1'
_cell_length_a   6.19824867
_cell_length_b   6.19824867
_cell_length_c   11.53951900
_cell_angle_alpha   90.00000000
_cell_angle_beta   90.00000000
_cell_angle_gamma   120.00000715
_symmetry_Int_Tables_number   1
_chemical_formula_structural   HoMnO3
_chemical_formula_sum   'Ho6 Mn6 O18'
_cell_volume   383.93375698
_cell_formula_units_Z   6
loop_
 _symmetry_equiv_pos_site_id
 _symmetry_equiv_pos_as_xyz
  1  'x, y, z'
loop_
 _atom_site_type_symbol
 _atom_site_label
 _atom_site_symmetry_multiplicity
 _atom_site_fract_x
 _atom_site_fract_y
 _atom_site_fract_z
 _atom_site_occupancy
  Ho  Ho0  1  0.66666700  0.33333300  0.23029400  1
  Ho  Ho1  1  0.33333300  0.66666700  0.73029400  1
  Ho  Ho2  1  0.66666700  0.33333300  0.73029400  1
  Ho  Ho3  1  0.33333300  0.66666700  0.23029400  1
  Ho  Ho4  1  0.00000000  0.00000000  0.77401700  1
  Ho  Ho5  1  0.00000000  0.00000000  0.27401700  1
  Mn  Mn6  1  0.66653300  0.00000000  0.49919400  1
  Mn  Mn7  1  0.66653300  0.66653300  0.99919400  1
  Mn  Mn8  1  0.00000000  0.33346700  0.99919400  1
  Mn  Mn9  1  0.00000000  0.66653300  0.49919400  1
  Mn  Mn10  1  0.33346700  0.33346700  0.49919400  1
  Mn  Mn11  1  0.33346700  0.00000000  0.99919400  1
  O  O12  1  0.66666700  0.33333300  0.02025300  1
  O  O13  1  0.33333300  0.66666700  0.52025300  1
  O  O14  1  0.66666700  0.33333300  0.52025300  1
  O  O15  1  0.33333300  0.66666700  0.02025300  1
  O  O16  1  0.00000000  0.00000000  0.97440600  1
  O  O17  1  0.00000000  0.00000000  0.47440600  1
  O  O18  1  0.35923400  0.00000000  0.83441100  1
  O  O19  1  0.35923400  0.35923400  0.33441100  1
  O  O20  1  0.00000000  0.64076600  0.33441100  1
  O  O21  1  0.00000000  0.35923400  0.83441100  1
  O  O22  1  0.64076600  0.64076600  0.83441100  1
  O  O23  1  0.64076600  0.00000000  0.33441100  1
  O  O24  1  0.30703000  0.00000000  0.16422300  1
  O  O25  1  0.30703000  0.30703000  0.66422300  1
  O  O26  1  0.00000000  0.69297000  0.66422300  1
  O  O27  1  0.00000000  0.30703000  0.16422300  1
  O  O28  1  0.69297000  0.69297000  0.16422300  1
  O  O29  1  0.69297000  0.00000000  0.66422300  1
