# generated using pymatgen
data_UCoB4
_symmetry_space_group_name_H-M   'P 1'
_cell_length_a   3.36241300
_cell_length_b   5.88441000
_cell_length_c   11.41261600
_cell_angle_alpha   90.00000000
_cell_angle_beta   90.00000000
_cell_angle_gamma   90.00000000
_symmetry_Int_Tables_number   1
_chemical_formula_structural   UCoB4
_chemical_formula_sum   'U4 Co4 B16'
_cell_volume   225.80792803
_cell_formula_units_Z   4
loop_
 _symmetry_equiv_pos_site_id
 _symmetry_equiv_pos_as_xyz
  1  'x, y, z'
loop_
 _atom_site_type_symbol
 _atom_site_label
 _atom_site_symmetry_multiplicity
 _atom_site_fract_x
 _atom_site_fract_y
 _atom_site_fract_z
 _atom_site_occupancy
  U  U0  1  0.00000000  0.62647300  0.34918400  1
  U  U1  1  0.00000000  0.37352700  0.65081600  1
  U  U2  1  0.00000000  0.12647300  0.15081600  1
  U  U3  1  0.00000000  0.87352700  0.84918400  1
  Co  Co4  1  0.00000000  0.63114400  0.08648200  1
  Co  Co5  1  0.00000000  0.36885600  0.91351800  1
  Co  Co6  1  0.00000000  0.13114400  0.41351800  1
  Co  Co7  1  0.00000000  0.86885600  0.58648200  1
  B  B8  1  0.50000000  0.78339500  0.18742900  1
  B  B9  1  0.50000000  0.21660500  0.81257100  1
  B  B10  1  0.50000000  0.28339500  0.31257100  1
  B  B11  1  0.50000000  0.71660500  0.68742900  1
  B  B12  1  0.50000000  0.86583300  0.03441100  1
  B  B13  1  0.50000000  0.13416700  0.96558900  1
  B  B14  1  0.50000000  0.36583300  0.46558900  1
  B  B15  1  0.50000000  0.63416700  0.53441100  1
  B  B16  1  0.50000000  0.88564200  0.45391300  1
  B  B17  1  0.50000000  0.11435800  0.54608700  1
  B  B18  1  0.50000000  0.38564200  0.04608700  1
  B  B19  1  0.50000000  0.61435800  0.95391300  1
  B  B20  1  0.50000000  0.97405500  0.30771700  1
  B  B21  1  0.50000000  0.02594500  0.69228300  1
  B  B22  1  0.50000000  0.47405500  0.19228300  1
  B  B23  1  0.50000000  0.52594500  0.80771700  1
