# generated using pymatgen
data_CdHg6(Sb2I3)2
_symmetry_space_group_name_H-M   'P 1'
_cell_length_a   13.88191650
_cell_length_b   13.88191650
_cell_length_c   13.81664256
_cell_angle_alpha   89.15089897
_cell_angle_beta   89.15089897
_cell_angle_gamma   91.25618411
_symmetry_Int_Tables_number   1
_chemical_formula_structural   CdHg6(Sb2I3)2
_chemical_formula_sum   'Cd4 Hg24 Sb16 I24'
_cell_volume   2661.33446012
_cell_formula_units_Z   4
loop_
 _symmetry_equiv_pos_site_id
 _symmetry_equiv_pos_as_xyz
  1  'x, y, z'
loop_
 _atom_site_type_symbol
 _atom_site_label
 _atom_site_symmetry_multiplicity
 _atom_site_fract_x
 _atom_site_fract_y
 _atom_site_fract_z
 _atom_site_occupancy
  Cd  Cd0  1  0.73189100  0.76038800  0.32578600  1
  Cd  Cd1  1  0.26810900  0.23961200  0.67421400  1
  Cd  Cd2  1  0.76038800  0.73189100  0.82578600  1
  Cd  Cd3  1  0.23961200  0.26810900  0.17421400  1
  Hg  Hg4  1  0.74442700  0.02822000  0.50429100  1
  Hg  Hg5  1  0.51923700  0.25479300  0.47272600  1
  Hg  Hg6  1  0.51387400  0.00264000  0.25025600  1
  Hg  Hg7  1  0.25557300  0.97178000  0.49570900  1
  Hg  Hg8  1  0.48076300  0.74520700  0.52727400  1
  Hg  Hg9  1  0.48612600  0.99736000  0.74974400  1
  Hg  Hg10  1  0.25479300  0.51923700  0.97272600  1
  Hg  Hg11  1  0.00264000  0.51387400  0.75025600  1
  Hg  Hg12  1  0.02822000  0.74442700  0.00429100  1
  Hg  Hg13  1  0.74520700  0.48076300  0.02727400  1
  Hg  Hg14  1  0.99736000  0.48612600  0.24974400  1
  Hg  Hg15  1  0.97178000  0.25557300  0.99570900  1
  Hg  Hg16  1  0.95728700  0.04271300  0.75000000  1
  Hg  Hg17  1  0.24909400  0.48104000  0.46272600  1
  Hg  Hg18  1  0.51896000  0.75090600  0.03727400  1
  Hg  Hg19  1  0.04271300  0.95728700  0.25000000  1
  Hg  Hg20  1  0.75090600  0.51896000  0.53727400  1
  Hg  Hg21  1  0.48104000  0.24909400  0.96272600  1
  Hg  Hg22  1  0.99085600  0.25621200  0.50432600  1
  Hg  Hg23  1  0.50384100  0.49615900  0.25000000  1
  Hg  Hg24  1  0.74378800  0.00914400  0.99567400  1
  Hg  Hg25  1  0.00914400  0.74378800  0.49567400  1
  Hg  Hg26  1  0.49615900  0.50384100  0.75000000  1
  Hg  Hg27  1  0.25621200  0.99085600  0.00432600  1
  Sb  Sb28  1  0.56095600  0.06212200  0.43701900  1
  Sb  Sb29  1  0.43904400  0.93787800  0.56298100  1
  Sb  Sb30  1  0.06212200  0.56095600  0.93701900  1
  Sb  Sb31  1  0.93787800  0.43904400  0.06298100  1
  Sb  Sb32  1  0.93609900  0.06690600  0.55176600  1
  Sb  Sb33  1  0.44528200  0.43709900  0.43530900  1
  Sb  Sb34  1  0.56341700  0.94739000  0.06326900  1
  Sb  Sb35  1  0.06390100  0.93309400  0.44823400  1
  Sb  Sb36  1  0.55471800  0.56290100  0.56469100  1
  Sb  Sb37  1  0.43658300  0.05261000  0.93673100  1
  Sb  Sb38  1  0.43709900  0.44528200  0.93530900  1
  Sb  Sb39  1  0.94739000  0.56341700  0.56326900  1
  Sb  Sb40  1  0.06690600  0.93609900  0.05176600  1
  Sb  Sb41  1  0.56290100  0.55471800  0.06469100  1
  Sb  Sb42  1  0.05261000  0.43658300  0.43673100  1
  Sb  Sb43  1  0.93309400  0.06390100  0.94823400  1
  I  I44  1  0.80421500  0.94050000  0.25408200  1
  I  I45  1  0.73723800  0.30570700  0.53166500  1
  I  I46  1  0.44135300  0.24307000  0.19521600  1
  I  I47  1  0.19578500  0.05950000  0.74591800  1
  I  I48  1  0.26276200  0.69429300  0.46833500  1
  I  I49  1  0.55864700  0.75693000  0.80478400  1
  I  I50  1  0.30570700  0.73723800  0.03166500  1
  I  I51  1  0.24307000  0.44135300  0.69521600  1
  I  I52  1  0.94050000  0.80421500  0.75408200  1
  I  I53  1  0.69429300  0.26276200  0.96833500  1
  I  I54  1  0.75693000  0.55864700  0.30478400  1
  I  I55  1  0.05950000  0.19578500  0.24591800  1
  I  I56  1  0.75263700  0.80076200  0.52683300  1
  I  I57  1  0.47323600  0.24183800  0.70097200  1
  I  I58  1  0.29898600  0.97787400  0.25382400  1
  I  I59  1  0.24736300  0.19923800  0.47316700  1
  I  I60  1  0.52676400  0.75816200  0.29902800  1
  I  I61  1  0.70101400  0.02212600  0.74617600  1
  I  I62  1  0.24183800  0.47323600  0.20097200  1
  I  I63  1  0.97787400  0.29898600  0.75382400  1
  I  I64  1  0.80076200  0.75263700  0.02683300  1
  I  I65  1  0.75816200  0.52676400  0.79902800  1
  I  I66  1  0.02212600  0.70101400  0.24617600  1
  I  I67  1  0.19923800  0.24736300  0.97316700  1
