# generated using pymatgen
data_NdIn2Pd
_symmetry_space_group_name_H-M   'P 1'
_cell_length_a   11.06213633
_cell_length_b   11.06213633
_cell_length_c   11.06213633
_cell_angle_alpha   100.26910725
_cell_angle_beta   100.26910725
_cell_angle_gamma   130.05005537
_symmetry_Int_Tables_number   1
_chemical_formula_structural   NdIn2Pd
_chemical_formula_sum   'Nd10 In20 Pd10'
_cell_volume   939.32625303
_cell_formula_units_Z   10
loop_
 _symmetry_equiv_pos_site_id
 _symmetry_equiv_pos_as_xyz
  1  'x, y, z'
loop_
 _atom_site_type_symbol
 _atom_site_label
 _atom_site_symmetry_multiplicity
 _atom_site_fract_x
 _atom_site_fract_y
 _atom_site_fract_z
 _atom_site_occupancy
  Nd  Nd0  1  0.33029400  0.61173200  0.71856100  1
  Nd  Nd1  1  0.89317100  0.61173200  0.28143900  1
  Nd  Nd2  1  0.61173200  0.89317100  0.28143900  1
  Nd  Nd3  1  0.61173200  0.33029400  0.71856100  1
  Nd  Nd4  1  0.32580600  0.92209600  0.00000000  1
  Nd  Nd5  1  0.92209600  0.32580600  0.00000000  1
  Nd  Nd6  1  0.92209600  0.92209600  0.59629000  1
  Nd  Nd7  1  0.32580600  0.32580600  0.40371000  1
  Nd  Nd8  1  0.53686600  0.53686600  0.00000000  1
  Nd  Nd9  1  0.00490000  0.00490000  0.00000000  1
  In  In10  1  0.73422900  0.22642000  0.21010900  1
  In  In11  1  0.01631100  0.52412000  0.78989100  1
  In  In12  1  0.22642000  0.01631100  0.49219100  1
  In  In13  1  0.73422900  0.52412000  0.50780900  1
  In  In14  1  0.52412000  0.73422900  0.50780900  1
  In  In15  1  0.01631100  0.22642000  0.49219100  1
  In  In16  1  0.22642000  0.73422900  0.21010900  1
  In  In17  1  0.52412000  0.01631100  0.78989100  1
  In  In18  1  0.75376100  0.13561400  0.61814700  1
  In  In19  1  0.51746700  0.13561400  0.38185300  1
  In  In20  1  0.13561400  0.51746700  0.38185300  1
  In  In21  1  0.13561400  0.75376100  0.61814700  1
  In  In22  1  0.64409100  0.91061200  0.00000000  1
  In  In23  1  0.91061200  0.64409100  0.00000000  1
  In  In24  1  0.91061200  0.91061200  0.26652200  1
  In  In25  1  0.64409100  0.64409100  0.73347800  1
  In  In26  1  0.11667400  0.28000100  0.83667300  1
  In  In27  1  0.44332900  0.28000100  0.16332700  1
  In  In28  1  0.28000100  0.44332900  0.16332700  1
  In  In29  1  0.28000100  0.11667400  0.83667300  1
  Pd  Pd30  1  0.88406400  0.38406400  0.50000000  1
  Pd  Pd31  1  0.38406400  0.88406400  0.50000000  1
  Pd  Pd32  1  0.62391500  0.30473600  0.00000000  1
  Pd  Pd33  1  0.30473600  0.62391500  0.00000000  1
  Pd  Pd34  1  0.30473600  0.30473600  0.68082100  1
  Pd  Pd35  1  0.62391500  0.62391500  0.31917900  1
  Pd  Pd36  1  0.75493600  0.97073600  0.78420000  1
  Pd  Pd37  1  0.18653500  0.97073600  0.21580000  1
  Pd  Pd38  1  0.97073600  0.18653500  0.21580000  1
  Pd  Pd39  1  0.97073600  0.75493600  0.78420000  1
