# generated using pymatgen
data_Nd4CdPd
_symmetry_space_group_name_H-M   'P 1'
_cell_length_a   10.03696074
_cell_length_b   10.03696074
_cell_length_c   10.03696074
_cell_angle_alpha   60.00000000
_cell_angle_beta   60.00000000
_cell_angle_gamma   60.00000000
_symmetry_Int_Tables_number   1
_chemical_formula_structural   Nd4CdPd
_chemical_formula_sum   'Nd16 Cd4 Pd4'
_cell_volume   714.97635260
_cell_formula_units_Z   4
loop_
 _symmetry_equiv_pos_site_id
 _symmetry_equiv_pos_as_xyz
  1  'x, y, z'
loop_
 _atom_site_type_symbol
 _atom_site_label
 _atom_site_symmetry_multiplicity
 _atom_site_fract_x
 _atom_site_fract_y
 _atom_site_fract_z
 _atom_site_occupancy
  Nd  Nd0  1  0.35093200  0.35093200  0.35093200  1
  Nd  Nd1  1  0.35093200  0.35093200  0.94720400  1
  Nd  Nd2  1  0.35093200  0.94720400  0.35093200  1
  Nd  Nd3  1  0.94720400  0.35093200  0.35093200  1
  Nd  Nd4  1  0.80782000  0.19218000  0.19218000  1
  Nd  Nd5  1  0.19218000  0.80782000  0.80782000  1
  Nd  Nd6  1  0.19218000  0.80782000  0.19218000  1
  Nd  Nd7  1  0.80782000  0.19218000  0.80782000  1
  Nd  Nd8  1  0.19218000  0.19218000  0.80782000  1
  Nd  Nd9  1  0.80782000  0.80782000  0.19218000  1
  Nd  Nd10  1  0.93453200  0.56546800  0.56546800  1
  Nd  Nd11  1  0.56546800  0.93453200  0.93453200  1
  Nd  Nd12  1  0.56546800  0.93453200  0.56546800  1
  Nd  Nd13  1  0.93453200  0.56546800  0.93453200  1
  Nd  Nd14  1  0.56546800  0.56546800  0.93453200  1
  Nd  Nd15  1  0.93453200  0.93453200  0.56546800  1
  Cd  Cd16  1  0.58029300  0.58029300  0.58029300  1
  Cd  Cd17  1  0.58029300  0.58029300  0.25912200  1
  Cd  Cd18  1  0.58029300  0.25912200  0.58029300  1
  Cd  Cd19  1  0.25912200  0.58029300  0.58029300  1
  Pd  Pd20  1  0.14324300  0.14324300  0.14324300  1
  Pd  Pd21  1  0.14324300  0.14324300  0.57027000  1
  Pd  Pd22  1  0.14324300  0.57027000  0.14324300  1
  Pd  Pd23  1  0.57027000  0.14324300  0.14324300  1
