# generated using pymatgen
data_InSnTe2
_symmetry_space_group_name_H-M   'P 1'
_cell_length_a   7.74007081
_cell_length_b   7.74007081
_cell_length_c   7.74007114
_cell_angle_alpha   33.73270350
_cell_angle_beta   33.73270350
_cell_angle_gamma   33.73270429
_symmetry_Int_Tables_number   1
_chemical_formula_structural   InSnTe2
_chemical_formula_sum   'In1 Sn1 Te2'
_cell_volume   127.40565499
_cell_formula_units_Z   1
loop_
 _symmetry_equiv_pos_site_id
 _symmetry_equiv_pos_as_xyz
  1  'x, y, z'
loop_
 _atom_site_type_symbol
 _atom_site_label
 _atom_site_symmetry_multiplicity
 _atom_site_fract_x
 _atom_site_fract_y
 _atom_site_fract_z
 _atom_site_occupancy
  In  In0  1  0.00000000  0.00000000  0.00000000  1
  Sn  Sn1  1  0.50000000  0.50000000  0.50000000  1
  Te  Te2  1  0.25054700  0.25054700  0.25054700  1
  Te  Te3  1  0.74945300  0.74945300  0.74945300  1
