# generated using pymatgen
data_ReCl6
_symmetry_space_group_name_H-M   'P 1'
_cell_length_a   6.73624310
_cell_length_b   6.73624310
_cell_length_c   6.73624339
_cell_angle_alpha   55.26967821
_cell_angle_beta   55.26967821
_cell_angle_gamma   55.26967723
_symmetry_Int_Tables_number   1
_chemical_formula_structural   ReCl6
_chemical_formula_sum   'Re1 Cl6'
_cell_volume   192.37954472
_cell_formula_units_Z   1
loop_
 _symmetry_equiv_pos_site_id
 _symmetry_equiv_pos_as_xyz
  1  'x, y, z'
loop_
 _atom_site_type_symbol
 _atom_site_label
 _atom_site_symmetry_multiplicity
 _atom_site_fract_x
 _atom_site_fract_y
 _atom_site_fract_z
 _atom_site_occupancy
  Re  Re0  1  0.00000000  0.00000000  0.00000000  1
  Cl  Cl1  1  0.37634800  0.77410000  0.08278300  1
  Cl  Cl2  1  0.77410000  0.08278300  0.37634800  1
  Cl  Cl3  1  0.08278300  0.37634800  0.77410000  1
  Cl  Cl4  1  0.62365200  0.22590000  0.91721700  1
  Cl  Cl5  1  0.22590000  0.91721700  0.62365200  1
  Cl  Cl6  1  0.91721700  0.62365200  0.22590000  1
