# generated using pymatgen
data_La2B4Rh5
_symmetry_space_group_name_H-M   'P 1'
_cell_length_a   7.60835822
_cell_length_b   6.32954148
_cell_length_c   5.76491646
_cell_angle_alpha   77.80958746
_cell_angle_beta   54.40590362
_cell_angle_gamma   47.78450892
_symmetry_Int_Tables_number   1
_chemical_formula_structural   La2B4Rh5
_chemical_formula_sum   'La2 B4 Rh5'
_cell_volume   159.56164018
_cell_formula_units_Z   1
loop_
 _symmetry_equiv_pos_site_id
 _symmetry_equiv_pos_as_xyz
  1  'x, y, z'
loop_
 _atom_site_type_symbol
 _atom_site_label
 _atom_site_symmetry_multiplicity
 _atom_site_fract_x
 _atom_site_fract_y
 _atom_site_fract_z
 _atom_site_occupancy
  La  La0  1  0.85634900  0.85634900  0.14365100  1
  La  La1  1  0.14365100  0.14365100  0.85634900  1
  B  B2  1  0.79126500  0.46794300  0.53205700  1
  B  B3  1  0.20873500  0.53205700  0.46794300  1
  B  B4  1  0.53205700  0.20873500  0.79126500  1
  B  B5  1  0.46794300  0.79126500  0.20873500  1
  Rh  Rh6  1  0.75000000  0.75000000  0.75000000  1
  Rh  Rh7  1  0.50000000  0.50000000  0.00000000  1
  Rh  Rh8  1  0.50000000  0.50000000  0.50000000  1
  Rh  Rh9  1  0.00000000  0.00000000  0.50000000  1
  Rh  Rh10  1  0.25000000  0.25000000  0.25000000  1
