# generated using pymatgen
data_Yb4Ge3Au5
_symmetry_space_group_name_H-M   'P 1'
_cell_length_a   5.81275283
_cell_length_b   5.81275283
_cell_length_c   10.64944389
_cell_angle_alpha   84.57324879
_cell_angle_beta   84.57324879
_cell_angle_gamma   45.94761064
_symmetry_Int_Tables_number   1
_chemical_formula_structural   Yb4Ge3Au5
_chemical_formula_sum   'Yb4 Ge3 Au5'
_cell_volume   257.23940449
_cell_formula_units_Z   1
loop_
 _symmetry_equiv_pos_site_id
 _symmetry_equiv_pos_as_xyz
  1  'x, y, z'
loop_
 _atom_site_type_symbol
 _atom_site_label
 _atom_site_symmetry_multiplicity
 _atom_site_fract_x
 _atom_site_fract_y
 _atom_site_fract_z
 _atom_site_occupancy
  Yb  Yb0  1  0.68427600  0.68427600  0.68851900  1
  Yb  Yb1  1  0.18693200  0.18693200  0.18129700  1
  Yb  Yb2  1  0.39387500  0.39387500  0.90017600  1
  Yb  Yb3  1  0.89485100  0.89485100  0.39715800  1
  Ge  Ge4  1  0.17625500  0.17625500  0.48753600  1
  Ge  Ge5  1  0.98552200  0.98552200  0.66942400  1
  Ge  Ge6  1  0.48468600  0.48468600  0.18563700  1
  Au  Au7  1  0.68462700  0.68462700  0.98989900  1
  Au  Au8  1  0.38467800  0.38467800  0.60608400  1
  Au  Au9  1  0.90318300  0.90318300  0.11240500  1
  Au  Au10  1  0.09626300  0.09626300  0.87629000  1
  Au  Au11  1  0.60605100  0.60605100  0.38677400  1
