# generated using pymatgen
data_K2Cd3Se4
_symmetry_space_group_name_H-M   'P 1'
_cell_length_a   6.98150300
_cell_length_b   10.86807000
_cell_length_c   14.62916600
_cell_angle_alpha   90.00000000
_cell_angle_beta   90.00000000
_cell_angle_gamma   90.00000000
_symmetry_Int_Tables_number   1
_chemical_formula_structural   K2Cd3Se4
_chemical_formula_sum   'K8 Cd12 Se16'
_cell_volume   1109.99474808
_cell_formula_units_Z   4
loop_
 _symmetry_equiv_pos_site_id
 _symmetry_equiv_pos_as_xyz
  1  'x, y, z'
loop_
 _atom_site_type_symbol
 _atom_site_label
 _atom_site_symmetry_multiplicity
 _atom_site_fract_x
 _atom_site_fract_y
 _atom_site_fract_z
 _atom_site_occupancy
  K  K0  1  0.50000000  0.00000000  0.50000000  1
  K  K1  1  0.00000000  0.50000000  0.00000000  1
  K  K2  1  0.50000000  0.50000000  0.50000000  1
  K  K3  1  0.00000000  0.00000000  0.00000000  1
  K  K4  1  0.02132100  0.75000000  0.53323600  1
  K  K5  1  0.47867900  0.75000000  0.03323600  1
  K  K6  1  0.97867900  0.25000000  0.46676400  1
  K  K7  1  0.52132100  0.25000000  0.96676400  1
  Cd  Cd8  1  0.72929000  0.75000000  0.29695500  1
  Cd  Cd9  1  0.77071000  0.75000000  0.79695500  1
  Cd  Cd10  1  0.27071000  0.25000000  0.70304500  1
  Cd  Cd11  1  0.22929000  0.25000000  0.20304500  1
  Cd  Cd12  1  0.16371800  0.90581000  0.24660100  1
  Cd  Cd13  1  0.33628200  0.59419000  0.74660100  1
  Cd  Cd14  1  0.83628200  0.40581000  0.75339900  1
  Cd  Cd15  1  0.66371800  0.09419000  0.25339900  1
  Cd  Cd16  1  0.83628200  0.09419000  0.75339900  1
  Cd  Cd17  1  0.66371800  0.40581000  0.25339900  1
  Cd  Cd18  1  0.16371800  0.59419000  0.24660100  1
  Cd  Cd19  1  0.33628200  0.90581000  0.74660100  1
  Se  Se20  1  0.93201300  0.75000000  0.14009900  1
  Se  Se21  1  0.56798700  0.75000000  0.64009900  1
  Se  Se22  1  0.06798700  0.25000000  0.85990100  1
  Se  Se23  1  0.43201300  0.25000000  0.35990100  1
  Se  Se24  1  0.37045900  0.75000000  0.35434900  1
  Se  Se25  1  0.12954100  0.75000000  0.85434900  1
  Se  Se26  1  0.62954100  0.25000000  0.64565100  1
  Se  Se27  1  0.87045900  0.25000000  0.14565100  1
  Se  Se28  1  0.88585200  0.96745600  0.36581000  1
  Se  Se29  1  0.61414800  0.53254400  0.86581000  1
  Se  Se30  1  0.11414800  0.46745600  0.63419000  1
  Se  Se31  1  0.38585200  0.03254400  0.13419000  1
  Se  Se32  1  0.11414800  0.03254400  0.63419000  1
  Se  Se33  1  0.38585200  0.46745600  0.13419000  1
  Se  Se34  1  0.88585200  0.53254400  0.36581000  1
  Se  Se35  1  0.61414800  0.96745600  0.86581000  1
