# generated using pymatgen
data_CeSi2Ir
_symmetry_space_group_name_H-M   'P 1'
_cell_length_a   8.67401624
_cell_length_b   8.67401624
_cell_length_c   4.18645800
_cell_angle_alpha   90.00000000
_cell_angle_beta   90.00000000
_cell_angle_gamma   151.91717659
_symmetry_Int_Tables_number   1
_chemical_formula_structural   CeSi2Ir
_chemical_formula_sum   'Ce2 Si4 Ir2'
_cell_volume   148.27746017
_cell_formula_units_Z   2
loop_
 _symmetry_equiv_pos_site_id
 _symmetry_equiv_pos_as_xyz
  1  'x, y, z'
loop_
 _atom_site_type_symbol
 _atom_site_label
 _atom_site_symmetry_multiplicity
 _atom_site_fract_x
 _atom_site_fract_y
 _atom_site_fract_z
 _atom_site_occupancy
  Ce  Ce0  1  0.89387600  0.10612400  0.75000000  1
  Ce  Ce1  1  0.10612400  0.89387600  0.25000000  1
  Si  Si2  1  0.53616500  0.46383500  0.75000000  1
  Si  Si3  1  0.46383500  0.53616500  0.25000000  1
  Si  Si4  1  0.24927000  0.75073000  0.75000000  1
  Si  Si5  1  0.75073000  0.24927000  0.25000000  1
  Ir  Ir6  1  0.67697200  0.32302800  0.75000000  1
  Ir  Ir7  1  0.32302800  0.67697200  0.25000000  1
