# generated using pymatgen
data_Ho2Ge5Ru3
_symmetry_space_group_name_H-M   'P 1'
_cell_length_a   8.46009899
_cell_length_b   8.46009899
_cell_length_c   8.46009899
_cell_angle_alpha   140.09031050
_cell_angle_beta   108.57570340
_cell_angle_gamma   85.08866469
_symmetry_Int_Tables_number   1
_chemical_formula_structural   Ho2Ge5Ru3
_chemical_formula_sum   'Ho4 Ge10 Ru6'
_cell_volume   355.48301248
_cell_formula_units_Z   2
loop_
 _symmetry_equiv_pos_site_id
 _symmetry_equiv_pos_as_xyz
  1  'x, y, z'
loop_
 _atom_site_type_symbol
 _atom_site_label
 _atom_site_symmetry_multiplicity
 _atom_site_fract_x
 _atom_site_fract_y
 _atom_site_fract_z
 _atom_site_occupancy
  Ho  Ho0  1  0.86932800  0.13750600  0.73182200  1
  Ho  Ho1  1  0.13067200  0.86249400  0.26817800  1
  Ho  Ho2  1  0.40568400  0.63750600  0.76817800  1
  Ho  Ho3  1  0.59431600  0.36249400  0.23182200  1
  Ge  Ge4  1  0.50000000  0.25000000  0.75000000  1
  Ge  Ge5  1  0.50000000  0.75000000  0.25000000  1
  Ge  Ge6  1  0.20841000  0.45841000  0.25000000  1
  Ge  Ge7  1  0.79159000  0.04159000  0.25000000  1
  Ge  Ge8  1  0.79159000  0.54159000  0.75000000  1
  Ge  Ge9  1  0.20841000  0.95841000  0.75000000  1
  Ge  Ge10  1  0.08522300  0.41088700  0.67433600  1
  Ge  Ge11  1  0.91477700  0.58911300  0.32566400  1
  Ge  Ge12  1  0.73655200  0.91088700  0.82566400  1
  Ge  Ge13  1  0.26344800  0.08911300  0.17433600  1
  Ru  Ru14  1  0.00000000  0.25000000  0.25000000  1
  Ru  Ru15  1  0.00000000  0.75000000  0.75000000  1
  Ru  Ru16  1  0.26015900  0.35304200  0.90711700  1
  Ru  Ru17  1  0.73984100  0.64695800  0.09288300  1
  Ru  Ru18  1  0.44592600  0.85304200  0.59288300  1
  Ru  Ru19  1  0.55407400  0.14695800  0.40711700  1
