# generated using pymatgen
data_TePb3Cl4O3
_symmetry_space_group_name_H-M   'P 1'
_cell_length_a   7.57498800
_cell_length_b   8.63112500
_cell_length_c   16.30711100
_cell_angle_alpha   90.00000000
_cell_angle_beta   90.00000000
_cell_angle_gamma   90.00000000
_symmetry_Int_Tables_number   1
_chemical_formula_structural   TePb3Cl4O3
_chemical_formula_sum   'Te4 Pb12 Cl16 O12'
_cell_volume   1066.16981525
_cell_formula_units_Z   4
loop_
 _symmetry_equiv_pos_site_id
 _symmetry_equiv_pos_as_xyz
  1  'x, y, z'
loop_
 _atom_site_type_symbol
 _atom_site_label
 _atom_site_symmetry_multiplicity
 _atom_site_fract_x
 _atom_site_fract_y
 _atom_site_fract_z
 _atom_site_occupancy
  Te  Te0  1  0.15415000  0.07629700  0.02059800  1
  Te  Te1  1  0.84585000  0.57629700  0.97940200  1
  Te  Te2  1  0.34585000  0.57629700  0.52059800  1
  Te  Te3  1  0.65415000  0.07629700  0.47940200  1
  Pb  Pb4  1  0.70745700  0.14801800  0.97687600  1
  Pb  Pb5  1  0.29254300  0.64801800  0.02312400  1
  Pb  Pb6  1  0.79254300  0.64801800  0.47687600  1
  Pb  Pb7  1  0.20745700  0.14801800  0.52312400  1
  Pb  Pb8  1  0.95269200  0.86885200  0.18856900  1
  Pb  Pb9  1  0.04730800  0.36885200  0.81143100  1
  Pb  Pb10  1  0.54730800  0.36885200  0.68856900  1
  Pb  Pb11  1  0.45269200  0.86885200  0.31143100  1
  Pb  Pb12  1  0.94008700  0.36339100  0.18356300  1
  Pb  Pb13  1  0.05991300  0.86339100  0.81643700  1
  Pb  Pb14  1  0.55991300  0.86339100  0.68356300  1
  Pb  Pb15  1  0.44008700  0.36339100  0.31643700  1
  Cl  Cl16  1  0.60293800  0.37289100  0.10511300  1
  Cl  Cl17  1  0.39706200  0.87289100  0.89488700  1
  Cl  Cl18  1  0.89706200  0.87289100  0.60511300  1
  Cl  Cl19  1  0.10293800  0.37289100  0.39488700  1
  Cl  Cl20  1  0.63343200  0.86153300  0.09868800  1
  Cl  Cl21  1  0.36656800  0.36153300  0.90131200  1
  Cl  Cl22  1  0.86656800  0.36153300  0.59868800  1
  Cl  Cl23  1  0.13343200  0.86153300  0.40131200  1
  Cl  Cl24  1  0.75296000  0.61779100  0.28382100  1
  Cl  Cl25  1  0.24704000  0.11779100  0.71617900  1
  Cl  Cl26  1  0.74704000  0.11779100  0.78382100  1
  Cl  Cl27  1  0.25296000  0.61779100  0.21617900  1
  Cl  Cl28  1  0.75440100  0.11428400  0.28249700  1
  Cl  Cl29  1  0.24559900  0.61428400  0.71750300  1
  Cl  Cl30  1  0.74559900  0.61428400  0.78249700  1
  Cl  Cl31  1  0.25440100  0.11428400  0.21750300  1
  O  O32  1  0.95373800  0.14893400  0.08145000  1
  O  O33  1  0.04626200  0.64893400  0.91855000  1
  O  O34  1  0.54626200  0.64893400  0.58145000  1
  O  O35  1  0.45373800  0.14893400  0.41855000  1
  O  O36  1  0.01157300  0.05173600  0.92541400  1
  O  O37  1  0.98842700  0.55173600  0.07458600  1
  O  O38  1  0.48842700  0.55173600  0.42541400  1
  O  O39  1  0.51157300  0.05173600  0.57458600  1
  O  O40  1  0.13301800  0.87215200  0.06314200  1
  O  O41  1  0.86698200  0.37215200  0.93685800  1
  O  O42  1  0.36698200  0.37215200  0.56314200  1
  O  O43  1  0.63301800  0.87215200  0.43685800  1
