# generated using pymatgen
data_Sr(Ag2Sb)2
_symmetry_space_group_name_H-M   'P 1'
_cell_length_a   8.94586922
_cell_length_b   8.94586922
_cell_length_c   8.94586937
_cell_angle_alpha   31.26991441
_cell_angle_beta   31.26991441
_cell_angle_gamma   31.26991340
_symmetry_Int_Tables_number   1
_chemical_formula_structural   Sr(Ag2Sb)2
_chemical_formula_sum   'Sr1 Ag4 Sb2'
_cell_volume   171.19090002
_cell_formula_units_Z   1
loop_
 _symmetry_equiv_pos_site_id
 _symmetry_equiv_pos_as_xyz
  1  'x, y, z'
loop_
 _atom_site_type_symbol
 _atom_site_label
 _atom_site_symmetry_multiplicity
 _atom_site_fract_x
 _atom_site_fract_y
 _atom_site_fract_z
 _atom_site_occupancy
  Sr  Sr0  1  0.00000000  0.00000000  0.00000000  1
  Ag  Ag1  1  0.85794200  0.85794200  0.85794200  1
  Ag  Ag2  1  0.14205800  0.14205800  0.14205800  1
  Ag  Ag3  1  0.56514200  0.56514200  0.56514200  1
  Ag  Ag4  1  0.43485800  0.43485800  0.43485800  1
  Sb  Sb5  1  0.74583900  0.74583900  0.74583900  1
  Sb  Sb6  1  0.25416100  0.25416100  0.25416100  1
