# generated using pymatgen
data_In5AgTe8
_symmetry_space_group_name_H-M   'P 1'
_cell_length_a   7.76524508
_cell_length_b   7.76524508
_cell_length_c   9.17822914
_cell_angle_alpha   89.77218697
_cell_angle_beta   90.22781303
_cell_angle_gamma   72.19860913
_symmetry_Int_Tables_number   1
_chemical_formula_structural   In5AgTe8
_chemical_formula_sum   'In5 Ag1 Te8'
_cell_volume   526.92878939
_cell_formula_units_Z   1
loop_
 _symmetry_equiv_pos_site_id
 _symmetry_equiv_pos_as_xyz
  1  'x, y, z'
loop_
 _atom_site_type_symbol
 _atom_site_label
 _atom_site_symmetry_multiplicity
 _atom_site_fract_x
 _atom_site_fract_y
 _atom_site_fract_z
 _atom_site_occupancy
  In  In0  1  0.49054500  0.49054500  0.00000000  1
  In  In1  1  0.01010300  0.01010300  0.50000000  1
  In  In2  1  0.49955800  0.49955800  0.50000000  1
  In  In3  1  0.01034800  0.48905700  0.75308400  1
  In  In4  1  0.48905700  0.01034800  0.24691600  1
  Ag  Ag5  1  0.99912700  0.99912700  0.00000000  1
  Te  Te6  1  0.61920200  0.11191500  0.98563600  1
  Te  Te7  1  0.11231900  0.61881900  0.48143300  1
  Te  Te8  1  0.11191500  0.61920200  0.01436400  1
  Te  Te9  1  0.61881900  0.11231900  0.51856700  1
  Te  Te10  1  0.11280000  0.15361200  0.24621100  1
  Te  Te11  1  0.62106500  0.65153100  0.75122000  1
  Te  Te12  1  0.15361200  0.11280000  0.75378900  1
  Te  Te13  1  0.65153100  0.62106500  0.24878000  1
