# generated using pymatgen
data_Ca2NbFeO6
_symmetry_space_group_name_H-M   'P 1'
_cell_length_a   5.47365861
_cell_length_b   9.65300858
_cell_length_c   9.65308697
_cell_angle_alpha   71.55314298
_cell_angle_beta   90.15460502
_cell_angle_gamma   90.15448843
_symmetry_Int_Tables_number   1
_chemical_formula_structural   Ca2NbFeO6
_chemical_formula_sum   'Ca8 Nb4 Fe4 O24'
_cell_volume   483.83287627
_cell_formula_units_Z   4
loop_
 _symmetry_equiv_pos_site_id
 _symmetry_equiv_pos_as_xyz
  1  'x, y, z'
loop_
 _atom_site_type_symbol
 _atom_site_label
 _atom_site_symmetry_multiplicity
 _atom_site_fract_x
 _atom_site_fract_y
 _atom_site_fract_z
 _atom_site_occupancy
  Ca  Ca0  1  0.01321700  0.34833200  0.90050700  1
  Ca  Ca1  1  0.01322000  0.84833100  0.40050700  1
  Ca  Ca2  1  0.98678000  0.65166700  0.09949300  1
  Ca  Ca3  1  0.98678100  0.15166800  0.59949300  1
  Ca  Ca4  1  0.48677700  0.59949300  0.65166700  1
  Ca  Ca5  1  0.48677800  0.09949300  0.15166800  1
  Ca  Ca6  1  0.51322200  0.40050700  0.34833300  1
  Ca  Ca7  1  0.51322200  0.90050600  0.84833300  1
  Nb  Nb8  1  0.00000200  0.25000000  0.25000000  1
  Nb  Nb9  1  0.99999900  0.75000000  0.74999900  1
  Nb  Nb10  1  0.50000000  0.25000100  0.74999900  1
  Nb  Nb11  1  0.50000100  0.75000000  0.25000000  1
  Fe  Fe12  1  0.00000000  0.50000000  0.50000000  1
  Fe  Fe13  1  0.50000000  0.00000000  0.50000000  1
  Fe  Fe14  1  0.00000100  0.00000000  0.00000000  1
  Fe  Fe15  1  0.50000000  0.50000000  0.00000000  1
  O  O16  1  0.90759400  0.13974500  0.11160200  1
  O  O17  1  0.90759700  0.63974500  0.61160300  1
  O  O18  1  0.09240200  0.86025400  0.88839800  1
  O  O19  1  0.09240500  0.36025500  0.38839700  1
  O  O20  1  0.59240600  0.38840100  0.86025000  1
  O  O21  1  0.59240500  0.88840100  0.36025000  1
  O  O22  1  0.40759500  0.61160000  0.13974900  1
  O  O23  1  0.40759600  0.11160000  0.63975000  1
  O  O24  1  0.20464200  0.37521000  0.67219400  1
  O  O25  1  0.20464100  0.87521000  0.17219300  1
  O  O26  1  0.79535900  0.62479000  0.32780700  1
  O  O27  1  0.79535800  0.12478900  0.82780700  1
  O  O28  1  0.29535900  0.32780700  0.12479400  1
  O  O29  1  0.29535800  0.82780700  0.62479300  1
  O  O30  1  0.70464000  0.67219400  0.87520600  1
  O  O31  1  0.70464200  0.17219300  0.37520700  1
  O  O32  1  0.29847100  0.12867500  0.92108300  1
  O  O33  1  0.29847300  0.62867400  0.42108200  1
  O  O34  1  0.70152900  0.87132600  0.07891700  1
  O  O35  1  0.70152800  0.37132600  0.57891800  1
  O  O36  1  0.20152700  0.57891400  0.87132500  1
  O  O37  1  0.20152700  0.07891400  0.37132400  1
  O  O38  1  0.79847400  0.42108600  0.12867500  1
  O  O39  1  0.79847400  0.92108500  0.62867500  1
