# generated using pymatgen
data_La3PtI3
_symmetry_space_group_name_H-M   'P 1'
_cell_length_a   11.04512172
_cell_length_b   11.04512172
_cell_length_c   11.04512230
_cell_angle_alpha   109.47121640
_cell_angle_beta   109.47122275
_cell_angle_gamma   109.47122063
_symmetry_Int_Tables_number   1
_chemical_formula_structural   La3PtI3
_chemical_formula_sum   'La12 Pt4 I12'
_cell_volume   1037.26485319
_cell_formula_units_Z   4
loop_
 _symmetry_equiv_pos_site_id
 _symmetry_equiv_pos_as_xyz
  1  'x, y, z'
loop_
 _atom_site_type_symbol
 _atom_site_label
 _atom_site_symmetry_multiplicity
 _atom_site_fract_x
 _atom_site_fract_y
 _atom_site_fract_z
 _atom_site_occupancy
  La  La0  1  0.46216300  0.48108200  0.23108200  1
  La  La1  1  0.75000000  0.23108200  0.26891800  1
  La  La2  1  0.75000000  0.01891800  0.48108200  1
  La  La3  1  0.23108200  0.46216300  0.48108200  1
  La  La4  1  0.26891800  0.75000000  0.23108200  1
  La  La5  1  0.03783700  0.26891800  0.01891800  1
  La  La6  1  0.01891800  0.03783700  0.26891800  1
  La  La7  1  0.48108200  0.75000000  0.01891800  1
  La  La8  1  0.48108200  0.23108200  0.46216300  1
  La  La9  1  0.01891800  0.48108200  0.75000000  1
  La  La10  1  0.26891800  0.01891800  0.03783700  1
  La  La11  1  0.23108200  0.26891800  0.75000000  1
  Pt  Pt12  1  0.25000000  0.25000000  0.25000000  1
  Pt  Pt13  1  0.50000000  0.00000000  0.25000000  1
  Pt  Pt14  1  0.00000000  0.25000000  0.50000000  1
  Pt  Pt15  1  0.25000000  0.50000000  0.00000000  1
  I  I16  1  0.25000000  0.75870800  0.74129200  1
  I  I17  1  0.51741600  0.50870800  0.75870800  1
  I  I18  1  0.98258400  0.74129200  0.99129200  1
  I  I19  1  0.74129200  0.25000000  0.75870800  1
  I  I20  1  0.99129200  0.98258400  0.74129200  1
  I  I21  1  0.25000000  0.99129200  0.50870800  1
  I  I22  1  0.75870800  0.51741600  0.50870800  1
  I  I23  1  0.50870800  0.25000000  0.99129200  1
  I  I24  1  0.75870800  0.74129200  0.25000000  1
  I  I25  1  0.74129200  0.99129200  0.98258400  1
  I  I26  1  0.99129200  0.50870800  0.25000000  1
  I  I27  1  0.50870800  0.75870800  0.51741600  1
