# generated using pymatgen
data_K3HoSi2O7
_symmetry_space_group_name_H-M   'P 1'
_cell_length_a   9.93255392
_cell_length_b   9.93255392
_cell_length_c   14.46513200
_cell_angle_alpha   90.00000000
_cell_angle_beta   90.00000000
_cell_angle_gamma   119.99999949
_symmetry_Int_Tables_number   1
_chemical_formula_structural   K3HoSi2O7
_chemical_formula_sum   'K18 Ho6 Si12 O42'
_cell_volume   1235.87599848
_cell_formula_units_Z   6
loop_
 _symmetry_equiv_pos_site_id
 _symmetry_equiv_pos_as_xyz
  1  'x, y, z'
loop_
 _atom_site_type_symbol
 _atom_site_label
 _atom_site_symmetry_multiplicity
 _atom_site_fract_x
 _atom_site_fract_y
 _atom_site_fract_z
 _atom_site_occupancy
  K  K0  1  0.00000000  0.00000000  0.50000000  1
  K  K1  1  0.33187800  0.00000000  0.09183400  1
  K  K2  1  0.33187800  0.33187800  0.59183400  1
  K  K3  1  0.00000000  0.66812200  0.59183400  1
  K  K4  1  0.00000000  0.33187800  0.09183400  1
  K  K5  1  0.66812200  0.66812200  0.09183400  1
  K  K6  1  0.33187800  0.00000000  0.40816600  1
  K  K7  1  0.00000000  0.00000000  0.00000000  1
  K  K8  1  0.33333300  0.66666700  0.75000000  1
  K  K9  1  0.66666700  0.33333300  0.25000000  1
  K  K10  1  0.66666700  0.33333300  0.75000000  1
  K  K11  1  0.33333300  0.66666700  0.25000000  1
  K  K12  1  0.66812200  0.66812200  0.40816600  1
  K  K13  1  0.66812200  0.00000000  0.90816600  1
  K  K14  1  0.00000000  0.66812200  0.90816600  1
  K  K15  1  0.00000000  0.33187800  0.40816600  1
  K  K16  1  0.66812200  0.00000000  0.59183400  1
  K  K17  1  0.33187800  0.33187800  0.90816600  1
  Ho  Ho18  1  0.00000000  0.00000000  0.75000000  1
  Ho  Ho19  1  0.33333300  0.66666700  0.00000000  1
  Ho  Ho20  1  0.66666700  0.33333300  0.50000000  1
  Ho  Ho21  1  0.66666700  0.33333300  0.00000000  1
  Ho  Ho22  1  0.33333300  0.66666700  0.50000000  1
  Ho  Ho23  1  0.00000000  0.00000000  0.25000000  1
  Si  Si24  1  0.65824800  0.65824800  0.85733400  1
  Si  Si25  1  0.34175200  0.00000000  0.85733400  1
  Si  Si26  1  0.00000000  0.34175200  0.85733400  1
  Si  Si27  1  0.00000000  0.65824800  0.35733400  1
  Si  Si28  1  0.34175200  0.00000000  0.64266600  1
  Si  Si29  1  0.34175200  0.34175200  0.35733400  1
  Si  Si30  1  0.65824800  0.00000000  0.35733400  1
  Si  Si31  1  0.34175200  0.34175200  0.14266600  1
  Si  Si32  1  0.00000000  0.65824800  0.14266600  1
  Si  Si33  1  0.00000000  0.34175200  0.64266600  1
  Si  Si34  1  0.65824800  0.65824800  0.64266600  1
  Si  Si35  1  0.65824800  0.00000000  0.14266600  1
  O  O36  1  0.40863900  0.00000000  0.75000000  1
  O  O37  1  0.40863900  0.40863900  0.25000000  1
  O  O38  1  0.00000000  0.59136100  0.25000000  1
  O  O39  1  0.00000000  0.40863900  0.75000000  1
  O  O40  1  0.59136100  0.59136100  0.75000000  1
  O  O41  1  0.59136100  0.00000000  0.25000000  1
  O  O42  1  0.82302600  0.82302600  0.85172000  1
  O  O43  1  0.17697400  0.00000000  0.85172000  1
  O  O44  1  0.00000000  0.17697400  0.85172000  1
  O  O45  1  0.00000000  0.82302600  0.35172000  1
  O  O46  1  0.17697400  0.00000000  0.64828000  1
  O  O47  1  0.17697400  0.17697400  0.35172000  1
  O  O48  1  0.82302600  0.00000000  0.35172000  1
  O  O49  1  0.17697400  0.17697400  0.14828000  1
  O  O50  1  0.00000000  0.82302600  0.14828000  1
  O  O51  1  0.00000000  0.17697400  0.64828000  1
  O  O52  1  0.82302600  0.82302600  0.64828000  1
  O  O53  1  0.82302600  0.00000000  0.14828000  1
  O  O54  1  0.32193900  0.84419300  0.90863900  1
  O  O55  1  0.15580700  0.47774600  0.90863900  1
  O  O56  1  0.52225400  0.67806100  0.90863900  1
  O  O57  1  0.47774600  0.32193900  0.40863900  1
  O  O58  1  0.67806100  0.52225400  0.59136100  1
  O  O59  1  0.67806100  0.15580700  0.40863900  1
  O  O60  1  0.84419300  0.52225400  0.40863900  1
  O  O61  1  0.15580700  0.67806100  0.09136100  1
  O  O62  1  0.52225400  0.84419300  0.09136100  1
  O  O63  1  0.47774600  0.15580700  0.59136100  1
  O  O64  1  0.84419300  0.32193900  0.59136100  1
  O  O65  1  0.32193900  0.47774600  0.09136100  1
  O  O66  1  0.67806100  0.15580700  0.09136100  1
  O  O67  1  0.84419300  0.52225400  0.09136100  1
  O  O68  1  0.47774600  0.32193900  0.09136100  1
  O  O69  1  0.52225400  0.67806100  0.59136100  1
  O  O70  1  0.32193900  0.47774600  0.40863900  1
  O  O71  1  0.32193900  0.84419300  0.59136100  1
  O  O72  1  0.67806100  0.52225400  0.90863900  1
  O  O73  1  0.15580700  0.67806100  0.40863900  1
  O  O74  1  0.52225400  0.84419300  0.40863900  1
  O  O75  1  0.47774600  0.15580700  0.90863900  1
  O  O76  1  0.84419300  0.32193900  0.90863900  1
  O  O77  1  0.15580700  0.47774600  0.59136100  1
