# generated using pymatgen
data_KCrPO4F
_symmetry_space_group_name_H-M   'P 1'
_cell_length_a   6.43128300
_cell_length_b   10.71823100
_cell_length_c   12.95030400
_cell_angle_alpha   90.00000000
_cell_angle_beta   90.00000000
_cell_angle_gamma   90.00000000
_symmetry_Int_Tables_number   1
_chemical_formula_structural   KCrPO4F
_chemical_formula_sum   'K8 Cr8 P8 O32 F8'
_cell_volume   892.69005514
_cell_formula_units_Z   8
loop_
 _symmetry_equiv_pos_site_id
 _symmetry_equiv_pos_as_xyz
  1  'x, y, z'
loop_
 _atom_site_type_symbol
 _atom_site_label
 _atom_site_symmetry_multiplicity
 _atom_site_fract_x
 _atom_site_fract_y
 _atom_site_fract_z
 _atom_site_occupancy
  K  K0  1  0.20240200  0.69172300  0.39584100  1
  K  K1  1  0.79759800  0.19172300  0.60415900  1
  K  K2  1  0.29759800  0.69172300  0.89584100  1
  K  K3  1  0.70240200  0.19172300  0.10415900  1
  K  K4  1  0.77628300  0.94722300  0.38082200  1
  K  K5  1  0.22371700  0.44722300  0.61917800  1
  K  K6  1  0.72371700  0.94722300  0.88082200  1
  K  K7  1  0.27628300  0.44722300  0.11917800  1
  Cr  Cr8  1  0.99898500  0.74818000  0.11512800  1
  Cr  Cr9  1  0.00101500  0.24818000  0.88487200  1
  Cr  Cr10  1  0.50101500  0.74818000  0.61512800  1
  Cr  Cr11  1  0.49898500  0.24818000  0.38487200  1
  Cr  Cr12  1  0.75214700  0.50009600  0.25319800  1
  Cr  Cr13  1  0.24785300  0.00009600  0.74680200  1
  Cr  Cr14  1  0.74785300  0.50009600  0.75319800  1
  Cr  Cr15  1  0.25214700  0.00009600  0.24680200  1
  P  P16  1  0.67036000  0.49762700  0.50090000  1
  P  P17  1  0.32964000  0.99762700  0.49910000  1
  P  P18  1  0.82964000  0.49762700  0.00090000  1
  P  P19  1  0.17036000  0.99762700  0.99910000  1
  P  P20  1  0.50248300  0.74810400  0.18165000  1
  P  P21  1  0.49751700  0.24810400  0.81835000  1
  P  P22  1  0.99751700  0.74810400  0.68165000  1
  P  P23  1  0.00248300  0.24810400  0.31835000  1
  O  O24  1  0.03260100  0.87862700  0.01024300  1
  O  O25  1  0.30834400  0.27445400  0.88848800  1
  O  O26  1  0.80834400  0.77445400  0.61151200  1
  O  O27  1  0.19165600  0.27445400  0.38848800  1
  O  O28  1  0.31087800  0.71899000  0.11222200  1
  O  O29  1  0.68912200  0.21899000  0.88777800  1
  O  O30  1  0.18912200  0.71899000  0.61222200  1
  O  O31  1  0.81087800  0.21899000  0.38777800  1
  O  O32  1  0.51500300  0.60779400  0.51572300  1
  O  O33  1  0.48499700  0.10779400  0.48427700  1
  O  O34  1  0.98499700  0.60779400  0.01572300  1
  O  O35  1  0.01500300  0.10779400  0.98427700  1
  O  O36  1  0.53260100  0.37862700  0.48975700  1
  O  O37  1  0.46739900  0.87862700  0.51024300  1
  O  O38  1  0.96739900  0.37862700  0.98975700  1
  O  O39  1  0.69165600  0.77445400  0.11151200  1
  O  O40  1  0.81073300  0.51903300  0.40573100  1
  O  O41  1  0.18926700  0.01903300  0.59426900  1
  O  O42  1  0.68926700  0.51903300  0.90573100  1
  O  O43  1  0.45645400  0.86059100  0.25441000  1
  O  O44  1  0.80766300  0.48042400  0.59864400  1
  O  O45  1  0.19233700  0.98042400  0.40135600  1
  O  O46  1  0.69233700  0.48042400  0.09864400  1
  O  O47  1  0.30766300  0.98042400  0.90135600  1
  O  O48  1  0.04013900  0.13498600  0.24480300  1
  O  O49  1  0.95986100  0.63498600  0.75519700  1
  O  O50  1  0.45986100  0.13498600  0.74480300  1
  O  O51  1  0.54013900  0.63498600  0.25519700  1
  O  O52  1  0.95645400  0.36059100  0.24559000  1
  O  O53  1  0.04354600  0.86059100  0.75441000  1
  O  O54  1  0.54354600  0.36059100  0.74559000  1
  O  O55  1  0.31073300  0.01903300  0.09426900  1
  F  F56  1  0.02779800  0.87448500  0.22774100  1
  F  F57  1  0.97220200  0.37448500  0.77225900  1
  F  F58  1  0.47220200  0.87448500  0.72774100  1
  F  F59  1  0.52779800  0.37448500  0.27225900  1
  F  F60  1  0.47944900  0.12116300  0.27113400  1
  F  F61  1  0.52055100  0.62116300  0.72886600  1
  F  F62  1  0.02055100  0.12116300  0.77113400  1
  F  F63  1  0.97944900  0.62116300  0.22886600  1
