# generated using pymatgen
data_Sr(SiPd)6
_symmetry_space_group_name_H-M   'P 1'
_cell_length_a   8.47133088
_cell_length_b   8.47133088
_cell_length_c   8.47133088
_cell_angle_alpha   122.75741290
_cell_angle_beta   120.77274162
_cell_angle_gamma   86.97811249
_symmetry_Int_Tables_number   1
_chemical_formula_structural   Sr(SiPd)6
_chemical_formula_sum   'Sr2 Si12 Pd12'
_cell_volume   417.60474312
_cell_formula_units_Z   2
loop_
 _symmetry_equiv_pos_site_id
 _symmetry_equiv_pos_as_xyz
  1  'x, y, z'
loop_
 _atom_site_type_symbol
 _atom_site_label
 _atom_site_symmetry_multiplicity
 _atom_site_fract_x
 _atom_site_fract_y
 _atom_site_fract_z
 _atom_site_occupancy
  Sr  Sr0  1  0.25000000  0.25000000  0.00000000  1
  Sr  Sr1  1  0.75000000  0.75000000  0.00000000  1
  Si  Si2  1  0.03939700  0.21704400  0.49229500  1
  Si  Si3  1  0.72474900  0.54710200  0.50770500  1
  Si  Si4  1  0.22474900  0.71704400  0.17764700  1
  Si  Si5  1  0.53939700  0.04710200  0.82235300  1
  Si  Si6  1  0.96060300  0.78295600  0.50770500  1
  Si  Si7  1  0.27525100  0.45289800  0.49229500  1
  Si  Si8  1  0.77525100  0.28295600  0.82235300  1
  Si  Si9  1  0.46060300  0.95289900  0.17764700  1
  Si  Si10  1  0.73706100  0.43637700  0.17343700  1
  Si  Si11  1  0.26293900  0.56362300  0.82656300  1
  Si  Si12  1  0.76293900  0.93637700  0.69931600  1
  Si  Si13  1  0.23706100  0.06362300  0.30068400  1
  Pd  Pd14  1  0.46080700  0.68315700  0.50366100  1
  Pd  Pd15  1  0.17949700  0.95714600  0.49633900  1
  Pd  Pd16  1  0.67949700  0.18315700  0.22235100  1
  Pd  Pd17  1  0.96080700  0.45714600  0.77764900  1
  Pd  Pd18  1  0.53919300  0.31684300  0.49633900  1
  Pd  Pd19  1  0.82050300  0.04285400  0.50366100  1
  Pd  Pd20  1  0.32050300  0.81684300  0.77764900  1
  Pd  Pd21  1  0.03919300  0.54285400  0.22235100  1
  Pd  Pd22  1  0.53192400  0.68022000  0.21214400  1
  Pd  Pd23  1  0.46807600  0.31978000  0.78785600  1
  Pd  Pd24  1  0.03192400  0.81978000  0.85170500  1
  Pd  Pd25  1  0.96807600  0.18022000  0.14829500  1
