# generated using pymatgen
data_LiCa2Mn2Si5HO15
_symmetry_space_group_name_H-M   'P 1'
_cell_length_a   6.92223600
_cell_length_b   7.77447904
_cell_length_c   11.88723561
_cell_angle_alpha   106.20120648
_cell_angle_beta   92.20583195
_cell_angle_gamma   94.59066308
_symmetry_Int_Tables_number   1
_chemical_formula_structural   LiCa2Mn2Si5HO15
_chemical_formula_sum   'Li2 Ca4 Mn4 Si10 H2 O30'
_cell_volume   611.11935758
_cell_formula_units_Z   2
loop_
 _symmetry_equiv_pos_site_id
 _symmetry_equiv_pos_as_xyz
  1  'x, y, z'
loop_
 _atom_site_type_symbol
 _atom_site_label
 _atom_site_symmetry_multiplicity
 _atom_site_fract_x
 _atom_site_fract_y
 _atom_site_fract_z
 _atom_site_occupancy
  Li  Li0  1  0.66695500  0.34453300  0.87709700  1
  Li  Li1  1  0.33304500  0.65546700  0.12290300  1
  Ca  Ca2  1  0.86094000  0.19387900  0.05847800  1
  Ca  Ca3  1  0.13906000  0.80612100  0.94152200  1
  Ca  Ca4  1  0.71570400  0.76420500  0.47694400  1
  Ca  Ca5  1  0.28429600  0.23579500  0.52305600  1
  Mn  Mn6  1  0.93805000  0.40759500  0.35270300  1
  Mn  Mn7  1  0.06195000  0.59240500  0.64729700  1
  Mn  Mn8  1  0.82272400  0.95481200  0.76316800  1
  Mn  Mn9  1  0.17727600  0.04518800  0.23683200  1
  Si  Si10  1  0.65061000  0.72091100  0.94816300  1
  Si  Si11  1  0.34939000  0.27908900  0.05183700  1
  Si  Si12  1  0.57754100  0.53566000  0.67937300  1
  Si  Si13  1  0.42245900  0.46434000  0.32062700  1
  Si  Si14  1  0.78469000  0.19267000  0.54979100  1
  Si  Si15  1  0.21531000  0.80733000  0.45020900  1
  Si  Si16  1  0.70299900  0.00277200  0.28160700  1
  Si  Si17  1  0.29700100  0.99722800  0.71839300  1
  Si  Si18  1  0.89144400  0.65938500  0.15450900  1
  Si  Si19  1  0.10855600  0.34061500  0.84549100  1
  H  H20  1  0.51456600  0.07365700  0.88055000  1
  H  H21  1  0.48543400  0.92634300  0.11945000  1
  O  O22  1  0.45546600  0.79260800  0.00916600  1
  O  O23  1  0.54453400  0.20739200  0.99083400  1
  O  O24  1  0.80936600  0.87708900  0.93244200  1
  O  O25  1  0.19063400  0.12291100  0.06755800  1
  O  O26  1  0.58941300  0.55854200  0.82373500  1
  O  O27  1  0.41058700  0.44145800  0.17626500  1
  O  O28  1  0.74695400  0.67331800  0.65200000  1
  O  O29  1  0.25304600  0.32668200  0.34800000  1
  O  O30  1  0.63770800  0.45882900  0.37502700  1
  O  O31  1  0.36229200  0.54117100  0.62497300  1
  O  O32  1  0.62049400  0.31822100  0.62276200  1
  O  O33  1  0.37950600  0.68177900  0.37723800  1
  O  O34  1  0.83579600  0.03753100  0.60835200  1
  O  O35  1  0.16420400  0.96246900  0.39164800  1
  O  O36  1  0.96482800  0.32230500  0.52593800  1
  O  O37  1  0.03517200  0.67769500  0.47406200  1
  O  O38  1  0.66187800  0.07171800  0.42224300  1
  O  O39  1  0.33812200  0.92828200  0.57775700  1
  O  O40  1  0.87180900  0.12478700  0.24162800  1
  O  O41  1  0.12819100  0.87521300  0.75837200  1
  O  O42  1  0.50728700  0.00039000  0.78959400  1
  O  O43  1  0.49271300  0.99961000  0.21040600  1
  O  O44  1  0.76340900  0.79278000  0.25737600  1
  O  O45  1  0.23659100  0.20722000  0.74262400  1
  O  O46  1  0.93028800  0.47972200  0.19000100  1
  O  O47  1  0.06971200  0.52027800  0.80999900  1
  O  O48  1  0.91169000  0.22867600  0.86870100  1
  O  O49  1  0.08831000  0.77132400  0.13129900  1
  O  O50  1  0.75154100  0.60236200  0.02878800  1
  O  O51  1  0.24845900  0.39763800  0.97121200  1
