# generated using pymatgen
data_ScGa2Ni
_symmetry_space_group_name_H-M   'P 1'
_cell_length_a   5.20278196
_cell_length_b   5.20278196
_cell_length_c   6.47056200
_cell_angle_alpha   90.00000000
_cell_angle_beta   90.00000000
_cell_angle_gamma   134.16566550
_symmetry_Int_Tables_number   1
_chemical_formula_structural   ScGa2Ni
_chemical_formula_sum   'Sc2 Ga4 Ni2'
_cell_volume   125.64094461
_cell_formula_units_Z   2
loop_
 _symmetry_equiv_pos_site_id
 _symmetry_equiv_pos_as_xyz
  1  'x, y, z'
loop_
 _atom_site_type_symbol
 _atom_site_label
 _atom_site_symmetry_multiplicity
 _atom_site_fract_x
 _atom_site_fract_y
 _atom_site_fract_z
 _atom_site_occupancy
  Sc  Sc0  1  0.92456100  0.07543900  0.25000000  1
  Sc  Sc1  1  0.07543900  0.92456100  0.75000000  1
  Ga  Ga2  1  0.63714200  0.36285800  0.45061300  1
  Ga  Ga3  1  0.36285800  0.63714200  0.54938700  1
  Ga  Ga4  1  0.36285800  0.63714200  0.95061300  1
  Ga  Ga5  1  0.63714200  0.36285800  0.04938700  1
  Ni  Ni6  1  0.20581200  0.79418800  0.25000000  1
  Ni  Ni7  1  0.79418800  0.20581200  0.75000000  1
