# generated using pymatgen
data_Gd2NiB10
_symmetry_space_group_name_H-M   'P 1'
_cell_length_a   4.15123500
_cell_length_b   5.56893000
_cell_length_c   11.09803700
_cell_angle_alpha   90.00000000
_cell_angle_beta   90.00000000
_cell_angle_gamma   90.00000000
_symmetry_Int_Tables_number   1
_chemical_formula_structural   Gd2NiB10
_chemical_formula_sum   'Gd4 Ni2 B20'
_cell_volume   256.56372162
_cell_formula_units_Z   2
loop_
 _symmetry_equiv_pos_site_id
 _symmetry_equiv_pos_as_xyz
  1  'x, y, z'
loop_
 _atom_site_type_symbol
 _atom_site_label
 _atom_site_symmetry_multiplicity
 _atom_site_fract_x
 _atom_site_fract_y
 _atom_site_fract_z
 _atom_site_occupancy
  Gd  Gd0  1  0.50000000  0.19195800  0.36322800  1
  Gd  Gd1  1  0.50000000  0.80804200  0.63677200  1
  Gd  Gd2  1  0.50000000  0.30804200  0.86322800  1
  Gd  Gd3  1  0.50000000  0.69195800  0.13677200  1
  Ni  Ni4  1  0.00000000  0.00000000  0.00000000  1
  Ni  Ni5  1  0.00000000  0.50000000  0.50000000  1
  B  B6  1  0.00000000  0.37443900  0.04101100  1
  B  B7  1  0.00000000  0.62556100  0.95898900  1
  B  B8  1  0.00000000  0.12556100  0.54101100  1
  B  B9  1  0.00000000  0.87443900  0.45898900  1
  B  B10  1  0.00000000  0.34537800  0.19744300  1
  B  B11  1  0.00000000  0.65462200  0.80255700  1
  B  B12  1  0.00000000  0.15462200  0.69744300  1
  B  B13  1  0.00000000  0.84537800  0.30255700  1
  B  B14  1  0.00000000  0.03573600  0.18767500  1
  B  B15  1  0.00000000  0.96426400  0.81232500  1
  B  B16  1  0.00000000  0.46426400  0.68767500  1
  B  B17  1  0.00000000  0.53573600  0.31232500  1
  B  B18  1  0.30021800  0.20358000  0.11407200  1
  B  B19  1  0.69978200  0.79642000  0.88592800  1
  B  B20  1  0.30021800  0.79642000  0.88592800  1
  B  B21  1  0.69978200  0.29642000  0.61407200  1
  B  B22  1  0.69978200  0.20358000  0.11407200  1
  B  B23  1  0.30021800  0.70358000  0.38592800  1
  B  B24  1  0.69978200  0.70358000  0.38592800  1
  B  B25  1  0.30021800  0.29642000  0.61407200  1
