# generated using pymatgen
data_Rb2Mg2(MoO4)3
_symmetry_space_group_name_H-M   'P 1'
_cell_length_a   10.98023000
_cell_length_b   10.98023000
_cell_length_c   10.98023000
_cell_angle_alpha   90.00000000
_cell_angle_beta   90.00000000
_cell_angle_gamma   90.00000000
_symmetry_Int_Tables_number   1
_chemical_formula_structural   Rb2Mg2(MoO4)3
_chemical_formula_sum   'Rb8 Mg8 Mo12 O48'
_cell_volume   1323.83638042
_cell_formula_units_Z   4
loop_
 _symmetry_equiv_pos_site_id
 _symmetry_equiv_pos_as_xyz
  1  'x, y, z'
loop_
 _atom_site_type_symbol
 _atom_site_label
 _atom_site_symmetry_multiplicity
 _atom_site_fract_x
 _atom_site_fract_y
 _atom_site_fract_z
 _atom_site_occupancy
  Rb  Rb0  1  0.05213900  0.05213900  0.05213900  1
  Rb  Rb1  1  0.44786100  0.94786100  0.55213900  1
  Rb  Rb2  1  0.94786100  0.55213900  0.44786100  1
  Rb  Rb3  1  0.55213900  0.44786100  0.94786100  1
  Rb  Rb4  1  0.81908100  0.81908100  0.81908100  1
  Rb  Rb5  1  0.68091900  0.18091900  0.31908100  1
  Rb  Rb6  1  0.18091900  0.31908100  0.68091900  1
  Rb  Rb7  1  0.31908100  0.68091900  0.18091900  1
  Mg  Mg8  1  0.33670800  0.33670800  0.33670800  1
  Mg  Mg9  1  0.16329200  0.66329200  0.83670800  1
  Mg  Mg10  1  0.66329200  0.83670800  0.16329200  1
  Mg  Mg11  1  0.83670800  0.16329200  0.66329200  1
  Mg  Mg12  1  0.60473900  0.60473900  0.60473900  1
  Mg  Mg13  1  0.89526100  0.39526100  0.10473900  1
  Mg  Mg14  1  0.39526100  0.10473900  0.89526100  1
  Mg  Mg15  1  0.10473900  0.89526100  0.39526100  1
  Mo  Mo16  1  0.02225900  0.21046300  0.37646400  1
  Mo  Mo17  1  0.47774100  0.78953700  0.87646400  1
  Mo  Mo18  1  0.97774100  0.71046300  0.12353600  1
  Mo  Mo19  1  0.37646400  0.02225900  0.21046300  1
  Mo  Mo20  1  0.52225900  0.28953700  0.62353600  1
  Mo  Mo21  1  0.87646400  0.47774100  0.78953700  1
  Mo  Mo22  1  0.12353600  0.97774100  0.71046300  1
  Mo  Mo23  1  0.62353600  0.52225900  0.28953700  1
  Mo  Mo24  1  0.21046300  0.37646400  0.02225900  1
  Mo  Mo25  1  0.71046300  0.12353600  0.97774100  1
  Mo  Mo26  1  0.28953700  0.62353600  0.52225900  1
  Mo  Mo27  1  0.78953700  0.87646400  0.47774100  1
  O  O28  1  0.01678100  0.05399200  0.32735000  1
  O  O29  1  0.48321900  0.94600800  0.82735000  1
  O  O30  1  0.98321900  0.55399200  0.17265000  1
  O  O31  1  0.32735000  0.01678100  0.05399200  1
  O  O32  1  0.51678100  0.44600800  0.67265000  1
  O  O33  1  0.82735000  0.48321900  0.94600800  1
  O  O34  1  0.17265000  0.98321900  0.55399200  1
  O  O35  1  0.67265000  0.51678100  0.44600800  1
  O  O36  1  0.05399200  0.32735000  0.01678100  1
  O  O37  1  0.55399200  0.17265000  0.98321900  1
  O  O38  1  0.44600800  0.67265000  0.51678100  1
  O  O39  1  0.94600800  0.82735000  0.48321900  1
  O  O40  1  0.27019500  0.48615000  0.43625700  1
  O  O41  1  0.22980500  0.51385000  0.93625700  1
  O  O42  1  0.72980500  0.98615000  0.06374300  1
  O  O43  1  0.43625700  0.27019500  0.48615000  1
  O  O44  1  0.77019500  0.01385000  0.56374300  1
  O  O45  1  0.93625700  0.22980500  0.51385000  1
  O  O46  1  0.06374300  0.72980500  0.98615000  1
  O  O47  1  0.56374300  0.77019500  0.01385000  1
  O  O48  1  0.48615000  0.43625700  0.27019500  1
  O  O49  1  0.98615000  0.06374300  0.72980500  1
  O  O50  1  0.01385000  0.56374300  0.77019500  1
  O  O51  1  0.51385000  0.93625700  0.22980500  1
  O  O52  1  0.05014200  0.80454700  0.23575100  1
  O  O53  1  0.44985800  0.19545300  0.73575100  1
  O  O54  1  0.94985800  0.30454700  0.26424900  1
  O  O55  1  0.23575100  0.05014200  0.80454700  1
  O  O56  1  0.55014200  0.69545300  0.76424900  1
  O  O57  1  0.73575100  0.44985800  0.19545300  1
  O  O58  1  0.26424900  0.94985800  0.30454700  1
  O  O59  1  0.76424900  0.55014200  0.69545300  1
  O  O60  1  0.80454700  0.23575100  0.05014200  1
  O  O61  1  0.30454700  0.26424900  0.94985800  1
  O  O62  1  0.69545300  0.76424900  0.55014200  1
  O  O63  1  0.19545300  0.73575100  0.44985800  1
  O  O64  1  0.17533900  0.25851000  0.40271100  1
  O  O65  1  0.32466100  0.74149000  0.90271100  1
  O  O66  1  0.82466100  0.75851000  0.09728900  1
  O  O67  1  0.40271100  0.17533900  0.25851000  1
  O  O68  1  0.67533900  0.24149000  0.59728900  1
  O  O69  1  0.90271100  0.32466100  0.74149000  1
  O  O70  1  0.09728900  0.82466100  0.75851000  1
  O  O71  1  0.59728900  0.67533900  0.24149000  1
  O  O72  1  0.25851000  0.40271100  0.17533900  1
  O  O73  1  0.75851000  0.09728900  0.82466100  1
  O  O74  1  0.24149000  0.59728900  0.67533900  1
  O  O75  1  0.74149000  0.90271100  0.32466100  1
