# generated using pymatgen
data_Lu2Mn(GeO3)4
_symmetry_space_group_name_H-M   'P 1'
_cell_length_a   4.98190500
_cell_length_b   9.93267212
_cell_length_c   9.93267212
_cell_angle_alpha   90.28220271
_cell_angle_beta   90.00000000
_cell_angle_gamma   90.00000000
_symmetry_Int_Tables_number   1
_chemical_formula_structural   Lu2Mn(GeO3)4
_chemical_formula_sum   'Lu4 Mn2 Ge8 O24'
_cell_volume   491.49869939
_cell_formula_units_Z   2
loop_
 _symmetry_equiv_pos_site_id
 _symmetry_equiv_pos_as_xyz
  1  'x, y, z'
loop_
 _atom_site_type_symbol
 _atom_site_label
 _atom_site_symmetry_multiplicity
 _atom_site_fract_x
 _atom_site_fract_y
 _atom_site_fract_z
 _atom_site_occupancy
  Lu  Lu0  1  0.50000000  0.00000000  0.50000000  1
  Lu  Lu1  1  0.50000000  0.50000000  0.00000000  1
  Lu  Lu2  1  0.50000000  0.75000000  0.75000000  1
  Lu  Lu3  1  0.50000000  0.25000000  0.25000000  1
  Mn  Mn4  1  0.50000000  0.50000000  0.50000000  1
  Mn  Mn5  1  0.50000000  0.00000000  0.00000000  1
  Ge  Ge6  1  0.99606400  0.74758500  0.48076100  1
  Ge  Ge7  1  0.00393600  0.25241500  0.51923900  1
  Ge  Ge8  1  0.00393600  0.24758500  0.98076100  1
  Ge  Ge9  1  0.99606400  0.75241500  0.01923900  1
  Ge  Ge10  1  0.00393600  0.48076100  0.74758500  1
  Ge  Ge11  1  0.99606400  0.51923900  0.25241500  1
  Ge  Ge12  1  0.99606400  0.98076100  0.24758500  1
  Ge  Ge13  1  0.00393600  0.01923900  0.75241500  1
  O  O14  1  0.83315300  0.36922500  0.63077500  1
  O  O15  1  0.82579900  0.87512400  0.37512400  1
  O  O16  1  0.82579900  0.62487600  0.12487600  1
  O  O17  1  0.83315300  0.13077500  0.86922500  1
  O  O18  1  0.16684700  0.63077500  0.36922500  1
  O  O19  1  0.17420100  0.12487600  0.62487600  1
  O  O20  1  0.17420100  0.37512400  0.87512400  1
  O  O21  1  0.16684700  0.86922500  0.13077500  1
  O  O22  1  0.26157400  0.56770800  0.66833900  1
  O  O23  1  0.25758200  0.06401700  0.33175600  1
  O  O24  1  0.25758200  0.43598300  0.16824400  1
  O  O25  1  0.26157400  0.93229200  0.83166100  1
  O  O26  1  0.73842600  0.43229200  0.33166100  1
  O  O27  1  0.74241800  0.93598300  0.66824400  1
  O  O28  1  0.74241800  0.56401700  0.83175600  1
  O  O29  1  0.73842600  0.06770800  0.16833900  1
  O  O30  1  0.73842600  0.66833900  0.56770800  1
  O  O31  1  0.74241800  0.33175600  0.06401700  1
  O  O32  1  0.74241800  0.16824400  0.43598300  1
  O  O33  1  0.73842600  0.83166100  0.93229200  1
  O  O34  1  0.26157400  0.33166100  0.43229200  1
  O  O35  1  0.25758200  0.66824400  0.93598300  1
  O  O36  1  0.25758200  0.83175600  0.56401700  1
  O  O37  1  0.26157400  0.16833900  0.06770800  1
