# generated using pymatgen
data_EuBrCl
_symmetry_space_group_name_H-M   'P 1'
_cell_length_a   4.30324900
_cell_length_b   8.05540400
_cell_length_c   9.71765100
_cell_angle_alpha   90.00000000
_cell_angle_beta   90.00000000
_cell_angle_gamma   90.00000000
_symmetry_Int_Tables_number   1
_chemical_formula_structural   EuBrCl
_chemical_formula_sum   'Eu4 Br4 Cl4'
_cell_volume   336.85663080
_cell_formula_units_Z   4
loop_
 _symmetry_equiv_pos_site_id
 _symmetry_equiv_pos_as_xyz
  1  'x, y, z'
loop_
 _atom_site_type_symbol
 _atom_site_label
 _atom_site_symmetry_multiplicity
 _atom_site_fract_x
 _atom_site_fract_y
 _atom_site_fract_z
 _atom_site_occupancy
  Eu  Eu0  1  0.75000000  0.80641500  0.84768700  1
  Eu  Eu1  1  0.25000000  0.19358500  0.15231300  1
  Eu  Eu2  1  0.25000000  0.69358500  0.34768700  1
  Eu  Eu3  1  0.75000000  0.30641500  0.65231300  1
  Br  Br4  1  0.75000000  0.99366800  0.32207100  1
  Br  Br5  1  0.25000000  0.00633200  0.67792900  1
  Br  Br6  1  0.25000000  0.50633200  0.82207100  1
  Br  Br7  1  0.75000000  0.49366800  0.17792900  1
  Cl  Cl8  1  0.75000000  0.65996500  0.55448500  1
  Cl  Cl9  1  0.25000000  0.34003500  0.44551500  1
  Cl  Cl10  1  0.25000000  0.84003500  0.05448500  1
  Cl  Cl11  1  0.75000000  0.15996500  0.94551500  1
