# generated using pymatgen
data_CsTlS2
_symmetry_space_group_name_H-M   'P 1'
_cell_length_a   8.27844989
_cell_length_b   8.27844989
_cell_length_c   16.62390984
_cell_angle_alpha   82.81006025
_cell_angle_beta   82.81006025
_cell_angle_gamma   89.98251915
_symmetry_Int_Tables_number   1
_chemical_formula_structural   CsTlS2
_chemical_formula_sum   'Cs8 Tl8 S16'
_cell_volume   1121.29882502
_cell_formula_units_Z   8
loop_
 _symmetry_equiv_pos_site_id
 _symmetry_equiv_pos_as_xyz
  1  'x, y, z'
loop_
 _atom_site_type_symbol
 _atom_site_label
 _atom_site_symmetry_multiplicity
 _atom_site_fract_x
 _atom_site_fract_y
 _atom_site_fract_z
 _atom_site_occupancy
  Cs  Cs0  1  0.34582000  0.22290200  0.61355600  1
  Cs  Cs1  1  0.65418000  0.77709800  0.38644400  1
  Cs  Cs2  1  0.77709800  0.65418000  0.88644400  1
  Cs  Cs3  1  0.22290200  0.34582000  0.11355600  1
  Cs  Cs4  1  0.77489700  0.15188300  0.89152800  1
  Cs  Cs5  1  0.22510300  0.84811700  0.10847200  1
  Cs  Cs6  1  0.84811700  0.22510300  0.60847200  1
  Cs  Cs7  1  0.15188300  0.77489700  0.39152800  1
  Tl  Tl8  1  0.29021500  0.91319300  0.83681600  1
  Tl  Tl9  1  0.70978500  0.08680700  0.16318400  1
  Tl  Tl10  1  0.08680700  0.70978500  0.66318400  1
  Tl  Tl11  1  0.91319300  0.29021500  0.33681600  1
  Tl  Tl12  1  0.58128700  0.70980900  0.66244400  1
  Tl  Tl13  1  0.41871300  0.29019100  0.33755600  1
  Tl  Tl14  1  0.29019100  0.41871300  0.83755600  1
  Tl  Tl15  1  0.70980900  0.58128700  0.16244400  1
  S  S16  1  0.56978000  0.94584200  0.74929100  1
  S  S17  1  0.43022000  0.05415800  0.25070900  1
  S  S18  1  0.05415800  0.43022000  0.75070900  1
  S  S19  1  0.94584200  0.56978000  0.24929100  1
  S  S20  1  0.35811200  0.73354900  0.56684700  1
  S  S21  1  0.64188800  0.26645100  0.43315300  1
  S  S22  1  0.26645100  0.64188800  0.93315300  1
  S  S23  1  0.73354900  0.35811200  0.06684700  1
  S  S24  1  0.56979500  0.43020500  0.75000000  1
  S  S25  1  0.43020500  0.56979500  0.25000000  1
  S  S26  1  0.26819800  0.14219300  0.93000600  1
  S  S27  1  0.73180200  0.85780700  0.06999400  1
  S  S28  1  0.85780700  0.73180200  0.56999400  1
  S  S29  1  0.14219300  0.26819800  0.43000600  1
  S  S30  1  0.05412300  0.94587700  0.75000000  1
  S  S31  1  0.94587700  0.05412300  0.25000000  1
