# generated using pymatgen
data_NaYSiO4
_symmetry_space_group_name_H-M   'P 1'
_cell_length_a   5.19102900
_cell_length_b   6.48984100
_cell_length_c   11.27346200
_cell_angle_alpha   90.00000000
_cell_angle_beta   90.00000000
_cell_angle_gamma   90.00000000
_symmetry_Int_Tables_number   1
_chemical_formula_structural   NaYSiO4
_chemical_formula_sum   'Na4 Y4 Si4 O16'
_cell_volume   379.79112962
_cell_formula_units_Z   4
loop_
 _symmetry_equiv_pos_site_id
 _symmetry_equiv_pos_as_xyz
  1  'x, y, z'
loop_
 _atom_site_type_symbol
 _atom_site_label
 _atom_site_symmetry_multiplicity
 _atom_site_fract_x
 _atom_site_fract_y
 _atom_site_fract_z
 _atom_site_occupancy
  Na  Na0  1  0.50000000  0.50000000  0.00000000  1
  Na  Na1  1  0.50000000  0.00000000  0.00000000  1
  Na  Na2  1  0.00000000  0.00000000  0.50000000  1
  Na  Na3  1  0.00000000  0.50000000  0.50000000  1
  Y  Y4  1  0.49900100  0.25000000  0.28043800  1
  Y  Y5  1  0.50099900  0.75000000  0.71956200  1
  Y  Y6  1  0.00099900  0.25000000  0.78043800  1
  Y  Y7  1  0.99900100  0.75000000  0.21956200  1
  Si  Si8  1  0.56115800  0.75000000  0.39993600  1
  Si  Si9  1  0.93884200  0.75000000  0.89993600  1
  Si  Si10  1  0.43884200  0.25000000  0.60006400  1
  Si  Si11  1  0.06115800  0.25000000  0.10006400  1
  O  O12  1  0.74902600  0.25000000  0.11343300  1
  O  O13  1  0.25097400  0.75000000  0.88656700  1
  O  O14  1  0.75097400  0.25000000  0.61343300  1
  O  O15  1  0.24902600  0.75000000  0.38656700  1
  O  O16  1  0.83376400  0.75000000  0.03707100  1
  O  O17  1  0.16623600  0.25000000  0.96292900  1
  O  O18  1  0.66623600  0.75000000  0.53707100  1
  O  O19  1  0.33376400  0.25000000  0.46292900  1
  O  O20  1  0.70087500  0.55246500  0.32853600  1
  O  O21  1  0.29912500  0.05246500  0.67146400  1
  O  O22  1  0.79912500  0.55246500  0.82853600  1
  O  O23  1  0.20087500  0.05246500  0.17146400  1
  O  O24  1  0.20087500  0.44753500  0.17146400  1
  O  O25  1  0.79912500  0.94753500  0.82853600  1
  O  O26  1  0.29912500  0.44753500  0.67146400  1
  O  O27  1  0.70087500  0.94753500  0.32853600  1
