# generated using pymatgen
data_Pr2BC
_symmetry_space_group_name_H-M   'P 1'
_cell_length_a   6.96873169
_cell_length_b   6.96873169
_cell_length_c   9.66562056
_cell_angle_alpha   50.28479784
_cell_angle_beta   50.28479784
_cell_angle_gamma   30.87979028
_symmetry_Int_Tables_number   1
_chemical_formula_structural   Pr2BC
_chemical_formula_sum   'Pr4 B2 C2'
_cell_volume   180.37285257
_cell_formula_units_Z   2
loop_
 _symmetry_equiv_pos_site_id
 _symmetry_equiv_pos_as_xyz
  1  'x, y, z'
loop_
 _atom_site_type_symbol
 _atom_site_label
 _atom_site_symmetry_multiplicity
 _atom_site_fract_x
 _atom_site_fract_y
 _atom_site_fract_z
 _atom_site_occupancy
  Pr  Pr0  1  0.79297700  0.79297700  0.61763500  1
  Pr  Pr1  1  0.20702300  0.20702300  0.38236500  1
  Pr  Pr2  1  0.44072300  0.44072300  0.85952100  1
  Pr  Pr3  1  0.55927700  0.55927700  0.14047900  1
  B  B4  1  0.07364600  0.07364600  0.89238300  1
  B  B5  1  0.92635400  0.92635400  0.10761700  1
  C  C6  1  0.87370100  0.87370100  0.30088800  1
  C  C7  1  0.12629900  0.12629900  0.69911200  1
