# generated using pymatgen
data_Zr10(GaSb)3
_symmetry_space_group_name_H-M   'P 1'
_cell_length_a   5.72131900
_cell_length_b   8.37106202
_cell_length_c   8.37106225
_cell_angle_alpha   60.00713818
_cell_angle_beta   90.00163186
_cell_angle_gamma   89.99837425
_symmetry_Int_Tables_number   1
_chemical_formula_structural   Zr10(GaSb)3
_chemical_formula_sum   'Zr10 Ga3 Sb3'
_cell_volume   347.23153401
_cell_formula_units_Z   1
loop_
 _symmetry_equiv_pos_site_id
 _symmetry_equiv_pos_as_xyz
  1  'x, y, z'
loop_
 _atom_site_type_symbol
 _atom_site_label
 _atom_site_symmetry_multiplicity
 _atom_site_fract_x
 _atom_site_fract_y
 _atom_site_fract_z
 _atom_site_occupancy
  Zr  Zr0  1  0.50623100  0.33333000  0.33332700  1
  Zr  Zr1  1  0.50623100  0.66667300  0.66667000  1
  Zr  Zr2  1  0.99377500  0.66669100  0.66666700  1
  Zr  Zr3  1  0.99377500  0.33333300  0.33330900  1
  Zr  Zr4  1  0.75002400  0.25003100  0.74996900  1
  Zr  Zr5  1  0.75002800  0.74984700  0.00000800  1
  Zr  Zr6  1  0.75002800  0.99999200  0.25015300  1
  Zr  Zr7  1  0.24997100  0.74994100  0.25005900  1
  Zr  Zr8  1  0.24998100  0.25008600  0.99997900  1
  Zr  Zr9  1  0.24998100  0.00002100  0.74991400  1
  Ga  Ga10  1  0.75000500  0.61230500  0.38769500  1
  Ga  Ga11  1  0.75001400  0.38774800  0.00001900  1
  Ga  Ga12  1  0.75001400  0.99998100  0.61225200  1
  Sb  Sb13  1  0.24998100  0.39186400  0.60813600  1
  Sb  Sb14  1  0.24998000  0.60816800  0.00001000  1
  Sb  Sb15  1  0.24998000  0.99999000  0.39183200  1
