# generated using pymatgen
data_SrMgB2O5
_symmetry_space_group_name_H-M   'P 1'
_cell_length_a   5.37648900
_cell_length_b   6.60742300
_cell_length_c   12.13988076
_cell_angle_alpha   77.37034785
_cell_angle_beta   90.00000000
_cell_angle_gamma   90.00000000
_symmetry_Int_Tables_number   1
_chemical_formula_structural   SrMgB2O5
_chemical_formula_sum   'Sr4 Mg4 B8 O20'
_cell_volume   420.83104441
_cell_formula_units_Z   4
loop_
 _symmetry_equiv_pos_site_id
 _symmetry_equiv_pos_as_xyz
  1  'x, y, z'
loop_
 _atom_site_type_symbol
 _atom_site_label
 _atom_site_symmetry_multiplicity
 _atom_site_fract_x
 _atom_site_fract_y
 _atom_site_fract_z
 _atom_site_occupancy
  Sr  Sr0  1  0.60958100  0.81646600  0.68986900  1
  Sr  Sr1  1  0.10958100  0.18353400  0.81013100  1
  Sr  Sr2  1  0.39041900  0.18353400  0.31013100  1
  Sr  Sr3  1  0.89041900  0.81646600  0.18986900  1
  Mg  Mg4  1  0.58549100  0.34666000  0.60583300  1
  Mg  Mg5  1  0.08549100  0.65334000  0.89416700  1
  Mg  Mg6  1  0.41450900  0.65334000  0.39416700  1
  Mg  Mg7  1  0.91450900  0.34666000  0.10583300  1
  B  B8  1  0.63330600  0.35566600  0.88295500  1
  B  B9  1  0.13330600  0.64433400  0.61704500  1
  B  B10  1  0.36669400  0.64433400  0.11704500  1
  B  B11  1  0.86669400  0.35566600  0.38295500  1
  B  B12  1  0.09067500  0.18390500  0.56772200  1
  B  B13  1  0.59067500  0.81609500  0.93227800  1
  B  B14  1  0.90932500  0.81609500  0.43227800  1
  B  B15  1  0.40932500  0.18390500  0.06772200  1
  O  O16  1  0.35056100  0.60167800  0.56660600  1
  O  O17  1  0.85056100  0.39832200  0.93339400  1
  O  O18  1  0.64943900  0.39832200  0.43339400  1
  O  O19  1  0.14943900  0.60167800  0.06660600  1
  O  O20  1  0.60264700  0.37692800  0.77015400  1
  O  O21  1  0.10264700  0.62307200  0.72984600  1
  O  O22  1  0.39735300  0.62307200  0.22984600  1
  O  O23  1  0.89735300  0.37692800  0.27015400  1
  O  O24  1  0.87849300  0.15292700  0.63095300  1
  O  O25  1  0.37849300  0.84707300  0.86904700  1
  O  O26  1  0.12150700  0.84707300  0.36904700  1
  O  O27  1  0.62150700  0.15292700  0.13095300  1
  O  O28  1  0.91880300  0.71734400  0.54906000  1
  O  O29  1  0.41880300  0.28265600  0.95094000  1
  O  O30  1  0.08119700  0.28265600  0.45094000  1
  O  O31  1  0.58119700  0.71734400  0.04906000  1
  O  O32  1  0.31893100  0.12978300  0.61540700  1
  O  O33  1  0.81893100  0.87021700  0.88459300  1
  O  O34  1  0.68106900  0.87021700  0.38459300  1
  O  O35  1  0.18106900  0.12978300  0.11540700  1
