# generated using pymatgen
data_DyGaNi
_symmetry_space_group_name_H-M   'P 1'
_cell_length_a   4.24582700
_cell_length_b   6.64289200
_cell_length_c   7.13013100
_cell_angle_alpha   90.00000000
_cell_angle_beta   90.00000000
_cell_angle_gamma   90.00000000
_symmetry_Int_Tables_number   1
_chemical_formula_structural   DyGaNi
_chemical_formula_sum   'Dy4 Ga4 Ni4'
_cell_volume   201.10228041
_cell_formula_units_Z   4
loop_
 _symmetry_equiv_pos_site_id
 _symmetry_equiv_pos_as_xyz
  1  'x, y, z'
loop_
 _atom_site_type_symbol
 _atom_site_label
 _atom_site_symmetry_multiplicity
 _atom_site_fract_x
 _atom_site_fract_y
 _atom_site_fract_z
 _atom_site_occupancy
  Dy  Dy0  1  0.25000000  0.01932700  0.80070400  1
  Dy  Dy1  1  0.25000000  0.51932700  0.69929600  1
  Dy  Dy2  1  0.75000000  0.98067300  0.19929600  1
  Dy  Dy3  1  0.75000000  0.48067300  0.30070400  1
  Ga  Ga4  1  0.25000000  0.18180900  0.41978600  1
  Ga  Ga5  1  0.25000000  0.68180900  0.08021400  1
  Ga  Ga6  1  0.75000000  0.81819100  0.58021400  1
  Ga  Ga7  1  0.75000000  0.31819100  0.91978600  1
  Ni  Ni8  1  0.25000000  0.79555100  0.40764200  1
  Ni  Ni9  1  0.25000000  0.29555100  0.09235800  1
  Ni  Ni10  1  0.75000000  0.20444900  0.59235800  1
  Ni  Ni11  1  0.75000000  0.70444900  0.90764200  1
