# generated using pymatgen
data_Ba4TiP4
_symmetry_space_group_name_H-M   'P 1'
_cell_length_a   13.27730400
_cell_length_b   13.27730400
_cell_length_c   13.27730400
_cell_angle_alpha   90.00000000
_cell_angle_beta   90.00000000
_cell_angle_gamma   90.00000000
_symmetry_Int_Tables_number   1
_chemical_formula_structural   Ba4TiP4
_chemical_formula_sum   'Ba32 Ti8 P32'
_cell_volume   2340.61345481
_cell_formula_units_Z   8
loop_
 _symmetry_equiv_pos_site_id
 _symmetry_equiv_pos_as_xyz
  1  'x, y, z'
loop_
 _atom_site_type_symbol
 _atom_site_label
 _atom_site_symmetry_multiplicity
 _atom_site_fract_x
 _atom_site_fract_y
 _atom_site_fract_z
 _atom_site_occupancy
  Ba  Ba0  1  0.14928000  0.14928000  0.14928000  1
  Ba  Ba1  1  0.35072000  0.64928000  0.35072000  1
  Ba  Ba2  1  0.64928000  0.35072000  0.35072000  1
  Ba  Ba3  1  0.35072000  0.35072000  0.64928000  1
  Ba  Ba4  1  0.14928000  0.85072000  0.85072000  1
  Ba  Ba5  1  0.85072000  0.85072000  0.14928000  1
  Ba  Ba6  1  0.85072000  0.14928000  0.85072000  1
  Ba  Ba7  1  0.64928000  0.64928000  0.64928000  1
  Ba  Ba8  1  0.90878300  0.86351600  0.64909000  1
  Ba  Ba9  1  0.90878300  0.13648400  0.35091000  1
  Ba  Ba10  1  0.86351600  0.64909000  0.90878300  1
  Ba  Ba11  1  0.13648400  0.64909000  0.09121700  1
  Ba  Ba12  1  0.64909000  0.90878300  0.86351600  1
  Ba  Ba13  1  0.35091000  0.09121700  0.86351600  1
  Ba  Ba14  1  0.59121700  0.85091000  0.36351600  1
  Ba  Ba15  1  0.59121700  0.14909000  0.63648400  1
  Ba  Ba16  1  0.40878300  0.85091000  0.63648400  1
  Ba  Ba17  1  0.14909000  0.63648400  0.59121700  1
  Ba  Ba18  1  0.63648400  0.40878300  0.85091000  1
  Ba  Ba19  1  0.63648400  0.59121700  0.14909000  1
  Ba  Ba20  1  0.85091000  0.36351600  0.59121700  1
  Ba  Ba21  1  0.36351600  0.59121700  0.85091000  1
  Ba  Ba22  1  0.85091000  0.63648400  0.40878300  1
  Ba  Ba23  1  0.14909000  0.36351600  0.40878300  1
  Ba  Ba24  1  0.36351600  0.40878300  0.14909000  1
  Ba  Ba25  1  0.35091000  0.90878300  0.13648400  1
  Ba  Ba26  1  0.64909000  0.09121700  0.13648400  1
  Ba  Ba27  1  0.86351600  0.35091000  0.09121700  1
  Ba  Ba28  1  0.13648400  0.35091000  0.90878300  1
  Ba  Ba29  1  0.09121700  0.13648400  0.64909000  1
  Ba  Ba30  1  0.09121700  0.86351600  0.35091000  1
  Ba  Ba31  1  0.40878300  0.14909000  0.36351600  1
  Ti  Ti32  1  0.50000000  0.50000000  0.50000000  1
  Ti  Ti33  1  0.00000000  0.00000000  0.00000000  1
  Ti  Ti34  1  0.75000000  0.00000000  0.50000000  1
  Ti  Ti35  1  0.50000000  0.75000000  0.00000000  1
  Ti  Ti36  1  0.50000000  0.25000000  0.00000000  1
  Ti  Ti37  1  0.00000000  0.50000000  0.25000000  1
  Ti  Ti38  1  0.00000000  0.50000000  0.75000000  1
  Ti  Ti39  1  0.25000000  0.00000000  0.50000000  1
  P  P40  1  0.89540400  0.89540400  0.89540400  1
  P  P41  1  0.60459600  0.39540400  0.60459600  1
  P  P42  1  0.39540400  0.60459600  0.60459600  1
  P  P43  1  0.60459600  0.60459600  0.39540400  1
  P  P44  1  0.89540400  0.10459600  0.10459600  1
  P  P45  1  0.10459600  0.10459600  0.89540400  1
  P  P46  1  0.10459600  0.89540400  0.10459600  1
  P  P47  1  0.39540400  0.39540400  0.39540400  1
  P  P48  1  0.64998400  0.89634300  0.61050100  1
  P  P49  1  0.64998400  0.10365700  0.38949900  1
  P  P50  1  0.89634300  0.61050100  0.64998400  1
  P  P51  1  0.10365700  0.61050100  0.35001600  1
  P  P52  1  0.61050100  0.64998400  0.89634300  1
  P  P53  1  0.38949900  0.35001600  0.89634300  1
  P  P54  1  0.85001600  0.88949900  0.39634300  1
  P  P55  1  0.85001600  0.11050100  0.60365700  1
  P  P56  1  0.14998400  0.88949900  0.60365700  1
  P  P57  1  0.11050100  0.60365700  0.85001600  1
  P  P58  1  0.60365700  0.14998400  0.88949900  1
  P  P59  1  0.60365700  0.85001600  0.11050100  1
  P  P60  1  0.88949900  0.39634300  0.85001600  1
  P  P61  1  0.39634300  0.85001600  0.88949900  1
  P  P62  1  0.88949900  0.60365700  0.14998400  1
  P  P63  1  0.11050100  0.39634300  0.14998400  1
  P  P64  1  0.39634300  0.14998400  0.11050100  1
  P  P65  1  0.38949900  0.64998400  0.10365700  1
  P  P66  1  0.61050100  0.35001600  0.10365700  1
  P  P67  1  0.89634300  0.38949900  0.35001600  1
  P  P68  1  0.10365700  0.38949900  0.64998400  1
  P  P69  1  0.35001600  0.10365700  0.61050100  1
  P  P70  1  0.35001600  0.89634300  0.38949900  1
  P  P71  1  0.14998400  0.11050100  0.39634300  1
