# generated using pymatgen
data_Sr4SiP4
_symmetry_space_group_name_H-M   'P 1'
_cell_length_a   12.49002600
_cell_length_b   12.49002600
_cell_length_c   12.49002600
_cell_angle_alpha   90.00000000
_cell_angle_beta   90.00000000
_cell_angle_gamma   90.00000000
_symmetry_Int_Tables_number   1
_chemical_formula_structural   Sr4SiP4
_chemical_formula_sum   'Sr32 Si8 P32'
_cell_volume   1948.45341703
_cell_formula_units_Z   8
loop_
 _symmetry_equiv_pos_site_id
 _symmetry_equiv_pos_as_xyz
  1  'x, y, z'
loop_
 _atom_site_type_symbol
 _atom_site_label
 _atom_site_symmetry_multiplicity
 _atom_site_fract_x
 _atom_site_fract_y
 _atom_site_fract_z
 _atom_site_occupancy
  Sr  Sr0  1  0.35443800  0.35443800  0.35443800  1
  Sr  Sr1  1  0.64556200  0.64556200  0.35443800  1
  Sr  Sr2  1  0.64556200  0.35443800  0.64556200  1
  Sr  Sr3  1  0.85443800  0.85443800  0.85443800  1
  Sr  Sr4  1  0.35443800  0.64556200  0.64556200  1
  Sr  Sr5  1  0.14556200  0.14556200  0.85443800  1
  Sr  Sr6  1  0.85443800  0.14556200  0.14556200  1
  Sr  Sr7  1  0.14556200  0.85443800  0.14556200  1
  Sr  Sr8  1  0.09457300  0.13281300  0.35458400  1
  Sr  Sr9  1  0.90542700  0.86718700  0.35458400  1
  Sr  Sr10  1  0.90542700  0.13281300  0.64541600  1
  Sr  Sr11  1  0.35458400  0.09457300  0.13281300  1
  Sr  Sr12  1  0.63281300  0.59457300  0.85458400  1
  Sr  Sr13  1  0.09457300  0.86718700  0.64541600  1
  Sr  Sr14  1  0.35458400  0.90542700  0.86718700  1
  Sr  Sr15  1  0.36718700  0.40542700  0.85458400  1
  Sr  Sr16  1  0.64541600  0.90542700  0.13281300  1
  Sr  Sr17  1  0.63281300  0.40542700  0.14541600  1
  Sr  Sr18  1  0.64541600  0.09457300  0.86718700  1
  Sr  Sr19  1  0.36718700  0.59457300  0.14541600  1
  Sr  Sr20  1  0.13281300  0.35458400  0.09457300  1
  Sr  Sr21  1  0.59457300  0.85458400  0.63281300  1
  Sr  Sr22  1  0.13281300  0.64541600  0.90542700  1
  Sr  Sr23  1  0.40542700  0.14541600  0.63281300  1
  Sr  Sr24  1  0.86718700  0.64541600  0.09457300  1
  Sr  Sr25  1  0.59457300  0.14541600  0.36718700  1
  Sr  Sr26  1  0.86718700  0.35458400  0.90542700  1
  Sr  Sr27  1  0.40542700  0.85458400  0.36718700  1
  Sr  Sr28  1  0.85458400  0.63281300  0.59457300  1
  Sr  Sr29  1  0.85458400  0.36718700  0.40542700  1
  Sr  Sr30  1  0.14541600  0.36718700  0.59457300  1
  Sr  Sr31  1  0.14541600  0.63281300  0.40542700  1
  Si  Si32  1  0.25000000  0.00000000  0.50000000  1
  Si  Si33  1  0.75000000  0.00000000  0.50000000  1
  Si  Si34  1  0.50000000  0.25000000  0.00000000  1
  Si  Si35  1  0.50000000  0.75000000  0.00000000  1
  Si  Si36  1  0.00000000  0.50000000  0.25000000  1
  Si  Si37  1  0.00000000  0.50000000  0.75000000  1
  Si  Si38  1  0.00000000  0.00000000  0.00000000  1
  Si  Si39  1  0.50000000  0.50000000  0.50000000  1
  P  P40  1  0.10433200  0.38604700  0.34943600  1
  P  P41  1  0.89566800  0.61395300  0.34943600  1
  P  P42  1  0.89566800  0.38604700  0.65056400  1
  P  P43  1  0.34943600  0.10433200  0.38604700  1
  P  P44  1  0.88604700  0.60433200  0.84943600  1
  P  P45  1  0.10433200  0.61395300  0.65056400  1
  P  P46  1  0.34943600  0.89566800  0.61395300  1
  P  P47  1  0.11395300  0.39566800  0.84943600  1
  P  P48  1  0.65056400  0.89566800  0.38604700  1
  P  P49  1  0.88604700  0.39566800  0.15056400  1
  P  P50  1  0.65056400  0.10433200  0.61395300  1
  P  P51  1  0.11395300  0.60433200  0.15056400  1
  P  P52  1  0.38604700  0.34943600  0.10433200  1
  P  P53  1  0.60433200  0.84943600  0.88604700  1
  P  P54  1  0.38604700  0.65056400  0.89566800  1
  P  P55  1  0.39566800  0.15056400  0.88604700  1
  P  P56  1  0.61395300  0.65056400  0.10433200  1
  P  P57  1  0.60433200  0.15056400  0.11395300  1
  P  P58  1  0.61395300  0.34943600  0.89566800  1
  P  P59  1  0.39566800  0.84943600  0.11395300  1
  P  P60  1  0.84943600  0.88604700  0.60433200  1
  P  P61  1  0.84943600  0.11395300  0.39566800  1
  P  P62  1  0.15056400  0.11395300  0.60433200  1
  P  P63  1  0.15056400  0.88604700  0.39566800  1
  P  P64  1  0.10555800  0.10555800  0.10555800  1
  P  P65  1  0.89444200  0.89444200  0.10555800  1
  P  P66  1  0.89444200  0.10555800  0.89444200  1
  P  P67  1  0.60555800  0.60555800  0.60555800  1
  P  P68  1  0.10555800  0.89444200  0.89444200  1
  P  P69  1  0.39444200  0.39444200  0.60555800  1
  P  P70  1  0.60555800  0.39444200  0.39444200  1
  P  P71  1  0.39444200  0.60555800  0.39444200  1
