# generated using pymatgen
data_Ba2Cd2Sb3
_symmetry_space_group_name_H-M   'P 1'
_cell_length_a   9.49659450
_cell_length_b   9.49659450
_cell_length_c   13.67731935
_cell_angle_alpha   54.62521676
_cell_angle_beta   54.62521676
_cell_angle_gamma   30.02301735
_symmetry_Int_Tables_number   1
_chemical_formula_structural   Ba2Cd2Sb3
_chemical_formula_sum   'Ba4 Cd4 Sb6'
_cell_volume   494.02880205
_cell_formula_units_Z   2
loop_
 _symmetry_equiv_pos_site_id
 _symmetry_equiv_pos_as_xyz
  1  'x, y, z'
loop_
 _atom_site_type_symbol
 _atom_site_label
 _atom_site_symmetry_multiplicity
 _atom_site_fract_x
 _atom_site_fract_y
 _atom_site_fract_z
 _atom_site_occupancy
  Ba  Ba0  1  0.26407000  0.26407000  0.33742700  1
  Ba  Ba1  1  0.73593000  0.73593000  0.66257300  1
  Ba  Ba2  1  0.39806600  0.39806600  0.94419800  1
  Ba  Ba3  1  0.60193400  0.60193400  0.05580200  1
  Cd  Cd4  1  0.04120800  0.04120800  0.68944400  1
  Cd  Cd5  1  0.95879200  0.95879200  0.31055600  1
  Cd  Cd6  1  0.40875800  0.40875800  0.65404500  1
  Cd  Cd7  1  0.59124200  0.59124200  0.34595500  1
  Sb  Sb8  1  0.07993100  0.07993100  0.87556600  1
  Sb  Sb9  1  0.92006900  0.92006900  0.12443400  1
  Sb  Sb10  1  0.15577300  0.15577300  0.19523300  1
  Sb  Sb11  1  0.84422700  0.84422700  0.80476700  1
  Sb  Sb12  1  0.38670200  0.38670200  0.45839800  1
  Sb  Sb13  1  0.61329800  0.61329800  0.54160200  1
