# generated using pymatgen
data_Ga31Mo6
_symmetry_space_group_name_H-M   'P 1'
_cell_length_a   9.58388400
_cell_length_b   9.58582067
_cell_length_c   14.57935213
_cell_angle_alpha   80.82977946
_cell_angle_beta   87.00401140
_cell_angle_gamma   85.49643752
_symmetry_Int_Tables_number   1
_chemical_formula_structural   Ga31Mo6
_chemical_formula_sum   'Ga62 Mo12'
_cell_volume   1317.11937967
_cell_formula_units_Z   2
loop_
 _symmetry_equiv_pos_site_id
 _symmetry_equiv_pos_as_xyz
  1  'x, y, z'
loop_
 _atom_site_type_symbol
 _atom_site_label
 _atom_site_symmetry_multiplicity
 _atom_site_fract_x
 _atom_site_fract_y
 _atom_site_fract_z
 _atom_site_occupancy
  Ga  Ga0  1  0.43576100  0.47266200  0.33039200  1
  Ga  Ga1  1  0.56423900  0.52733800  0.66960800  1
  Ga  Ga2  1  0.00000000  0.00000000  0.00000000  1
  Ga  Ga3  1  0.50000000  0.00000000  0.50000000  1
  Ga  Ga4  1  0.00000000  0.50000000  0.50000000  1
  Ga  Ga5  1  0.50000000  0.50000000  0.00000000  1
  Ga  Ga6  1  0.11062100  0.81838900  0.60862400  1
  Ga  Ga7  1  0.88937900  0.18161100  0.39137600  1
  Ga  Ga8  1  0.16049500  0.31161100  0.08380500  1
  Ga  Ga9  1  0.83950500  0.68838900  0.91619500  1
  Ga  Ga10  1  0.07052000  0.53054200  0.67221200  1
  Ga  Ga11  1  0.92948000  0.46945800  0.32778800  1
  Ga  Ga12  1  0.27856800  0.10749500  0.70704000  1
  Ga  Ga13  1  0.72143200  0.89250500  0.29296000  1
  Ga  Ga14  1  0.21064500  0.59763800  0.02096700  1
  Ga  Ga15  1  0.78935500  0.40236200  0.97903300  1
  Ga  Ga16  1  0.07413300  0.26705000  0.91704700  1
  Ga  Ga17  1  0.92586700  0.73295000  0.08295300  1
  Ga  Ga18  1  0.01862700  0.23640100  0.73739900  1
  Ga  Ga19  1  0.98137300  0.76359900  0.26260100  1
  Ga  Ga20  1  0.26936600  0.88079200  0.96202600  1
  Ga  Ga21  1  0.73063400  0.11920800  0.03797400  1
  Ga  Ga22  1  0.34332400  0.14012700  0.88186000  1
  Ga  Ga23  1  0.65667600  0.85987300  0.11814000  1
  Ga  Ga24  1  0.43476900  0.95870800  0.32613700  1
  Ga  Ga25  1  0.56523100  0.04129200  0.67386300  1
  Ga  Ga26  1  0.14935000  0.03923100  0.36294500  1
  Ga  Ga27  1  0.85065000  0.96076900  0.63705500  1
  Ga  Ga28  1  0.20170900  0.33161600  0.40261400  1
  Ga  Ga29  1  0.79829100  0.66838400  0.59738600  1
  Ga  Ga30  1  0.10623000  0.56529900  0.85273300  1
  Ga  Ga31  1  0.89377000  0.43470100  0.14726700  1
  Ga  Ga32  1  0.62849700  0.04620500  0.85831900  1
  Ga  Ga33  1  0.37150300  0.95379500  0.14168100  1
  Ga  Ga34  1  0.83419100  0.15152000  0.21289700  1
  Ga  Ga35  1  0.16580900  0.84848000  0.78710300  1
  Ga  Ga36  1  0.40174200  0.78922600  0.64743400  1
  Ga  Ga37  1  0.59825800  0.21077400  0.35256600  1
  Ga  Ga38  1  0.43985000  0.21686600  0.05000200  1
  Ga  Ga39  1  0.56015000  0.78313400  0.94999800  1
  Ga  Ga40  1  0.32817900  0.39548100  0.73447500  1
  Ga  Ga41  1  0.67182100  0.60451900  0.26552500  1
  Ga  Ga42  1  0.08943300  0.03852400  0.17517400  1
  Ga  Ga43  1  0.91056700  0.96147600  0.82482600  1
  Ga  Ga44  1  0.34122800  0.23745100  0.24260800  1
  Ga  Ga45  1  0.65877200  0.76254900  0.75739200  1
  Ga  Ga46  1  0.27845400  0.73000600  0.30926100  1
  Ga  Ga47  1  0.72154600  0.26999400  0.69073900  1
  Ga  Ga48  1  0.21446700  0.07785000  0.53551100  1
  Ga  Ga49  1  0.78553300  0.92215000  0.46448900  1
  Ga  Ga50  1  0.04914000  0.78287200  0.43681900  1
  Ga  Ga51  1  0.95086000  0.21712800  0.56318100  1
  Ga  Ga52  1  0.39834900  0.62933900  0.82549400  1
  Ga  Ga53  1  0.60165100  0.37066100  0.17450600  1
  Ga  Ga54  1  0.17717400  0.52121000  0.21646900  1
  Ga  Ga55  1  0.82282600  0.47879000  0.78353100  1
  Ga  Ga56  1  0.56672300  0.33988700  0.85289300  1
  Ga  Ga57  1  0.43327700  0.66011300  0.14710700  1
  Ga  Ga58  1  0.54644700  0.69754900  0.45581600  1
  Ga  Ga59  1  0.45355300  0.30245100  0.54418400  1
  Ga  Ga60  1  0.30012100  0.56635600  0.52023500  1
  Ga  Ga61  1  0.69987900  0.43364400  0.47976500  1
  Mo  Mo62  1  0.30321000  0.84112600  0.47219600  1
  Mo  Mo63  1  0.69679000  0.15887400  0.52780400  1
  Mo  Mo64  1  0.18530600  0.32874800  0.59056100  1
  Mo  Mo65  1  0.81469400  0.67125200  0.40943900  1
  Mo  Mo66  1  0.30429000  0.39383300  0.92811600  1
  Mo  Mo67  1  0.69571000  0.60616700  0.07188400  1
  Mo  Mo68  1  0.06406600  0.27164100  0.25473700  1
  Mo  Mo69  1  0.93593400  0.72835900  0.74526300  1
  Mo  Mo70  1  0.42521500  0.90728800  0.80838600  1
  Mo  Mo71  1  0.57478500  0.09271200  0.19161400  1
  Mo  Mo72  1  0.82856200  0.20970000  0.87217000  1
  Mo  Mo73  1  0.17143800  0.79030000  0.12783000  1
