# generated using pymatgen
data_Rb2Li3B(P2O7)2
_symmetry_space_group_name_H-M   'P 1'
_cell_length_a   14.10266723
_cell_length_b   14.10266723
_cell_length_c   7.17903400
_cell_angle_alpha   90.00000000
_cell_angle_beta   90.00000000
_cell_angle_gamma   118.72769100
_symmetry_Int_Tables_number   1
_chemical_formula_structural   Rb2Li3B(P2O7)2
_chemical_formula_sum   'Rb8 Li12 B4 P16 O56'
_cell_volume   1252.06107809
_cell_formula_units_Z   4
loop_
 _symmetry_equiv_pos_site_id
 _symmetry_equiv_pos_as_xyz
  1  'x, y, z'
loop_
 _atom_site_type_symbol
 _atom_site_label
 _atom_site_symmetry_multiplicity
 _atom_site_fract_x
 _atom_site_fract_y
 _atom_site_fract_z
 _atom_site_occupancy
  Rb  Rb0  1  0.38590100  0.38590100  0.79918400  1
  Rb  Rb1  1  0.61409900  0.61409900  0.20081600  1
  Rb  Rb2  1  0.11409900  0.11409900  0.29918400  1
  Rb  Rb3  1  0.88590100  0.88590100  0.70081600  1
  Rb  Rb4  1  0.40400900  0.90400900  0.75000000  1
  Rb  Rb5  1  0.09599100  0.59599100  0.25000000  1
  Rb  Rb6  1  0.59599100  0.09599100  0.25000000  1
  Rb  Rb7  1  0.90400900  0.40400900  0.75000000  1
  Li  Li8  1  0.88142300  0.11857700  0.50000000  1
  Li  Li9  1  0.38142300  0.61857700  0.00000000  1
  Li  Li10  1  0.11857700  0.88142300  0.50000000  1
  Li  Li11  1  0.61857700  0.38142300  0.00000000  1
  Li  Li12  1  0.60242100  0.86819400  0.97637400  1
  Li  Li13  1  0.13180600  0.39757900  0.02362600  1
  Li  Li14  1  0.63180600  0.89757900  0.47637400  1
  Li  Li15  1  0.10242100  0.36819400  0.52362600  1
  Li  Li16  1  0.39757900  0.13180600  0.02362600  1
  Li  Li17  1  0.86819400  0.60242100  0.97637400  1
  Li  Li18  1  0.36819400  0.10242100  0.52362600  1
  Li  Li19  1  0.89757900  0.63180600  0.47637400  1
  B  B20  1  0.88001400  0.11998600  0.00000000  1
  B  B21  1  0.38001400  0.61998600  0.50000000  1
  B  B22  1  0.11998600  0.88001400  0.00000000  1
  B  B23  1  0.61998600  0.38001400  0.50000000  1
  P  P24  1  0.71401100  0.09185900  0.76003500  1
  P  P25  1  0.90814100  0.28598900  0.23996500  1
  P  P26  1  0.40814100  0.78598900  0.26003500  1
  P  P27  1  0.21401100  0.59185900  0.73996500  1
  P  P28  1  0.28598900  0.90814100  0.23996500  1
  P  P29  1  0.09185900  0.71401100  0.76003500  1
  P  P30  1  0.59185900  0.21401100  0.73996500  1
  P  P31  1  0.78598900  0.40814100  0.26003500  1
  P  P32  1  0.07195700  0.19713000  0.80223700  1
  P  P33  1  0.80287000  0.92804300  0.19776300  1
  P  P34  1  0.30287000  0.42804300  0.30223700  1
  P  P35  1  0.57195700  0.69713000  0.69776300  1
  P  P36  1  0.92804300  0.80287000  0.19776300  1
  P  P37  1  0.19713000  0.07195700  0.80223700  1
  P  P38  1  0.69713000  0.57195700  0.69776300  1
  P  P39  1  0.42804300  0.30287000  0.30223700  1
  O  O40  1  0.63160200  0.01414800  0.89540500  1
  O  O41  1  0.98585200  0.36839800  0.10459500  1
  O  O42  1  0.48585200  0.86839800  0.39540500  1
  O  O43  1  0.13160200  0.51414800  0.60459500  1
  O  O44  1  0.36839800  0.98585200  0.10459500  1
  O  O45  1  0.01414800  0.63160200  0.89540500  1
  O  O46  1  0.51414800  0.13160200  0.60459500  1
  O  O47  1  0.86839800  0.48585200  0.39540500  1
  O  O48  1  0.83527100  0.14444500  0.83167500  1
  O  O49  1  0.85555500  0.16472900  0.16832500  1
  O  O50  1  0.35555500  0.66472900  0.33167500  1
  O  O51  1  0.33527100  0.64444500  0.66832500  1
  O  O52  1  0.16472900  0.85555500  0.16832500  1
  O  O53  1  0.14444500  0.83527100  0.83167500  1
  O  O54  1  0.64444500  0.33527100  0.66832500  1
  O  O55  1  0.66472900  0.35555500  0.33167500  1
  O  O56  1  0.71375900  0.05350400  0.56245900  1
  O  O57  1  0.94649600  0.28624100  0.43754100  1
  O  O58  1  0.44649600  0.78624100  0.06245900  1
  O  O59  1  0.21375900  0.55350400  0.93754100  1
  O  O60  1  0.28624100  0.94649600  0.43754100  1
  O  O61  1  0.05350400  0.71375900  0.56245900  1
  O  O62  1  0.55350400  0.21375900  0.93754100  1
  O  O63  1  0.78624100  0.44649600  0.06245900  1
  O  O64  1  0.70110400  0.20110400  0.75000000  1
  O  O65  1  0.79889600  0.29889600  0.25000000  1
  O  O66  1  0.29889600  0.79889600  0.25000000  1
  O  O67  1  0.20110400  0.70110400  0.75000000  1
  O  O68  1  0.16322500  0.16322500  0.86755100  1
  O  O69  1  0.83677500  0.83677500  0.13244900  1
  O  O70  1  0.33677500  0.33677500  0.36755100  1
  O  O71  1  0.66322500  0.66322500  0.63244900  1
  O  O72  1  0.13380800  0.31935700  0.78149300  1
  O  O73  1  0.68064300  0.86619200  0.21850700  1
  O  O74  1  0.18064300  0.36619200  0.28149300  1
  O  O75  1  0.63380800  0.81935700  0.71850700  1
  O  O76  1  0.86619200  0.68064300  0.21850700  1
  O  O77  1  0.31935700  0.13380800  0.78149300  1
  O  O78  1  0.81935700  0.63380800  0.71850700  1
  O  O79  1  0.36619200  0.18064300  0.28149300  1
  O  O80  1  0.01144900  0.13293900  0.63477800  1
  O  O81  1  0.86706100  0.98855100  0.36522200  1
  O  O82  1  0.36706100  0.48855100  0.13477800  1
  O  O83  1  0.51144900  0.63293900  0.86522200  1
  O  O84  1  0.98855100  0.86706100  0.36522200  1
  O  O85  1  0.13293900  0.01144900  0.63477800  1
  O  O86  1  0.63293900  0.51144900  0.86522200  1
  O  O87  1  0.48855100  0.36706100  0.13477800  1
  O  O88  1  0.99911700  0.16741900  0.98314600  1
  O  O89  1  0.83258100  0.00088300  0.01685400  1
  O  O90  1  0.33258100  0.50088300  0.48314600  1
  O  O91  1  0.49911700  0.66741900  0.51685400  1
  O  O92  1  0.00088300  0.83258100  0.01685400  1
  O  O93  1  0.16741900  0.99911700  0.98314600  1
  O  O94  1  0.66741900  0.49911700  0.51685400  1
  O  O95  1  0.50088300  0.33258100  0.48314600  1
