# generated using pymatgen
data_K7Nb(SO4)6
_symmetry_space_group_name_H-M   'P 1'
_cell_length_a   9.46463485
_cell_length_b   9.46463485
_cell_length_c   9.46463507
_cell_angle_alpha   109.44686849
_cell_angle_beta   109.44686849
_cell_angle_gamma   109.44687765
_symmetry_Int_Tables_number   1
_chemical_formula_structural   K7Nb(SO4)6
_chemical_formula_sum   'K7 Nb1 S6 O24'
_cell_volume   653.25179168
_cell_formula_units_Z   1
loop_
 _symmetry_equiv_pos_site_id
 _symmetry_equiv_pos_as_xyz
  1  'x, y, z'
loop_
 _atom_site_type_symbol
 _atom_site_label
 _atom_site_symmetry_multiplicity
 _atom_site_fract_x
 _atom_site_fract_y
 _atom_site_fract_z
 _atom_site_occupancy
  K  K0  1  0.50000000  0.50000000  0.50000000  1
  K  K1  1  0.83748900  0.33518600  0.67771500  1
  K  K2  1  0.33518600  0.67771500  0.83748900  1
  K  K3  1  0.67771500  0.83748900  0.33518600  1
  K  K4  1  0.16251100  0.66481400  0.32228500  1
  K  K5  1  0.66481400  0.32228500  0.16251100  1
  K  K6  1  0.32228500  0.16251100  0.66481400  1
  Nb  Nb7  1  0.00000000  0.00000000  0.00000000  1
  S  S8  1  0.96815300  0.74474600  0.61752500  1
  S  S9  1  0.74474600  0.61752500  0.96815300  1
  S  S10  1  0.61752500  0.96815300  0.74474600  1
  S  S11  1  0.03184700  0.25525400  0.38247500  1
  S  S12  1  0.25525400  0.38247500  0.03184700  1
  S  S13  1  0.38247500  0.03184700  0.25525400  1
  O  O14  1  0.42779300  0.90977000  0.16635100  1
  O  O15  1  0.90977000  0.16635100  0.42779300  1
  O  O16  1  0.16635100  0.42779300  0.90977000  1
  O  O17  1  0.57220700  0.09023000  0.83364900  1
  O  O18  1  0.09023000  0.83364900  0.57220700  1
  O  O19  1  0.83364900  0.57220700  0.09023000  1
  O  O20  1  0.31419800  0.98496200  0.36091700  1
  O  O21  1  0.98496200  0.36091700  0.31419800  1
  O  O22  1  0.36091700  0.31419800  0.98496200  1
  O  O23  1  0.68580200  0.01503800  0.63908300  1
  O  O24  1  0.01503800  0.63908300  0.68580200  1
  O  O25  1  0.63908300  0.68580200  0.01503800  1
  O  O26  1  0.76690000  0.97772000  0.89231100  1
  O  O27  1  0.97772000  0.89231100  0.76690000  1
  O  O28  1  0.64745100  0.47537400  0.78734300  1
  O  O29  1  0.78734300  0.64745100  0.47537400  1
  O  O30  1  0.47537400  0.78734300  0.64745100  1
  O  O31  1  0.35254900  0.52462600  0.21265700  1
  O  O32  1  0.21265700  0.35254900  0.52462600  1
  O  O33  1  0.52462600  0.21265700  0.35254900  1
  O  O34  1  0.10768900  0.23310000  0.02228000  1
  O  O35  1  0.02228000  0.10768900  0.23310000  1
  O  O36  1  0.23310000  0.02228000  0.10768900  1
  O  O37  1  0.89231100  0.76690000  0.97772000  1
