# generated using pymatgen
data_Cs2Si(S2O7)3
_symmetry_space_group_name_H-M   'P 1'
_cell_length_a   17.15469879
_cell_length_b   17.15469980
_cell_length_c   12.00814495
_cell_angle_alpha   89.99998828
_cell_angle_beta   89.99993637
_cell_angle_gamma   120.00005092
_symmetry_Int_Tables_number   1
_chemical_formula_structural   Cs2Si(S2O7)3
_chemical_formula_sum   'Cs12 Si6 S36 O126'
_cell_volume   3060.36023149
_cell_formula_units_Z   6
loop_
 _symmetry_equiv_pos_site_id
 _symmetry_equiv_pos_as_xyz
  1  'x, y, z'
loop_
 _atom_site_type_symbol
 _atom_site_label
 _atom_site_symmetry_multiplicity
 _atom_site_fract_x
 _atom_site_fract_y
 _atom_site_fract_z
 _atom_site_occupancy
  Cs  Cs0  1  0.69457724  0.00591793  0.41889330  1
  Cs  Cs1  1  0.31133785  0.30542496  0.41889524  1
  Cs  Cs2  1  0.99408559  0.68865336  0.41889770  1
  Cs  Cs3  1  0.30542276  0.99408207  0.58110670  1
  Cs  Cs4  1  0.68866215  0.69457504  0.58110476  1
  Cs  Cs5  1  0.00591441  0.31134664  0.58110230  1
  Cs  Cs6  1  0.64261669  0.99323815  0.92258561  1
  Cs  Cs7  1  0.35061925  0.35738506  0.92258312  1
  Cs  Cs8  1  0.00676361  0.64937687  0.92258392  1
  Cs  Cs9  1  0.35738331  0.00676185  0.07741439  1
  Cs  Cs10  1  0.64938075  0.64261494  0.07741688  1
  Cs  Cs11  1  0.99323639  0.35062313  0.07741608  1
  Si  Si12  1  0.99999996  0.99999995  0.20915687  1
  Si  Si13  1  0.00000004  0.00000005  0.79084313  1
  Si  Si14  1  0.33333568  0.66666799  0.28310887  1
  Si  Si15  1  0.66666432  0.33333201  0.71689113  1
  Si  Si16  1  0.66666389  0.33333173  0.28113843  1
  Si  Si17  1  0.33333611  0.66666827  0.71886157  1
  S  S18  1  0.80892357  0.94257640  0.13076976  1
  S  S19  1  0.13365280  0.19107685  0.13076965  1
  S  S20  1  0.05742304  0.86634665  0.13077153  1
  S  S21  1  0.19107643  0.05742360  0.86923024  1
  S  S22  1  0.86634720  0.80892315  0.86923035  1
  S  S23  1  0.94257696  0.13365335  0.86922847  1
  S  S24  1  0.82717078  0.85005542  0.32248661  1
  S  S25  1  0.02288479  0.17282917  0.32248763  1
  S  S26  1  0.14994345  0.97711430  0.32248709  1
  S  S27  1  0.17282922  0.14994458  0.67751339  1
  S  S28  1  0.97711521  0.82717083  0.67751237  1
  S  S29  1  0.85005655  0.02288570  0.67751291  1
  S  S30  1  0.61899758  0.14530161  0.63406610  1
  S  S31  1  0.52630165  0.38099990  0.63406631  1
  S  S32  1  0.85469425  0.47369483  0.63406513  1
  S  S33  1  0.38100242  0.85469839  0.36593390  1
  S  S34  1  0.47369835  0.61900010  0.36593369  1
  S  S35  1  0.14530575  0.52630517  0.36593487  1
  S  S36  1  0.48291497  0.84568646  0.17871261  1
  S  S37  1  0.36277439  0.51708731  0.17871274  1
  S  S38  1  0.15431745  0.63722931  0.17871345  1
  S  S39  1  0.51708503  0.15431354  0.82128739  1
  S  S40  1  0.63722561  0.48291269  0.82128726  1
  S  S41  1  0.84568255  0.36277069  0.82128655  1
  S  S42  1  0.47796170  0.19266649  0.36071102  1
  S  S43  1  0.71470253  0.52203432  0.36071067  1
  S  S44  1  0.80732966  0.28529571  0.36071120  1
  S  S45  1  0.52203830  0.80733351  0.63928898  1
  S  S46  1  0.28529747  0.47796568  0.63928933  1
  S  S47  1  0.19267034  0.71470429  0.63928880  1
  S  S48  1  0.29875629  0.80772056  0.83496453  1
  S  S49  1  0.50896939  0.70124863  0.83496463  1
  S  S50  1  0.19228150  0.49103453  0.83496287  1
  S  S51  1  0.70124371  0.19227944  0.16503547  1
  S  S52  1  0.49103061  0.29875137  0.16503537  1
  S  S53  1  0.80771850  0.50896547  0.16503713  1
  O  O54  1  0.78716926  0.99882484  0.19644742  1
  O  O55  1  0.21165580  0.21283051  0.19644805  1
  O  O56  1  0.00117588  0.78834540  0.19644760  1
  O  O57  1  0.21283074  0.00117516  0.80355258  1
  O  O58  1  0.78834420  0.78716949  0.80355195  1
  O  O59  1  0.99882412  0.21165460  0.80355240  1
  O  O60  1  0.90975284  0.98107303  0.11882617  1
  O  O61  1  0.07132011  0.09024729  0.11882654  1
  O  O62  1  0.01892734  0.92868038  0.11882626  1
  O  O63  1  0.09024716  0.01892697  0.88117383  1
  O  O64  1  0.92867989  0.90975271  0.88117346  1
  O  O65  1  0.98107266  0.07131962  0.88117374  1
  O  O66  1  0.76578245  0.90893224  0.02563454  1
  O  O67  1  0.14315006  0.23421746  0.02563545  1
  O  O68  1  0.09106823  0.85685077  0.02563439  1
  O  O69  1  0.23421755  0.09106776  0.97436546  1
  O  O70  1  0.85684994  0.76578254  0.97436455  1
  O  O71  1  0.90893177  0.14314923  0.97436561  1
  O  O72  1  0.92709601  0.90778961  0.29703346  1
  O  O73  1  0.98069328  0.07290400  0.29703357  1
  O  O74  1  0.09220991  0.01930641  0.29703346  1
  O  O75  1  0.07290399  0.09221039  0.70296654  1
  O  O76  1  0.01930672  0.92709600  0.70296643  1
  O  O77  1  0.90779009  0.98069359  0.70296654  1
  O  O78  1  0.79806104  0.89087168  0.40482244  1
  O  O79  1  0.09280994  0.20193879  0.40482324  1
  O  O80  1  0.10912845  0.90718966  0.40482142  1
  O  O81  1  0.20193896  0.10912832  0.59517756  1
  O  O82  1  0.90719006  0.79806121  0.59517676  1
  O  O83  1  0.89087155  0.09281034  0.59517858  1
  O  O84  1  0.77904256  0.84826116  0.20206305  1
  O  O85  1  0.06921882  0.22095783  0.20206335  1
  O  O86  1  0.15173934  0.93078205  0.20206243  1
  O  O87  1  0.22095744  0.15173884  0.79793695  1
  O  O88  1  0.93078118  0.77904217  0.79793665  1
  O  O89  1  0.84826066  0.06921795  0.79793757  1
  O  O90  1  0.52145929  0.11266043  0.69773596  1
  O  O91  1  0.59120080  0.47853913  0.69773570  1
  O  O92  1  0.88733327  0.40879601  0.69773458  1
  O  O93  1  0.47854071  0.88733957  0.30226404  1
  O  O94  1  0.40879920  0.52146087  0.30226430  1
  O  O95  1  0.11266673  0.59120399  0.30226542  1
  O  O96  1  0.65790434  0.24661616  0.62656249  1
  O  O97  1  0.58870720  0.34209047  0.62656322  1
  O  O98  1  0.75337905  0.41128885  0.62656336  1
  O  O99  1  0.34209566  0.75338384  0.37343751  1
  O  O100  1  0.41129280  0.65790953  0.37343678  1
  O  O101  1  0.24662095  0.58871115  0.37343664  1
  O  O102  1  0.59147194  0.10595411  0.52569523  1
  O  O103  1  0.51448206  0.40852694  0.52569508  1
  O  O104  1  0.89404132  0.48551687  0.52569541  1
  O  O105  1  0.40852806  0.89404589  0.47430477  1
  O  O106  1  0.48551794  0.59147306  0.47430492  1
  O  O107  1  0.10595868  0.51448313  0.47430459  1
  O  O108  1  0.42190813  0.74488002  0.19438155  1
  O  O109  1  0.32297799  0.57809747  0.19438008  1
  O  O110  1  0.25512419  0.67702809  0.19438063  1
  O  O111  1  0.57809187  0.25511998  0.80561845  1
  O  O112  1  0.67702201  0.42190253  0.80561992  1
  O  O113  1  0.74487581  0.32297191  0.80561937  1
  O  O114  1  0.67189404  0.12122944  0.70303039  1
  O  O115  1  0.44933290  0.32810630  0.70303154  1
  O  O116  1  0.87876785  0.55066407  0.70303145  1
  O  O117  1  0.32810596  0.87877056  0.29696961  1
  O  O118  1  0.55066710  0.67189370  0.29696846  1
  O  O119  1  0.12123215  0.44933593  0.29696855  1
  O  O120  1  0.44785810  0.88049688  0.09597371  1
  O  O121  1  0.43264057  0.55214163  0.09597220  1
  O  O122  1  0.11950632  0.56736198  0.09597421  1
  O  O123  1  0.55214190  0.11950312  0.90402629  1
  O  O124  1  0.56735943  0.44785837  0.90402780  1
  O  O125  1  0.88049368  0.43263802  0.90402579  1
  O  O126  1  0.57540424  0.86907698  0.17264003  1
  O  O127  1  0.29367387  0.42459989  0.17264111  1
  O  O128  1  0.13092819  0.70632826  0.17264269  1
  O  O129  1  0.42459576  0.13092302  0.82735997  1
  O  O130  1  0.70632613  0.57540011  0.82735889  1
  O  O131  1  0.86907181  0.29367174  0.82735731  1
  O  O132  1  0.80355628  0.75796833  0.33624057  1
  O  O133  1  0.95441243  0.19644475  0.33624362  1
  O  O134  1  0.24203196  0.04558787  0.33624056  1
  O  O135  1  0.19644372  0.24203167  0.66375943  1
  O  O136  1  0.04558757  0.80355525  0.66375638  1
  O  O137  1  0.75796804  0.95441213  0.66375944  1
  O  O138  1  0.57800454  0.25881202  0.37191438  1
  O  O139  1  0.68080218  0.42199122  0.37191370  1
  O  O140  1  0.74118408  0.31919258  0.37191496  1
  O  O141  1  0.42199546  0.74118798  0.62808562  1
  O  O142  1  0.31919782  0.57800878  0.62808630  1
  O  O143  1  0.25881592  0.68080742  0.62808504  1
  O  O144  1  0.34875457  0.75790904  0.80587575  1
  O  O145  1  0.40915872  0.65125065  0.80587562  1
  O  O146  1  0.24209624  0.59084550  0.80587677  1
  O  O147  1  0.65124543  0.24209096  0.19412425  1
  O  O148  1  0.59084128  0.34874935  0.19412438  1
  O  O149  1  0.75790376  0.40915450  0.19412323  1
  O  O150  1  0.43417255  0.18424825  0.46535161  1
  O  O151  1  0.75007392  0.56582279  0.46535154  1
  O  O152  1  0.81575038  0.24992625  0.46535189  1
  O  O153  1  0.56582745  0.81575175  0.53464839  1
  O  O154  1  0.24992608  0.43417721  0.53464846  1
  O  O155  1  0.18424962  0.75007375  0.53464811  1
  O  O156  1  0.45922527  0.11357908  0.29937254  1
  O  O157  1  0.65435321  0.54077288  0.29937175  1
  O  O158  1  0.88641693  0.34564759  0.29937308  1
  O  O159  1  0.54077473  0.88642092  0.70062746  1
  O  O160  1  0.34564679  0.45922712  0.70062825  1
  O  O161  1  0.11358307  0.65435241  0.70062692  1
  O  O162  1  0.44331888  0.25116094  0.28577527  1
  O  O163  1  0.80783958  0.55667536  0.28577651  1
  O  O164  1  0.74883555  0.19215989  0.28577575  1
  O  O165  1  0.55668112  0.74883906  0.71422473  1
  O  O166  1  0.19216042  0.44332464  0.71422349  1
  O  O167  1  0.25116445  0.80784011  0.71422425  1
  O  O168  1  0.36138974  0.90150569  0.85052395  1
  O  O169  1  0.54011851  0.63861226  0.85052469  1
  O  O170  1  0.09849763  0.45988669  0.85052274  1
  O  O171  1  0.63861026  0.09849431  0.14947605  1
  O  O172  1  0.45988149  0.36138774  0.14947531  1
  O  O173  1  0.90150237  0.54011331  0.14947726  1
  O  O174  1  0.22898263  0.76023034  0.91538469  1
  O  O175  1  0.53125237  0.77101997  0.91538570  1
  O  O176  1  0.23977010  0.46875016  0.91538538  1
  O  O177  1  0.77101737  0.23976966  0.08461531  1
  O  O178  1  0.46874763  0.22898003  0.08461430  1
  O  O179  1  0.76022990  0.53124984  0.08461462  1
