# generated using pymatgen
data_Ba2Mg17
_symmetry_space_group_name_H-M   'P 1'
_cell_length_a   8.04690872
_cell_length_b   8.04690872
_cell_length_c   8.04690901
_cell_angle_alpha   83.01232783
_cell_angle_beta   83.01232783
_cell_angle_gamma   83.01232060
_symmetry_Int_Tables_number   1
_chemical_formula_structural   Ba2Mg17
_chemical_formula_sum   'Ba2 Mg17'
_cell_volume   510.31926969
_cell_formula_units_Z   1
loop_
 _symmetry_equiv_pos_site_id
 _symmetry_equiv_pos_as_xyz
  1  'x, y, z'
loop_
 _atom_site_type_symbol
 _atom_site_label
 _atom_site_symmetry_multiplicity
 _atom_site_fract_x
 _atom_site_fract_y
 _atom_site_fract_z
 _atom_site_occupancy
  Ba  Ba0  1  0.33788000  0.33788000  0.33788000  1
  Ba  Ba1  1  0.66212000  0.66212000  0.66212000  1
  Mg  Mg2  1  0.29766200  0.70233800  0.00000000  1
  Mg  Mg3  1  0.84003600  0.34103300  0.34103300  1
  Mg  Mg4  1  0.65896700  0.15996400  0.65896700  1
  Mg  Mg5  1  0.10062000  0.10062000  0.10062000  1
  Mg  Mg6  1  0.29766200  0.00000000  0.70233800  1
  Mg  Mg7  1  0.70233800  0.29766200  0.00000000  1
  Mg  Mg8  1  0.34103300  0.34103300  0.84003600  1
  Mg  Mg9  1  0.89938000  0.89938000  0.89938000  1
  Mg  Mg10  1  0.00000000  0.70233800  0.29766200  1
  Mg  Mg11  1  0.00000000  0.00000000  0.50000000  1
  Mg  Mg12  1  0.70233800  0.00000000  0.29766200  1
  Mg  Mg13  1  0.34103300  0.84003600  0.34103300  1
  Mg  Mg14  1  0.15996400  0.65896700  0.65896700  1
  Mg  Mg15  1  0.65896700  0.65896700  0.15996400  1
  Mg  Mg16  1  0.50000000  0.00000000  0.00000000  1
  Mg  Mg17  1  0.00000000  0.29766200  0.70233800  1
  Mg  Mg18  1  0.00000000  0.50000000  0.00000000  1
