# generated using pymatgen
data_Yb5CdCu2
_symmetry_space_group_name_H-M   'P 1'
_cell_length_a   9.05766045
_cell_length_b   9.05766045
_cell_length_c   9.05766045
_cell_angle_alpha   129.14682774
_cell_angle_beta   129.14682774
_cell_angle_gamma   74.77443621
_symmetry_Int_Tables_number   1
_chemical_formula_structural   Yb5CdCu2
_chemical_formula_sum   'Yb10 Cd2 Cu4'
_cell_volume   435.37242136
_cell_formula_units_Z   2
loop_
 _symmetry_equiv_pos_site_id
 _symmetry_equiv_pos_as_xyz
  1  'x, y, z'
loop_
 _atom_site_type_symbol
 _atom_site_label
 _atom_site_symmetry_multiplicity
 _atom_site_fract_x
 _atom_site_fract_y
 _atom_site_fract_z
 _atom_site_occupancy
  Yb  Yb0  1  0.50000000  0.50000000  0.00000000  1
  Yb  Yb1  1  0.00000000  0.00000000  0.00000000  1
  Yb  Yb2  1  0.52985300  0.02985300  0.83406600  1
  Yb  Yb3  1  0.19578800  0.69578800  0.16593400  1
  Yb  Yb4  1  0.02985300  0.19578800  0.50000000  1
  Yb  Yb5  1  0.69578800  0.52985300  0.50000000  1
  Yb  Yb6  1  0.47014700  0.97014700  0.16593400  1
  Yb  Yb7  1  0.80421200  0.30421200  0.83406600  1
  Yb  Yb8  1  0.97014700  0.80421200  0.50000000  1
  Yb  Yb9  1  0.30421200  0.47014700  0.50000000  1
  Cd  Cd10  1  0.25000000  0.25000000  0.00000000  1
  Cd  Cd11  1  0.75000000  0.75000000  0.00000000  1
  Cu  Cu12  1  0.11785300  0.61785300  0.73570700  1
  Cu  Cu13  1  0.88214700  0.38214700  0.26429300  1
  Cu  Cu14  1  0.61785300  0.88214700  0.50000000  1
  Cu  Cu15  1  0.38214700  0.11785300  0.50000000  1
