# generated using pymatgen
data_B3H4NO5
_symmetry_space_group_name_H-M   'P 1'
_cell_length_a   6.71345445
_cell_length_b   6.71345445
_cell_length_c   9.32155607
_cell_angle_alpha   81.14065995
_cell_angle_beta   81.14065995
_cell_angle_gamma   82.63887709
_symmetry_Int_Tables_number   1
_chemical_formula_structural   B3H4NO5
_chemical_formula_sum   'B12 H16 N4 O20'
_cell_volume   407.80989517
_cell_formula_units_Z   4
loop_
 _symmetry_equiv_pos_site_id
 _symmetry_equiv_pos_as_xyz
  1  'x, y, z'
loop_
 _atom_site_type_symbol
 _atom_site_label
 _atom_site_symmetry_multiplicity
 _atom_site_fract_x
 _atom_site_fract_y
 _atom_site_fract_z
 _atom_site_occupancy
  B  B0  1  0.80970800  0.79702000  0.72697700  1
  B  B1  1  0.20298000  0.19029200  0.77302300  1
  B  B2  1  0.19029200  0.20298000  0.27302300  1
  B  B3  1  0.79702000  0.80970800  0.22697700  1
  B  B4  1  0.93001900  0.42933200  0.67943400  1
  B  B5  1  0.57066800  0.06998100  0.82056600  1
  B  B6  1  0.06998100  0.57066800  0.32056600  1
  B  B7  1  0.42933200  0.93001900  0.17943400  1
  B  B8  1  0.03332500  0.10933300  0.56922100  1
  B  B9  1  0.89066700  0.96667500  0.93077900  1
  B  B10  1  0.96667500  0.89066700  0.43077900  1
  B  B11  1  0.10933300  0.03332500  0.06922100  1
  H  H12  1  0.14589500  0.64088700  0.89007700  1
  H  H13  1  0.35911300  0.85410500  0.60992300  1
  H  H14  1  0.85410500  0.35911300  0.10992300  1
  H  H15  1  0.64088700  0.14589500  0.39007700  1
  H  H16  1  0.31851400  0.68351400  0.99312500  1
  H  H17  1  0.31648600  0.68148600  0.50687500  1
  H  H18  1  0.68148600  0.31648600  0.00687500  1
  H  H19  1  0.68351400  0.31851400  0.49312500  1
  H  H20  1  0.36976900  0.49016000  0.87900200  1
  H  H21  1  0.50984000  0.63023100  0.62099800  1
  H  H22  1  0.63023100  0.50984000  0.12099800  1
  H  H23  1  0.49016000  0.36976900  0.37900200  1
  H  H24  1  0.20555600  0.46432000  0.02931100  1
  H  H25  1  0.53568000  0.79444400  0.47068900  1
  H  H26  1  0.79444400  0.53568000  0.97068900  1
  H  H27  1  0.46432000  0.20555600  0.52931100  1
  N  N28  1  0.26518400  0.57130400  0.94742700  1
  N  N29  1  0.42869600  0.73481600  0.55257300  1
  N  N30  1  0.73481600  0.42869600  0.05257300  1
  N  N31  1  0.57130400  0.26518400  0.44742700  1
  O  O32  1  0.92670800  0.91330400  0.59295800  1
  O  O33  1  0.08669600  0.07329200  0.90704200  1
  O  O34  1  0.07329200  0.08669600  0.40704200  1
  O  O35  1  0.91330400  0.92670800  0.09295800  1
  O  O36  1  0.91176000  0.79167300  0.85641700  1
  O  O37  1  0.20832700  0.08824000  0.64358300  1
  O  O38  1  0.08824000  0.20832700  0.14358300  1
  O  O39  1  0.79167300  0.91176000  0.35641700  1
  O  O40  1  0.09568800  0.39556100  0.75179900  1
  O  O41  1  0.60443900  0.90431200  0.74820100  1
  O  O42  1  0.90431200  0.60443900  0.24820100  1
  O  O43  1  0.39556100  0.09568800  0.25179900  1
  O  O44  1  0.79067500  0.59709600  0.69029700  1
  O  O45  1  0.40290400  0.20932500  0.80970300  1
  O  O46  1  0.20932500  0.40290400  0.30970300  1
  O  O47  1  0.59709600  0.79067500  0.19029700  1
  O  O48  1  0.89252600  0.28864500  0.59423900  1
  O  O49  1  0.71135500  0.10747400  0.90576100  1
  O  O50  1  0.10747400  0.71135500  0.40576100  1
  O  O51  1  0.28864500  0.89252600  0.09423900  1
