# generated using pymatgen
data_EuNbO4
_symmetry_space_group_name_H-M   'P 1'
_cell_length_a   6.72702405
_cell_length_b   6.72702405
_cell_length_c   5.21508024
_cell_angle_alpha   69.01821933
_cell_angle_beta   69.01821933
_cell_angle_gamma   114.32149753
_symmetry_Int_Tables_number   1
_chemical_formula_structural   EuNbO4
_chemical_formula_sum   'Eu2 Nb2 O8'
_cell_volume   161.50428890
_cell_formula_units_Z   2
loop_
 _symmetry_equiv_pos_site_id
 _symmetry_equiv_pos_as_xyz
  1  'x, y, z'
loop_
 _atom_site_type_symbol
 _atom_site_label
 _atom_site_symmetry_multiplicity
 _atom_site_fract_x
 _atom_site_fract_y
 _atom_site_fract_z
 _atom_site_occupancy
  Eu  Eu0  1  0.12788800  0.87211200  0.75000000  1
  Eu  Eu1  1  0.87211200  0.12788800  0.25000000  1
  Nb  Nb2  1  0.60678700  0.39321300  0.75000000  1
  Nb  Nb3  1  0.39321300  0.60678700  0.25000000  1
  O  O4  1  0.13485000  0.55386000  0.16283300  1
  O  O5  1  0.44614000  0.86515000  0.33716700  1
  O  O6  1  0.86515000  0.44614000  0.83716700  1
  O  O7  1  0.55386000  0.13485000  0.66283300  1
  O  O8  1  0.71044800  0.77250900  0.80617500  1
  O  O9  1  0.22749100  0.28955200  0.69382500  1
  O  O10  1  0.28955200  0.22749100  0.19382500  1
  O  O11  1  0.77250900  0.71044800  0.30617500  1
