# generated using pymatgen
data_TbPS
_symmetry_space_group_name_H-M   'P 1'
_cell_length_a   5.33899600
_cell_length_b   5.39858000
_cell_length_c   16.79358600
_cell_angle_alpha   90.00000000
_cell_angle_beta   90.00000000
_cell_angle_gamma   90.00000000
_symmetry_Int_Tables_number   1
_chemical_formula_structural   TbPS
_chemical_formula_sum   'Tb8 P8 S8'
_cell_volume   484.04147933
_cell_formula_units_Z   8
loop_
 _symmetry_equiv_pos_site_id
 _symmetry_equiv_pos_as_xyz
  1  'x, y, z'
loop_
 _atom_site_type_symbol
 _atom_site_label
 _atom_site_symmetry_multiplicity
 _atom_site_fract_x
 _atom_site_fract_y
 _atom_site_fract_z
 _atom_site_occupancy
  Tb  Tb0  1  0.25000000  0.48410900  0.36242700  1
  Tb  Tb1  1  0.25000000  0.98410900  0.13757300  1
  Tb  Tb2  1  0.75000000  0.51589100  0.63757300  1
  Tb  Tb3  1  0.75000000  0.01589100  0.86242700  1
  Tb  Tb4  1  0.25000000  0.01519100  0.64631000  1
  Tb  Tb5  1  0.25000000  0.51519100  0.85369000  1
  Tb  Tb6  1  0.75000000  0.98480900  0.35369000  1
  Tb  Tb7  1  0.75000000  0.48480900  0.14631000  1
  P  P8  1  0.03647400  0.29583000  0.99729800  1
  P  P9  1  0.46352600  0.79583000  0.50270200  1
  P  P10  1  0.53647400  0.70417000  0.00270200  1
  P  P11  1  0.96352600  0.20417000  0.49729800  1
  P  P12  1  0.96352600  0.70417000  0.00270200  1
  P  P13  1  0.53647400  0.20417000  0.49729800  1
  P  P14  1  0.46352600  0.29583000  0.99729800  1
  P  P15  1  0.03647400  0.79583000  0.50270200  1
  S  S16  1  0.25000000  0.48478200  0.18916100  1
  S  S17  1  0.25000000  0.98478200  0.31083900  1
  S  S18  1  0.75000000  0.51521800  0.81083900  1
  S  S19  1  0.75000000  0.01521800  0.68916100  1
  S  S20  1  0.25000000  0.01181300  0.81639600  1
  S  S21  1  0.25000000  0.51181300  0.68360400  1
  S  S22  1  0.75000000  0.98818700  0.18360400  1
  S  S23  1  0.75000000  0.48818700  0.31639600  1
