# generated using pymatgen
data_Li7NbN4
_symmetry_space_group_name_H-M   'P 1'
_cell_length_a   9.85966200
_cell_length_b   9.85966200
_cell_length_c   9.85966200
_cell_angle_alpha   90.00000000
_cell_angle_beta   90.00000000
_cell_angle_gamma   90.00000000
_symmetry_Int_Tables_number   1
_chemical_formula_structural   Li7NbN4
_chemical_formula_sum   'Li56 Nb8 N32'
_cell_volume   958.48667870
_cell_formula_units_Z   8
loop_
 _symmetry_equiv_pos_site_id
 _symmetry_equiv_pos_as_xyz
  1  'x, y, z'
loop_
 _atom_site_type_symbol
 _atom_site_label
 _atom_site_symmetry_multiplicity
 _atom_site_fract_x
 _atom_site_fract_y
 _atom_site_fract_z
 _atom_site_occupancy
  Li  Li0  1  0.13157400  0.36842600  0.63157400  1
  Li  Li1  1  0.36842600  0.63157400  0.13157400  1
  Li  Li2  1  0.63157400  0.13157400  0.36842600  1
  Li  Li3  1  0.86842600  0.86842600  0.86842600  1
  Li  Li4  1  0.86842600  0.63157400  0.36842600  1
  Li  Li5  1  0.63157400  0.36842600  0.86842600  1
  Li  Li6  1  0.36842600  0.86842600  0.63157400  1
  Li  Li7  1  0.13157400  0.13157400  0.13157400  1
  Li  Li8  1  0.62032200  0.89952200  0.63190600  1
  Li  Li9  1  0.12032200  0.60047800  0.36809400  1
  Li  Li10  1  0.37967800  0.39952200  0.86809400  1
  Li  Li11  1  0.60047800  0.36809400  0.12032200  1
  Li  Li12  1  0.86809400  0.37967800  0.39952200  1
  Li  Li13  1  0.36809400  0.12032200  0.60047800  1
  Li  Li14  1  0.89952200  0.63190600  0.62032200  1
  Li  Li15  1  0.63190600  0.62032200  0.89952200  1
  Li  Li16  1  0.39952200  0.86809400  0.37967800  1
  Li  Li17  1  0.10047800  0.13190600  0.87967800  1
  Li  Li18  1  0.13190600  0.87967800  0.10047800  1
  Li  Li19  1  0.87967800  0.10047800  0.13190600  1
  Li  Li20  1  0.37967800  0.10047800  0.36809400  1
  Li  Li21  1  0.87967800  0.39952200  0.63190600  1
  Li  Li22  1  0.62032200  0.60047800  0.13190600  1
  Li  Li23  1  0.63923900  0.11620900  0.86887300  1
  Li  Li24  1  0.39952200  0.63190600  0.87967800  1
  Li  Li25  1  0.63190600  0.87967800  0.39952200  1
  Li  Li26  1  0.10047800  0.36809400  0.37967800  1
  Li  Li27  1  0.36809400  0.37967800  0.10047800  1
  Li  Li28  1  0.60047800  0.13190600  0.62032200  1
  Li  Li29  1  0.89952200  0.86809400  0.12032200  1
  Li  Li30  1  0.86809400  0.12032200  0.89952200  1
  Li  Li31  1  0.12032200  0.89952200  0.86809400  1
  Li  Li32  1  0.13112700  0.13923900  0.38379100  1
  Li  Li33  1  0.63112700  0.36076100  0.61620900  1
  Li  Li34  1  0.86887300  0.63923900  0.11620900  1
  Li  Li35  1  0.36076100  0.61620900  0.63112700  1
  Li  Li36  1  0.11620900  0.86887300  0.63923900  1
  Li  Li37  1  0.61620900  0.63112700  0.36076100  1
  Li  Li38  1  0.13923900  0.38379100  0.13112700  1
  Li  Li39  1  0.38379100  0.13112700  0.13923900  1
  Li  Li40  1  0.63112700  0.13923900  0.11620900  1
  Li  Li41  1  0.11620900  0.63112700  0.13923900  1
  Li  Li42  1  0.13923900  0.11620900  0.63112700  1
  Li  Li43  1  0.36076100  0.88379100  0.13112700  1
  Li  Li44  1  0.61620900  0.86887300  0.86076100  1
  Li  Li45  1  0.86076100  0.61620900  0.86887300  1
  Li  Li46  1  0.38379100  0.36887300  0.63923900  1
  Li  Li47  1  0.88379100  0.13112700  0.36076100  1
  Li  Li48  1  0.63923900  0.38379100  0.36887300  1
  Li  Li49  1  0.13112700  0.36076100  0.88379100  1
  Li  Li50  1  0.36887300  0.63923900  0.38379100  1
  Li  Li51  1  0.86887300  0.86076100  0.61620900  1
  Li  Li52  1  0.36887300  0.86076100  0.88379100  1
  Li  Li53  1  0.88379100  0.36887300  0.86076100  1
  Li  Li54  1  0.86076100  0.88379100  0.36887300  1
  Li  Li55  1  0.13190600  0.62032200  0.60047800  1
  Nb  Nb56  1  0.37246100  0.12753900  0.87246100  1
  Nb  Nb57  1  0.12753900  0.87246100  0.37246100  1
  Nb  Nb58  1  0.87246100  0.37246100  0.12753900  1
  Nb  Nb59  1  0.62753900  0.62753900  0.62753900  1
  Nb  Nb60  1  0.62753900  0.87246100  0.12753900  1
  Nb  Nb61  1  0.87246100  0.12753900  0.62753900  1
  Nb  Nb62  1  0.12753900  0.62753900  0.87246100  1
  Nb  Nb63  1  0.37246100  0.37246100  0.37246100  1
  N  N64  1  0.25730800  0.24269200  0.75730800  1
  N  N65  1  0.24269200  0.75730800  0.25730800  1
  N  N66  1  0.75730800  0.25730800  0.24269200  1
  N  N67  1  0.74269200  0.74269200  0.74269200  1
  N  N68  1  0.74269200  0.75730800  0.24269200  1
  N  N69  1  0.75730800  0.24269200  0.74269200  1
  N  N70  1  0.24269200  0.74269200  0.75730800  1
  N  N71  1  0.25730800  0.25730800  0.25730800  1
  N  N72  1  0.75537300  0.01366900  0.50960100  1
  N  N73  1  0.25537300  0.48633100  0.49039900  1
  N  N74  1  0.24462700  0.51366900  0.99039900  1
  N  N75  1  0.48633100  0.49039900  0.25537300  1
  N  N76  1  0.99039900  0.24462700  0.51366900  1
  N  N77  1  0.49039900  0.25537300  0.48633100  1
  N  N78  1  0.01366900  0.50960100  0.75537300  1
  N  N79  1  0.50960100  0.75537300  0.01366900  1
  N  N80  1  0.51366900  0.99039900  0.24462700  1
  N  N81  1  0.98633100  0.00960100  0.74462700  1
  N  N82  1  0.00960100  0.74462700  0.98633100  1
  N  N83  1  0.74462700  0.98633100  0.00960100  1
  N  N84  1  0.24462700  0.98633100  0.49039900  1
  N  N85  1  0.74462700  0.51366900  0.50960100  1
  N  N86  1  0.75537300  0.48633100  0.00960100  1
  N  N87  1  0.51366900  0.50960100  0.74462700  1
  N  N88  1  0.00960100  0.75537300  0.48633100  1
  N  N89  1  0.50960100  0.74462700  0.51366900  1
  N  N90  1  0.98633100  0.49039900  0.24462700  1
  N  N91  1  0.49039900  0.24462700  0.98633100  1
  N  N92  1  0.48633100  0.00960100  0.75537300  1
  N  N93  1  0.01366900  0.99039900  0.25537300  1
  N  N94  1  0.99039900  0.25537300  0.01366900  1
  N  N95  1  0.25537300  0.01366900  0.99039900  1
