# generated using pymatgen
data_La2SbO2
_symmetry_space_group_name_H-M   'P 1'
_cell_length_a   7.57492840
_cell_length_b   7.57492840
_cell_length_c   7.57492840
_cell_angle_alpha   148.87394477
_cell_angle_beta   148.77049283
_cell_angle_gamma   44.67311368
_symmetry_Int_Tables_number   1
_chemical_formula_structural   La2SbO2
_chemical_formula_sum   'La2 Sb1 O2'
_cell_volume   116.13496745
_cell_formula_units_Z   1
loop_
 _symmetry_equiv_pos_site_id
 _symmetry_equiv_pos_as_xyz
  1  'x, y, z'
loop_
 _atom_site_type_symbol
 _atom_site_label
 _atom_site_symmetry_multiplicity
 _atom_site_fract_x
 _atom_site_fract_y
 _atom_site_fract_z
 _atom_site_occupancy
  La  La0  1  0.33725600  0.34922500  0.01196900  1
  La  La1  1  0.66274400  0.67471300  0.01196900  1
  Sb  Sb2  1  0.00000000  0.02731300  0.02731300  1
  O  O3  1  0.75013300  0.26100800  0.51087500  1
  O  O4  1  0.24986700  0.76074200  0.51087500  1
