# generated using pymatgen
data_PrGeAu
_symmetry_space_group_name_H-M   'P 1'
_cell_length_a   4.52330745
_cell_length_b   4.52330745
_cell_length_c   7.91196200
_cell_angle_alpha   90.00000000
_cell_angle_beta   90.00000000
_cell_angle_gamma   119.99999193
_symmetry_Int_Tables_number   1
_chemical_formula_structural   PrGeAu
_chemical_formula_sum   'Pr2 Ge2 Au2'
_cell_volume   140.19324072
_cell_formula_units_Z   2
loop_
 _symmetry_equiv_pos_site_id
 _symmetry_equiv_pos_as_xyz
  1  'x, y, z'
loop_
 _atom_site_type_symbol
 _atom_site_label
 _atom_site_symmetry_multiplicity
 _atom_site_fract_x
 _atom_site_fract_y
 _atom_site_fract_z
 _atom_site_occupancy
  Pr  Pr0  1  0.00000000  0.00000000  0.75214500  1
  Pr  Pr1  1  0.00000000  0.00000000  0.25214500  1
  Ge  Ge2  1  0.66666700  0.33333300  0.96836200  1
  Ge  Ge3  1  0.33333300  0.66666700  0.46836200  1
  Au  Au4  1  0.66666700  0.33333300  0.51949300  1
  Au  Au5  1  0.33333300  0.66666700  0.01949300  1
