# generated using pymatgen
data_Y3TlF10
_symmetry_space_group_name_H-M   'P 1'
_cell_length_a   8.33060650
_cell_length_b   8.33060650
_cell_length_c   13.56993100
_cell_angle_alpha   90.00000000
_cell_angle_beta   90.00000000
_cell_angle_gamma   120.00000396
_symmetry_Int_Tables_number   1
_chemical_formula_structural   Y3TlF10
_chemical_formula_sum   'Y12 Tl4 F40'
_cell_volume   815.57047511
_cell_formula_units_Z   4
loop_
 _symmetry_equiv_pos_site_id
 _symmetry_equiv_pos_as_xyz
  1  'x, y, z'
loop_
 _atom_site_type_symbol
 _atom_site_label
 _atom_site_symmetry_multiplicity
 _atom_site_fract_x
 _atom_site_fract_y
 _atom_site_fract_z
 _atom_site_occupancy
  Y  Y0  1  0.17409200  0.34818300  0.72683900  1
  Y  Y1  1  0.17409200  0.82590800  0.72683900  1
  Y  Y2  1  0.82590800  0.65181700  0.22683900  1
  Y  Y3  1  0.65181700  0.82590800  0.72683900  1
  Y  Y4  1  0.82590800  0.17409200  0.22683900  1
  Y  Y5  1  0.34818300  0.17409200  0.22683900  1
  Y  Y6  1  0.50566500  0.01133000  0.98450200  1
  Y  Y7  1  0.50566500  0.49433500  0.98450200  1
  Y  Y8  1  0.49433500  0.98867000  0.48450200  1
  Y  Y9  1  0.98867000  0.49433500  0.98450200  1
  Y  Y10  1  0.49433500  0.50566500  0.48450200  1
  Y  Y11  1  0.01133000  0.50566500  0.48450200  1
  Tl  Tl12  1  0.66666700  0.33333300  0.73162000  1
  Tl  Tl13  1  0.33333300  0.66666700  0.23162000  1
  Tl  Tl14  1  0.00000000  0.00000000  0.99206100  1
  Tl  Tl15  1  0.00000000  0.00000000  0.49206100  1
  F  F16  1  0.18524700  0.37049300  0.54966900  1
  F  F17  1  0.18524700  0.81475300  0.54966900  1
  F  F18  1  0.81475300  0.62950700  0.04966900  1
  F  F19  1  0.62950700  0.81475300  0.54966900  1
  F  F20  1  0.81475300  0.18524700  0.04966900  1
  F  F21  1  0.37049300  0.18524700  0.04966900  1
  F  F22  1  0.66666700  0.33333300  0.94074000  1
  F  F23  1  0.33333300  0.66666700  0.44074000  1
  F  F24  1  0.66666700  0.33333300  0.27437700  1
  F  F25  1  0.33333300  0.66666700  0.77437700  1
  F  F26  1  0.77691100  0.55382200  0.52034300  1
  F  F27  1  0.77691100  0.22308900  0.52034300  1
  F  F28  1  0.22308900  0.44617800  0.02034200  1
  F  F29  1  0.44617800  0.22308900  0.52034300  1
  F  F30  1  0.22308900  0.77691100  0.02034200  1
  F  F31  1  0.55382200  0.77691100  0.02034200  1
  F  F32  1  0.89093100  0.78186100  0.69167900  1
  F  F33  1  0.89093100  0.10906900  0.69167900  1
  F  F34  1  0.10906900  0.21813900  0.19167900  1
  F  F35  1  0.21813900  0.10906900  0.69167900  1
  F  F36  1  0.10906900  0.89093100  0.19167900  1
  F  F37  1  0.78186100  0.89093100  0.19167900  1
  F  F38  1  0.65971000  0.66332600  0.85458400  1
  F  F39  1  0.00361600  0.34029000  0.85458400  1
  F  F40  1  0.34029000  0.33667400  0.35458400  1
  F  F41  1  0.00361600  0.66332600  0.85458400  1
  F  F42  1  0.33667400  0.99638400  0.85458400  1
  F  F43  1  0.99638400  0.65971000  0.35458400  1
  F  F44  1  0.33667400  0.34029000  0.85458400  1
  F  F45  1  0.99638400  0.33667400  0.35458400  1
  F  F46  1  0.66332600  0.00361600  0.35458400  1
  F  F47  1  0.66332600  0.65971000  0.35458400  1
  F  F48  1  0.65971000  0.99638400  0.85458400  1
  F  F49  1  0.34029000  0.00361600  0.35458400  1
  F  F50  1  0.47827400  0.95654700  0.65983600  1
  F  F51  1  0.47827400  0.52172600  0.65983600  1
  F  F52  1  0.52172600  0.04345300  0.15983600  1
  F  F53  1  0.04345300  0.52172600  0.65983600  1
  F  F54  1  0.52172600  0.47827400  0.15983600  1
  F  F55  1  0.95654700  0.47827400  0.15983600  1
