# generated using pymatgen
data_Cs2Hg(BSe)9
_symmetry_space_group_name_H-M   'P 1'
_cell_length_a   10.11274400
_cell_length_b   10.95044036
_cell_length_c   11.27099281
_cell_angle_alpha   100.09265820
_cell_angle_beta   90.47927536
_cell_angle_gamma   116.07080375
_symmetry_Int_Tables_number   1
_chemical_formula_structural   Cs2Hg(BSe)9
_chemical_formula_sum   'Cs4 Hg2 B18 Se18'
_cell_volume   1098.63722285
_cell_formula_units_Z   2
loop_
 _symmetry_equiv_pos_site_id
 _symmetry_equiv_pos_as_xyz
  1  'x, y, z'
loop_
 _atom_site_type_symbol
 _atom_site_label
 _atom_site_symmetry_multiplicity
 _atom_site_fract_x
 _atom_site_fract_y
 _atom_site_fract_z
 _atom_site_occupancy
  Cs  Cs0  1  0.20473600  0.82656700  0.99812000  1
  Cs  Cs1  1  0.79526400  0.17343300  0.00188000  1
  Cs  Cs2  1  0.82328900  0.65438100  0.48524300  1
  Cs  Cs3  1  0.17671100  0.34561900  0.51475700  1
  Hg  Hg4  1  0.67202000  0.67489200  0.92548000  1
  Hg  Hg5  1  0.32798000  0.32510800  0.07452000  1
  B  B6  1  0.48668900  0.83979500  0.45032100  1
  B  B7  1  0.51331100  0.16020500  0.54967900  1
  B  B8  1  0.34032600  0.88030300  0.41432000  1
  B  B9  1  0.65967400  0.11969700  0.58568000  1
  B  B10  1  0.51394300  0.95649300  0.35119500  1
  B  B11  1  0.48605700  0.04350700  0.64880500  1
  B  B12  1  0.66033700  0.99281800  0.46165100  1
  B  B13  1  0.33966300  0.00718200  0.53834900  1
  B  B14  1  0.57763600  0.93957000  0.59613600  1
  B  B15  1  0.42236400  0.06043000  0.40386400  1
  B  B16  1  0.38209300  0.87158400  0.56639100  1
  B  B17  1  0.61790700  0.12841600  0.43360900  1
  B  B18  1  0.25667500  0.58979100  0.28807100  1
  B  B19  1  0.74332500  0.41020900  0.71192900  1
  B  B20  1  0.43478100  0.72031600  0.74184700  1
  B  B21  1  0.56521900  0.27968400  0.25815300  1
  B  B22  1  0.74593800  0.90822500  0.22015000  1
  B  B23  1  0.25406200  0.09177500  0.77985000  1
  Se  Se24  1  0.44870200  0.64419300  0.37680200  1
  Se  Se25  1  0.55129800  0.35580700  0.62319800  1
  Se  Se26  1  0.16699900  0.72039900  0.30808900  1
  Se  Se27  1  0.83300100  0.27960100  0.69191100  1
  Se  Se28  1  0.55222700  0.89999600  0.17983300  1
  Se  Se29  1  0.44777300  0.10000400  0.82016700  1
  Se  Se30  1  0.83546200  0.97488200  0.39022800  1
  Se  Se31  1  0.16453800  0.02511800  0.60977200  1
  Se  Se32  1  0.63800600  0.84879700  0.71404100  1
  Se  Se33  1  0.36199400  0.15120300  0.28595900  1
  Se  Se34  1  0.26278700  0.72064600  0.65709800  1
  Se  Se35  1  0.73721300  0.27935400  0.34290200  1
  Se  Se36  1  0.14015800  0.40739100  0.18773400  1
  Se  Se37  1  0.85984200  0.59260900  0.81226600  1
  Se  Se38  1  0.86390200  0.86463900  0.10045000  1
  Se  Se39  1  0.13609800  0.13536100  0.89955000  1
  Se  Se40  1  0.39596300  0.59327300  0.85304100  1
  Se  Se41  1  0.60403700  0.40672700  0.14695900  1
