# generated using pymatgen
data_CsCoPO4
_symmetry_space_group_name_H-M   'P 1'
_cell_length_a   5.54570600
_cell_length_b   9.43670400
_cell_length_c   9.48641071
_cell_angle_alpha   89.82409734
_cell_angle_beta   90.00000000
_cell_angle_gamma   90.00000000
_symmetry_Int_Tables_number   1
_chemical_formula_structural   CsCoPO4
_chemical_formula_sum   'Cs4 Co4 P4 O16'
_cell_volume   496.45175628
_cell_formula_units_Z   4
loop_
 _symmetry_equiv_pos_site_id
 _symmetry_equiv_pos_as_xyz
  1  'x, y, z'
loop_
 _atom_site_type_symbol
 _atom_site_label
 _atom_site_symmetry_multiplicity
 _atom_site_fract_x
 _atom_site_fract_y
 _atom_site_fract_z
 _atom_site_occupancy
  Cs  Cs0  1  0.00151700  0.00068000  0.18944500  1
  Cs  Cs1  1  0.50151700  0.99932000  0.81055500  1
  Cs  Cs2  1  0.03137800  0.50679800  0.29397300  1
  Cs  Cs3  1  0.53137800  0.49320200  0.70602700  1
  Co  Co4  1  0.53061600  0.32490400  0.08094500  1
  Co  Co5  1  0.03061600  0.67509600  0.91905500  1
  Co  Co6  1  0.00113100  0.16526900  0.58865400  1
  Co  Co7  1  0.50113100  0.83473100  0.41134600  1
  P  P8  1  0.52759700  0.69238100  0.08479400  1
  P  P9  1  0.02759700  0.30761900  0.91520600  1
  P  P10  1  0.50183900  0.18908500  0.40400200  1
  P  P11  1  0.00183900  0.81091500  0.59599800  1
  O  O12  1  0.08016200  0.27588100  0.75842900  1
  O  O13  1  0.58016200  0.72411900  0.24157100  1
  O  O14  1  0.01951400  0.46865500  0.93780700  1
  O  O15  1  0.51951400  0.53134500  0.06219300  1
  O  O16  1  0.22901600  0.23967900  0.00857700  1
  O  O17  1  0.72901600  0.76032100  0.99142300  1
  O  O18  1  0.52255000  0.03392600  0.35075900  1
  O  O19  1  0.02255000  0.96607400  0.64924100  1
  O  O20  1  0.57823300  0.29038600  0.28271700  1
  O  O21  1  0.07823300  0.70961400  0.71728300  1
  O  O22  1  0.23689300  0.22472800  0.44455700  1
  O  O23  1  0.73689300  0.77527200  0.55544300  1
  O  O24  1  0.28123900  0.75981100  0.04029100  1
  O  O25  1  0.78123900  0.24018900  0.95970900  1
  O  O26  1  0.66931600  0.21657800  0.53267600  1
  O  O27  1  0.16931600  0.78342200  0.46732400  1
