# generated using pymatgen
data_KCr3S5
_symmetry_space_group_name_H-M   'P 1'
_cell_length_a   3.53431200
_cell_length_b   9.82796556
_cell_length_c   10.78059954
_cell_angle_alpha   72.34667077
_cell_angle_beta   80.56549851
_cell_angle_gamma   79.64136912
_symmetry_Int_Tables_number   1
_chemical_formula_structural   KCr3S5
_chemical_formula_sum   'K2 Cr6 S10'
_cell_volume   348.61696539
_cell_formula_units_Z   2
loop_
 _symmetry_equiv_pos_site_id
 _symmetry_equiv_pos_as_xyz
  1  'x, y, z'
loop_
 _atom_site_type_symbol
 _atom_site_label
 _atom_site_symmetry_multiplicity
 _atom_site_fract_x
 _atom_site_fract_y
 _atom_site_fract_z
 _atom_site_occupancy
  K  K0  1  0.74068200  0.34245100  0.17618500  1
  K  K1  1  0.25931800  0.65754900  0.82381500  1
  Cr  Cr2  1  0.50000000  0.00000000  0.00000000  1
  Cr  Cr3  1  0.50000000  0.50000000  0.50000000  1
  Cr  Cr4  1  0.83492700  0.94177700  0.38836900  1
  Cr  Cr5  1  0.16507300  0.05822300  0.61163100  1
  Cr  Cr6  1  0.01709100  0.73877200  0.22704600  1
  Cr  Cr7  1  0.98290900  0.26122800  0.77295400  1
  S  S8  1  0.92451900  0.99972600  0.15123600  1
  S  S9  1  0.07548100  0.00027400  0.84876400  1
  S  S10  1  0.59258300  0.73574300  0.07909100  1
  S  S11  1  0.40741700  0.26425700  0.92090900  1
  S  S12  1  0.42471700  0.75931400  0.39125100  1
  S  S13  1  0.57528300  0.24068600  0.60874900  1
  S  S14  1  0.25617200  0.10501700  0.38263900  1
  S  S15  1  0.74382800  0.89498300  0.61736100  1
  S  S16  1  0.07999900  0.49242400  0.34757800  1
  S  S17  1  0.92000100  0.50757600  0.65242200  1
