# generated using pymatgen
data_GdPO4
_symmetry_space_group_name_H-M   'P 1'
_cell_length_a   5.86437186
_cell_length_b   5.86437186
_cell_length_c   5.86437186
_cell_angle_alpha   105.86253272
_cell_angle_beta   105.86253272
_cell_angle_gamma   116.95814539
_symmetry_Int_Tables_number   1
_chemical_formula_structural   GdPO4
_chemical_formula_sum   'Gd2 P2 O8'
_cell_volume   153.24115979
_cell_formula_units_Z   2
loop_
 _symmetry_equiv_pos_site_id
 _symmetry_equiv_pos_as_xyz
  1  'x, y, z'
loop_
 _atom_site_type_symbol
 _atom_site_label
 _atom_site_symmetry_multiplicity
 _atom_site_fract_x
 _atom_site_fract_y
 _atom_site_fract_z
 _atom_site_occupancy
  Gd  Gd0  1  0.25000000  0.75000000  0.50000000  1
  Gd  Gd1  1  0.00000000  0.00000000  0.00000000  1
  P  P2  1  0.50000000  0.50000000  0.00000000  1
  P  P3  1  0.75000000  0.25000000  0.50000000  1
  O  O4  1  0.48563100  0.65809800  0.82753400  1
  O  O5  1  0.90809800  0.23563100  0.32753400  1
  O  O6  1  0.90809800  0.58056400  0.67246600  1
  O  O7  1  0.83056400  0.65809800  0.17246600  1
  O  O8  1  0.76436900  0.09190200  0.67246600  1
  O  O9  1  0.34190200  0.51436900  0.17246600  1
  O  O10  1  0.34190200  0.16943600  0.82753400  1
  O  O11  1  0.41943600  0.09190200  0.32753400  1
