# generated using pymatgen
data_Li3SmBi2
_symmetry_space_group_name_H-M   'P 1'
_cell_length_a   4.69186364
_cell_length_b   4.69186364
_cell_length_c   7.40065300
_cell_angle_alpha   90.00000000
_cell_angle_beta   90.00000000
_cell_angle_gamma   119.99999493
_symmetry_Int_Tables_number   1
_chemical_formula_structural   Li3SmBi2
_chemical_formula_sum   'Li3 Sm1 Bi2'
_cell_volume   141.08844890
_cell_formula_units_Z   1
loop_
 _symmetry_equiv_pos_site_id
 _symmetry_equiv_pos_as_xyz
  1  'x, y, z'
loop_
 _atom_site_type_symbol
 _atom_site_label
 _atom_site_symmetry_multiplicity
 _atom_site_fract_x
 _atom_site_fract_y
 _atom_site_fract_z
 _atom_site_occupancy
  Li  Li0  1  0.66666700  0.33333300  0.65056000  1
  Li  Li1  1  0.33333300  0.66666700  0.34944000  1
  Li  Li2  1  0.00000000  0.00000000  0.50000000  1
  Sm  Sm3  1  0.00000000  0.00000000  0.00000000  1
  Bi  Bi4  1  0.66666700  0.33333300  0.25093200  1
  Bi  Bi5  1  0.33333300  0.66666700  0.74906800  1
