# generated using pymatgen
data_NaV(SiO3)2
_symmetry_space_group_name_H-M   'P 1'
_cell_length_a   5.38220427
_cell_length_b   6.61021583
_cell_length_c   13.14545929
_cell_angle_alpha   89.31790402
_cell_angle_beta   101.00546001
_cell_angle_gamma   77.45706064
_symmetry_Int_Tables_number   1
_chemical_formula_structural   NaV(SiO3)2
_chemical_formula_sum   'Na4 V4 Si8 O24'
_cell_volume   447.42967848
_cell_formula_units_Z   4
loop_
 _symmetry_equiv_pos_site_id
 _symmetry_equiv_pos_as_xyz
  1  'x, y, z'
loop_
 _atom_site_type_symbol
 _atom_site_label
 _atom_site_symmetry_multiplicity
 _atom_site_fract_x
 _atom_site_fract_y
 _atom_site_fract_z
 _atom_site_occupancy
  Na  Na0  1  0.10015400  0.29908800  0.35041300  1
  Na  Na1  1  0.60040500  0.29898600  0.85046400  1
  Na  Na2  1  0.39982400  0.70087000  0.14957300  1
  Na  Na3  1  0.89957300  0.70098100  0.64952200  1
  V  V4  1  0.29719700  0.90568600  0.54717700  1
  V  V5  1  0.20283200  0.09428200  0.95282700  1
  V  V6  1  0.79740800  0.90537700  0.04724000  1
  V  V7  1  0.70263500  0.09471600  0.45277600  1
  Si  Si8  1  0.44787400  0.20166800  0.19093300  1
  Si  Si9  1  0.94793600  0.20176300  0.69093000  1
  Si  Si10  1  0.85791900  0.38179200  0.10092200  1
  Si  Si11  1  0.35786000  0.38198600  0.60085900  1
  Si  Si12  1  0.64205900  0.61829500  0.39906900  1
  Si  Si13  1  0.14213000  0.61798800  0.89914500  1
  Si  Si14  1  0.05211800  0.79832400  0.30906400  1
  Si  Si15  1  0.55206600  0.79820900  0.80907700  1
  O  O16  1  0.05000000  0.96342000  0.40170500  1
  O  O17  1  0.55011400  0.96333600  0.90183000  1
  O  O18  1  0.45000800  0.03655000  0.09829700  1
  O  O19  1  0.94988700  0.03664000  0.59817600  1
  O  O20  1  0.62988400  0.80363500  0.48161300  1
  O  O21  1  0.13019600  0.80338100  0.98178800  1
  O  O22  1  0.87011700  0.19643200  0.01838600  1
  O  O23  1  0.36980400  0.19662400  0.51820700  1
  O  O24  1  0.74722500  0.61767000  0.05389800  1
  O  O25  1  0.24732400  0.61788400  0.55380700  1
  O  O26  1  0.75280300  0.38241200  0.44610200  1
  O  O27  1  0.25267300  0.38208200  0.94618900  1
  O  O28  1  0.99819700  0.89246200  0.19112600  1
  O  O29  1  0.49760700  0.89244000  0.69114400  1
  O  O30  1  0.50180300  0.10757300  0.30888100  1
  O  O31  1  0.00240000  0.10754400  0.80886200  1
  O  O32  1  0.15313100  0.35810600  0.17232300  1
  O  O33  1  0.65297800  0.35792600  0.67238400  1
  O  O34  1  0.84039000  0.65526200  0.32093600  1
  O  O35  1  0.34039400  0.65518800  0.82105400  1
  O  O36  1  0.65961500  0.34473100  0.17905400  1
  O  O37  1  0.15959300  0.34478800  0.67894700  1
  O  O38  1  0.34684900  0.64186800  0.32767900  1
  O  O39  1  0.84701800  0.64203400  0.82761700  1
