# generated using pymatgen
data_LaV2IO9
_symmetry_space_group_name_H-M   'P 1'
_cell_length_a   7.17842500
_cell_length_b   7.36772400
_cell_length_c   14.87552900
_cell_angle_alpha   90.00000000
_cell_angle_beta   90.00000000
_cell_angle_gamma   90.00000000
_symmetry_Int_Tables_number   1
_chemical_formula_structural   LaV2IO9
_chemical_formula_sum   'La4 V8 I4 O36'
_cell_volume   786.74670865
_cell_formula_units_Z   4
loop_
 _symmetry_equiv_pos_site_id
 _symmetry_equiv_pos_as_xyz
  1  'x, y, z'
loop_
 _atom_site_type_symbol
 _atom_site_label
 _atom_site_symmetry_multiplicity
 _atom_site_fract_x
 _atom_site_fract_y
 _atom_site_fract_z
 _atom_site_occupancy
  La  La0  1  0.15180600  0.25000000  0.04986900  1
  La  La1  1  0.84819400  0.75000000  0.95013100  1
  La  La2  1  0.15180600  0.75000000  0.45013100  1
  La  La3  1  0.84819400  0.25000000  0.54986900  1
  V  V4  1  0.46817400  0.00000000  0.25000000  1
  V  V5  1  0.53182600  0.50000000  0.75000000  1
  V  V6  1  0.53182600  0.00000000  0.75000000  1
  V  V7  1  0.46817400  0.50000000  0.25000000  1
  V  V8  1  0.81790400  0.25000000  0.27095200  1
  V  V9  1  0.18209600  0.75000000  0.72904800  1
  V  V10  1  0.81790400  0.75000000  0.22904800  1
  V  V11  1  0.18209600  0.25000000  0.77095200  1
  I  I12  1  0.70175400  0.25000000  0.94258600  1
  I  I13  1  0.29824600  0.75000000  0.05741400  1
  I  I14  1  0.70175400  0.75000000  0.55741400  1
  I  I15  1  0.29824600  0.25000000  0.44258600  1
  O  O16  1  0.82560600  0.07111800  0.00632900  1
  O  O17  1  0.17439400  0.57111800  0.99367100  1
  O  O18  1  0.82560600  0.92888200  0.49367100  1
  O  O19  1  0.17439400  0.42888200  0.50632900  1
  O  O20  1  0.17439400  0.92888200  0.99367100  1
  O  O21  1  0.82560600  0.42888200  0.00632900  1
  O  O22  1  0.17439400  0.07111800  0.50632900  1
  O  O23  1  0.82560600  0.57111800  0.49367100  1
  O  O24  1  0.47718800  0.25000000  0.99802200  1
  O  O25  1  0.52281200  0.75000000  0.00197800  1
  O  O26  1  0.47718800  0.75000000  0.50197800  1
  O  O27  1  0.52281200  0.25000000  0.49802200  1
  O  O28  1  0.33509900  0.04274000  0.15837400  1
  O  O29  1  0.66490100  0.54274000  0.84162600  1
  O  O30  1  0.33509900  0.95726000  0.34162600  1
  O  O31  1  0.66490100  0.45726000  0.65837400  1
  O  O32  1  0.66490100  0.95726000  0.84162600  1
  O  O33  1  0.33509900  0.45726000  0.15837400  1
  O  O34  1  0.66490100  0.04274000  0.65837400  1
  O  O35  1  0.33509900  0.54274000  0.34162600  1
  O  O36  1  0.53339500  0.25000000  0.27810900  1
  O  O37  1  0.46660500  0.75000000  0.72189100  1
  O  O38  1  0.53339500  0.75000000  0.22189100  1
  O  O39  1  0.46660500  0.25000000  0.77810900  1
  O  O40  1  0.74003500  0.00000000  0.25000000  1
  O  O41  1  0.25996500  0.50000000  0.75000000  1
  O  O42  1  0.25996500  0.00000000  0.75000000  1
  O  O43  1  0.74003500  0.50000000  0.25000000  1
  O  O44  1  0.98730200  0.25000000  0.19323300  1
  O  O45  1  0.01269800  0.75000000  0.80676700  1
  O  O46  1  0.98730200  0.75000000  0.30676700  1
  O  O47  1  0.01269800  0.25000000  0.69323300  1
  O  O48  1  0.08672900  0.25000000  0.87392800  1
  O  O49  1  0.91327100  0.75000000  0.12607200  1
  O  O50  1  0.08672900  0.75000000  0.62607200  1
  O  O51  1  0.91327100  0.25000000  0.37392800  1
