# generated using pymatgen
data_CsV3(SeO6)2
_symmetry_space_group_name_H-M   'P 1'
_cell_length_a   7.19180403
_cell_length_b   7.19180403
_cell_length_c   12.29113500
_cell_angle_alpha   90.00000000
_cell_angle_beta   90.00000000
_cell_angle_gamma   120.00000029
_symmetry_Int_Tables_number   1
_chemical_formula_structural   CsV3(SeO6)2
_chemical_formula_sum   'Cs2 V6 Se4 O24'
_cell_volume   550.55195476
_cell_formula_units_Z   2
loop_
 _symmetry_equiv_pos_site_id
 _symmetry_equiv_pos_as_xyz
  1  'x, y, z'
loop_
 _atom_site_type_symbol
 _atom_site_label
 _atom_site_symmetry_multiplicity
 _atom_site_fract_x
 _atom_site_fract_y
 _atom_site_fract_z
 _atom_site_occupancy
  Cs  Cs0  1  0.66666700  0.33333300  0.47207300  1
  Cs  Cs1  1  0.33333300  0.66666700  0.97207300  1
  V  V2  1  0.87323900  0.66716100  0.79428000  1
  V  V3  1  0.79392300  0.12676100  0.79428000  1
  V  V4  1  0.66716100  0.79392300  0.29428000  1
  V  V5  1  0.12676100  0.33283900  0.29428000  1
  V  V6  1  0.33283900  0.20607700  0.79428000  1
  V  V7  1  0.20607700  0.87323900  0.29428000  1
  Se  Se8  1  0.00000000  0.00000000  0.58277000  1
  Se  Se9  1  0.66666700  0.33333300  0.00880800  1
  Se  Se10  1  0.33333300  0.66666700  0.50880800  1
  Se  Se11  1  0.00000000  0.00000000  0.08277000  1
  O  O12  1  0.24943100  0.12340400  0.32336600  1
  O  O13  1  0.12602700  0.24943100  0.82336600  1
  O  O14  1  0.12340400  0.87397300  0.82336600  1
  O  O15  1  0.87659600  0.12602700  0.32336600  1
  O  O16  1  0.87397300  0.75056900  0.32336600  1
  O  O17  1  0.75056900  0.87659600  0.82336600  1
  O  O18  1  0.45735000  0.91640700  0.27043500  1
  O  O19  1  0.54094300  0.45735000  0.77043500  1
  O  O20  1  0.91640700  0.45905700  0.77043500  1
  O  O21  1  0.08359300  0.54094300  0.27043500  1
  O  O22  1  0.45905700  0.54265000  0.27043500  1
  O  O23  1  0.54265000  0.08359300  0.77043500  1
  O  O24  1  0.79886400  0.21173300  0.95063500  1
  O  O25  1  0.58713100  0.79886400  0.45063500  1
  O  O26  1  0.21173300  0.41286900  0.45063500  1
  O  O27  1  0.78826700  0.58713100  0.95063500  1
  O  O28  1  0.41286900  0.20113600  0.95063500  1
  O  O29  1  0.20113600  0.78826700  0.45063500  1
  O  O30  1  0.87835100  0.13164800  0.64259500  1
  O  O31  1  0.74670300  0.87835100  0.14259500  1
  O  O32  1  0.13164800  0.25329700  0.14259500  1
  O  O33  1  0.86835200  0.74670300  0.64259500  1
  O  O34  1  0.25329700  0.12164900  0.64259500  1
  O  O35  1  0.12164900  0.86835200  0.14259500  1
