# generated using pymatgen
data_Sm4CdPt
_symmetry_space_group_name_H-M   'P 1'
_cell_length_a   9.91807346
_cell_length_b   9.91807346
_cell_length_c   9.91807346
_cell_angle_alpha   60.00000000
_cell_angle_beta   60.00000000
_cell_angle_gamma   60.00000000
_symmetry_Int_Tables_number   1
_chemical_formula_structural   Sm4CdPt
_chemical_formula_sum   'Sm16 Cd4 Pt4'
_cell_volume   689.86953093
_cell_formula_units_Z   4
loop_
 _symmetry_equiv_pos_site_id
 _symmetry_equiv_pos_as_xyz
  1  'x, y, z'
loop_
 _atom_site_type_symbol
 _atom_site_label
 _atom_site_symmetry_multiplicity
 _atom_site_fract_x
 _atom_site_fract_y
 _atom_site_fract_z
 _atom_site_occupancy
  Sm  Sm0  1  0.35000200  0.35000200  0.35000200  1
  Sm  Sm1  1  0.35000200  0.35000200  0.94999400  1
  Sm  Sm2  1  0.35000200  0.94999400  0.35000200  1
  Sm  Sm3  1  0.94999400  0.35000200  0.35000200  1
  Sm  Sm4  1  0.80922500  0.19077500  0.19077500  1
  Sm  Sm5  1  0.19077500  0.80922500  0.80922500  1
  Sm  Sm6  1  0.19077500  0.80922500  0.19077500  1
  Sm  Sm7  1  0.80922500  0.19077500  0.80922500  1
  Sm  Sm8  1  0.19077500  0.19077500  0.80922500  1
  Sm  Sm9  1  0.80922500  0.80922500  0.19077500  1
  Sm  Sm10  1  0.93504100  0.56495900  0.56495900  1
  Sm  Sm11  1  0.56495900  0.93504100  0.93504100  1
  Sm  Sm12  1  0.56495900  0.93504100  0.56495900  1
  Sm  Sm13  1  0.93504100  0.56495900  0.93504100  1
  Sm  Sm14  1  0.56495900  0.56495900  0.93504100  1
  Sm  Sm15  1  0.93504100  0.93504100  0.56495900  1
  Cd  Cd16  1  0.58134600  0.58134600  0.58134600  1
  Cd  Cd17  1  0.58134600  0.58134600  0.25596100  1
  Cd  Cd18  1  0.58134600  0.25596100  0.58134600  1
  Cd  Cd19  1  0.25596100  0.58134600  0.58134600  1
  Pt  Pt20  1  0.14244500  0.14244500  0.14244500  1
  Pt  Pt21  1  0.14244500  0.14244500  0.57266400  1
  Pt  Pt22  1  0.14244500  0.57266400  0.14244500  1
  Pt  Pt23  1  0.57266400  0.14244500  0.14244500  1
