# generated using pymatgen
data_ErPtF7
_symmetry_space_group_name_H-M   'P 1'
_cell_length_a   5.51558000
_cell_length_b   8.81852200
_cell_length_c   11.92920109
_cell_angle_alpha   62.57440702
_cell_angle_beta   90.00000000
_cell_angle_gamma   90.00000000
_symmetry_Int_Tables_number   1
_chemical_formula_structural   ErPtF7
_chemical_formula_sum   'Er4 Pt4 F28'
_cell_volume   515.01562636
_cell_formula_units_Z   4
loop_
 _symmetry_equiv_pos_site_id
 _symmetry_equiv_pos_as_xyz
  1  'x, y, z'
loop_
 _atom_site_type_symbol
 _atom_site_label
 _atom_site_symmetry_multiplicity
 _atom_site_fract_x
 _atom_site_fract_y
 _atom_site_fract_z
 _atom_site_occupancy
  Er  Er0  1  0.76120400  0.81444300  0.76424700  1
  Er  Er1  1  0.26120400  0.18555700  0.73575300  1
  Er  Er2  1  0.23879600  0.18555700  0.23575300  1
  Er  Er3  1  0.73879600  0.81444300  0.26424700  1
  Pt  Pt4  1  0.75945600  0.27217800  0.95692800  1
  Pt  Pt5  1  0.25945600  0.72782200  0.54307200  1
  Pt  Pt6  1  0.24054400  0.72782200  0.04307200  1
  Pt  Pt7  1  0.74054400  0.27217800  0.45692800  1
  F  F8  1  0.43662300  0.70267500  0.91503900  1
  F  F9  1  0.93662300  0.29732500  0.58496100  1
  F  F10  1  0.56337700  0.29732500  0.08496100  1
  F  F11  1  0.06337700  0.70267500  0.41503900  1
  F  F12  1  0.43744600  0.27636700  0.54340800  1
  F  F13  1  0.93744600  0.72363300  0.95659200  1
  F  F14  1  0.56255400  0.72363300  0.45659200  1
  F  F15  1  0.06255400  0.27636700  0.04340800  1
  F  F16  1  0.77707100  0.52287900  0.85830800  1
  F  F17  1  0.27707100  0.47712100  0.64169200  1
  F  F18  1  0.22292900  0.47712100  0.14169200  1
  F  F19  1  0.72292900  0.52287900  0.35830800  1
  F  F20  1  0.75335500  0.02171100  0.05074600  1
  F  F21  1  0.25335500  0.97828900  0.44925400  1
  F  F22  1  0.24664500  0.97828900  0.94925400  1
  F  F23  1  0.74664500  0.02171100  0.55074600  1
  F  F24  1  0.96501900  0.72434700  0.63719700  1
  F  F25  1  0.46501900  0.27565300  0.86280300  1
  F  F26  1  0.03498100  0.27565300  0.36280300  1
  F  F27  1  0.53498100  0.72434700  0.13719700  1
  F  F28  1  0.05046600  0.74639600  0.17627100  1
  F  F29  1  0.55046600  0.25360400  0.32372900  1
  F  F30  1  0.94953400  0.25360400  0.82372900  1
  F  F31  1  0.44953400  0.74639600  0.67627100  1
  F  F32  1  0.41650500  0.97044000  0.23285200  1
  F  F33  1  0.91650500  0.02956000  0.26714800  1
  F  F34  1  0.58349500  0.02956000  0.76714800  1
  F  F35  1  0.08349500  0.97044000  0.73285200  1
