# generated using pymatgen
data_KNaAs6(PbO3)8
_symmetry_space_group_name_H-M   'P 1'
_cell_length_a   10.29615183
_cell_length_b   10.29615183
_cell_length_c   7.50433600
_cell_angle_alpha   90.00000000
_cell_angle_beta   90.00000000
_cell_angle_gamma   119.99999892
_symmetry_Int_Tables_number   1
_chemical_formula_structural   KNaAs6(PbO3)8
_chemical_formula_sum   'K1 Na1 As6 Pb8 O24'
_cell_volume   688.95805793
_cell_formula_units_Z   1
loop_
 _symmetry_equiv_pos_site_id
 _symmetry_equiv_pos_as_xyz
  1  'x, y, z'
loop_
 _atom_site_type_symbol
 _atom_site_label
 _atom_site_symmetry_multiplicity
 _atom_site_fract_x
 _atom_site_fract_y
 _atom_site_fract_z
 _atom_site_occupancy
  K  K0  1  0.00000000  0.00000000  0.51416000  1
  Na  Na1  1  0.66666700  0.33333300  0.99236600  1
  As  As2  1  0.93984000  0.29257200  0.24459700  1
  As  As3  1  0.70742800  0.64726900  0.24459700  1
  As  As4  1  0.35273100  0.06016000  0.24459700  1
  As  As5  1  0.72466600  0.04353700  0.75006300  1
  As  As6  1  0.95646300  0.68112900  0.75006300  1
  As  As7  1  0.31887100  0.27533400  0.75006300  1
  Pb  Pb8  1  0.33299100  0.92553300  0.75155200  1
  Pb  Pb9  1  0.07446700  0.40745800  0.75155200  1
  Pb  Pb10  1  0.59254200  0.66700900  0.75155200  1
  Pb  Pb11  1  0.33543300  0.40777800  0.24913300  1
  Pb  Pb12  1  0.59222200  0.92765500  0.24913300  1
  Pb  Pb13  1  0.07234500  0.66456700  0.24913300  1
  Pb  Pb14  1  0.00000000  0.00000000  0.01727200  1
  Pb  Pb15  1  0.66666700  0.33333300  0.51591800  1
  O  O16  1  0.81309500  0.83975500  0.23968600  1
  O  O17  1  0.16024500  0.97333900  0.23968600  1
  O  O18  1  0.02666100  0.18690500  0.23968600  1
  O  O19  1  0.84837100  0.48819900  0.75095000  1
  O  O20  1  0.51180100  0.36017200  0.75095000  1
  O  O21  1  0.63982800  0.15162900  0.75095000  1
  O  O22  1  0.07603200  0.74897200  0.57051600  1
  O  O23  1  0.25102800  0.32706000  0.57051600  1
  O  O24  1  0.67294000  0.92396800  0.57051600  1
  O  O25  1  0.58467800  0.57713400  0.06783300  1
  O  O26  1  0.42286600  0.00754400  0.06783300  1
  O  O27  1  0.99245600  0.41532200  0.06783300  1
  O  O28  1  0.59357900  0.58023800  0.43032600  1
  O  O29  1  0.41976200  0.01334100  0.43032600  1
  O  O30  1  0.98665900  0.40642100  0.43032600  1
  O  O31  1  0.07441300  0.75254400  0.93175800  1
  O  O32  1  0.24745600  0.32186900  0.93175800  1
  O  O33  1  0.67813100  0.92558700  0.93175800  1
  O  O34  1  0.74519400  0.18184700  0.24601500  1
  O  O35  1  0.81815300  0.56334700  0.24601500  1
  O  O36  1  0.43665300  0.25480600  0.24601500  1
  O  O37  1  0.91913800  0.15543800  0.75432200  1
  O  O38  1  0.84456200  0.76370000  0.75432200  1
  O  O39  1  0.23630000  0.08086200  0.75432200  1
