# generated using pymatgen
data_AlP2H12N3O8
_symmetry_space_group_name_H-M   'P 1'
_cell_length_a   10.14454700
_cell_length_b   9.13141600
_cell_length_c   14.34985236
_cell_angle_alpha   51.03996396
_cell_angle_beta   90.00000000
_cell_angle_gamma   90.00000000
_symmetry_Int_Tables_number   1
_chemical_formula_structural   AlP2H12N3O8
_chemical_formula_sum   'Al4 P8 H48 N12 O32'
_cell_volume   1033.63198642
_cell_formula_units_Z   4
loop_
 _symmetry_equiv_pos_site_id
 _symmetry_equiv_pos_as_xyz
  1  'x, y, z'
loop_
 _atom_site_type_symbol
 _atom_site_label
 _atom_site_symmetry_multiplicity
 _atom_site_fract_x
 _atom_site_fract_y
 _atom_site_fract_z
 _atom_site_occupancy
  Al  Al0  1  0.42415300  0.98385000  0.65066200  1
  Al  Al1  1  0.57584700  0.01615000  0.34933800  1
  Al  Al2  1  0.92415300  0.01615000  0.84933800  1
  Al  Al3  1  0.07584700  0.98385000  0.15066200  1
  P  P4  1  0.63944100  0.89050700  0.84408800  1
  P  P5  1  0.36055900  0.10949300  0.15591200  1
  P  P6  1  0.13944100  0.10949300  0.65591200  1
  P  P7  1  0.86055900  0.89050700  0.34408800  1
  P  P8  1  0.44546200  0.71355300  0.59107600  1
  P  P9  1  0.55453800  0.28644700  0.40892400  1
  P  P10  1  0.94546200  0.28644700  0.90892400  1
  P  P11  1  0.05453800  0.71355300  0.09107600  1
  H  H12  1  0.85669400  0.87101800  0.55691800  1
  H  H13  1  0.14330600  0.12898200  0.44308200  1
  H  H14  1  0.35669400  0.12898200  0.94308200  1
  H  H15  1  0.64330600  0.87101800  0.05691800  1
  H  H16  1  0.01827600  0.68286700  0.54998300  1
  H  H17  1  0.98172400  0.31713300  0.45001700  1
  H  H18  1  0.51827600  0.31713300  0.95001700  1
  H  H19  1  0.48172400  0.68286700  0.04998300  1
  H  H20  1  0.23218000  0.46626000  0.98441300  1
  H  H21  1  0.76782000  0.53374000  0.01558700  1
  H  H22  1  0.73218000  0.53374000  0.51558700  1
  H  H23  1  0.26782000  0.46626000  0.48441300  1
  H  H24  1  0.83346800  0.76131100  0.70690200  1
  H  H25  1  0.16653200  0.23868900  0.29309800  1
  H  H26  1  0.33346800  0.23868900  0.79309800  1
  H  H27  1  0.66653200  0.76131100  0.20690200  1
  H  H28  1  0.05152900  0.55114500  0.69887200  1
  H  H29  1  0.94847100  0.44885500  0.30112800  1
  H  H30  1  0.55152900  0.44885500  0.80112800  1
  H  H31  1  0.44847100  0.55114500  0.19887200  1
  H  H32  1  0.76275200  0.97733600  0.59722500  1
  H  H33  1  0.23724800  0.02266400  0.40277500  1
  H  H34  1  0.26275200  0.02266400  0.90277500  1
  H  H35  1  0.73724800  0.97733600  0.09722500  1
  H  H36  1  0.09880500  0.46876800  0.62385100  1
  H  H37  1  0.90119500  0.53123200  0.37614900  1
  H  H38  1  0.59880500  0.53123200  0.87614900  1
  H  H39  1  0.40119500  0.46876800  0.12385100  1
  H  H40  1  0.24147100  0.66677400  0.83752100  1
  H  H41  1  0.75852900  0.33322600  0.16247900  1
  H  H42  1  0.74147100  0.33322600  0.66247900  1
  H  H43  1  0.25852900  0.66677400  0.33752100  1
  H  H44  1  0.17762500  0.65802600  0.59175900  1
  H  H45  1  0.82237500  0.34197400  0.40824100  1
  H  H46  1  0.67762500  0.34197400  0.90824100  1
  H  H47  1  0.32237500  0.65802600  0.09175900  1
  H  H48  1  0.09632500  0.55245300  0.88800600  1
  H  H49  1  0.90367500  0.44754700  0.11199400  1
  H  H50  1  0.59632500  0.44754700  0.61199400  1
  H  H51  1  0.40367500  0.55245300  0.38800600  1
  H  H52  1  0.92806100  0.95816700  0.61765800  1
  H  H53  1  0.07193900  0.04183300  0.38234200  1
  H  H54  1  0.42806100  0.04183300  0.88234200  1
  H  H55  1  0.57193900  0.95816700  0.11765800  1
  H  H56  1  0.16275000  0.67136300  0.93672200  1
  H  H57  1  0.83725000  0.32863700  0.06327800  1
  H  H58  1  0.66275000  0.32863700  0.56327800  1
  H  H59  1  0.33725000  0.67136300  0.43672200  1
  N  N60  1  0.18224900  0.58773700  0.91188900  1
  N  N61  1  0.81775100  0.41226300  0.08811100  1
  N  N62  1  0.68224900  0.41226300  0.58811100  1
  N  N63  1  0.31775100  0.58773700  0.41188900  1
  N  N64  1  0.84283200  0.88848700  0.62231000  1
  N  N65  1  0.15716800  0.11151300  0.37769000  1
  N  N66  1  0.34283200  0.11151300  0.87769000  1
  N  N67  1  0.65716800  0.88848700  0.12231000  1
  N  N68  1  0.08566000  0.58856700  0.61748300  1
  N  N69  1  0.91434000  0.41143300  0.38251700  1
  N  N70  1  0.58566000  0.41143300  0.88251700  1
  N  N71  1  0.41434000  0.58856700  0.11748300  1
  O  O72  1  0.44000300  0.77043000  0.67432900  1
  O  O73  1  0.55999700  0.22957000  0.32567100  1
  O  O74  1  0.94000300  0.22957000  0.82567100  1
  O  O75  1  0.05999700  0.77043000  0.17432900  1
  O  O76  1  0.04504300  0.00545000  0.76687600  1
  O  O77  1  0.95495700  0.99455000  0.23312400  1
  O  O78  1  0.54504300  0.99455000  0.73312400  1
  O  O79  1  0.45495700  0.00545000  0.26687600  1
  O  O80  1  0.31855100  0.77477500  0.51679900  1
  O  O81  1  0.68144900  0.22522500  0.48320100  1
  O  O82  1  0.81855100  0.22522500  0.98320100  1
  O  O83  1  0.18144900  0.77477500  0.01679900  1
  O  O84  1  0.47372300  0.50189500  0.67027900  1
  O  O85  1  0.52627700  0.49810500  0.32972100  1
  O  O86  1  0.97372300  0.49810500  0.82972100  1
  O  O87  1  0.02627700  0.50189500  0.17027900  1
  O  O88  1  0.26669600  0.98190900  0.70333900  1
  O  O89  1  0.73330400  0.01809100  0.29666100  1
  O  O90  1  0.76669600  0.01809100  0.79666100  1
  O  O91  1  0.23330400  0.98190900  0.20333900  1
  O  O92  1  0.07232400  0.10895000  0.55962600  1
  O  O93  1  0.92767600  0.89105000  0.44037400  1
  O  O94  1  0.57232400  0.89105000  0.94037400  1
  O  O95  1  0.42767600  0.10895000  0.05962600  1
  O  O96  1  0.17410100  0.30630100  0.61162000  1
  O  O97  1  0.82589900  0.69369900  0.38838000  1
  O  O98  1  0.67410100  0.69369900  0.88838000  1
  O  O99  1  0.32589900  0.30630100  0.11162000  1
  O  O100  1  0.93465500  0.82241200  0.00266500  1
  O  O101  1  0.06534500  0.17758800  0.99733500  1
  O  O102  1  0.43465500  0.17758800  0.49733500  1
  O  O103  1  0.56534500  0.82241200  0.50266500  1
