# generated using pymatgen
data_TmAgGe
_symmetry_space_group_name_H-M   'P 1'
_cell_length_a   7.12780457
_cell_length_b   7.12780457
_cell_length_c   4.17589600
_cell_angle_alpha   90.00000000
_cell_angle_beta   90.00000000
_cell_angle_gamma   120.00000533
_symmetry_Int_Tables_number   1
_chemical_formula_structural   TmAgGe
_chemical_formula_sum   'Tm3 Ag3 Ge3'
_cell_volume   183.73498168
_cell_formula_units_Z   3
loop_
 _symmetry_equiv_pos_site_id
 _symmetry_equiv_pos_as_xyz
  1  'x, y, z'
loop_
 _atom_site_type_symbol
 _atom_site_label
 _atom_site_symmetry_multiplicity
 _atom_site_fract_x
 _atom_site_fract_y
 _atom_site_fract_z
 _atom_site_occupancy
  Tm  Tm0  1  0.41714500  0.41714500  0.50000000  1
  Tm  Tm1  1  0.58285500  0.00000000  0.50000000  1
  Tm  Tm2  1  0.00000000  0.58285500  0.50000000  1
  Ag  Ag3  1  0.74845700  0.74845700  0.00000000  1
  Ag  Ag4  1  0.25154300  0.00000000  0.00000000  1
  Ag  Ag5  1  0.00000000  0.25154300  0.00000000  1
  Ge  Ge6  1  0.66666700  0.33333300  0.00000000  1
  Ge  Ge7  1  0.33333300  0.66666700  0.00000000  1
  Ge  Ge8  1  0.00000000  0.00000000  0.50000000  1
