# generated using pymatgen
data_NaMnCrF6
_symmetry_space_group_name_H-M   'P 1'
_cell_length_a   9.16243434
_cell_length_b   9.16243434
_cell_length_c   5.09068600
_cell_angle_alpha   90.00000000
_cell_angle_beta   90.00000000
_cell_angle_gamma   120.00000247
_symmetry_Int_Tables_number   1
_chemical_formula_structural   NaMnCrF6
_chemical_formula_sum   'Na3 Mn3 Cr3 F18'
_cell_volume   370.10817841
_cell_formula_units_Z   3
loop_
 _symmetry_equiv_pos_site_id
 _symmetry_equiv_pos_as_xyz
  1  'x, y, z'
loop_
 _atom_site_type_symbol
 _atom_site_label
 _atom_site_symmetry_multiplicity
 _atom_site_fract_x
 _atom_site_fract_y
 _atom_site_fract_z
 _atom_site_occupancy
  Na  Na0  1  0.37018000  0.00000000  0.00000000  1
  Na  Na1  1  0.00000000  0.37018000  0.00000000  1
  Na  Na2  1  0.62982000  0.62982000  0.00000000  1
  Mn  Mn3  1  0.70080300  0.00000000  0.50000000  1
  Mn  Mn4  1  0.29919700  0.29919700  0.50000000  1
  Mn  Mn5  1  0.00000000  0.70080300  0.50000000  1
  Cr  Cr6  1  0.33333300  0.66666700  0.49617800  1
  Cr  Cr7  1  0.66666700  0.33333300  0.50382200  1
  Cr  Cr8  1  0.00000000  0.00000000  0.00000000  1
  F  F9  1  0.77478400  0.23370000  0.29522400  1
  F  F10  1  0.76630000  0.54108400  0.29522400  1
  F  F11  1  0.45891600  0.22521600  0.29522400  1
  F  F12  1  0.54108400  0.76630000  0.70477600  1
  F  F13  1  0.22521600  0.45891600  0.70477600  1
  F  F14  1  0.23370000  0.77478400  0.70477600  1
  F  F15  1  0.40817200  0.53824700  0.28601900  1
  F  F16  1  0.46175300  0.86992600  0.28601900  1
  F  F17  1  0.13007400  0.59182800  0.28601900  1
  F  F18  1  0.90012400  0.10110300  0.77874700  1
  F  F19  1  0.89889700  0.79902100  0.77874700  1
  F  F20  1  0.20097900  0.09987600  0.77874700  1
  F  F21  1  0.79902100  0.89889700  0.22125300  1
  F  F22  1  0.09987600  0.20097900  0.22125300  1
  F  F23  1  0.10110300  0.90012400  0.22125300  1
  F  F24  1  0.53824700  0.40817200  0.71398100  1
  F  F25  1  0.59182800  0.13007400  0.71398100  1
  F  F26  1  0.86992600  0.46175300  0.71398100  1
