# generated using pymatgen
data_Cs(Nb2Cl5)3
_symmetry_space_group_name_H-M   'P 1'
_cell_length_a   9.59071800
_cell_length_b   13.86203400
_cell_length_c   18.30874200
_cell_angle_alpha   90.00000000
_cell_angle_beta   90.00000000
_cell_angle_gamma   90.00000000
_symmetry_Int_Tables_number   1
_chemical_formula_structural   Cs(Nb2Cl5)3
_chemical_formula_sum   'Cs4 Nb24 Cl60'
_cell_volume   2434.08974115
_cell_formula_units_Z   4
loop_
 _symmetry_equiv_pos_site_id
 _symmetry_equiv_pos_as_xyz
  1  'x, y, z'
loop_
 _atom_site_type_symbol
 _atom_site_label
 _atom_site_symmetry_multiplicity
 _atom_site_fract_x
 _atom_site_fract_y
 _atom_site_fract_z
 _atom_site_occupancy
  Cs  Cs0  1  0.81576700  0.25390000  0.75000000  1
  Cs  Cs1  1  0.18423300  0.74610000  0.25000000  1
  Cs  Cs2  1  0.81576700  0.74610000  0.75000000  1
  Cs  Cs3  1  0.18423300  0.25390000  0.25000000  1
  Nb  Nb4  1  0.07787300  0.50000000  0.10463700  1
  Nb  Nb5  1  0.92212700  0.50000000  0.89536300  1
  Nb  Nb6  1  0.07787300  0.50000000  0.39536300  1
  Nb  Nb7  1  0.92212700  0.50000000  0.60463700  1
  Nb  Nb8  1  0.14449800  0.39295300  0.52918300  1
  Nb  Nb9  1  0.85550200  0.60704700  0.47081700  1
  Nb  Nb10  1  0.14449800  0.60704700  0.97081700  1
  Nb  Nb11  1  0.85550200  0.39295300  0.47081700  1
  Nb  Nb12  1  0.85550200  0.39295300  0.02918300  1
  Nb  Nb13  1  0.14449800  0.60704700  0.52918300  1
  Nb  Nb14  1  0.85550200  0.60704700  0.02918300  1
  Nb  Nb15  1  0.14449800  0.39295300  0.97081700  1
  Nb  Nb16  1  0.33166100  0.10737800  0.66889000  1
  Nb  Nb17  1  0.66833900  0.89262200  0.33111000  1
  Nb  Nb18  1  0.33166100  0.89262200  0.83111000  1
  Nb  Nb19  1  0.66833900  0.10737800  0.33111000  1
  Nb  Nb20  1  0.66833900  0.10737800  0.16889000  1
  Nb  Nb21  1  0.33166100  0.89262200  0.66889000  1
  Nb  Nb22  1  0.66833900  0.89262200  0.16889000  1
  Nb  Nb23  1  0.33166100  0.10737800  0.83111000  1
  Nb  Nb24  1  0.54617000  0.00000000  0.75000000  1
  Nb  Nb25  1  0.45383000  0.00000000  0.25000000  1
  Nb  Nb26  1  0.11904400  0.00000000  0.75000000  1
  Nb  Nb27  1  0.88095600  0.00000000  0.25000000  1
  Cl  Cl28  1  0.32876800  0.25038200  0.56639200  1
  Cl  Cl29  1  0.67123200  0.74961800  0.43360800  1
  Cl  Cl30  1  0.32876800  0.74961800  0.93360800  1
  Cl  Cl31  1  0.67123200  0.25038200  0.43360800  1
  Cl  Cl32  1  0.67123200  0.25038200  0.06639200  1
  Cl  Cl33  1  0.32876800  0.74961800  0.56639200  1
  Cl  Cl34  1  0.67123200  0.74961800  0.06639200  1
  Cl  Cl35  1  0.32876800  0.25038200  0.93360800  1
  Cl  Cl36  1  0.07971300  0.37869200  0.65850800  1
  Cl  Cl37  1  0.92028700  0.62130800  0.34149200  1
  Cl  Cl38  1  0.07971300  0.62130800  0.84149200  1
  Cl  Cl39  1  0.92028700  0.37869200  0.34149200  1
  Cl  Cl40  1  0.92028700  0.37869200  0.15850800  1
  Cl  Cl41  1  0.07971300  0.62130800  0.65850800  1
  Cl  Cl42  1  0.92028700  0.62130800  0.15850800  1
  Cl  Cl43  1  0.07971300  0.37869200  0.84149200  1
  Cl  Cl44  1  0.58697000  0.12048400  0.65107800  1
  Cl  Cl45  1  0.41303000  0.87951600  0.34892200  1
  Cl  Cl46  1  0.58697000  0.87951600  0.84892200  1
  Cl  Cl47  1  0.41303000  0.12048400  0.34892200  1
  Cl  Cl48  1  0.41303000  0.12048400  0.15107800  1
  Cl  Cl49  1  0.58697000  0.87951600  0.65107800  1
  Cl  Cl50  1  0.41303000  0.87951600  0.15107800  1
  Cl  Cl51  1  0.58697000  0.12048400  0.84892200  1
  Cl  Cl52  1  0.33696200  0.50000000  0.56820800  1
  Cl  Cl53  1  0.66303800  0.50000000  0.43179200  1
  Cl  Cl54  1  0.33696200  0.50000000  0.93179200  1
  Cl  Cl55  1  0.66303800  0.50000000  0.06820800  1
  Cl  Cl56  1  0.34289300  0.24982300  0.75000000  1
  Cl  Cl57  1  0.65710700  0.75017700  0.25000000  1
  Cl  Cl58  1  0.34289300  0.75017700  0.75000000  1
  Cl  Cl59  1  0.65710700  0.24982300  0.25000000  1
  Cl  Cl60  1  0.32958800  0.00000000  0.56116200  1
  Cl  Cl61  1  0.67041200  0.00000000  0.43883800  1
  Cl  Cl62  1  0.32958800  0.00000000  0.93883800  1
  Cl  Cl63  1  0.67041200  0.00000000  0.06116200  1
  Cl  Cl64  1  0.81840300  0.50000000  0.75000000  1
  Cl  Cl65  1  0.18159700  0.50000000  0.25000000  1
  Cl  Cl66  1  0.83159700  0.00000000  0.75000000  1
  Cl  Cl67  1  0.16840300  0.00000000  0.25000000  1
  Cl  Cl68  1  0.26569900  0.37740200  0.09017200  1
  Cl  Cl69  1  0.73430100  0.62259800  0.90982800  1
  Cl  Cl70  1  0.26569900  0.62259800  0.40982800  1
  Cl  Cl71  1  0.73430100  0.37740200  0.90982800  1
  Cl  Cl72  1  0.73430100  0.37740200  0.59017200  1
  Cl  Cl73  1  0.26569900  0.62259800  0.09017200  1
  Cl  Cl74  1  0.73430100  0.62259800  0.59017200  1
  Cl  Cl75  1  0.26569900  0.37740200  0.40982800  1
  Cl  Cl76  1  0.07661200  0.12206400  0.65438000  1
  Cl  Cl77  1  0.92338800  0.87793600  0.34562000  1
  Cl  Cl78  1  0.07661200  0.87793600  0.84562000  1
  Cl  Cl79  1  0.92338800  0.12206400  0.34562000  1
  Cl  Cl80  1  0.92338800  0.12206400  0.15438000  1
  Cl  Cl81  1  0.07661200  0.87793600  0.65438000  1
  Cl  Cl82  1  0.92338800  0.87793600  0.15438000  1
  Cl  Cl83  1  0.07661200  0.12206400  0.84562000  1
  Cl  Cl84  1  0.00000000  0.25090300  0.50000000  1
  Cl  Cl85  1  0.00000000  0.74909700  0.50000000  1
  Cl  Cl86  1  0.00000000  0.74909700  0.00000000  1
  Cl  Cl87  1  0.00000000  0.25090300  0.00000000  1
