# generated using pymatgen
data_RbReN2
_symmetry_space_group_name_H-M   'P 1'
_cell_length_a   6.24500700
_cell_length_b   8.10647700
_cell_length_c   12.35684300
_cell_angle_alpha   90.00000000
_cell_angle_beta   90.00000000
_cell_angle_gamma   90.00000000
_symmetry_Int_Tables_number   1
_chemical_formula_structural   RbReN2
_chemical_formula_sum   'Rb8 Re8 N16'
_cell_volume   625.56524620
_cell_formula_units_Z   8
loop_
 _symmetry_equiv_pos_site_id
 _symmetry_equiv_pos_as_xyz
  1  'x, y, z'
loop_
 _atom_site_type_symbol
 _atom_site_label
 _atom_site_symmetry_multiplicity
 _atom_site_fract_x
 _atom_site_fract_y
 _atom_site_fract_z
 _atom_site_occupancy
  Rb  Rb0  1  0.75000000  0.13027900  0.00000000  1
  Rb  Rb1  1  0.25000000  0.86972100  0.50000000  1
  Rb  Rb2  1  0.25000000  0.86972100  0.00000000  1
  Rb  Rb3  1  0.75000000  0.13027900  0.50000000  1
  Rb  Rb4  1  0.60352600  0.38462600  0.25000000  1
  Rb  Rb5  1  0.10352600  0.61537400  0.25000000  1
  Rb  Rb6  1  0.39647400  0.61537400  0.75000000  1
  Rb  Rb7  1  0.89647400  0.38462600  0.75000000  1
  Re  Re8  1  0.25000000  0.37075200  0.00000000  1
  Re  Re9  1  0.75000000  0.62924800  0.50000000  1
  Re  Re10  1  0.75000000  0.62924800  0.00000000  1
  Re  Re11  1  0.25000000  0.37075200  0.50000000  1
  Re  Re12  1  0.15525300  0.11719200  0.25000000  1
  Re  Re13  1  0.65525300  0.88280800  0.25000000  1
  Re  Re14  1  0.84474700  0.88280800  0.75000000  1
  Re  Re15  1  0.34474700  0.11719200  0.75000000  1
  N  N16  1  0.86218100  0.05331500  0.25000000  1
  N  N17  1  0.36218100  0.94668500  0.25000000  1
  N  N18  1  0.13781900  0.94668500  0.75000000  1
  N  N19  1  0.63781900  0.05331500  0.75000000  1
  N  N20  1  0.20999500  0.23710600  0.37634400  1
  N  N21  1  0.70999500  0.76289400  0.12365600  1
  N  N22  1  0.79000500  0.76289400  0.87634400  1
  N  N23  1  0.29000500  0.23710600  0.62365600  1
  N  N24  1  0.79000500  0.76289400  0.62365600  1
  N  N25  1  0.29000500  0.23710600  0.87634400  1
  N  N26  1  0.20999500  0.23710600  0.12365600  1
  N  N27  1  0.70999500  0.76289400  0.37634400  1
  N  N28  1  0.50000000  0.50000000  0.50000000  1
  N  N29  1  0.00000000  0.50000000  0.00000000  1
  N  N30  1  0.50000000  0.50000000  0.00000000  1
  N  N31  1  0.00000000  0.50000000  0.50000000  1
