# generated using pymatgen
data_Pr12Ni6Pb
_symmetry_space_group_name_H-M   'P 1'
_cell_length_a   8.81456244
_cell_length_b   8.81456244
_cell_length_c   8.81456244
_cell_angle_alpha   109.47122063
_cell_angle_beta   109.47122063
_cell_angle_gamma   109.47122063
_symmetry_Int_Tables_number   1
_chemical_formula_structural   Pr12Ni6Pb
_chemical_formula_sum   'Pr12 Ni6 Pb1'
_cell_volume   527.20605013
_cell_formula_units_Z   1
loop_
 _symmetry_equiv_pos_site_id
 _symmetry_equiv_pos_as_xyz
  1  'x, y, z'
loop_
 _atom_site_type_symbol
 _atom_site_label
 _atom_site_symmetry_multiplicity
 _atom_site_fract_x
 _atom_site_fract_y
 _atom_site_fract_z
 _atom_site_occupancy
  Pr  Pr0  1  0.81453300  0.69073200  0.50526500  1
  Pr  Pr1  1  0.18546700  0.30926800  0.49473500  1
  Pr  Pr2  1  0.18546700  0.69073200  0.87619900  1
  Pr  Pr3  1  0.81453300  0.30926800  0.12380100  1
  Pr  Pr4  1  0.69073200  0.50526500  0.81453300  1
  Pr  Pr5  1  0.30926800  0.49473500  0.18546700  1
  Pr  Pr6  1  0.69073200  0.87619900  0.18546700  1
  Pr  Pr7  1  0.30926800  0.12380100  0.81453300  1
  Pr  Pr8  1  0.50526500  0.81453300  0.69073200  1
  Pr  Pr9  1  0.49473500  0.18546700  0.30926800  1
  Pr  Pr10  1  0.12380100  0.81453300  0.30926800  1
  Pr  Pr11  1  0.87619900  0.18546700  0.69073200  1
  Ni  Ni12  1  0.88021300  0.38021300  0.50000000  1
  Ni  Ni13  1  0.11978700  0.61978700  0.50000000  1
  Ni  Ni14  1  0.38021300  0.50000000  0.88021300  1
  Ni  Ni15  1  0.61978700  0.50000000  0.11978700  1
  Ni  Ni16  1  0.50000000  0.88021300  0.38021300  1
  Ni  Ni17  1  0.50000000  0.11978700  0.61978700  1
  Pb  Pb18  1  0.00000000  0.00000000  0.00000000  1
