# generated using pymatgen
data_Na3Tb(PO4)2
_symmetry_space_group_name_H-M   'P 1'
_cell_length_a   5.33994100
_cell_length_b   13.97359100
_cell_length_c   18.59969400
_cell_angle_alpha   90.00000000
_cell_angle_beta   90.00000000
_cell_angle_gamma   90.00000000
_symmetry_Int_Tables_number   1
_chemical_formula_structural   Na3Tb(PO4)2
_chemical_formula_sum   'Na24 Tb8 P16 O64'
_cell_volume   1387.87478471
_cell_formula_units_Z   8
loop_
 _symmetry_equiv_pos_site_id
 _symmetry_equiv_pos_as_xyz
  1  'x, y, z'
loop_
 _atom_site_type_symbol
 _atom_site_label
 _atom_site_symmetry_multiplicity
 _atom_site_fract_x
 _atom_site_fract_y
 _atom_site_fract_z
 _atom_site_occupancy
  Na  Na0  1  0.00810700  0.78247000  0.50841200  1
  Na  Na1  1  0.99189300  0.21753000  0.00841200  1
  Na  Na2  1  0.99189300  0.28247000  0.50841200  1
  Na  Na3  1  0.00810700  0.71753000  0.00841200  1
  Na  Na4  1  0.00823300  0.04759800  0.85064600  1
  Na  Na5  1  0.99176700  0.95240200  0.35064600  1
  Na  Na6  1  0.99176700  0.54759800  0.85064600  1
  Na  Na7  1  0.00823300  0.45240200  0.35064600  1
  Na  Na8  1  0.00337000  0.13901100  0.67218300  1
  Na  Na9  1  0.99663000  0.86098900  0.17218300  1
  Na  Na10  1  0.99663000  0.63901100  0.67218300  1
  Na  Na11  1  0.00337000  0.36098900  0.17218300  1
  Na  Na12  1  0.51993900  0.20300800  0.77088100  1
  Na  Na13  1  0.48006100  0.79699200  0.27088100  1
  Na  Na14  1  0.48006100  0.70300800  0.77088100  1
  Na  Na15  1  0.51993900  0.29699200  0.27088100  1
  Na  Na16  1  0.46262000  0.03096100  0.61175600  1
  Na  Na17  1  0.53738000  0.96903900  0.11175600  1
  Na  Na18  1  0.53738000  0.53096100  0.61175600  1
  Na  Na19  1  0.46262000  0.46903900  0.11175600  1
  Na  Na20  1  0.49992500  0.11158900  0.95073700  1
  Na  Na21  1  0.50007500  0.88841100  0.45073700  1
  Na  Na22  1  0.50007500  0.61158900  0.95073700  1
  Na  Na23  1  0.49992500  0.38841100  0.45073700  1
  Tb  Tb24  1  0.07011200  0.38870700  0.69593800  1
  Tb  Tb25  1  0.92988800  0.61129300  0.19593800  1
  Tb  Tb26  1  0.92988800  0.88870700  0.69593800  1
  Tb  Tb27  1  0.07011200  0.11129300  0.19593800  1
  Tb  Tb28  1  0.44593900  0.36154000  0.92706100  1
  Tb  Tb29  1  0.55406100  0.63846000  0.42706100  1
  Tb  Tb30  1  0.55406100  0.86154000  0.92706100  1
  Tb  Tb31  1  0.44593900  0.13846000  0.42706100  1
  P  P32  1  0.02942900  0.52437500  0.51936400  1
  P  P33  1  0.97057100  0.47562500  0.01936400  1
  P  P34  1  0.97057100  0.02437500  0.51936400  1
  P  P35  1  0.02942900  0.97562500  0.01936400  1
  P  P36  1  0.00650300  0.77658300  0.84729400  1
  P  P37  1  0.99349700  0.22341700  0.34729400  1
  P  P38  1  0.99349700  0.27658300  0.84729400  1
  P  P39  1  0.00650300  0.72341700  0.34729400  1
  P  P40  1  0.51898400  0.47402500  0.77514200  1
  P  P41  1  0.48101600  0.52597500  0.27514200  1
  P  P42  1  0.48101600  0.97402500  0.77514200  1
  P  P43  1  0.51898400  0.02597500  0.27514200  1
  P  P44  1  0.53793700  0.27304800  0.60346100  1
  P  P45  1  0.46206300  0.72695200  0.10346100  1
  P  P46  1  0.46206300  0.77304800  0.60346100  1
  P  P47  1  0.53793700  0.22695200  0.10346100  1
  O  O48  1  0.42633300  0.19183900  0.64905500  1
  O  O49  1  0.57366700  0.80816100  0.14905500  1
  O  O50  1  0.57366700  0.69183900  0.64905500  1
  O  O51  1  0.42633300  0.30816100  0.14905500  1
  O  O52  1  0.30098300  0.52830200  0.73690600  1
  O  O53  1  0.69901700  0.47169800  0.23690600  1
  O  O54  1  0.69901700  0.02830200  0.73690600  1
  O  O55  1  0.30098300  0.97169800  0.23690600  1
  O  O56  1  0.12253600  0.11825900  0.50600700  1
  O  O57  1  0.87746400  0.88174100  0.00600700  1
  O  O58  1  0.87746400  0.61825900  0.50600700  1
  O  O59  1  0.12253600  0.38174100  0.00600700  1
  O  O60  1  0.20855000  0.22333700  0.88805600  1
  O  O61  1  0.79145000  0.77666300  0.38805600  1
  O  O62  1  0.79145000  0.72333700  0.88805600  1
  O  O63  1  0.20855000  0.27666300  0.38805600  1
  O  O64  1  0.31200800  0.54079900  0.50004500  1
  O  O65  1  0.68799200  0.45920100  0.00004500  1
  O  O66  1  0.68799200  0.04079900  0.50004500  1
  O  O67  1  0.31200800  0.95920100  0.00004500  1
  O  O68  1  0.08008300  0.55753500  0.97351000  1
  O  O69  1  0.91991700  0.44246500  0.47351000  1
  O  O70  1  0.91991700  0.05753500  0.97351000  1
  O  O71  1  0.08008300  0.94246500  0.47351000  1
  O  O72  1  0.22916800  0.00054300  0.73834800  1
  O  O73  1  0.77083200  0.99945700  0.23834800  1
  O  O74  1  0.77083200  0.50054300  0.73834800  1
  O  O75  1  0.22916800  0.49945700  0.23834800  1
  O  O76  1  0.38447500  0.36705000  0.61432900  1
  O  O77  1  0.61552500  0.63295000  0.11432900  1
  O  O78  1  0.61552500  0.86705000  0.61432900  1
  O  O79  1  0.38447500  0.13295000  0.11432900  1
  O  O80  1  0.46387200  0.36580800  0.76882200  1
  O  O81  1  0.53612800  0.63419200  0.26882200  1
  O  O82  1  0.53612800  0.86580800  0.76882200  1
  O  O83  1  0.46387200  0.13419200  0.26882200  1
  O  O84  1  0.04730800  0.38487300  0.85235400  1
  O  O85  1  0.95269200  0.61512700  0.35235400  1
  O  O86  1  0.95269200  0.88487300  0.85235400  1
  O  O87  1  0.04730800  0.11512700  0.35235400  1
  O  O88  1  0.18143300  0.79085900  0.62518300  1
  O  O89  1  0.81856700  0.20914100  0.12518300  1
  O  O90  1  0.81856700  0.29085900  0.62518300  1
  O  O91  1  0.18143300  0.70914100  0.12518300  1
  O  O92  1  0.00829300  0.74613800  0.76683600  1
  O  O93  1  0.99170700  0.25386200  0.26683600  1
  O  O94  1  0.99170700  0.24613800  0.76683600  1
  O  O95  1  0.00829300  0.75386200  0.26683600  1
  O  O96  1  0.47226300  0.00266100  0.85609700  1
  O  O97  1  0.52773700  0.99733900  0.35609700  1
  O  O98  1  0.52773700  0.50266100  0.85609700  1
  O  O99  1  0.47226300  0.49733900  0.35609700  1
  O  O100  1  0.99468400  0.00216000  0.60131600  1
  O  O101  1  0.00531600  0.99784000  0.10131600  1
  O  O102  1  0.00531600  0.50216000  0.60131600  1
  O  O103  1  0.99468400  0.49784000  0.10131600  1
  O  O104  1  0.73890200  0.24974400  0.88233600  1
  O  O105  1  0.26109800  0.75025600  0.38233600  1
  O  O106  1  0.26109800  0.74974400  0.88233600  1
  O  O107  1  0.73890200  0.25025600  0.38233600  1
  O  O108  1  0.53285100  0.24979800  0.52132400  1
  O  O109  1  0.46714900  0.75020200  0.02132400  1
  O  O110  1  0.46714900  0.74979800  0.52132400  1
  O  O111  1  0.53285100  0.25020200  0.02132400  1
