# generated using pymatgen
data_Cs3Y2Cl9
_symmetry_space_group_name_H-M   'P 1'
_cell_length_a   10.00876729
_cell_length_b   10.00876729
_cell_length_c   10.00876736
_cell_angle_alpha   84.05498397
_cell_angle_beta   84.05498397
_cell_angle_gamma   84.05498891
_symmetry_Int_Tables_number   1
_chemical_formula_structural   Cs3Y2Cl9
_chemical_formula_sum   'Cs6 Y4 Cl18'
_cell_volume   987.49858778
_cell_formula_units_Z   2
loop_
 _symmetry_equiv_pos_site_id
 _symmetry_equiv_pos_as_xyz
  1  'x, y, z'
loop_
 _atom_site_type_symbol
 _atom_site_label
 _atom_site_symmetry_multiplicity
 _atom_site_fract_x
 _atom_site_fract_y
 _atom_site_fract_z
 _atom_site_occupancy
  Cs  Cs0  1  0.41059600  0.08940400  0.75000000  1
  Cs  Cs1  1  0.75000000  0.41059600  0.08940400  1
  Cs  Cs2  1  0.08940400  0.75000000  0.41059600  1
  Cs  Cs3  1  0.25000000  0.58940400  0.91059600  1
  Cs  Cs4  1  0.91059600  0.25000000  0.58940400  1
  Cs  Cs5  1  0.58940400  0.91059600  0.25000000  1
  Y  Y6  1  0.84938200  0.84938200  0.84938200  1
  Y  Y7  1  0.34938200  0.34938200  0.34938200  1
  Y  Y8  1  0.15061800  0.15061800  0.15061800  1
  Y  Y9  1  0.65061800  0.65061800  0.65061800  1
  Cl  Cl10  1  0.25000000  0.10012100  0.39987900  1
  Cl  Cl11  1  0.39987900  0.25000000  0.10012100  1
  Cl  Cl12  1  0.10012100  0.39987900  0.25000000  1
  Cl  Cl13  1  0.89987900  0.60012100  0.75000000  1
  Cl  Cl14  1  0.75000000  0.89987900  0.60012100  1
  Cl  Cl15  1  0.60012100  0.75000000  0.89987900  1
  Cl  Cl16  1  0.57684800  0.23537600  0.41847100  1
  Cl  Cl17  1  0.41847100  0.57684800  0.23537600  1
  Cl  Cl18  1  0.23537600  0.41847100  0.57684800  1
  Cl  Cl19  1  0.91847100  0.73537600  0.07684800  1
  Cl  Cl20  1  0.07684800  0.91847100  0.73537600  1
  Cl  Cl21  1  0.73537600  0.07684800  0.91847100  1
  Cl  Cl22  1  0.42315200  0.76462400  0.58152900  1
  Cl  Cl23  1  0.58152900  0.42315200  0.76462400  1
  Cl  Cl24  1  0.76462400  0.58152900  0.42315200  1
  Cl  Cl25  1  0.08152900  0.26462400  0.92315200  1
  Cl  Cl26  1  0.92315200  0.08152900  0.26462400  1
  Cl  Cl27  1  0.26462400  0.92315200  0.08152900  1
