# generated using pymatgen
data_CaTlBr3
_symmetry_space_group_name_H-M   'P 1'
_cell_length_a   7.57100891
_cell_length_b   7.57100891
_cell_length_c   10.92747500
_cell_angle_alpha   90.00000000
_cell_angle_beta   90.00000000
_cell_angle_gamma   146.84714442
_symmetry_Int_Tables_number   1
_chemical_formula_structural   CaTlBr3
_chemical_formula_sum   'Ca2 Tl2 Br6'
_cell_volume   342.54294800
_cell_formula_units_Z   2
loop_
 _symmetry_equiv_pos_site_id
 _symmetry_equiv_pos_as_xyz
  1  'x, y, z'
loop_
 _atom_site_type_symbol
 _atom_site_label
 _atom_site_symmetry_multiplicity
 _atom_site_fract_x
 _atom_site_fract_y
 _atom_site_fract_z
 _atom_site_occupancy
  Ca  Ca0  1  0.00000000  0.00000000  0.00000000  1
  Ca  Ca1  1  0.00000000  0.00000000  0.50000000  1
  Tl  Tl2  1  0.25437500  0.74562500  0.25000000  1
  Tl  Tl3  1  0.74562500  0.25437500  0.75000000  1
  Br  Br4  1  0.63123800  0.36876200  0.05156300  1
  Br  Br5  1  0.36876200  0.63123800  0.94843700  1
  Br  Br6  1  0.36876200  0.63123800  0.55156300  1
  Br  Br7  1  0.63123800  0.36876200  0.44843700  1
  Br  Br8  1  0.92831100  0.07168900  0.25000000  1
  Br  Br9  1  0.07168900  0.92831100  0.75000000  1
