# generated using pymatgen
data_PrUN2
_symmetry_space_group_name_H-M   'P 1'
_cell_length_a   6.18379641
_cell_length_b   6.18379641
_cell_length_c   6.18379713
_cell_angle_alpha   33.21159674
_cell_angle_beta   33.21159674
_cell_angle_gamma   33.21158875
_symmetry_Int_Tables_number   1
_chemical_formula_structural   PrUN2
_chemical_formula_sum   'Pr1 U1 N2'
_cell_volume   63.15385477
_cell_formula_units_Z   1
loop_
 _symmetry_equiv_pos_site_id
 _symmetry_equiv_pos_as_xyz
  1  'x, y, z'
loop_
 _atom_site_type_symbol
 _atom_site_label
 _atom_site_symmetry_multiplicity
 _atom_site_fract_x
 _atom_site_fract_y
 _atom_site_fract_z
 _atom_site_occupancy
  Pr  Pr0  1  0.00000000  0.00000000  0.00000000  1
  U  U1  1  0.50000000  0.50000000  0.50000000  1
  N  N2  1  0.23405100  0.23405100  0.23405100  1
  N  N3  1  0.76594900  0.76594900  0.76594900  1
