# generated using pymatgen
data_BaMg2Si2O7
_symmetry_space_group_name_H-M   'P 1'
_cell_length_a   7.40411867
_cell_length_b   7.40411867
_cell_length_c   13.90877424
_cell_angle_alpha   89.88573257
_cell_angle_beta   89.88573257
_cell_angle_gamma   120.47339928
_symmetry_Int_Tables_number   1
_chemical_formula_structural   BaMg2Si2O7
_chemical_formula_sum   'Ba4 Mg8 Si8 O28'
_cell_volume   657.16010313
_cell_formula_units_Z   4
loop_
 _symmetry_equiv_pos_site_id
 _symmetry_equiv_pos_as_xyz
  1  'x, y, z'
loop_
 _atom_site_type_symbol
 _atom_site_label
 _atom_site_symmetry_multiplicity
 _atom_site_fract_x
 _atom_site_fract_y
 _atom_site_fract_z
 _atom_site_occupancy
  Ba  Ba0  1  0.81489000  0.78208400  0.12063500  1
  Ba  Ba1  1  0.21791600  0.18511000  0.37936500  1
  Ba  Ba2  1  0.18511000  0.21791600  0.87936500  1
  Ba  Ba3  1  0.78208400  0.81489000  0.62063500  1
  Mg  Mg4  1  0.76889200  0.23110800  0.25000000  1
  Mg  Mg5  1  0.23110800  0.76889200  0.75000000  1
  Mg  Mg6  1  0.22923200  0.77076800  0.25000000  1
  Mg  Mg7  1  0.77076800  0.22923200  0.75000000  1
  Mg  Mg8  1  0.19723300  0.72737000  0.50878100  1
  Mg  Mg9  1  0.27263000  0.80276700  0.99121900  1
  Mg  Mg10  1  0.80276700  0.27263000  0.49121900  1
  Mg  Mg11  1  0.72737000  0.19723300  0.00878100  1
  Si  Si12  1  0.58850400  0.84091700  0.36634200  1
  Si  Si13  1  0.15908300  0.41149600  0.13365800  1
  Si  Si14  1  0.41149600  0.15908300  0.63365800  1
  Si  Si15  1  0.84091700  0.58850400  0.86634200  1
  Si  Si16  1  0.78290400  0.57279900  0.37885600  1
  Si  Si17  1  0.42720100  0.21709600  0.12114400  1
  Si  Si18  1  0.21709600  0.42720100  0.62114400  1
  Si  Si19  1  0.57279900  0.78290400  0.87885600  1
  O  O20  1  0.35092900  0.79844100  0.38547000  1
  O  O21  1  0.20155900  0.64907100  0.11453000  1
  O  O22  1  0.64907100  0.20155900  0.61453000  1
  O  O23  1  0.79844100  0.35092900  0.88547000  1
  O  O24  1  0.94553600  0.71329800  0.29472700  1
  O  O25  1  0.28670200  0.05446400  0.20527300  1
  O  O26  1  0.05446400  0.28670200  0.70527300  1
  O  O27  1  0.71329800  0.94553600  0.79472700  1
  O  O28  1  0.89029300  0.61167600  0.48546100  1
  O  O29  1  0.38832400  0.10970700  0.01453900  1
  O  O30  1  0.10970700  0.38832400  0.51453900  1
  O  O31  1  0.61167600  0.89029300  0.98546100  1
  O  O32  1  0.67719900  0.31716600  0.36576400  1
  O  O33  1  0.68283400  0.32280100  0.13423600  1
  O  O34  1  0.32280100  0.68283400  0.63423600  1
  O  O35  1  0.31716600  0.67719900  0.86576400  1
  O  O36  1  0.57657500  0.60844100  0.37868700  1
  O  O37  1  0.39155900  0.42342500  0.12131300  1
  O  O38  1  0.42342500  0.39155900  0.62131300  1
  O  O39  1  0.60844100  0.57657500  0.87868700  1
  O  O40  1  0.63975700  0.92155700  0.25419500  1
  O  O41  1  0.07844300  0.36024300  0.24580500  1
  O  O42  1  0.36024300  0.07844300  0.74580500  1
  O  O43  1  0.92155700  0.63975700  0.75419500  1
  O  O44  1  0.76723200  0.99879300  0.44213400  1
  O  O45  1  0.00120700  0.23276800  0.05786600  1
  O  O46  1  0.23276800  0.00120700  0.55786600  1
  O  O47  1  0.99879300  0.76723200  0.94213400  1
