# generated using pymatgen
data_Nb2Al
_symmetry_space_group_name_H-M   'P 1'
_cell_length_a   10.00236600
_cell_length_b   10.00236600
_cell_length_c   5.20198100
_cell_angle_alpha   90.00000000
_cell_angle_beta   90.00000000
_cell_angle_gamma   90.00000000
_symmetry_Int_Tables_number   1
_chemical_formula_structural   Nb2Al
_chemical_formula_sum   'Nb20 Al10'
_cell_volume   520.44428686
_cell_formula_units_Z   10
loop_
 _symmetry_equiv_pos_site_id
 _symmetry_equiv_pos_as_xyz
  1  'x, y, z'
loop_
 _atom_site_type_symbol
 _atom_site_label
 _atom_site_symmetry_multiplicity
 _atom_site_fract_x
 _atom_site_fract_y
 _atom_site_fract_z
 _atom_site_occupancy
  Nb  Nb0  1  0.39654300  0.39654300  0.00000000  1
  Nb  Nb1  1  0.89654300  0.10345700  0.50000000  1
  Nb  Nb2  1  0.10345700  0.89654300  0.50000000  1
  Nb  Nb3  1  0.60345700  0.60345700  0.00000000  1
  Nb  Nb4  1  0.12788300  0.46490600  0.00000000  1
  Nb  Nb5  1  0.96490600  0.37211700  0.50000000  1
  Nb  Nb6  1  0.03509400  0.62788300  0.50000000  1
  Nb  Nb7  1  0.87211700  0.53509400  0.00000000  1
  Nb  Nb8  1  0.37211700  0.96490600  0.50000000  1
  Nb  Nb9  1  0.62788300  0.03509400  0.50000000  1
  Nb  Nb10  1  0.46490600  0.12788300  0.00000000  1
  Nb  Nb11  1  0.53509400  0.87211700  0.00000000  1
  Nb  Nb12  1  0.18176900  0.18176900  0.25225000  1
  Nb  Nb13  1  0.68176900  0.31823100  0.75225000  1
  Nb  Nb14  1  0.31823100  0.68176900  0.75225000  1
  Nb  Nb15  1  0.81823100  0.81823100  0.25225000  1
  Nb  Nb16  1  0.31823100  0.68176900  0.24775000  1
  Nb  Nb17  1  0.68176900  0.31823100  0.24775000  1
  Nb  Nb18  1  0.18176900  0.18176900  0.74775000  1
  Nb  Nb19  1  0.81823100  0.81823100  0.74775000  1
  Al  Al20  1  0.00000000  0.00000000  0.00000000  1
  Al  Al21  1  0.50000000  0.50000000  0.50000000  1
  Al  Al22  1  0.26155600  0.93319500  0.00000000  1
  Al  Al23  1  0.43319500  0.23844400  0.50000000  1
  Al  Al24  1  0.56680500  0.76155600  0.50000000  1
  Al  Al25  1  0.73844400  0.06680500  0.00000000  1
  Al  Al26  1  0.23844400  0.43319500  0.50000000  1
  Al  Al27  1  0.76155600  0.56680500  0.50000000  1
  Al  Al28  1  0.93319500  0.26155600  0.00000000  1
  Al  Al29  1  0.06680500  0.73844400  0.00000000  1
